MODEL 1
REMARK VINA RESULT:     -11.8      0.000      0.000
REMARK SMILES [NH3+][C@@H](CCCCC(=O)NCCCNC(=O)c1ccc(-c2c3nc(c(-c4c(F)cc(S(=O)(=O)[O-])cc4F)c4ccc([nH]4)c(-c4c(F)cc(S(=O)(=O)[O-])cc4F)c4nc(c(-c5c(F)cc(S(=O)(=O)[O-])cc5F)c5ccc2[nH]5)C=C4)C=C3)cc1)c1ccc2[nH]c(=O)[nH]c2c1
REMARK SMILES IDX 10 1 9 2 7 3 8 4 6 6 5 7 4 8 3 9 2 10 1 11 82 15 83 16 91 17
REMARK SMILES IDX 84 18 90 19 85 20 89 21 86 22 87 23 88 26 11 27 12 28 13 29
REMARK SMILES IDX 14 30 15 32 16 33 17 34 81 35 18 36 80 37 19 38 20 39 21 40
REMARK SMILES IDX 74 41 22 42 79 43 73 44 75 45 23 46 78 47 72 48 71 49 24 51
REMARK SMILES IDX 58 52 37 53 57 54 38 55 41 56 56 57 76 58 39 59 40 60 55 62
REMARK SMILES IDX 77 63 42 64 25 65 26 66 35 67 27 68 28 69 34 70 36 71 29 72
REMARK SMILES IDX 30 73 31 74 32 75 33 76 59 77 60 78 69 79 61 80 62 81 68 82
REMARK SMILES IDX 70 83 63 84 64 85 65 86 66 87 67 88 43 89 44 90 53 91 45 92
REMARK SMILES IDX 46 93 52 94 54 95 47 96 48 97 49 98 50 99 51 100
REMARK H PARENT 9 5 1 12 1 13 1 14 89 24 86 25 13 31 75 50 41 61
REMARK Flexibility Score: inf
ROOT
ATOM      1  C   UNL A   1      38.564  23.179  26.480  1.00  0.00     0.117 C 
ENDROOT
BRANCH   1   2
ATOM      2  N   UNL A   1      38.064  23.067  25.125  1.00  0.00    -0.356 N 
ATOM      3  C   UNL A   1      36.963  22.414  24.661  1.00  0.00     0.219 C 
ATOM      4  O   UNL A   1      36.785  22.361  23.443  1.00  0.00    -0.275 OA
ATOM      5  H   UNL A   1      38.599  23.530  24.440  1.00  0.00     0.163 HD
BRANCH   3   6
ATOM      6  C   UNL A   1      35.970  21.799  25.628  1.00  0.00     0.100 C 
BRANCH   6   7
ATOM      7  C   UNL A   1      35.130  22.819  26.400  1.00  0.00     0.010 C 
BRANCH   7   8
ATOM      8  C   UNL A   1      33.806  23.322  25.791  1.00  0.00     0.007 C 
BRANCH   8   9
ATOM      9  C   UNL A   1      33.235  22.604  24.552  1.00  0.00     0.070 C 
BRANCH   9  10
ATOM     10  C   UNL A   1      32.080  21.606  24.804  1.00  0.00     0.212 C 
BRANCH  10  11
ATOM     11  N   UNL A   1      31.572  21.721  26.171  1.00  0.00    -0.351 N 
ATOM     12  H   UNL A   1      31.476  22.708  26.416  1.00  0.00     0.345 HD
ATOM     13  H   UNL A   1      32.224  21.273  26.814  1.00  0.00     0.345 HD
ATOM     14  H   UNL A   1      30.662  21.265  26.235  1.00  0.00     0.345 HD
ENDBRANCH  10  11
BRANCH  10  15
ATOM     15  C   UNL A   1      32.498  20.198  24.413  1.00  0.00     0.011 A 
ATOM     16  C   UNL A   1      32.282  19.687  23.101  1.00  0.00     0.012 A 
ATOM     17  C   UNL A   1      32.966  19.337  25.427  1.00  0.00     0.038 A 
ATOM     18  C   UNL A   1      32.442  18.328  22.804  1.00  0.00     0.029 A 
ATOM     19  C   UNL A   1      33.094  18.008  25.113  1.00  0.00     0.067 A 
ATOM     20  C   UNL A   1      32.824  17.514  23.839  1.00  0.00     0.066 A 
ATOM     21  N   UNL A   1      33.411  16.931  25.933  1.00  0.00    -0.306 N 
ATOM     22  N   UNL A   1      32.966  16.132  23.877  1.00  0.00    -0.306 N 
ATOM     23  C   UNL A   1      33.324  15.749  25.180  1.00  0.00     0.323 A 
ATOM     24  H   UNL A   1      33.655  16.988  26.885  1.00  0.00     0.171 HD
ATOM     25  H   UNL A   1      32.836  15.522  23.117  1.00  0.00     0.171 HD
ATOM     26  O   UNL A   1      33.513  14.620  25.580  1.00  0.00    -0.248 OA
ENDBRANCH  10  15
ENDBRANCH   9  10
ENDBRANCH   8   9
ENDBRANCH   7   8
ENDBRANCH   6   7
ENDBRANCH   3   6
ENDBRANCH   1   2
BRANCH   1  27
ATOM     27  C   UNL A   1      39.760  22.263  26.694  1.00  0.00     0.042 C 
BRANCH  27  28
ATOM     28  C   UNL A   1      41.007  22.984  27.170  1.00  0.00     0.118 C 
BRANCH  28  29
ATOM     29  N   UNL A   1      41.677  23.696  26.095  1.00  0.00    -0.352 N 
ATOM     30  C   UNL A   1      41.956  25.035  25.963  1.00  0.00     0.251 C 
ATOM     31  H   UNL A   1      41.978  23.132  25.347  1.00  0.00     0.163 HD
ATOM     32  O   UNL A   1      42.359  25.454  24.880  1.00  0.00    -0.269 OA
BRANCH  30  33
ATOM     33  C   UNL A   1      41.757  25.972  27.094  1.00  0.00     0.039 A 
ATOM     34  C   UNL A   1      42.574  27.103  27.187  1.00  0.00     0.014 A 
ATOM     35  C   UNL A   1      40.800  25.731  28.084  1.00  0.00     0.014 A 
ATOM     36  C   UNL A   1      42.402  28.009  28.239  1.00  0.00     0.010 A 
ATOM     37  C   UNL A   1      40.560  26.683  29.069  1.00  0.00     0.010 A 
ATOM     38  C   UNL A   1      41.374  27.819  29.176  1.00  0.00    -0.014 A 
BRANCH  38  39
ATOM     39  C   UNL A   1      41.168  28.751  30.314  1.00  0.00     0.031 A 
ATOM     40  C   UNL A   1      42.038  28.631  31.539  1.00  0.00     0.074 A 
ATOM     41  C   UNL A   1      40.161  29.647  30.285  1.00  0.00     0.049 A 
ATOM     42  N   UNL A   1      41.944  29.250  32.687  1.00  0.00    -0.248 NA
ATOM     43  C   UNL A   1      43.137  27.654  31.475  1.00  0.00     0.031 C 
ATOM     44  C   UNL A   1      39.221  29.830  29.178  1.00  0.00     0.029 A 
ATOM     45  N   UNL A   1      39.753  30.561  31.222  1.00  0.00    -0.354 N 
ATOM     46  C   UNL A   1      42.944  28.712  33.490  1.00  0.00     0.074 A 
ATOM     47  C   UNL A   1      43.597  27.680  32.717  1.00  0.00     0.031 C 
ATOM     48  C   UNL A   1      38.358  30.809  29.491  1.00  0.00     0.029 A 
ATOM     49  C   UNL A   1      38.657  31.297  30.835  1.00  0.00     0.049 A 
ATOM     50  H   UNL A   1      40.201  30.680  32.091  1.00  0.00     0.167 HD
ATOM     51  C   UNL A   1      43.303  29.062  34.749  1.00  0.00     0.037 A 
ATOM     52  C   UNL A   1      37.967  32.250  31.491  1.00  0.00     0.037 A 
ATOM     53  C   UNL A   1      42.682  30.125  35.492  1.00  0.00     0.049 A 
ATOM     54  C   UNL A   1      38.406  32.651  32.874  1.00  0.00     0.074 A 
ATOM     55  C   UNL A   1      43.011  30.605  36.747  1.00  0.00     0.029 A 
ATOM     56  N   UNL A   1      41.608  30.880  35.044  1.00  0.00    -0.354 N 
ATOM     57  N   UNL A   1      39.382  32.164  33.601  1.00  0.00    -0.248 NA
ATOM     58  C   UNL A   1      37.655  33.735  33.521  1.00  0.00     0.031 C 
ATOM     59  C   UNL A   1      42.117  31.632  37.070  1.00  0.00     0.029 A 
ATOM     60  C   UNL A   1      41.257  31.818  35.999  1.00  0.00     0.049 A 
ATOM     61  H   UNL A   1      41.162  30.766  34.173  1.00  0.00     0.167 HD
ATOM     62  C   UNL A   1      39.381  32.899  34.781  1.00  0.00     0.074 A 
ATOM     63  C   UNL A   1      38.310  33.868  34.667  1.00  0.00     0.031 C 
ATOM     64  C   UNL A   1      40.194  32.783  35.860  1.00  0.00     0.037 A 
BRANCH  51  65
ATOM     65  C   UNL A   1      44.422  28.287  35.389  1.00  0.00     0.058 A 
ATOM     66  C   UNL A   1      44.177  27.146  36.171  1.00  0.00     0.135 A 
ATOM     67  C   UNL A   1      45.756  28.692  35.225  1.00  0.00     0.135 A 
ATOM     68  F   UNL A   1      42.920  26.723  36.374  1.00  0.00    -0.206 F 
ATOM     69  C   UNL A   1      45.210  26.462  36.804  1.00  0.00     0.059 A 
ATOM     70  C   UNL A   1      46.808  28.005  35.825  1.00  0.00     0.059 A 
ATOM     71  F   UNL A   1      46.049  29.774  34.487  1.00  0.00    -0.206 F 
ATOM     72  C   UNL A   1      46.522  26.904  36.632  1.00  0.00     0.060 A 
BRANCH  72  73
ATOM     73  S   UNL A   1      47.849  26.023  37.480  1.00  0.00     0.124 S 
ATOM     74  O   UNL A   1      47.826  26.659  38.793  1.00  0.00    -0.237 OA
ATOM     75  O   UNL A   1      47.385  24.640  37.439  1.00  0.00    -0.237 OA
ATOM     76  O   UNL A   1      49.023  26.311  36.663  1.00  0.00    -0.744 OA
ENDBRANCH  72  73
ENDBRANCH  51  65
BRANCH  52  77
ATOM     77  C   UNL A   1      36.812  32.910  30.829  1.00  0.00     0.058 A 
ATOM     78  C   UNL A   1      35.496  32.604  31.206  1.00  0.00     0.135 A 
ATOM     79  C   UNL A   1      36.999  33.887  29.838  1.00  0.00     0.135 A 
ATOM     80  F   UNL A   1      35.267  31.673  32.144  1.00  0.00    -0.206 F 
ATOM     81  C   UNL A   1      34.405  33.240  30.623  1.00  0.00     0.059 A 
ATOM     82  C   UNL A   1      35.925  34.552  29.257  1.00  0.00     0.059 A 
ATOM     83  F   UNL A   1      38.240  34.228  29.456  1.00  0.00    -0.206 F 
ATOM     84  C   UNL A   1      34.629  34.219  29.653  1.00  0.00     0.060 A 
BRANCH  84  85
ATOM     85  S   UNL A   1      33.209  35.093  28.959  1.00  0.00     0.124 S 
ATOM     86  O   UNL A   1      32.748  34.148  27.948  1.00  0.00    -0.237 OA
ATOM     87  O   UNL A   1      32.347  35.252  30.126  1.00  0.00    -0.237 OA
ATOM     88  O   UNL A   1      33.795  36.328  28.449  1.00  0.00    -0.744 OA
ENDBRANCH  84  85
ENDBRANCH  52  77
BRANCH  64  89
ATOM     89  C   UNL A   1      39.985  33.750  36.991  1.00  0.00     0.058 A 
ATOM     90  C   UNL A   1      40.669  34.973  37.050  1.00  0.00     0.135 A 
ATOM     91  C   UNL A   1      39.039  33.476  37.992  1.00  0.00     0.135 A 
ATOM     92  F   UNL A   1      41.588  35.279  36.119  1.00  0.00    -0.206 F 
ATOM     93  C   UNL A   1      40.434  35.887  38.072  1.00  0.00     0.059 A 
ATOM     94  C   UNL A   1      38.771  34.383  39.010  1.00  0.00     0.059 A 
ATOM     95  F   UNL A   1      38.351  32.323  37.974  1.00  0.00    -0.206 F 
ATOM     96  C   UNL A   1      39.481  35.584  39.047  1.00  0.00     0.060 A 
BRANCH  96  97
ATOM     97  S   UNL A   1      39.152  36.795  40.343  1.00  0.00     0.124 S 
ATOM     98  O   UNL A   1      38.311  36.027  41.255  1.00  0.00    -0.237 OA
ATOM     99  O   UNL A   1      40.493  37.107  40.829  1.00  0.00    -0.237 OA
ATOM    100  O   UNL A   1      38.482  37.880  39.633  1.00  0.00    -0.744 OA
ENDBRANCH  96  97
ENDBRANCH  64  89
ENDBRANCH  38  39
ENDBRANCH  30  33
ENDBRANCH  28  29
ENDBRANCH  27  28
ENDBRANCH   1  27
TORSDOF 19
ENDMDL
MODEL 2
REMARK VINA RESULT:     -11.8      7.094     12.682
REMARK SMILES [NH3+][C@@H](CCCCC(=O)NCCCNC(=O)c1ccc(-c2c3nc(c(-c4c(F)cc(S(=O)(=O)[O-])cc4F)c4ccc([nH]4)c(-c4c(F)cc(S(=O)(=O)[O-])cc4F)c4nc(c(-c5c(F)cc(S(=O)(=O)[O-])cc5F)c5ccc2[nH]5)C=C4)C=C3)cc1)c1ccc2[nH]c(=O)[nH]c2c1
REMARK SMILES IDX 10 1 9 2 7 3 8 4 6 6 5 7 4 8 3 9 2 10 1 11 82 15 83 16 91 17
REMARK SMILES IDX 84 18 90 19 85 20 89 21 86 22 87 23 88 26 11 27 12 28 13 29
REMARK SMILES IDX 14 30 15 32 16 33 17 34 81 35 18 36 80 37 19 38 20 39 21 40
REMARK SMILES IDX 74 41 22 42 79 43 73 44 75 45 23 46 78 47 72 48 71 49 24 51
REMARK SMILES IDX 58 52 37 53 57 54 38 55 41 56 56 57 76 58 39 59 40 60 55 62
REMARK SMILES IDX 77 63 42 64 25 65 26 66 35 67 27 68 28 69 34 70 36 71 29 72
REMARK SMILES IDX 30 73 31 74 32 75 33 76 59 77 60 78 69 79 61 80 62 81 68 82
REMARK SMILES IDX 70 83 63 84 64 85 65 86 66 87 67 88 43 89 44 90 53 91 45 92
REMARK SMILES IDX 46 93 52 94 54 95 47 96 48 97 49 98 50 99 51 100
REMARK H PARENT 9 5 1 12 1 13 1 14 89 24 86 25 13 31 75 50 41 61
REMARK Flexibility Score: inf
ROOT
ATOM      1  C   UNL A   1      33.586  30.043  26.852  1.00  0.00     0.117 C 
ENDROOT
BRANCH   1   2
ATOM      2  N   UNL A   1      33.623  29.423  25.543  1.00  0.00    -0.356 N 
ATOM      3  C   UNL A   1      33.338  28.140  25.186  1.00  0.00     0.219 C 
ATOM      4  O   UNL A   1      33.540  27.800  24.019  1.00  0.00    -0.275 OA
ATOM      5  H   UNL A   1      33.892  30.016  24.805  1.00  0.00     0.163 HD
BRANCH   3   6
ATOM      6  C   UNL A   1      32.756  27.172  26.197  1.00  0.00     0.100 C 
BRANCH   6   7
ATOM      7  C   UNL A   1      31.293  26.801  25.945  1.00  0.00     0.010 C 
BRANCH   7   8
ATOM      8  C   UNL A   1      30.965  25.583  25.059  1.00  0.00     0.007 C 
BRANCH   8   9
ATOM      9  C   UNL A   1      29.975  25.757  23.890  1.00  0.00     0.070 C 
BRANCH   9  10
ATOM     10  C   UNL A   1      28.836  26.783  24.097  1.00  0.00     0.212 C 
BRANCH  10  11
ATOM     11  N   UNL A   1      27.524  26.144  23.985  1.00  0.00    -0.351 N 
ATOM     12  H   UNL A   1      26.830  26.704  24.480  1.00  0.00     0.345 HD
ATOM     13  H   UNL A   1      27.565  25.211  24.396  1.00  0.00     0.345 HD
ATOM     14  H   UNL A   1      27.264  26.072  23.001  1.00  0.00     0.345 HD
ENDBRANCH  10  11
BRANCH  10  15
ATOM     15  C   UNL A   1      29.023  27.980  23.179  1.00  0.00     0.011 A 
ATOM     16  C   UNL A   1      30.303  28.344  22.673  1.00  0.00     0.012 A 
ATOM     17  C   UNL A   1      27.920  28.831  22.961  1.00  0.00     0.038 A 
ATOM     18  C   UNL A   1      30.521  29.570  22.031  1.00  0.00     0.029 A 
ATOM     19  C   UNL A   1      28.166  30.033  22.347  1.00  0.00     0.067 A 
ATOM     20  C   UNL A   1      29.436  30.400  21.909  1.00  0.00     0.066 A 
ATOM     21  N   UNL A   1      27.306  31.102  22.118  1.00  0.00    -0.306 N 
ATOM     22  N   UNL A   1      29.360  31.697  21.417  1.00  0.00    -0.306 N 
ATOM     23  C   UNL A   1      28.039  32.155  21.547  1.00  0.00     0.323 A 
ATOM     24  H   UNL A   1      26.344  31.117  22.323  1.00  0.00     0.171 HD
ATOM     25  H   UNL A   1      30.109  32.211  21.040  1.00  0.00     0.171 HD
ATOM     26  O   UNL A   1      27.614  33.248  21.238  1.00  0.00    -0.248 OA
ENDBRANCH  10  15
ENDBRANCH   9  10
ENDBRANCH   8   9
ENDBRANCH   7   8
ENDBRANCH   6   7
ENDBRANCH   3   6
ENDBRANCH   1   2
BRANCH   1  27
ATOM     27  C   UNL A   1      34.893  29.814  27.596  1.00  0.00     0.042 C 
BRANCH  27  28
ATOM     28  C   UNL A   1      35.517  31.083  28.145  1.00  0.00     0.118 C 
BRANCH  28  29
ATOM     29  N   UNL A   1      35.479  31.135  29.596  1.00  0.00    -0.352 N 
ATOM     30  C   UNL A   1      36.399  30.702  30.520  1.00  0.00     0.251 C 
ATOM     31  H   UNL A   1      34.667  31.544  29.976  1.00  0.00     0.163 HD
ATOM     32  O   UNL A   1      36.079  30.666  31.706  1.00  0.00    -0.269 OA
BRANCH  30  33
ATOM     33  C   UNL A   1      37.752  30.262  30.101  1.00  0.00     0.039 A 
ATOM     34  C   UNL A   1      38.634  29.777  31.072  1.00  0.00     0.014 A 
ATOM     35  C   UNL A   1      38.174  30.357  28.773  1.00  0.00     0.014 A 
ATOM     36  C   UNL A   1      39.914  29.347  30.704  1.00  0.00     0.010 A 
ATOM     37  C   UNL A   1      39.405  29.833  28.392  1.00  0.00     0.010 A 
ATOM     38  C   UNL A   1      40.300  29.348  29.355  1.00  0.00    -0.014 A 
BRANCH  38  39
ATOM     39  C   UNL A   1      41.655  28.912  28.926  1.00  0.00     0.031 A 
ATOM     40  C   UNL A   1      42.770  29.923  28.847  1.00  0.00     0.074 A 
ATOM     41  C   UNL A   1      41.867  27.638  28.539  1.00  0.00     0.049 A 
ATOM     42  N   UNL A   1      43.982  29.784  28.377  1.00  0.00    -0.248 NA
ATOM     43  C   UNL A   1      42.465  31.281  29.323  1.00  0.00     0.031 C 
ATOM     44  C   UNL A   1      40.859  26.576  28.526  1.00  0.00     0.029 A 
ATOM     45  N   UNL A   1      43.000  27.026  28.065  1.00  0.00    -0.354 N 
ATOM     46  C   UNL A   1      44.568  31.042  28.467  1.00  0.00     0.074 A 
ATOM     47  C   UNL A   1      43.562  31.941  28.986  1.00  0.00     0.031 C 
ATOM     48  C   UNL A   1      41.423  25.441  28.086  1.00  0.00     0.029 A 
ATOM     49  C   UNL A   1      42.820  25.700  27.749  1.00  0.00     0.049 A 
ATOM     50  H   UNL A   1      43.861  27.493  27.961  1.00  0.00     0.167 HD
ATOM     51  C   UNL A   1      45.837  31.411  28.169  1.00  0.00     0.037 A 
ATOM     52  C   UNL A   1      43.681  24.799  27.237  1.00  0.00     0.037 A 
ATOM     53  C   UNL A   1      46.848  30.500  27.703  1.00  0.00     0.049 A 
ATOM     54  C   UNL A   1      45.097  25.219  26.949  1.00  0.00     0.074 A 
ATOM     55  C   UNL A   1      48.180  30.756  27.434  1.00  0.00     0.029 A 
ATOM     56  N   UNL A   1      46.638  29.154  27.444  1.00  0.00    -0.354 N 
ATOM     57  N   UNL A   1      45.648  26.401  27.084  1.00  0.00    -0.248 NA
ATOM     58  C   UNL A   1      46.009  24.182  26.448  1.00  0.00     0.031 C 
ATOM     59  C   UNL A   1      48.770  29.569  26.984  1.00  0.00     0.029 A 
ATOM     60  C   UNL A   1      47.815  28.566  27.011  1.00  0.00     0.049 A 
ATOM     61  H   UNL A   1      45.779  28.685  27.552  1.00  0.00     0.167 HD
ATOM     62  C   UNL A   1      46.977  26.246  26.709  1.00  0.00     0.074 A 
ATOM     63  C   UNL A   1      47.149  24.854  26.349  1.00  0.00     0.031 C 
ATOM     64  C   UNL A   1      47.967  27.173  26.669  1.00  0.00     0.037 A 
BRANCH  51  65
ATOM     65  C   UNL A   1      46.196  32.861  28.347  1.00  0.00     0.058 A 
ATOM     66  C   UNL A   1      46.087  33.784  27.294  1.00  0.00     0.135 A 
ATOM     67  C   UNL A   1      46.658  33.335  29.586  1.00  0.00     0.135 A 
ATOM     68  F   UNL A   1      45.665  33.382  26.084  1.00  0.00    -0.206 F 
ATOM     69  C   UNL A   1      46.469  35.113  27.447  1.00  0.00     0.059 A 
ATOM     70  C   UNL A   1      47.017  34.668  29.770  1.00  0.00     0.059 A 
ATOM     71  F   UNL A   1      46.780  32.499  30.628  1.00  0.00    -0.206 F 
ATOM     72  C   UNL A   1      46.940  35.544  28.688  1.00  0.00     0.060 A 
BRANCH  72  73
ATOM     73  S   UNL A   1      47.455  37.265  28.866  1.00  0.00     0.124 S 
ATOM     74  O   UNL A   1      47.935  37.281  30.245  1.00  0.00    -0.237 OA
ATOM     75  O   UNL A   1      48.482  37.394  27.838  1.00  0.00    -0.237 OA
ATOM     76  O   UNL A   1      46.228  38.013  28.620  1.00  0.00    -0.744 OA
ENDBRANCH  72  73
ENDBRANCH  51  65
BRANCH  52  77
ATOM     77  C   UNL A   1      43.230  23.403  27.001  1.00  0.00     0.058 A 
ATOM     78  C   UNL A   1      43.028  22.923  25.698  1.00  0.00     0.135 A 
ATOM     79  C   UNL A   1      43.032  22.508  28.065  1.00  0.00     0.135 A 
ATOM     80  F   UNL A   1      43.198  23.742  24.649  1.00  0.00    -0.206 F 
ATOM     81  C   UNL A   1      42.643  21.609  25.457  1.00  0.00     0.059 A 
ATOM     82  C   UNL A   1      42.667  21.184  27.848  1.00  0.00     0.059 A 
ATOM     83  F   UNL A   1      43.230  22.915  29.329  1.00  0.00    -0.206 F 
ATOM     84  C   UNL A   1      42.471  20.743  26.539  1.00  0.00     0.060 A 
BRANCH  84  85
ATOM     85  S   UNL A   1      42.046  19.019  26.211  1.00  0.00     0.124 S 
ATOM     86  O   UNL A   1      40.643  19.130  25.828  1.00  0.00    -0.237 OA
ATOM     87  O   UNL A   1      42.976  18.673  25.141  1.00  0.00    -0.237 OA
ATOM     88  O   UNL A   1      42.303  18.363  27.489  1.00  0.00    -0.744 OA
ENDBRANCH  84  85
ENDBRANCH  52  77
BRANCH  64  89
ATOM     89  C   UNL A   1      49.334  26.708  26.257  1.00  0.00     0.058 A 
ATOM     90  C   UNL A   1      49.781  26.815  24.931  1.00  0.00     0.135 A 
ATOM     91  C   UNL A   1      50.232  26.210  27.216  1.00  0.00     0.135 A 
ATOM     92  F   UNL A   1      48.958  27.279  23.977  1.00  0.00    -0.206 F 
ATOM     93  C   UNL A   1      51.066  26.429  24.566  1.00  0.00     0.059 A 
ATOM     94  C   UNL A   1      51.529  25.841  26.878  1.00  0.00     0.059 A 
ATOM     95  F   UNL A   1      49.855  26.098  28.499  1.00  0.00    -0.206 F 
ATOM     96  C   UNL A   1      51.935  25.946  25.547  1.00  0.00     0.060 A 
BRANCH  96  97
ATOM     97  S   UNL A   1      53.615  25.490  25.071  1.00  0.00     0.124 S 
ATOM     98  O   UNL A   1      53.581  24.040  25.228  1.00  0.00    -0.237 OA
ATOM     99  O   UNL A   1      53.694  25.978  23.697  1.00  0.00    -0.237 OA
ATOM    100  O   UNL A   1      54.447  26.208  26.032  1.00  0.00    -0.744 OA
ENDBRANCH  96  97
ENDBRANCH  64  89
ENDBRANCH  38  39
ENDBRANCH  30  33
ENDBRANCH  28  29
ENDBRANCH  27  28
ENDBRANCH   1  27
TORSDOF 19
ENDMDL
MODEL 3
REMARK VINA RESULT:     -11.7      5.869      8.115
REMARK SMILES [NH3+][C@@H](CCCCC(=O)NCCCNC(=O)c1ccc(-c2c3nc(c(-c4c(F)cc(S(=O)(=O)[O-])cc4F)c4ccc([nH]4)c(-c4c(F)cc(S(=O)(=O)[O-])cc4F)c4nc(c(-c5c(F)cc(S(=O)(=O)[O-])cc5F)c5ccc2[nH]5)C=C4)C=C3)cc1)c1ccc2[nH]c(=O)[nH]c2c1
REMARK SMILES IDX 10 1 9 2 7 3 8 4 6 6 5 7 4 8 3 9 2 10 1 11 82 15 83 16 91 17
REMARK SMILES IDX 84 18 90 19 85 20 89 21 86 22 87 23 88 26 11 27 12 28 13 29
REMARK SMILES IDX 14 30 15 32 16 33 17 34 81 35 18 36 80 37 19 38 20 39 21 40
REMARK SMILES IDX 74 41 22 42 79 43 73 44 75 45 23 46 78 47 72 48 71 49 24 51
REMARK SMILES IDX 58 52 37 53 57 54 38 55 41 56 56 57 76 58 39 59 40 60 55 62
REMARK SMILES IDX 77 63 42 64 25 65 26 66 35 67 27 68 28 69 34 70 36 71 29 72
REMARK SMILES IDX 30 73 31 74 32 75 33 76 59 77 60 78 69 79 61 80 62 81 68 82
REMARK SMILES IDX 70 83 63 84 64 85 65 86 66 87 67 88 43 89 44 90 53 91 45 92
REMARK SMILES IDX 46 93 52 94 54 95 47 96 48 97 49 98 50 99 51 100
REMARK H PARENT 9 5 1 12 1 13 1 14 89 24 86 25 13 31 75 50 41 61
REMARK Flexibility Score: inf
ROOT
ATOM      1  C   UNL A   1      37.204  20.576  24.516  1.00  0.00     0.117 C 
ENDROOT
BRANCH   1   2
ATOM      2  N   UNL A   1      36.213  20.884  25.526  1.00  0.00    -0.356 N 
ATOM      3  C   UNL A   1      35.678  22.088  25.872  1.00  0.00     0.219 C 
ATOM      4  O   UNL A   1      34.919  22.132  26.842  1.00  0.00    -0.275 OA
ATOM      5  H   UNL A   1      35.877  20.112  26.035  1.00  0.00     0.163 HD
BRANCH   3   6
ATOM      6  C   UNL A   1      35.987  23.329  25.059  1.00  0.00     0.100 C 
BRANCH   6   7
ATOM      7  C   UNL A   1      34.804  23.862  24.248  1.00  0.00     0.010 C 
BRANCH   7   8
ATOM      8  C   UNL A   1      34.230  23.009  23.099  1.00  0.00     0.007 C 
BRANCH   8   9
ATOM      9  C   UNL A   1      32.820  22.405  23.253  1.00  0.00     0.070 C 
BRANCH   9  10
ATOM     10  C   UNL A   1      32.578  21.034  22.578  1.00  0.00     0.212 C 
BRANCH  10  11
ATOM     11  N   UNL A   1      31.401  21.075  21.710  1.00  0.00    -0.351 N 
ATOM     12  H   UNL A   1      31.677  20.851  20.753  1.00  0.00     0.345 HD
ATOM     13  H   UNL A   1      30.992  22.009  21.736  1.00  0.00     0.345 HD
ATOM     14  H   UNL A   1      30.716  20.393  22.034  1.00  0.00     0.345 HD
ENDBRANCH  10  11
BRANCH  10  15
ATOM     15  C   UNL A   1      32.544  19.927  23.618  1.00  0.00     0.011 A 
ATOM     16  C   UNL A   1      32.691  20.197  25.008  1.00  0.00     0.012 A 
ATOM     17  C   UNL A   1      32.525  18.590  23.167  1.00  0.00     0.038 A 
ATOM     18  C   UNL A   1      32.899  19.174  25.941  1.00  0.00     0.029 A 
ATOM     19  C   UNL A   1      32.752  17.609  24.099  1.00  0.00     0.067 A 
ATOM     20  C   UNL A   1      32.950  17.895  25.448  1.00  0.00     0.066 A 
ATOM     21  N   UNL A   1      32.908  16.239  23.922  1.00  0.00    -0.306 N 
ATOM     22  N   UNL A   1      33.237  16.702  26.100  1.00  0.00    -0.306 N 
ATOM     23  C   UNL A   1      33.223  15.657  25.161  1.00  0.00     0.323 A 
ATOM     24  H   UNL A   1      32.814  15.757  23.069  1.00  0.00     0.171 HD
ATOM     25  H   UNL A   1      33.420  16.604  27.061  1.00  0.00     0.171 HD
ATOM     26  O   UNL A   1      33.448  14.485  25.373  1.00  0.00    -0.248 OA
ENDBRANCH  10  15
ENDBRANCH   9  10
ENDBRANCH   8   9
ENDBRANCH   7   8
ENDBRANCH   6   7
ENDBRANCH   3   6
ENDBRANCH   1   2
BRANCH   1  27
ATOM     27  C   UNL A   1      38.207  19.556  25.034  1.00  0.00     0.042 C 
BRANCH  27  28
ATOM     28  C   UNL A   1      39.292  20.153  25.911  1.00  0.00     0.118 C 
BRANCH  28  29
ATOM     29  N   UNL A   1      40.409  19.244  26.104  1.00  0.00    -0.352 N 
ATOM     30  C   UNL A   1      41.746  19.512  26.271  1.00  0.00     0.251 C 
ATOM     31  H   UNL A   1      40.170  18.289  26.116  1.00  0.00     0.163 HD
ATOM     32  O   UNL A   1      42.549  18.583  26.222  1.00  0.00    -0.269 OA
BRANCH  30  33
ATOM     33  C   UNL A   1      42.226  20.899  26.485  1.00  0.00     0.039 A 
ATOM     34  C   UNL A   1      42.411  21.728  25.375  1.00  0.00     0.014 A 
ATOM     35  C   UNL A   1      42.532  21.378  27.762  1.00  0.00     0.014 A 
ATOM     36  C   UNL A   1      42.855  23.044  25.549  1.00  0.00     0.010 A 
ATOM     37  C   UNL A   1      42.872  22.715  27.943  1.00  0.00     0.010 A 
ATOM     38  C   UNL A   1      43.064  23.556  26.838  1.00  0.00    -0.014 A 
BRANCH  38  39
ATOM     39  C   UNL A   1      43.548  24.943  27.063  1.00  0.00     0.031 A 
ATOM     40  C   UNL A   1      45.004  25.265  26.847  1.00  0.00     0.074 A 
ATOM     41  C   UNL A   1      42.707  25.888  27.528  1.00  0.00     0.049 A 
ATOM     42  N   UNL A   1      45.657  26.368  27.109  1.00  0.00    -0.248 NA
ATOM     43  C   UNL A   1      45.846  24.187  26.302  1.00  0.00     0.031 C 
ATOM     44  C   UNL A   1      41.287  25.690  27.821  1.00  0.00     0.029 A 
ATOM     45  N   UNL A   1      42.934  27.202  27.853  1.00  0.00    -0.354 N 
ATOM     46  C   UNL A   1      46.986  26.104  26.796  1.00  0.00     0.074 A 
ATOM     47  C   UNL A   1      47.055  24.722  26.377  1.00  0.00     0.031 C 
ATOM     48  C   UNL A   1      40.764  26.845  28.263  1.00  0.00     0.029 A 
ATOM     49  C   UNL A   1      41.818  27.854  28.323  1.00  0.00     0.049 A 
ATOM     50  H   UNL A   1      43.812  27.637  27.759  1.00  0.00     0.167 HD
ATOM     51  C   UNL A   1      48.049  26.942  26.830  1.00  0.00     0.037 A 
ATOM     52  C   UNL A   1      41.664  29.119  28.761  1.00  0.00     0.037 A 
ATOM     53  C   UNL A   1      47.963  28.330  27.198  1.00  0.00     0.049 A 
ATOM     54  C   UNL A   1      42.849  30.046  28.754  1.00  0.00     0.074 A 
ATOM     55  C   UNL A   1      48.966  29.284  27.202  1.00  0.00     0.029 A 
ATOM     56  N   UNL A   1      46.804  28.965  27.618  1.00  0.00    -0.354 N 
ATOM     57  N   UNL A   1      44.089  29.794  28.411  1.00  0.00    -0.248 NA
ATOM     58  C   UNL A   1      42.613  31.430  29.186  1.00  0.00     0.031 C 
ATOM     59  C   UNL A   1      48.418  30.490  27.654  1.00  0.00     0.029 A 
ATOM     60  C   UNL A   1      47.067  30.297  27.893  1.00  0.00     0.049 A 
ATOM     61  H   UNL A   1      45.924  28.533  27.708  1.00  0.00     0.167 HD
ATOM     62  C   UNL A   1      44.777  30.992  28.560  1.00  0.00     0.074 A 
ATOM     63  C   UNL A   1      43.813  31.971  29.018  1.00  0.00     0.031 C 
ATOM     64  C   UNL A   1      46.088  31.259  28.337  1.00  0.00     0.037 A 
BRANCH  51  65
ATOM     65  C   UNL A   1      49.390  26.375  26.452  1.00  0.00     0.058 A 
ATOM     66  C   UNL A   1      50.202  25.711  27.387  1.00  0.00     0.135 A 
ATOM     67  C   UNL A   1      49.874  26.500  25.139  1.00  0.00     0.135 A 
ATOM     68  F   UNL A   1      49.795  25.576  28.659  1.00  0.00    -0.206 F 
ATOM     69  C   UNL A   1      51.463  25.232  27.047  1.00  0.00     0.059 A 
ATOM     70  C   UNL A   1      51.121  26.002  24.770  1.00  0.00     0.059 A 
ATOM     71  F   UNL A   1      49.140  27.123  24.204  1.00  0.00    -0.206 F 
ATOM     72  C   UNL A   1      51.917  25.390  25.737  1.00  0.00     0.060 A 
BRANCH  72  73
ATOM     73  S   UNL A   1      53.566  24.788  25.316  1.00  0.00     0.124 S 
ATOM     74  O   UNL A   1      53.902  25.637  24.177  1.00  0.00    -0.237 OA
ATOM     75  O   UNL A   1      54.317  25.046  26.540  1.00  0.00    -0.237 OA
ATOM     76  O   UNL A   1      53.343  23.380  25.006  1.00  0.00    -0.744 OA
ENDBRANCH  72  73
ENDBRANCH  51  65
BRANCH  52  77
ATOM     77  C   UNL A   1      40.325  29.586  29.206  1.00  0.00     0.058 A 
ATOM     78  C   UNL A   1      40.054  29.798  30.567  1.00  0.00     0.135 A 
ATOM     79  C   UNL A   1      39.305  29.868  28.284  1.00  0.00     0.135 A 
ATOM     80  F   UNL A   1      40.995  29.537  31.486  1.00  0.00    -0.206 F 
ATOM     81  C   UNL A   1      38.820  30.271  30.998  1.00  0.00     0.059 A 
ATOM     82  C   UNL A   1      38.070  30.361  28.690  1.00  0.00     0.059 A 
ATOM     83  F   UNL A   1      39.522  29.698  26.970  1.00  0.00    -0.206 F 
ATOM     84  C   UNL A   1      37.834  30.556  30.051  1.00  0.00     0.060 A 
BRANCH  84  85
ATOM     85  S   UNL A   1      36.262  31.242  30.616  1.00  0.00     0.124 S 
ATOM     86  O   UNL A   1      35.952  30.375  31.748  1.00  0.00    -0.237 OA
ATOM     87  O   UNL A   1      36.627  32.616  30.944  1.00  0.00    -0.237 OA
ATOM     88  O   UNL A   1      35.395  31.094  29.451  1.00  0.00    -0.744 OA
ENDBRANCH  84  85
ENDBRANCH  52  77
BRANCH  64  89
ATOM     89  C   UNL A   1      46.553  32.672  28.546  1.00  0.00     0.058 A 
ATOM     90  C   UNL A   1      47.066  33.104  29.777  1.00  0.00     0.135 A 
ATOM     91  C   UNL A   1      46.545  33.585  27.478  1.00  0.00     0.135 A 
ATOM     92  F   UNL A   1      47.088  32.270  30.830  1.00  0.00    -0.206 F 
ATOM     93  C   UNL A   1      47.542  34.400  29.950  1.00  0.00     0.059 A 
ATOM     94  C   UNL A   1      47.037  34.877  27.621  1.00  0.00     0.059 A 
ATOM     95  F   UNL A   1      46.074  33.216  26.277  1.00  0.00    -0.206 F 
ATOM     96  C   UNL A   1      47.526  35.279  28.865  1.00  0.00     0.060 A 
BRANCH  96  97
ATOM     97  S   UNL A   1      48.187  36.943  29.087  1.00  0.00     0.124 S 
ATOM     98  O   UNL A   1      46.985  37.692  29.435  1.00  0.00    -0.237 OA
ATOM     99  O   UNL A   1      49.152  36.755  30.166  1.00  0.00    -0.237 OA
ATOM    100  O   UNL A   1      48.768  37.255  27.784  1.00  0.00    -0.744 OA
ENDBRANCH  96  97
ENDBRANCH  64  89
ENDBRANCH  38  39
ENDBRANCH  30  33
ENDBRANCH  28  29
ENDBRANCH  27  28
ENDBRANCH   1  27
TORSDOF 19
ENDMDL
