MODEL 1
REMARK VINA RESULT:     -11.7      0.000      0.000
REMARK SMILES O=C(CSc1nc(O)cc(=O)[nH]1)Nc1cccc(C(=O)NCCCNC(=O)c2ccc(-c3c4nc(c(-c5c(F)cc(S(=O)(=O)[O-])cc5F)c5ccc([nH]5)c(-c5c(F)cc(S(=O)(=O)[O-])cc5F)c5nc(c(-c6c(F)cc(S(=O)(=O)[O-])cc6F)c6ccc3[nH]6)C=C5)C=C4)cc2)c1
REMARK SMILES IDX 22 1 21 2 19 3 20 4 18 6 14 7 15 8 94 9 16 10 17 11 13 12
REMARK SMILES IDX 1 13 2 14 3 16 4 17 5 18 6 19 12 20 7 21 10 22 9 24 11 25
REMARK SMILES IDX 8 26 23 28 24 29 25 30 26 31 27 33 28 34 29 35 93 36 30 37
REMARK SMILES IDX 92 38 31 39 32 40 33 41 86 42 34 43 91 44 85 45 87 46 35 47
REMARK SMILES IDX 90 48 84 49 83 50 36 52 70 53 49 54 69 55 50 56 53 57 68 58
REMARK SMILES IDX 88 59 51 60 52 61 67 63 89 64 54 65 37 66 38 67 47 68 39 69
REMARK SMILES IDX 40 70 46 71 48 72 41 73 42 74 43 75 44 76 45 77 71 78 72 79
REMARK SMILES IDX 81 80 73 81 74 82 80 83 82 84 75 85 76 86 77 87 78 88 79 89
REMARK SMILES IDX 55 90 56 91 65 92 57 93 58 94 64 95 66 96 59 97 60 98 61 99
REMARK SMILES IDX 62 100 63 101
REMARK H PARENT 21 5 13 15 12 23 8 27 25 32 87 51 53 62
REMARK Flexibility Score: inf
ROOT
ATOM      1  C   UNL A   1      33.134  29.949  26.235  1.00  0.00     0.118 C 
ENDROOT
BRANCH   1   2
ATOM      2  N   UNL A   1      33.502  29.710  24.841  1.00  0.00    -0.352 N 
ATOM      3  C   UNL A   1      33.024  28.839  23.884  1.00  0.00     0.251 C 
ATOM      4  O   UNL A   1      33.547  28.848  22.770  1.00  0.00    -0.269 OA
ATOM      5  H   UNL A   1      34.234  30.285  24.522  1.00  0.00     0.163 HD
BRANCH   3   6
ATOM      6  C   UNL A   1      31.957  27.841  24.169  1.00  0.00     0.041 A 
ATOM      7  C   UNL A   1      31.311  25.590  24.776  1.00  0.00     0.041 A 
ATOM      8  C   UNL A   1      30.022  25.835  24.296  1.00  0.00     0.026 A 
ATOM      9  C   UNL A   1      32.215  26.647  24.835  1.00  0.00     0.040 A 
ATOM     10  C   UNL A   1      29.681  27.102  23.815  1.00  0.00     0.003 A 
ATOM     11  C   UNL A   1      30.659  28.093  23.711  1.00  0.00     0.014 A 
BRANCH   7  12
ATOM     12  N   UNL A   1      31.683  24.259  25.060  1.00  0.00    -0.325 N 
ATOM     13  O   UNL A   1      31.057  24.043  27.296  1.00  0.00    -0.274 OA
ATOM     14  C   UNL A   1      31.630  23.623  26.292  1.00  0.00     0.234 C 
ATOM     15  H   UNL A   1      32.016  23.725  24.304  1.00  0.00     0.169 HD
BRANCH  14  16
ATOM     16  C   UNL A   1      32.458  22.351  26.387  1.00  0.00     0.178 C 
BRANCH  16  17
ATOM     17  S   UNL A   1      34.030  22.547  27.263  1.00  0.00    -0.078 SA
BRANCH  17  18
ATOM     18  C   UNL A   1      35.115  22.524  25.913  1.00  0.00     0.172 A 
ATOM     19  N   UNL A   1      34.718  22.917  24.752  1.00  0.00    -0.189 NA
ATOM     20  N   UNL A   1      36.367  22.101  26.208  1.00  0.00    -0.301 N 
ATOM     21  C   UNL A   1      35.647  22.868  23.757  1.00  0.00     0.218 A 
ATOM     22  C   UNL A   1      37.344  22.080  25.259  1.00  0.00     0.255 A 
ATOM     23  H   UNL A   1      36.575  21.805  27.124  1.00  0.00     0.172 HD
ATOM     24  C   UNL A   1      36.917  22.492  23.914  1.00  0.00     0.139 A 
ATOM     25  O   UNL A   1      38.497  21.753  25.494  1.00  0.00    -0.269 OA
BRANCH  21  26
ATOM     26  O   UNL A   1      35.193  23.232  22.518  1.00  0.00    -0.493 OA
ATOM     27  H   UNL A   1      35.437  22.732  21.764  1.00  0.00     0.295 HD
ENDBRANCH  21  26
ENDBRANCH  17  18
ENDBRANCH  16  17
ENDBRANCH  14  16
ENDBRANCH   7  12
ENDBRANCH   3   6
ENDBRANCH   1   2
BRANCH   1  28
ATOM     28  C   UNL A   1      33.797  29.011  27.229  1.00  0.00     0.042 C 
BRANCH  28  29
ATOM     29  C   UNL A   1      35.230  29.366  27.579  1.00  0.00     0.118 C 
BRANCH  29  30
ATOM     30  N   UNL A   1      35.353  30.042  28.866  1.00  0.00    -0.352 N 
ATOM     31  C   UNL A   1      36.421  30.166  29.723  1.00  0.00     0.251 C 
ATOM     32  H   UNL A   1      34.529  30.484  29.174  1.00  0.00     0.163 HD
ATOM     33  O   UNL A   1      36.236  30.622  30.849  1.00  0.00    -0.269 OA
BRANCH  31  34
ATOM     34  C   UNL A   1      37.780  29.738  29.317  1.00  0.00     0.039 A 
ATOM     35  C   UNL A   1      38.132  29.786  27.964  1.00  0.00     0.014 A 
ATOM     36  C   UNL A   1      38.700  29.267  30.253  1.00  0.00     0.014 A 
ATOM     37  C   UNL A   1      39.428  29.438  27.570  1.00  0.00     0.010 A 
ATOM     38  C   UNL A   1      40.018  29.031  29.878  1.00  0.00     0.010 A 
ATOM     39  C   UNL A   1      40.395  29.102  28.530  1.00  0.00    -0.014 A 
BRANCH  39  40
ATOM     40  C   UNL A   1      41.803  28.807  28.154  1.00  0.00     0.031 A 
ATOM     41  C   UNL A   1      42.208  27.402  27.788  1.00  0.00     0.074 A 
ATOM     42  C   UNL A   1      42.730  29.785  28.213  1.00  0.00     0.049 A 
ATOM     43  N   UNL A   1      43.397  26.929  27.516  1.00  0.00    -0.248 NA
ATOM     44  C   UNL A   1      41.140  26.390  27.756  1.00  0.00     0.031 C 
ATOM     45  C   UNL A   1      42.471  31.173  28.602  1.00  0.00     0.029 A 
ATOM     46  N   UNL A   1      44.078  29.760  27.958  1.00  0.00    -0.354 N 
ATOM     47  C   UNL A   1      43.221  25.566  27.299  1.00  0.00     0.074 A 
ATOM     48  C   UNL A   1      41.824  25.278  27.536  1.00  0.00     0.031 C 
ATOM     49  C   UNL A   1      43.615  31.873  28.528  1.00  0.00     0.029 A 
ATOM     50  C   UNL A   1      44.697  30.976  28.133  1.00  0.00     0.049 A 
ATOM     51  H   UNL A   1      44.557  28.948  27.674  1.00  0.00     0.167 HD
ATOM     52  C   UNL A   1      44.133  24.645  26.908  1.00  0.00     0.037 A 
ATOM     53  C   UNL A   1      45.991  31.328  28.000  1.00  0.00     0.037 A 
ATOM     54  C   UNL A   1      45.517  24.946  26.652  1.00  0.00     0.049 A 
ATOM     55  C   UNL A   1      46.990  30.284  27.578  1.00  0.00     0.074 A 
ATOM     56  C   UNL A   1      46.514  24.099  26.201  1.00  0.00     0.029 A 
ATOM     57  N   UNL A   1      46.102  26.193  26.829  1.00  0.00    -0.354 N 
ATOM     58  N   UNL A   1      46.795  29.013  27.316  1.00  0.00    -0.248 NA
ATOM     59  C   UNL A   1      48.383  30.722  27.429  1.00  0.00     0.031 C 
ATOM     60  C   UNL A   1      47.712  24.819  26.156  1.00  0.00     0.029 A 
ATOM     61  C   UNL A   1      47.450  26.131  26.520  1.00  0.00     0.049 A 
ATOM     62  H   UNL A   1      45.628  27.001  27.130  1.00  0.00     0.167 HD
ATOM     63  C   UNL A   1      48.034  28.507  26.940  1.00  0.00     0.074 A 
ATOM     64  C   UNL A   1      48.969  29.612  26.999  1.00  0.00     0.031 C 
ATOM     65  C   UNL A   1      48.368  27.243  26.578  1.00  0.00     0.037 A 
BRANCH  52  66
ATOM     66  C   UNL A   1      43.658  23.226  26.730  1.00  0.00     0.058 A 
ATOM     67  C   UNL A   1      43.531  22.642  25.458  1.00  0.00     0.135 A 
ATOM     68  C   UNL A   1      43.346  22.431  27.845  1.00  0.00     0.135 A 
ATOM     69  F   UNL A   1      43.802  23.358  24.355  1.00  0.00    -0.206 F 
ATOM     70  C   UNL A   1      43.074  21.338  25.297  1.00  0.00     0.059 A 
ATOM     71  C   UNL A   1      42.920  21.112  27.708  1.00  0.00     0.059 A 
ATOM     72  F   UNL A   1      43.450  22.934  29.085  1.00  0.00    -0.206 F 
ATOM     73  C   UNL A   1      42.770  20.581  26.428  1.00  0.00     0.060 A 
BRANCH  73  74
ATOM     74  S   UNL A   1      42.172  18.893  26.199  1.00  0.00     0.124 S 
ATOM     75  O   UNL A   1      43.072  18.405  25.159  1.00  0.00    -0.237 OA
ATOM     76  O   UNL A   1      42.363  18.313  27.525  1.00  0.00    -0.237 OA
ATOM     77  O   UNL A   1      40.783  19.075  25.792  1.00  0.00    -0.744 OA
ENDBRANCH  73  74
ENDBRANCH  52  66
BRANCH  53  78
ATOM     78  C   UNL A   1      46.407  32.736  28.239  1.00  0.00     0.058 A 
ATOM     79  C   UNL A   1      46.880  33.143  29.495  1.00  0.00     0.135 A 
ATOM     80  C   UNL A   1      46.361  33.697  27.216  1.00  0.00     0.135 A 
ATOM     81  F   UNL A   1      46.938  32.265  30.508  1.00  0.00    -0.206 F 
ATOM     82  C   UNL A   1      47.282  34.454  29.734  1.00  0.00     0.059 A 
ATOM     83  C   UNL A   1      46.784  35.007  27.423  1.00  0.00     0.059 A 
ATOM     84  F   UNL A   1      45.933  33.356  25.991  1.00  0.00    -0.206 F 
ATOM     85  C   UNL A   1      47.235  35.378  28.688  1.00  0.00     0.060 A 
BRANCH  85  86
ATOM     86  S   UNL A   1      47.815  37.061  28.994  1.00  0.00     0.124 S 
ATOM     87  O   UNL A   1      47.719  37.651  27.664  1.00  0.00    -0.237 OA
ATOM     88  O   UNL A   1      46.850  37.542  29.979  1.00  0.00    -0.237 OA
ATOM     89  O   UNL A   1      49.169  36.862  29.501  1.00  0.00    -0.744 OA
ENDBRANCH  85  86
ENDBRANCH  53  78
BRANCH  65  90
ATOM     90  C   UNL A   1      49.796  26.992  26.176  1.00  0.00     0.058 A 
ATOM     91  C   UNL A   1      50.236  27.169  24.856  1.00  0.00     0.135 A 
ATOM     92  C   UNL A   1      50.748  26.622  27.141  1.00  0.00     0.135 A 
ATOM     93  F   UNL A   1      49.367  27.515  23.893  1.00  0.00    -0.206 F 
ATOM     94  C   UNL A   1      51.566  26.962  24.500  1.00  0.00     0.059 A 
ATOM     95  C   UNL A   1      52.088  26.442  26.814  1.00  0.00     0.059 A 
ATOM     96  F   UNL A   1      50.382  26.449  28.420  1.00  0.00    -0.206 F 
ATOM     97  C   UNL A   1      52.485  26.603  25.487  1.00  0.00     0.060 A 
BRANCH  97  98
ATOM     98  S   UNL A   1      54.212  26.373  25.017  1.00  0.00     0.124 S 
ATOM     99  O   UNL A   1      54.284  27.135  23.776  1.00  0.00    -0.237 OA
ATOM    100  O   UNL A   1      54.923  26.947  26.155  1.00  0.00    -0.237 OA
ATOM    101  O   UNL A   1      54.336  24.926  24.875  1.00  0.00    -0.744 OA
ENDBRANCH  97  98
ENDBRANCH  65  90
ENDBRANCH  39  40
ENDBRANCH  31  34
ENDBRANCH  29  30
ENDBRANCH  28  29
ENDBRANCH   1  28
TORSDOF 18
ENDMDL
MODEL 2
REMARK VINA RESULT:     -11.7      1.168      8.264
REMARK SMILES O=C(CSc1nc(O)cc(=O)[nH]1)Nc1cccc(C(=O)NCCCNC(=O)c2ccc(-c3c4nc(c(-c5c(F)cc(S(=O)(=O)[O-])cc5F)c5ccc([nH]5)c(-c5c(F)cc(S(=O)(=O)[O-])cc5F)c5nc(c(-c6c(F)cc(S(=O)(=O)[O-])cc6F)c6ccc3[nH]6)C=C5)C=C4)cc2)c1
REMARK SMILES IDX 22 1 21 2 19 3 20 4 18 6 14 7 15 8 94 9 16 10 17 11 13 12
REMARK SMILES IDX 1 13 2 14 3 16 4 17 5 18 6 19 12 20 7 21 10 22 9 24 11 25
REMARK SMILES IDX 8 26 23 28 24 29 25 30 26 31 27 33 28 34 29 35 93 36 30 37
REMARK SMILES IDX 92 38 31 39 32 40 33 41 86 42 34 43 91 44 85 45 87 46 35 47
REMARK SMILES IDX 90 48 84 49 83 50 36 52 70 53 49 54 69 55 50 56 53 57 68 58
REMARK SMILES IDX 88 59 51 60 52 61 67 63 89 64 54 65 37 66 38 67 47 68 39 69
REMARK SMILES IDX 40 70 46 71 48 72 41 73 42 74 43 75 44 76 45 77 71 78 72 79
REMARK SMILES IDX 81 80 73 81 74 82 80 83 82 84 75 85 76 86 77 87 78 88 79 89
REMARK SMILES IDX 55 90 56 91 65 92 57 93 58 94 64 95 66 96 59 97 60 98 61 99
REMARK SMILES IDX 62 100 63 101
REMARK H PARENT 21 5 13 15 12 23 8 27 25 32 87 51 53 62
REMARK Flexibility Score: inf
ROOT
ATOM      1  C   UNL A   1      33.149  30.058  26.486  1.00  0.00     0.118 C 
ENDROOT
BRANCH   1   2
ATOM      2  N   UNL A   1      33.391  29.873  25.056  1.00  0.00    -0.352 N 
ATOM      3  C   UNL A   1      32.748  29.132  24.087  1.00  0.00     0.251 C 
ATOM      4  O   UNL A   1      33.192  29.157  22.939  1.00  0.00    -0.269 OA
ATOM      5  H   UNL A   1      34.165  30.379  24.719  1.00  0.00     0.163 HD
BRANCH   3   6
ATOM      6  C   UNL A   1      31.589  28.250  24.390  1.00  0.00     0.041 A 
ATOM      7  C   UNL A   1      30.666  26.339  25.552  1.00  0.00     0.041 A 
ATOM      8  C   UNL A   1      29.587  26.326  24.665  1.00  0.00     0.026 A 
ATOM      9  C   UNL A   1      31.574  27.392  25.486  1.00  0.00     0.040 A 
ATOM     10  C   UNL A   1      29.473  27.313  23.683  1.00  0.00     0.003 A 
ATOM     11  C   UNL A   1      30.495  28.250  23.517  1.00  0.00     0.014 A 
BRANCH   7  12
ATOM     12  N   UNL A   1      30.863  25.222  26.392  1.00  0.00    -0.325 N 
ATOM     13  O   UNL A   1      33.037  24.578  25.846  1.00  0.00    -0.274 OA
ATOM     14  C   UNL A   1      31.963  24.377  26.411  1.00  0.00     0.234 C 
ATOM     15  H   UNL A   1      30.144  25.023  27.034  1.00  0.00     0.169 HD
BRANCH  14  16
ATOM     16  C   UNL A   1      31.732  23.049  27.115  1.00  0.00     0.178 C 
BRANCH  16  17
ATOM     17  S   UNL A   1      33.212  22.344  27.883  1.00  0.00    -0.078 SA
BRANCH  17  18
ATOM     18  C   UNL A   1      33.699  21.260  26.623  1.00  0.00     0.172 A 
ATOM     19  N   UNL A   1      34.892  21.317  26.140  1.00  0.00    -0.189 NA
ATOM     20  N   UNL A   1      32.747  20.371  26.249  1.00  0.00    -0.301 N 
ATOM     21  C   UNL A   1      35.181  20.418  25.158  1.00  0.00     0.218 A 
ATOM     22  C   UNL A   1      33.003  19.422  25.306  1.00  0.00     0.255 A 
ATOM     23  H   UNL A   1      31.855  20.414  26.665  1.00  0.00     0.172 HD
ATOM     24  C   UNL A   1      34.346  19.479  24.710  1.00  0.00     0.139 A 
ATOM     25  O   UNL A   1      32.189  18.573  24.975  1.00  0.00    -0.269 OA
BRANCH  21  26
ATOM     26  O   UNL A   1      36.432  20.531  24.615  1.00  0.00    -0.493 OA
ATOM     27  H   UNL A   1      36.693  19.963  23.916  1.00  0.00     0.295 HD
ENDBRANCH  21  26
ENDBRANCH  17  18
ENDBRANCH  16  17
ENDBRANCH  14  16
ENDBRANCH   7  12
ENDBRANCH   3   6
ENDBRANCH   1   2
BRANCH   1  28
ATOM     28  C   UNL A   1      34.120  29.316  27.388  1.00  0.00     0.042 C 
BRANCH  28  29
ATOM     29  C   UNL A   1      35.353  30.108  27.781  1.00  0.00     0.118 C 
BRANCH  29  30
ATOM     30  N   UNL A   1      35.344  30.519  29.181  1.00  0.00    -0.352 N 
ATOM     31  C   UNL A   1      36.335  30.500  30.135  1.00  0.00     0.251 C 
ATOM     32  H   UNL A   1      34.480  30.869  29.498  1.00  0.00     0.163 HD
ATOM     33  O   UNL A   1      36.042  30.719  31.308  1.00  0.00    -0.269 OA
BRANCH  31  34
ATOM     34  C   UNL A   1      37.739  30.197  29.771  1.00  0.00     0.039 A 
ATOM     35  C   UNL A   1      38.656  29.902  30.784  1.00  0.00     0.014 A 
ATOM     36  C   UNL A   1      38.163  30.227  28.443  1.00  0.00     0.014 A 
ATOM     37  C   UNL A   1      39.971  29.560  30.454  1.00  0.00     0.010 A 
ATOM     38  C   UNL A   1      39.436  29.777  28.108  1.00  0.00     0.010 A 
ATOM     39  C   UNL A   1      40.359  29.450  29.110  1.00  0.00    -0.014 A 
BRANCH  39  40
ATOM     40  C   UNL A   1      41.726  29.009  28.723  1.00  0.00     0.031 A 
ATOM     41  C   UNL A   1      42.854  30.007  28.673  1.00  0.00     0.074 A 
ATOM     42  C   UNL A   1      41.934  27.731  28.345  1.00  0.00     0.049 A 
ATOM     43  N   UNL A   1      44.090  29.838  28.278  1.00  0.00    -0.248 NA
ATOM     44  C   UNL A   1      42.543  31.384  29.090  1.00  0.00     0.031 C 
ATOM     45  C   UNL A   1      40.911  26.684  28.303  1.00  0.00     0.029 A 
ATOM     46  N   UNL A   1      43.073  27.097  27.915  1.00  0.00    -0.354 N 
ATOM     47  C   UNL A   1      44.695  31.085  28.384  1.00  0.00     0.074 A 
ATOM     48  C   UNL A   1      43.675  32.015  28.815  1.00  0.00     0.031 C 
ATOM     49  C   UNL A   1      41.474  25.533  27.902  1.00  0.00     0.029 A 
ATOM     50  C   UNL A   1      42.886  25.768  27.614  1.00  0.00     0.049 A 
ATOM     51  H   UNL A   1      43.942  27.551  27.830  1.00  0.00     0.167 HD
ATOM     52  C   UNL A   1      45.990  31.422  28.171  1.00  0.00     0.037 A 
ATOM     53  C   UNL A   1      43.750  24.845  27.150  1.00  0.00     0.037 A 
ATOM     54  C   UNL A   1      47.004  30.485  27.764  1.00  0.00     0.049 A 
ATOM     55  C   UNL A   1      45.181  25.244  26.907  1.00  0.00     0.074 A 
ATOM     56  C   UNL A   1      48.355  30.708  27.571  1.00  0.00     0.029 A 
ATOM     57  N   UNL A   1      46.777  29.144  27.482  1.00  0.00    -0.354 N 
ATOM     58  N   UNL A   1      45.751  26.414  27.072  1.00  0.00    -0.248 NA
ATOM     59  C   UNL A   1      46.088  24.197  26.420  1.00  0.00     0.031 C 
ATOM     60  C   UNL A   1      48.936  29.517  27.122  1.00  0.00     0.029 A 
ATOM     61  C   UNL A   1      47.958  28.535  27.093  1.00  0.00     0.049 A 
ATOM     62  H   UNL A   1      45.904  28.693  27.548  1.00  0.00     0.167 HD
ATOM     63  C   UNL A   1      47.089  26.237  26.740  1.00  0.00     0.074 A 
ATOM     64  C   UNL A   1      47.246  24.844  26.374  1.00  0.00     0.031 C 
ATOM     65  C   UNL A   1      48.098  27.144  26.739  1.00  0.00     0.037 A 
BRANCH  52  66
ATOM     66  C   UNL A   1      46.380  32.862  28.379  1.00  0.00     0.058 A 
ATOM     67  C   UNL A   1      46.325  33.801  27.335  1.00  0.00     0.135 A 
ATOM     68  C   UNL A   1      46.793  33.316  29.642  1.00  0.00     0.135 A 
ATOM     69  F   UNL A   1      45.950  33.422  26.103  1.00  0.00    -0.206 F 
ATOM     70  C   UNL A   1      46.705  35.126  27.526  1.00  0.00     0.059 A 
ATOM     71  C   UNL A   1      47.145  34.645  29.863  1.00  0.00     0.059 A 
ATOM     72  F   UNL A   1      46.864  32.464  30.678  1.00  0.00    -0.206 F 
ATOM     73  C   UNL A   1      47.114  35.538  28.794  1.00  0.00     0.060 A 
BRANCH  73  74
ATOM     74  S   UNL A   1      47.609  37.259  29.021  1.00  0.00     0.124 S 
ATOM     75  O   UNL A   1      47.062  37.880  27.818  1.00  0.00    -0.237 OA
ATOM     76  O   UNL A   1      46.944  37.611  30.272  1.00  0.00    -0.237 OA
ATOM     77  O   UNL A   1      49.065  37.191  29.085  1.00  0.00    -0.744 OA
ENDBRANCH  73  74
ENDBRANCH  52  66
BRANCH  53  78
ATOM     78  C   UNL A   1      43.292  23.449  26.915  1.00  0.00     0.058 A 
ATOM     79  C   UNL A   1      43.086  22.968  25.614  1.00  0.00     0.135 A 
ATOM     80  C   UNL A   1      43.072  22.562  27.981  1.00  0.00     0.135 A 
ATOM     81  F   UNL A   1      43.276  23.778  24.562  1.00  0.00    -0.206 F 
ATOM     82  C   UNL A   1      42.666  21.663  25.376  1.00  0.00     0.059 A 
ATOM     83  C   UNL A   1      42.680  21.244  27.767  1.00  0.00     0.059 A 
ATOM     84  F   UNL A   1      43.272  22.965  29.246  1.00  0.00    -0.206 F 
ATOM     85  C   UNL A   1      42.471  20.806  26.460  1.00  0.00     0.060 A 
BRANCH  85  86
ATOM     86  S   UNL A   1      41.984  19.097  26.136  1.00  0.00     0.124 S 
ATOM     87  O   UNL A   1      40.546  19.233  25.937  1.00  0.00    -0.237 OA
ATOM     88  O   UNL A   1      42.767  18.778  24.946  1.00  0.00    -0.237 OA
ATOM     89  O   UNL A   1      42.391  18.397  27.351  1.00  0.00    -0.744 OA
ENDBRANCH  85  86
ENDBRANCH  53  78
BRANCH  65  90
ATOM     90  C   UNL A   1      49.471  26.652  26.369  1.00  0.00     0.058 A 
ATOM     91  C   UNL A   1      50.006  26.845  25.086  1.00  0.00     0.135 A 
ATOM     92  C   UNL A   1      50.283  26.030  27.331  1.00  0.00     0.135 A 
ATOM     93  F   UNL A   1      49.271  27.428  24.127  1.00  0.00    -0.206 F 
ATOM     94  C   UNL A   1      51.289  26.413  24.762  1.00  0.00     0.059 A 
ATOM     95  C   UNL A   1      51.580  25.620  27.039  1.00  0.00     0.059 A 
ATOM     96  F   UNL A   1      49.825  25.830  28.577  1.00  0.00    -0.206 F 
ATOM     97  C   UNL A   1      52.070  25.805  25.747  1.00  0.00     0.060 A 
BRANCH  97  98
ATOM     98  S   UNL A   1      53.744  25.283  25.322  1.00  0.00     0.124 S 
ATOM     99  O   UNL A   1      53.839  25.702  23.928  1.00  0.00    -0.237 OA
ATOM    100  O   UNL A   1      54.556  26.041  26.269  1.00  0.00    -0.237 OA
ATOM    101  O   UNL A   1      53.717  23.840  25.544  1.00  0.00    -0.744 OA
ENDBRANCH  97  98
ENDBRANCH  65  90
ENDBRANCH  39  40
ENDBRANCH  31  34
ENDBRANCH  29  30
ENDBRANCH  28  29
ENDBRANCH   1  28
TORSDOF 18
ENDMDL
MODEL 3
REMARK VINA RESULT:     -11.7      0.574      8.122
REMARK SMILES O=C(CSc1nc(O)cc(=O)[nH]1)Nc1cccc(C(=O)NCCCNC(=O)c2ccc(-c3c4nc(c(-c5c(F)cc(S(=O)(=O)[O-])cc5F)c5ccc([nH]5)c(-c5c(F)cc(S(=O)(=O)[O-])cc5F)c5nc(c(-c6c(F)cc(S(=O)(=O)[O-])cc6F)c6ccc3[nH]6)C=C5)C=C4)cc2)c1
REMARK SMILES IDX 22 1 21 2 19 3 20 4 18 6 14 7 15 8 94 9 16 10 17 11 13 12
REMARK SMILES IDX 1 13 2 14 3 16 4 17 5 18 6 19 12 20 7 21 10 22 9 24 11 25
REMARK SMILES IDX 8 26 23 28 24 29 25 30 26 31 27 33 28 34 29 35 93 36 30 37
REMARK SMILES IDX 92 38 31 39 32 40 33 41 86 42 34 43 91 44 85 45 87 46 35 47
REMARK SMILES IDX 90 48 84 49 83 50 36 52 70 53 49 54 69 55 50 56 53 57 68 58
REMARK SMILES IDX 88 59 51 60 52 61 67 63 89 64 54 65 37 66 38 67 47 68 39 69
REMARK SMILES IDX 40 70 46 71 48 72 41 73 42 74 43 75 44 76 45 77 71 78 72 79
REMARK SMILES IDX 81 80 73 81 74 82 80 83 82 84 75 85 76 86 77 87 78 88 79 89
REMARK SMILES IDX 55 90 56 91 65 92 57 93 58 94 64 95 66 96 59 97 60 98 61 99
REMARK SMILES IDX 62 100 63 101
REMARK H PARENT 21 5 13 15 12 23 8 27 25 32 87 51 53 62
REMARK Flexibility Score: inf
ROOT
ATOM      1  C   UNL A   1      33.431  29.416  26.742  1.00  0.00     0.118 C 
ENDROOT
BRANCH   1   2
ATOM      2  N   UNL A   1      33.705  29.465  25.307  1.00  0.00    -0.352 N 
ATOM      3  C   UNL A   1      33.100  28.871  24.219  1.00  0.00     0.251 C 
ATOM      4  O   UNL A   1      33.565  29.086  23.100  1.00  0.00    -0.269 OA
ATOM      5  H   UNL A   1      34.472  30.034  25.071  1.00  0.00     0.163 HD
BRANCH   3   6
ATOM      6  C   UNL A   1      31.958  27.926  24.353  1.00  0.00     0.041 A 
ATOM      7  C   UNL A   1      31.137  25.684  24.748  1.00  0.00     0.041 A 
ATOM      8  C   UNL A   1      29.906  26.042  24.195  1.00  0.00     0.026 A 
ATOM      9  C   UNL A   1      32.094  26.676  24.949  1.00  0.00     0.040 A 
ATOM     10  C   UNL A   1      29.677  27.357  23.782  1.00  0.00     0.003 A 
ATOM     11  C   UNL A   1      30.716  28.289  23.821  1.00  0.00     0.014 A 
BRANCH   7  12
ATOM     12  N   UNL A   1      31.410  24.317  24.963  1.00  0.00    -0.325 N 
ATOM     13  O   UNL A   1      30.972  24.083  27.241  1.00  0.00    -0.274 OA
ATOM     14  C   UNL A   1      31.410  23.647  26.177  1.00  0.00     0.234 C 
ATOM     15  H   UNL A   1      31.621  23.780  24.165  1.00  0.00     0.169 HD
BRANCH  14  16
ATOM     16  C   UNL A   1      32.122  22.303  26.162  1.00  0.00     0.178 C 
BRANCH  16  17
ATOM     17  S   UNL A   1      33.583  22.220  27.228  1.00  0.00    -0.078 SA
BRANCH  17  18
ATOM     18  C   UNL A   1      34.787  22.758  26.105  1.00  0.00     0.172 A 
ATOM     19  N   UNL A   1      34.508  22.863  24.852  1.00  0.00    -0.189 NA
ATOM     20  N   UNL A   1      35.978  23.071  26.669  1.00  0.00    -0.301 N 
ATOM     21  C   UNL A   1      35.519  23.301  24.051  1.00  0.00     0.218 A 
ATOM     22  C   UNL A   1      37.004  23.559  25.918  1.00  0.00     0.255 A 
ATOM     23  H   UNL A   1      36.104  22.943  27.638  1.00  0.00     0.172 HD
ATOM     24  C   UNL A   1      36.731  23.662  24.478  1.00  0.00     0.139 A 
ATOM     25  O   UNL A   1      38.077  23.899  26.394  1.00  0.00    -0.269 OA
BRANCH  21  26
ATOM     26  O   UNL A   1      35.225  23.351  22.715  1.00  0.00    -0.493 OA
ATOM     27  H   UNL A   1      35.524  22.671  22.144  1.00  0.00     0.295 HD
ENDBRANCH  21  26
ENDBRANCH  17  18
ENDBRANCH  16  17
ENDBRANCH  14  16
ENDBRANCH   7  12
ENDBRANCH   3   6
ENDBRANCH   1   2
BRANCH   1  28
ATOM     28  C   UNL A   1      34.665  29.254  27.612  1.00  0.00     0.042 C 
BRANCH  28  29
ATOM     29  C   UNL A   1      35.403  30.545  27.915  1.00  0.00     0.118 C 
BRANCH  29  30
ATOM     30  N   UNL A   1      35.484  30.834  29.343  1.00  0.00    -0.352 N 
ATOM     31  C   UNL A   1      36.465  30.556  30.266  1.00  0.00     0.251 C 
ATOM     32  H   UNL A   1      34.702  31.308  29.708  1.00  0.00     0.163 HD
ATOM     33  O   UNL A   1      36.230  30.728  31.460  1.00  0.00    -0.269 OA
BRANCH  31  34
ATOM     34  C   UNL A   1      37.785  30.035  29.844  1.00  0.00     0.039 A 
ATOM     35  C   UNL A   1      38.135  30.083  28.491  1.00  0.00     0.014 A 
ATOM     36  C   UNL A   1      38.670  29.476  30.766  1.00  0.00     0.014 A 
ATOM     37  C   UNL A   1      39.399  29.646  28.083  1.00  0.00     0.010 A 
ATOM     38  C   UNL A   1      39.965  29.149  30.379  1.00  0.00     0.010 A 
ATOM     39  C   UNL A   1      40.342  29.218  29.031  1.00  0.00    -0.014 A 
BRANCH  39  40
ATOM     40  C   UNL A   1      41.722  28.825  28.641  1.00  0.00     0.031 A 
ATOM     41  C   UNL A   1      42.812  29.862  28.576  1.00  0.00     0.074 A 
ATOM     42  C   UNL A   1      41.975  27.552  28.275  1.00  0.00     0.049 A 
ATOM     43  N   UNL A   1      44.052  29.735  28.177  1.00  0.00    -0.248 NA
ATOM     44  C   UNL A   1      42.453  31.231  28.982  1.00  0.00     0.031 C 
ATOM     45  C   UNL A   1      40.991  26.467  28.247  1.00  0.00     0.029 A 
ATOM     46  N   UNL A   1      43.134  26.956  27.844  1.00  0.00    -0.354 N 
ATOM     47  C   UNL A   1      44.612  31.005  28.268  1.00  0.00     0.074 A 
ATOM     48  C   UNL A   1      43.559  31.900  28.695  1.00  0.00     0.031 C 
ATOM     49  C   UNL A   1      41.594  25.334  27.854  1.00  0.00     0.029 A 
ATOM     50  C   UNL A   1      42.994  25.617  27.557  1.00  0.00     0.049 A 
ATOM     51  H   UNL A   1      43.986  27.440  27.751  1.00  0.00     0.167 HD
ATOM     52  C   UNL A   1      45.892  31.386  28.045  1.00  0.00     0.037 A 
ATOM     53  C   UNL A   1      43.890  24.723  27.097  1.00  0.00     0.037 A 
ATOM     54  C   UNL A   1      46.937  30.483  27.641  1.00  0.00     0.049 A 
ATOM     55  C   UNL A   1      45.304  25.171  26.843  1.00  0.00     0.074 A 
ATOM     56  C   UNL A   1      48.279  30.754  27.439  1.00  0.00     0.029 A 
ATOM     57  N   UNL A   1      46.759  29.132  27.373  1.00  0.00    -0.354 N 
ATOM     58  N   UNL A   1      45.832  26.363  26.994  1.00  0.00    -0.248 NA
ATOM     59  C   UNL A   1      46.246  24.154  26.360  1.00  0.00     0.031 C 
ATOM     60  C   UNL A   1      48.901  29.582  26.998  1.00  0.00     0.029 A 
ATOM     61  C   UNL A   1      47.960  28.564  26.984  1.00  0.00     0.049 A 
ATOM     62  H   UNL A   1      45.903  28.651  27.448  1.00  0.00     0.167 HD
ATOM     63  C   UNL A   1      47.174  26.232  26.656  1.00  0.00     0.074 A 
ATOM     64  C   UNL A   1      47.379  24.842  26.303  1.00  0.00     0.031 C 
ATOM     65  C   UNL A   1      48.148  27.175  26.641  1.00  0.00     0.037 A 
BRANCH  52  66
ATOM     66  C   UNL A   1      46.230  32.842  28.238  1.00  0.00     0.058 A 
ATOM     67  C   UNL A   1      46.126  33.770  27.188  1.00  0.00     0.135 A 
ATOM     68  C   UNL A   1      46.642  33.321  29.491  1.00  0.00     0.135 A 
ATOM     69  F   UNL A   1      45.750  33.368  25.963  1.00  0.00    -0.206 F 
ATOM     70  C   UNL A   1      46.458  35.110  27.364  1.00  0.00     0.059 A 
ATOM     71  C   UNL A   1      46.946  34.664  29.699  1.00  0.00     0.059 A 
ATOM     72  F   UNL A   1      46.758  32.480  30.532  1.00  0.00    -0.206 F 
ATOM     73  C   UNL A   1      46.868  35.547  28.624  1.00  0.00     0.060 A 
BRANCH  73  74
ATOM     74  S   UNL A   1      47.300  37.287  28.832  1.00  0.00     0.124 S 
ATOM     75  O   UNL A   1      46.203  37.760  29.672  1.00  0.00    -0.237 OA
ATOM     76  O   UNL A   1      48.605  37.208  29.481  1.00  0.00    -0.237 OA
ATOM     77  O   UNL A   1      47.311  37.802  27.467  1.00  0.00    -0.744 OA
ENDBRANCH  73  74
ENDBRANCH  52  66
BRANCH  53  78
ATOM     78  C   UNL A   1      43.482  23.309  26.877  1.00  0.00     0.058 A 
ATOM     79  C   UNL A   1      43.201  22.464  27.961  1.00  0.00     0.135 A 
ATOM     80  C   UNL A   1      43.343  22.779  25.584  1.00  0.00     0.135 A 
ATOM     81  F   UNL A   1      43.325  22.920  29.216  1.00  0.00    -0.206 F 
ATOM     82  C   UNL A   1      42.809  21.142  27.774  1.00  0.00     0.059 A 
ATOM     83  C   UNL A   1      42.926  21.469  25.371  1.00  0.00     0.059 A 
ATOM     84  F   UNL A   1      43.583  23.550  24.511  1.00  0.00    -0.206 F 
ATOM     85  C   UNL A   1      42.669  20.655  26.473  1.00  0.00     0.060 A 
BRANCH  85  86
ATOM     86  S   UNL A   1      42.103  18.956  26.241  1.00  0.00     0.124 S 
ATOM     87  O   UNL A   1      40.711  19.159  25.857  1.00  0.00    -0.237 OA
ATOM     88  O   UNL A   1      42.994  18.478  25.187  1.00  0.00    -0.237 OA
ATOM     89  O   UNL A   1      42.315  18.350  27.552  1.00  0.00    -0.744 OA
ENDBRANCH  85  86
ENDBRANCH  53  78
BRANCH  65  90
ATOM     90  C   UNL A   1      49.537  26.731  26.269  1.00  0.00     0.058 A 
ATOM     91  C   UNL A   1      50.015  26.820  24.953  1.00  0.00     0.135 A 
ATOM     92  C   UNL A   1      50.419  26.262  27.257  1.00  0.00     0.135 A 
ATOM     93  F   UNL A   1      49.212  27.255  23.969  1.00  0.00    -0.206 F 
ATOM     94  C   UNL A   1      51.312  26.434  24.623  1.00  0.00     0.059 A 
ATOM     95  C   UNL A   1      51.729  25.903  26.956  1.00  0.00     0.059 A 
ATOM     96  F   UNL A   1      50.017  26.167  28.533  1.00  0.00    -0.206 F 
ATOM     97  C   UNL A   1      52.162  25.981  25.633  1.00  0.00     0.060 A 
BRANCH  97  98
ATOM     98  S   UNL A   1      53.851  25.518  25.197  1.00  0.00     0.124 S 
ATOM     99  O   UNL A   1      53.773  24.062  25.222  1.00  0.00    -0.237 OA
ATOM    100  O   UNL A   1      54.008  26.123  23.878  1.00  0.00    -0.237 OA
ATOM    101  O   UNL A   1      54.654  26.122  26.256  1.00  0.00    -0.744 OA
ENDBRANCH  97  98
ENDBRANCH  65  90
ENDBRANCH  39  40
ENDBRANCH  31  34
ENDBRANCH  29  30
ENDBRANCH  28  29
ENDBRANCH   1  28
TORSDOF 18
ENDMDL
