MODEL 1
REMARK VINA RESULT:     -11.1      0.000      0.000
REMARK SMILES C[C@H](CC(=O)NCCCNC(=O)c1ccc(-c2c3nc(c(-c4c(F)cc(S(=O)(=O)[O-])cc4F)c4ccc([nH]4)c(-c4c(F)cc(S(=O)(=O)[O-])cc4F)c4nc(c(-c5c(F)cc(S(=O)(=O)[O-])cc5F)c5ccc2[nH]5)C=C4)C=C3)cc1)NC(=O)Cc1cn2ccsc2n1
REMARK SMILES IDX 7 1 6 2 4 3 5 4 3 6 2 7 1 8 79 9 80 10 81 12 82 13 83 14
REMARK SMILES IDX 84 15 90 16 85 17 89 18 86 19 88 20 87 21 8 22 9 23 10 24
REMARK SMILES IDX 11 25 12 27 13 28 14 29 78 30 15 31 77 32 16 33 17 34 18 35
REMARK SMILES IDX 71 36 19 37 76 38 70 39 72 40 20 41 75 42 69 43 68 44 21 46
REMARK SMILES IDX 55 47 34 48 54 49 35 50 38 51 53 52 73 53 36 54 37 55 52 57
REMARK SMILES IDX 74 58 39 59 22 60 23 61 32 62 24 63 25 64 31 65 33 66 26 67
REMARK SMILES IDX 27 68 28 69 29 70 30 71 56 72 57 73 66 74 58 75 59 76 65 77
REMARK SMILES IDX 67 78 60 79 61 80 62 81 63 82 64 83 40 84 41 85 50 86 42 87
REMARK SMILES IDX 43 88 49 89 51 90 44 91 45 92 46 93 47 94 48 95
REMARK H PARENT 6 5 79 11 10 26 72 45 38 56
REMARK Flexibility Score: inf
ROOT
ATOM      1  C   UNL A   1      37.485  21.375  24.913  1.00  0.00     0.117 C 
ENDROOT
BRANCH   1   2
ATOM      2  N   UNL A   1      36.532  21.813  25.972  1.00  0.00    -0.356 N 
ATOM      3  C   UNL A   1      35.493  22.750  25.793  1.00  0.00     0.222 C 
ATOM      4  O   UNL A   1      34.888  23.260  26.736  1.00  0.00    -0.275 OA
ATOM      5  H   UNL A   1      36.636  21.417  26.867  1.00  0.00     0.163 HD
BRANCH   3   6
ATOM      6  C   UNL A   1      35.352  23.371  24.417  1.00  0.00     0.124 C 
BRANCH   6   7
ATOM      7  C   UNL A   1      33.855  23.669  24.262  1.00  0.00     0.088 C 
ATOM      8  C   UNL A   1      33.579  25.146  24.152  1.00  0.00     0.031 C 
BRANCH   7   9
ATOM      9  N   UNL A   1      33.208  22.927  23.184  1.00  0.00    -0.353 N 
ATOM     10  C   UNL A   1      32.455  21.777  23.373  1.00  0.00     0.226 C 
ATOM     11  H   UNL A   1      33.313  23.263  22.264  1.00  0.00     0.163 HD
ATOM     12  O   UNL A   1      31.937  21.200  22.416  1.00  0.00    -0.275 OA
BRANCH  10  13
ATOM     13  C   UNL A   1      32.331  21.215  24.800  1.00  0.00     0.157 C 
BRANCH  13  14
ATOM     14  C   UNL A   1      32.827  19.820  24.850  1.00  0.00     0.070 A 
ATOM     15  C   UNL A   1      34.116  19.449  24.535  1.00  0.00     0.118 A 
ATOM     16  N   UNL A   1      32.091  18.747  25.298  1.00  0.00    -0.223 NA
ATOM     17  N   UNL A   1      34.169  18.137  24.760  1.00  0.00    -0.297 N 
ATOM     18  C   UNL A   1      32.947  17.775  25.200  1.00  0.00     0.193 A 
ATOM     19  C   UNL A   1      35.149  17.204  24.624  1.00  0.00     0.104 A 
ATOM     20  S   UNL A   1      32.859  16.129  25.506  1.00  0.00    -0.105 S 
ATOM     21  C   UNL A   1      34.738  15.975  24.953  1.00  0.00     0.087 A 
ENDBRANCH  13  14
ENDBRANCH  10  13
ENDBRANCH   7   9
ENDBRANCH   6   7
ENDBRANCH   3   6
ENDBRANCH   1   2
BRANCH   1  22
ATOM     22  C   UNL A   1      38.271  20.069  25.182  1.00  0.00     0.042 C 
BRANCH  22  23
ATOM     23  C   UNL A   1      39.405  20.363  26.108  1.00  0.00     0.118 C 
BRANCH  23  24
ATOM     24  N   UNL A   1      40.392  19.308  26.084  1.00  0.00    -0.352 N 
ATOM     25  C   UNL A   1      41.754  19.492  26.236  1.00  0.00     0.251 C 
ATOM     26  H   UNL A   1      40.069  18.388  25.948  1.00  0.00     0.163 HD
ATOM     27  O   UNL A   1      42.545  18.557  26.165  1.00  0.00    -0.269 OA
BRANCH  25  28
ATOM     28  C   UNL A   1      42.275  20.862  26.513  1.00  0.00     0.039 A 
ATOM     29  C   UNL A   1      42.607  21.712  25.471  1.00  0.00     0.014 A 
ATOM     30  C   UNL A   1      42.525  21.290  27.819  1.00  0.00     0.014 A 
ATOM     31  C   UNL A   1      43.316  22.883  25.751  1.00  0.00     0.010 A 
ATOM     32  C   UNL A   1      43.066  22.539  28.091  1.00  0.00     0.010 A 
ATOM     33  C   UNL A   1      43.447  23.368  27.051  1.00  0.00    -0.014 A 
BRANCH  33  34
ATOM     34  C   UNL A   1      43.897  24.754  27.296  1.00  0.00     0.031 A 
ATOM     35  C   UNL A   1      42.945  25.806  27.739  1.00  0.00     0.074 A 
ATOM     36  C   UNL A   1      45.190  25.073  27.072  1.00  0.00     0.049 A 
ATOM     37  N   UNL A   1      43.227  27.055  27.978  1.00  0.00    -0.248 NA
ATOM     38  C   UNL A   1      41.534  25.451  27.952  1.00  0.00     0.031 C 
ATOM     39  C   UNL A   1      46.195  24.105  26.636  1.00  0.00     0.029 A 
ATOM     40  N   UNL A   1      45.887  26.254  27.164  1.00  0.00    -0.354 N 
ATOM     41  C   UNL A   1      42.044  27.635  28.387  1.00  0.00     0.074 A 
ATOM     42  C   UNL A   1      41.017  26.613  28.338  1.00  0.00     0.031 C 
ATOM     43  C   UNL A   1      47.374  24.718  26.507  1.00  0.00     0.029 A 
ATOM     44  C   UNL A   1      47.215  26.130  26.827  1.00  0.00     0.049 A 
ATOM     45  H   UNL A   1      45.477  27.104  27.443  1.00  0.00     0.167 HD
ATOM     46  C   UNL A   1      41.872  28.916  28.776  1.00  0.00     0.037 A 
ATOM     47  C   UNL A   1      48.223  27.022  26.773  1.00  0.00     0.037 A 
ATOM     48  C   UNL A   1      42.890  29.909  28.767  1.00  0.00     0.049 A 
ATOM     49  C   UNL A   1      47.974  28.449  27.113  1.00  0.00     0.074 A 
ATOM     50  C   UNL A   1      42.736  31.226  29.151  1.00  0.00     0.029 A 
ATOM     51  N   UNL A   1      44.201  29.733  28.376  1.00  0.00    -0.354 N 
ATOM     52  N   UNL A   1      46.845  28.955  27.525  1.00  0.00    -0.248 NA
ATOM     53  C   UNL A   1      49.071  29.427  26.996  1.00  0.00     0.031 C 
ATOM     54  C   UNL A   1      43.936  31.866  28.973  1.00  0.00     0.029 A 
ATOM     55  C   UNL A   1      44.849  30.943  28.504  1.00  0.00     0.049 A 
ATOM     56  H   UNL A   1      44.603  28.892  28.060  1.00  0.00     0.167 HD
ATOM     57  C   UNL A   1      47.094  30.293  27.747  1.00  0.00     0.074 A 
ATOM     58  C   UNL A   1      48.483  30.543  27.412  1.00  0.00     0.031 C 
ATOM     59  C   UNL A   1      46.211  31.208  28.196  1.00  0.00     0.037 A 
BRANCH  46  60
ATOM     60  C   UNL A   1      40.513  29.343  29.207  1.00  0.00     0.058 A 
ATOM     61  C   UNL A   1      39.508  29.637  28.300  1.00  0.00     0.135 A 
ATOM     62  C   UNL A   1      40.220  29.503  30.563  1.00  0.00     0.135 A 
ATOM     63  F   UNL A   1      39.663  29.311  27.005  1.00  0.00    -0.206 F 
ATOM     64  C   UNL A   1      38.354  30.307  28.723  1.00  0.00     0.059 A 
ATOM     65  C   UNL A   1      39.010  30.035  31.002  1.00  0.00     0.059 A 
ATOM     66  F   UNL A   1      41.101  29.091  31.489  1.00  0.00    -0.206 F 
ATOM     67  C   UNL A   1      38.050  30.424  30.081  1.00  0.00     0.060 A 
BRANCH  67  68
ATOM     68  S   UNL A   1      36.360  30.990  30.634  1.00  0.00     0.124 S 
ATOM     69  O   UNL A   1      35.587  30.948  29.397  1.00  0.00    -0.237 OA
ATOM     70  O   UNL A   1      35.982  29.985  31.623  1.00  0.00    -0.237 OA
ATOM     71  O   UNL A   1      36.582  32.329  31.178  1.00  0.00    -0.744 OA
ENDBRANCH  67  68
ENDBRANCH  46  60
BRANCH  47  72
ATOM     72  C   UNL A   1      49.568  26.590  26.360  1.00  0.00     0.058 A 
ATOM     73  C   UNL A   1      50.012  26.700  25.048  1.00  0.00     0.135 A 
ATOM     74  C   UNL A   1      50.425  25.989  27.279  1.00  0.00     0.135 A 
ATOM     75  F   UNL A   1      49.294  27.414  24.164  1.00  0.00    -0.206 F 
ATOM     76  C   UNL A   1      51.203  26.079  24.647  1.00  0.00     0.059 A 
ATOM     77  C   UNL A   1      51.675  25.494  26.914  1.00  0.00     0.059 A 
ATOM     78  F   UNL A   1      50.077  25.958  28.574  1.00  0.00    -0.206 F 
ATOM     79  C   UNL A   1      52.093  25.563  25.593  1.00  0.00     0.060 A 
BRANCH  79  80
ATOM     80  S   UNL A   1      53.828  25.071  25.106  1.00  0.00     0.124 S 
ATOM     81  O   UNL A   1      54.622  25.530  26.240  1.00  0.00    -0.237 OA
ATOM     82  O   UNL A   1      53.730  23.620  24.972  1.00  0.00    -0.237 OA
ATOM     83  O   UNL A   1      54.066  25.782  23.850  1.00  0.00    -0.744 OA
ENDBRANCH  79  80
ENDBRANCH  47  72
BRANCH  59  84
ATOM     84  C   UNL A   1      46.682  32.604  28.391  1.00  0.00     0.058 A 
ATOM     85  C   UNL A   1      46.595  33.531  27.366  1.00  0.00     0.135 A 
ATOM     86  C   UNL A   1      47.217  33.039  29.607  1.00  0.00     0.135 A 
ATOM     87  F   UNL A   1      45.912  33.217  26.250  1.00  0.00    -0.206 F 
ATOM     88  C   UNL A   1      47.234  34.768  27.476  1.00  0.00     0.059 A 
ATOM     89  C   UNL A   1      47.727  34.329  29.770  1.00  0.00     0.059 A 
ATOM     90  F   UNL A   1      47.189  32.229  30.678  1.00  0.00    -0.206 F 
ATOM     91  C   UNL A   1      47.717  35.219  28.707  1.00  0.00     0.060 A 
BRANCH  91  92
ATOM     92  S   UNL A   1      48.236  36.998  28.929  1.00  0.00     0.124 S 
ATOM     93  O   UNL A   1      49.458  36.882  29.716  1.00  0.00    -0.237 OA
ATOM     94  O   UNL A   1      48.435  37.458  27.557  1.00  0.00    -0.237 OA
ATOM     95  O   UNL A   1      47.110  37.623  29.623  1.00  0.00    -0.744 OA
ENDBRANCH  91  92
ENDBRANCH  59  84
ENDBRANCH  33  34
ENDBRANCH  25  28
ENDBRANCH  23  24
ENDBRANCH  22  23
ENDBRANCH   1  22
TORSDOF 17
ENDMDL
MODEL 2
REMARK VINA RESULT:     -10.9      0.411      8.302
REMARK SMILES C[C@H](CC(=O)NCCCNC(=O)c1ccc(-c2c3nc(c(-c4c(F)cc(S(=O)(=O)[O-])cc4F)c4ccc([nH]4)c(-c4c(F)cc(S(=O)(=O)[O-])cc4F)c4nc(c(-c5c(F)cc(S(=O)(=O)[O-])cc5F)c5ccc2[nH]5)C=C4)C=C3)cc1)NC(=O)Cc1cn2ccsc2n1
REMARK SMILES IDX 7 1 6 2 4 3 5 4 3 6 2 7 1 8 79 9 80 10 81 12 82 13 83 14
REMARK SMILES IDX 84 15 90 16 85 17 89 18 86 19 88 20 87 21 8 22 9 23 10 24
REMARK SMILES IDX 11 25 12 27 13 28 14 29 78 30 15 31 77 32 16 33 17 34 18 35
REMARK SMILES IDX 71 36 19 37 76 38 70 39 72 40 20 41 75 42 69 43 68 44 21 46
REMARK SMILES IDX 55 47 34 48 54 49 35 50 38 51 53 52 73 53 36 54 37 55 52 57
REMARK SMILES IDX 74 58 39 59 22 60 23 61 32 62 24 63 25 64 31 65 33 66 26 67
REMARK SMILES IDX 27 68 28 69 29 70 30 71 56 72 57 73 66 74 58 75 59 76 65 77
REMARK SMILES IDX 67 78 60 79 61 80 62 81 63 82 64 83 40 84 41 85 50 86 42 87
REMARK SMILES IDX 43 88 49 89 51 90 44 91 45 92 46 93 47 94 48 95
REMARK H PARENT 6 5 79 11 10 26 72 45 38 56
REMARK Flexibility Score: inf
ROOT
ATOM      1  C   UNL A   1      37.296  21.245  24.910  1.00  0.00     0.117 C 
ENDROOT
BRANCH   1   2
ATOM      2  N   UNL A   1      36.356  21.543  26.028  1.00  0.00    -0.356 N 
ATOM      3  C   UNL A   1      35.361  22.543  26.009  1.00  0.00     0.222 C 
ATOM      4  O   UNL A   1      34.773  22.916  27.024  1.00  0.00    -0.275 OA
ATOM      5  H   UNL A   1      36.438  21.000  26.845  1.00  0.00     0.163 HD
BRANCH   3   6
ATOM      6  C   UNL A   1      35.256  23.388  24.755  1.00  0.00     0.124 C 
BRANCH   6   7
ATOM      7  C   UNL A   1      33.750  23.558  24.511  1.00  0.00     0.088 C 
ATOM      8  C   UNL A   1      33.343  25.009  24.469  1.00  0.00     0.031 C 
BRANCH   7   9
ATOM      9  N   UNL A   1      33.249  22.833  23.348  1.00  0.00    -0.353 N 
ATOM     10  C   UNL A   1      32.519  21.655  23.419  1.00  0.00     0.226 C 
ATOM     11  H   UNL A   1      33.441  23.203  22.455  1.00  0.00     0.163 HD
ATOM     12  O   UNL A   1      32.127  21.095  22.395  1.00  0.00    -0.275 OA
BRANCH  10  13
ATOM     13  C   UNL A   1      32.261  21.043  24.807  1.00  0.00     0.157 C 
BRANCH  13  14
ATOM     14  C   UNL A   1      32.780  19.657  24.864  1.00  0.00     0.070 A 
ATOM     15  C   UNL A   1      34.069  19.303  24.531  1.00  0.00     0.118 A 
ATOM     16  N   UNL A   1      32.069  18.578  25.338  1.00  0.00    -0.223 NA
ATOM     17  N   UNL A   1      34.146  17.994  24.770  1.00  0.00    -0.297 N 
ATOM     18  C   UNL A   1      32.939  17.618  25.237  1.00  0.00     0.193 A 
ATOM     19  C   UNL A   1      35.139  17.076  24.628  1.00  0.00     0.104 A 
ATOM     20  S   UNL A   1      32.882  15.975  25.563  1.00  0.00    -0.105 S 
ATOM     21  C   UNL A   1      34.754  15.844  24.978  1.00  0.00     0.087 A 
ENDBRANCH  13  14
ENDBRANCH  10  13
ENDBRANCH   7   9
ENDBRANCH   6   7
ENDBRANCH   3   6
ENDBRANCH   1   2
BRANCH   1  22
ATOM     22  C   UNL A   1      38.186  19.988  25.066  1.00  0.00     0.042 C 
BRANCH  22  23
ATOM     23  C   UNL A   1      39.344  20.316  25.950  1.00  0.00     0.118 C 
BRANCH  23  24
ATOM     24  N   UNL A   1      40.288  19.224  26.009  1.00  0.00    -0.352 N 
ATOM     25  C   UNL A   1      41.650  19.362  26.198  1.00  0.00     0.251 C 
ATOM     26  H   UNL A   1      39.933  18.312  25.906  1.00  0.00     0.163 HD
ATOM     27  O   UNL A   1      42.405  18.395  26.198  1.00  0.00    -0.269 OA
BRANCH  25  28
ATOM     28  C   UNL A   1      42.217  20.723  26.427  1.00  0.00     0.039 A 
ATOM     29  C   UNL A   1      42.620  21.507  25.358  1.00  0.00     0.014 A 
ATOM     30  C   UNL A   1      42.440  21.205  27.719  1.00  0.00     0.014 A 
ATOM     31  C   UNL A   1      43.366  22.661  25.607  1.00  0.00     0.010 A 
ATOM     32  C   UNL A   1      43.021  22.444  27.951  1.00  0.00     0.010 A 
ATOM     33  C   UNL A   1      43.472  23.204  26.887  1.00  0.00    -0.014 A 
BRANCH  33  34
ATOM     34  C   UNL A   1      43.970  24.582  27.081  1.00  0.00     0.031 A 
ATOM     35  C   UNL A   1      45.410  24.912  26.913  1.00  0.00     0.074 A 
ATOM     36  C   UNL A   1      43.102  25.546  27.458  1.00  0.00     0.049 A 
ATOM     37  N   UNL A   1      45.959  26.083  27.063  1.00  0.00    -0.248 NA
ATOM     38  C   UNL A   1      46.348  23.846  26.529  1.00  0.00     0.031 C 
ATOM     39  C   UNL A   1      41.672  25.314  27.647  1.00  0.00     0.029 A 
ATOM     40  N   UNL A   1      43.262  26.879  27.753  1.00  0.00    -0.354 N 
ATOM     41  C   UNL A   1      47.297  25.910  26.777  1.00  0.00     0.074 A 
ATOM     42  C   UNL A   1      47.499  24.507  26.471  1.00  0.00     0.031 C 
ATOM     43  C   UNL A   1      41.082  26.454  28.013  1.00  0.00     0.029 A 
ATOM     44  C   UNL A   1      42.088  27.502  28.111  1.00  0.00     0.049 A 
ATOM     45  H   UNL A   1      44.129  27.342  27.711  1.00  0.00     0.167 HD
ATOM     46  C   UNL A   1      48.246  26.869  26.769  1.00  0.00     0.037 A 
ATOM     47  C   UNL A   1      41.810  28.768  28.477  1.00  0.00     0.037 A 
ATOM     48  C   UNL A   1      48.026  28.229  27.122  1.00  0.00     0.049 A 
ATOM     49  C   UNL A   1      42.901  29.778  28.554  1.00  0.00     0.074 A 
ATOM     50  C   UNL A   1      48.981  29.225  27.131  1.00  0.00     0.029 A 
ATOM     51  N   UNL A   1      46.828  28.788  27.516  1.00  0.00    -0.354 N 
ATOM     52  N   UNL A   1      44.153  29.582  28.246  1.00  0.00    -0.248 NA
ATOM     53  C   UNL A   1      42.593  31.146  29.010  1.00  0.00     0.031 C 
ATOM     54  C   UNL A   1      48.384  30.386  27.553  1.00  0.00     0.029 A 
ATOM     55  C   UNL A   1      47.049  30.123  27.781  1.00  0.00     0.049 A 
ATOM     56  H   UNL A   1      45.967  28.317  27.595  1.00  0.00     0.167 HD
ATOM     57  C   UNL A   1      44.779  30.795  28.438  1.00  0.00     0.074 A 
ATOM     58  C   UNL A   1      43.778  31.737  28.905  1.00  0.00     0.031 C 
ATOM     59  C   UNL A   1      46.083  31.066  28.227  1.00  0.00     0.037 A 
BRANCH  46  60
ATOM     60  C   UNL A   1      49.636  26.480  26.409  1.00  0.00     0.058 A 
ATOM     61  C   UNL A   1      50.110  26.550  25.108  1.00  0.00     0.135 A 
ATOM     62  C   UNL A   1      50.507  25.987  27.383  1.00  0.00     0.135 A 
ATOM     63  F   UNL A   1      49.395  27.200  24.173  1.00  0.00    -0.206 F 
ATOM     64  C   UNL A   1      51.306  25.911  24.761  1.00  0.00     0.059 A 
ATOM     65  C   UNL A   1      51.765  25.481  27.064  1.00  0.00     0.059 A 
ATOM     66  F   UNL A   1      50.157  26.038  28.678  1.00  0.00    -0.206 F 
ATOM     67  C   UNL A   1      52.189  25.459  25.744  1.00  0.00     0.060 A 
BRANCH  67  68
ATOM     68  S   UNL A   1      53.925  24.938  25.300  1.00  0.00     0.124 S 
ATOM     69  O   UNL A   1      53.755  23.536  24.936  1.00  0.00    -0.237 OA
ATOM     70  O   UNL A   1      54.260  25.821  24.186  1.00  0.00    -0.237 OA
ATOM     71  O   UNL A   1      54.700  25.171  26.518  1.00  0.00    -0.744 OA
ENDBRANCH  67  68
ENDBRANCH  46  60
BRANCH  47  72
ATOM     72  C   UNL A   1      40.431  29.150  28.818  1.00  0.00     0.058 A 
ATOM     73  C   UNL A   1      39.502  29.514  27.852  1.00  0.00     0.135 A 
ATOM     74  C   UNL A   1      40.032  29.221  30.151  1.00  0.00     0.135 A 
ATOM     75  F   UNL A   1      39.782  29.309  26.553  1.00  0.00    -0.206 F 
ATOM     76  C   UNL A   1      38.276  30.084  28.223  1.00  0.00     0.059 A 
ATOM     77  C   UNL A   1      38.761  29.654  30.523  1.00  0.00     0.059 A 
ATOM     78  F   UNL A   1      40.863  28.780  31.107  1.00  0.00    -0.206 F 
ATOM     79  C   UNL A   1      37.854  30.062  29.555  1.00  0.00     0.060 A 
BRANCH  79  80
ATOM     80  S   UNL A   1      36.089  30.479  30.007  1.00  0.00     0.124 S 
ATOM     81  O   UNL A   1      35.321  29.749  29.006  1.00  0.00    -0.237 OA
ATOM     82  O   UNL A   1      35.971  29.963  31.368  1.00  0.00    -0.237 OA
ATOM     83  O   UNL A   1      36.024  31.936  29.901  1.00  0.00    -0.744 OA
ENDBRANCH  79  80
ENDBRANCH  47  72
BRANCH  59  84
ATOM     84  C   UNL A   1      46.563  32.451  28.473  1.00  0.00     0.058 A 
ATOM     85  C   UNL A   1      47.031  32.827  29.721  1.00  0.00     0.135 A 
ATOM     86  C   UNL A   1      46.573  33.419  27.464  1.00  0.00     0.135 A 
ATOM     87  F   UNL A   1      47.225  31.887  30.663  1.00  0.00    -0.206 F 
ATOM     88  C   UNL A   1      47.272  34.173  30.008  1.00  0.00     0.059 A 
ATOM     89  C   UNL A   1      46.955  34.739  27.711  1.00  0.00     0.059 A 
ATOM     90  F   UNL A   1      46.272  33.072  26.202  1.00  0.00    -0.206 F 
ATOM     91  C   UNL A   1      47.335  35.124  28.988  1.00  0.00     0.060 A 
BRANCH  91  92
ATOM     92  S   UNL A   1      48.008  36.832  29.323  1.00  0.00     0.124 S 
ATOM     93  O   UNL A   1      47.437  37.623  28.239  1.00  0.00    -0.237 OA
ATOM     94  O   UNL A   1      47.479  37.142  30.649  1.00  0.00    -0.237 OA
ATOM     95  O   UNL A   1      49.461  36.670  29.270  1.00  0.00    -0.744 OA
ENDBRANCH  91  92
ENDBRANCH  59  84
ENDBRANCH  33  34
ENDBRANCH  25  28
ENDBRANCH  23  24
ENDBRANCH  22  23
ENDBRANCH   1  22
TORSDOF 17
ENDMDL
MODEL 3
REMARK VINA RESULT:     -10.8      5.159     10.829
REMARK SMILES C[C@H](CC(=O)NCCCNC(=O)c1ccc(-c2c3nc(c(-c4c(F)cc(S(=O)(=O)[O-])cc4F)c4ccc([nH]4)c(-c4c(F)cc(S(=O)(=O)[O-])cc4F)c4nc(c(-c5c(F)cc(S(=O)(=O)[O-])cc5F)c5ccc2[nH]5)C=C4)C=C3)cc1)NC(=O)Cc1cn2ccsc2n1
REMARK SMILES IDX 7 1 6 2 4 3 5 4 3 6 2 7 1 8 79 9 80 10 81 12 82 13 83 14
REMARK SMILES IDX 84 15 90 16 85 17 89 18 86 19 88 20 87 21 8 22 9 23 10 24
REMARK SMILES IDX 11 25 12 27 13 28 14 29 78 30 15 31 77 32 16 33 17 34 18 35
REMARK SMILES IDX 71 36 19 37 76 38 70 39 72 40 20 41 75 42 69 43 68 44 21 46
REMARK SMILES IDX 55 47 34 48 54 49 35 50 38 51 53 52 73 53 36 54 37 55 52 57
REMARK SMILES IDX 74 58 39 59 22 60 23 61 32 62 24 63 25 64 31 65 33 66 26 67
REMARK SMILES IDX 27 68 28 69 29 70 30 71 56 72 57 73 66 74 58 75 59 76 65 77
REMARK SMILES IDX 67 78 60 79 61 80 62 81 63 82 64 83 40 84 41 85 50 86 42 87
REMARK SMILES IDX 43 88 49 89 51 90 44 91 45 92 46 93 47 94 48 95
REMARK H PARENT 6 5 79 11 10 26 72 45 38 56
REMARK Flexibility Score: inf
ROOT
ATOM      1  C   UNL A   1      35.411  34.647  28.732  1.00  0.00     0.117 C 
ENDROOT
BRANCH   1   2
ATOM      2  N   UNL A   1      34.504  35.796  28.452  1.00  0.00    -0.356 N 
ATOM      3  C   UNL A   1      33.304  36.070  29.142  1.00  0.00     0.222 C 
ATOM      4  O   UNL A   1      32.470  36.878  28.731  1.00  0.00    -0.275 OA
ATOM      5  H   UNL A   1      34.762  36.412  27.729  1.00  0.00     0.163 HD
BRANCH   3   6
ATOM      6  C   UNL A   1      32.904  35.106  30.241  1.00  0.00     0.124 C 
BRANCH   6   7
ATOM      7  C   UNL A   1      33.636  35.601  31.496  1.00  0.00     0.088 C 
ATOM      8  C   UNL A   1      33.145  36.955  31.942  1.00  0.00     0.031 C 
BRANCH   7   9
ATOM      9  N   UNL A   1      33.637  34.648  32.601  1.00  0.00    -0.353 N 
ATOM     10  C   UNL A   1      34.749  33.921  33.002  1.00  0.00     0.226 C 
ATOM     11  H   UNL A   1      32.795  34.509  33.092  1.00  0.00     0.163 HD
ATOM     12  O   UNL A   1      34.679  33.132  33.944  1.00  0.00    -0.275 OA
BRANCH  10  13
ATOM     13  C   UNL A   1      36.054  34.091  32.205  1.00  0.00     0.157 C 
BRANCH  13  14
ATOM     14  C   UNL A   1      37.225  33.991  33.106  1.00  0.00     0.070 A 
ATOM     15  C   UNL A   1      38.130  32.951  33.081  1.00  0.00     0.118 A 
ATOM     16  N   UNL A   1      37.599  34.960  34.009  1.00  0.00    -0.223 NA
ATOM     17  N   UNL A   1      39.049  33.264  33.994  1.00  0.00    -0.297 N 
ATOM     18  C   UNL A   1      38.682  34.452  34.515  1.00  0.00     0.193 A 
ATOM     19  C   UNL A   1      40.171  32.639  34.441  1.00  0.00     0.104 A 
ATOM     20  S   UNL A   1      39.747  34.964  35.705  1.00  0.00    -0.105 S 
ATOM     21  C   UNL A   1      40.791  33.326  35.408  1.00  0.00     0.087 A 
ENDBRANCH  13  14
ENDBRANCH  10  13
ENDBRANCH   7   9
ENDBRANCH   6   7
ENDBRANCH   3   6
ENDBRANCH   1   2
BRANCH   1  22
ATOM     22  C   UNL A   1      35.089  33.316  28.009  1.00  0.00     0.042 C 
BRANCH  22  23
ATOM     23  C   UNL A   1      34.635  32.310  29.015  1.00  0.00     0.118 C 
BRANCH  23  24
ATOM     24  N   UNL A   1      33.884  31.245  28.393  1.00  0.00    -0.352 N 
ATOM     25  C   UNL A   1      34.411  30.032  27.991  1.00  0.00     0.251 C 
ATOM     26  H   UNL A   1      32.922  31.395  28.246  1.00  0.00     0.163 HD
ATOM     27  O   UNL A   1      33.726  29.182  27.431  1.00  0.00    -0.269 OA
BRANCH  25  28
ATOM     28  C   UNL A   1      35.849  29.741  28.261  1.00  0.00     0.039 A 
ATOM     29  C   UNL A   1      36.786  29.815  27.244  1.00  0.00     0.014 A 
ATOM     30  C   UNL A   1      36.273  29.300  29.518  1.00  0.00     0.014 A 
ATOM     31  C   UNL A   1      38.067  29.303  27.463  1.00  0.00     0.010 A 
ATOM     32  C   UNL A   1      37.597  28.967  29.771  1.00  0.00     0.010 A 
ATOM     33  C   UNL A   1      38.522  28.990  28.743  1.00  0.00    -0.014 A 
BRANCH  33  34
ATOM     34  C   UNL A   1      39.962  28.776  28.999  1.00  0.00     0.031 A 
ATOM     35  C   UNL A   1      40.814  29.858  29.558  1.00  0.00     0.074 A 
ATOM     36  C   UNL A   1      40.516  27.587  28.677  1.00  0.00     0.049 A 
ATOM     37  N   UNL A   1      42.088  29.784  29.817  1.00  0.00    -0.248 NA
ATOM     38  C   UNL A   1      40.204  31.157  29.878  1.00  0.00     0.031 C 
ATOM     39  C   UNL A   1      39.756  26.468  28.122  1.00  0.00     0.029 A 
ATOM     40  N   UNL A   1      41.802  27.108  28.751  1.00  0.00    -0.354 N 
ATOM     41  C   UNL A   1      42.436  31.010  30.346  1.00  0.00     0.074 A 
ATOM     42  C   UNL A   1      41.244  31.837  30.348  1.00  0.00     0.031 C 
ATOM     43  C   UNL A   1      40.576  25.434  27.915  1.00  0.00     0.029 A 
ATOM     44  C   UNL A   1      41.928  25.815  28.298  1.00  0.00     0.049 A 
ATOM     45  H   UNL A   1      42.557  27.637  29.095  1.00  0.00     0.167 HD
ATOM     46  C   UNL A   1      43.655  31.374  30.794  1.00  0.00     0.037 A 
ATOM     47  C   UNL A   1      42.990  24.993  28.191  1.00  0.00     0.037 A 
ATOM     48  C   UNL A   1      44.817  30.556  30.734  1.00  0.00     0.049 A 
ATOM     49  C   UNL A   1      44.341  25.462  28.602  1.00  0.00     0.074 A 
ATOM     50  C   UNL A   1      46.076  30.908  31.177  1.00  0.00     0.029 A 
ATOM     51  N   UNL A   1      44.891  29.275  30.227  1.00  0.00    -0.354 N 
ATOM     52  N   UNL A   1      44.625  26.622  29.127  1.00  0.00    -0.248 NA
ATOM     53  C   UNL A   1      45.504  24.573  28.427  1.00  0.00     0.031 C 
ATOM     54  C   UNL A   1      46.928  29.864  30.920  1.00  0.00     0.029 A 
ATOM     55  C   UNL A   1      46.196  28.846  30.343  1.00  0.00     0.049 A 
ATOM     56  H   UNL A   1      44.143  28.759  29.848  1.00  0.00     0.167 HD
ATOM     57  C   UNL A   1      45.980  26.599  29.374  1.00  0.00     0.074 A 
ATOM     58  C   UNL A   1      46.486  25.312  28.932  1.00  0.00     0.031 C 
ATOM     59  C   UNL A   1      46.711  27.588  29.929  1.00  0.00     0.037 A 
BRANCH  46  60
ATOM     60  C   UNL A   1      43.819  32.742  31.354  1.00  0.00     0.058 A 
ATOM     61  C   UNL A   1      43.623  33.021  32.697  1.00  0.00     0.135 A 
ATOM     62  C   UNL A   1      44.144  33.814  30.518  1.00  0.00     0.135 A 
ATOM     63  F   UNL A   1      43.510  32.011  33.577  1.00  0.00    -0.206 F 
ATOM     64  C   UNL A   1      43.500  34.346  33.129  1.00  0.00     0.059 A 
ATOM     65  C   UNL A   1      44.169  35.129  30.975  1.00  0.00     0.059 A 
ATOM     66  F   UNL A   1      44.493  33.581  29.243  1.00  0.00    -0.206 F 
ATOM     67  C   UNL A   1      43.867  35.408  32.299  1.00  0.00     0.060 A 
BRANCH  67  68
ATOM     68  S   UNL A   1      44.046  37.135  32.983  1.00  0.00     0.124 S 
ATOM     69  O   UNL A   1      42.947  37.216  33.940  1.00  0.00    -0.237 OA
ATOM     70  O   UNL A   1      45.377  37.117  33.584  1.00  0.00    -0.237 OA
ATOM     71  O   UNL A   1      43.914  38.006  31.816  1.00  0.00    -0.744 OA
ENDBRANCH  67  68
ENDBRANCH  46  60
BRANCH  47  72
ATOM     72  C   UNL A   1      42.819  23.635  27.650  1.00  0.00     0.058 A 
ATOM     73  C   UNL A   1      42.553  22.541  28.464  1.00  0.00     0.135 A 
ATOM     74  C   UNL A   1      42.986  23.396  26.288  1.00  0.00     0.135 A 
ATOM     75  F   UNL A   1      42.224  22.738  29.752  1.00  0.00    -0.206 F 
ATOM     76  C   UNL A   1      42.618  21.240  27.948  1.00  0.00     0.059 A 
ATOM     77  C   UNL A   1      42.912  22.115  25.745  1.00  0.00     0.059 A 
ATOM     78  F   UNL A   1      43.140  24.436  25.455  1.00  0.00    -0.206 F 
ATOM     79  C   UNL A   1      42.694  21.021  26.570  1.00  0.00     0.060 A 
BRANCH  79  80
ATOM     80  S   UNL A   1      42.414  19.318  25.854  1.00  0.00     0.124 S 
ATOM     81  O   UNL A   1      40.967  19.275  25.683  1.00  0.00    -0.237 OA
ATOM     82  O   UNL A   1      43.178  19.357  24.610  1.00  0.00    -0.237 OA
ATOM     83  O   UNL A   1      42.948  18.408  26.867  1.00  0.00    -0.744 OA
ENDBRANCH  79  80
ENDBRANCH  47  72
BRANCH  59  84
ATOM     84  C   UNL A   1      48.165  27.359  30.134  1.00  0.00     0.058 A 
ATOM     85  C   UNL A   1      49.089  27.800  29.202  1.00  0.00     0.135 A 
ATOM     86  C   UNL A   1      48.657  26.705  31.268  1.00  0.00     0.135 A 
ATOM     87  F   UNL A   1      48.683  28.601  28.200  1.00  0.00    -0.206 F 
ATOM     88  C   UNL A   1      50.423  27.395  29.284  1.00  0.00     0.059 A 
ATOM     89  C   UNL A   1      50.016  26.425  31.427  1.00  0.00     0.059 A 
ATOM     90  F   UNL A   1      47.823  26.389  32.272  1.00  0.00    -0.206 F 
ATOM     91  C   UNL A   1      50.920  26.793  30.442  1.00  0.00     0.060 A 
BRANCH  91  92
ATOM     92  S   UNL A   1      52.758  26.586  30.690  1.00  0.00     0.124 S 
ATOM     93  O   UNL A   1      52.833  25.485  31.644  1.00  0.00    -0.237 OA
ATOM     94  O   UNL A   1      53.239  26.264  29.349  1.00  0.00    -0.237 OA
ATOM     95  O   UNL A   1      53.206  27.880  31.203  1.00  0.00    -0.744 OA
ENDBRANCH  91  92
ENDBRANCH  59  84
ENDBRANCH  33  34
ENDBRANCH  25  28
ENDBRANCH  23  24
ENDBRANCH  22  23
ENDBRANCH   1  22
TORSDOF 17
ENDMDL
