MODEL 1
REMARK VINA RESULT:     -10.1      0.000      0.000
REMARK SMILES CC(C)(C[NH+]1CCC(C(N)=S)CC1)C(=O)NCCCNC(=O)c1ccc(-c2c3nc(c(-c4c(F)cc(S(=O)(=O)[O-])cc4F)c4ccc([nH]4)c(-c4c(F)cc(S(=O)(=O)[O-])cc4F)c4nc(c(-c5c(F)cc(S(=O)(=O)[O-])cc5F)c5ccc2[nH]5)C=C4)C=C3)cc1
REMARK SMILES IDX 17 1 16 2 14 3 15 4 2 6 1 7 3 8 4 9 5 10 6 11 13 12 7 14
REMARK SMILES IDX 12 15 8 16 9 17 11 18 10 19 18 22 19 23 20 24 21 25 22 27
REMARK SMILES IDX 23 28 24 29 88 30 25 31 87 32 26 33 27 34 28 35 81 36 29 37
REMARK SMILES IDX 86 38 80 39 82 40 30 41 85 42 79 43 78 44 31 46 65 47 44 48
REMARK SMILES IDX 64 49 45 50 48 51 63 52 83 53 46 54 47 55 62 57 84 58 49 59
REMARK SMILES IDX 32 60 33 61 42 62 34 63 35 64 41 65 43 66 36 67 37 68 38 69
REMARK SMILES IDX 39 70 40 71 66 72 67 73 76 74 68 75 69 76 75 77 77 78 70 79
REMARK SMILES IDX 71 80 72 81 73 82 74 83 50 84 51 85 60 86 52 87 53 88 59 89
REMARK SMILES IDX 61 90 54 91 55 92 56 93 57 94 58 95
REMARK H PARENT 16 5 5 13 10 20 10 21 20 26 82 45 48 56
REMARK Flexibility Score: inf
ROOT
ATOM      1  C   UNL A   1      32.839  26.861  24.952  1.00  0.00     0.117 C 
ENDROOT
BRANCH   1   2
ATOM      2  N   UNL A   1      32.276  26.080  26.040  1.00  0.00    -0.355 N 
ATOM      3  C   UNL A   1      31.755  24.829  26.129  1.00  0.00     0.231 C 
ATOM      4  O   UNL A   1      31.512  24.449  27.282  1.00  0.00    -0.274 OA
ATOM      5  H   UNL A   1      32.272  26.562  26.899  1.00  0.00     0.163 HD
BRANCH   3   6
ATOM      6  C   UNL A   1      31.456  23.927  24.915  1.00  0.00     0.092 C 
ATOM      7  C   UNL A   1      30.363  24.612  24.056  1.00  0.00     0.027 C 
ATOM      8  C   UNL A   1      30.792  22.609  25.379  1.00  0.00     0.027 C 
BRANCH   6   9
ATOM      9  C   UNL A   1      32.736  23.613  24.071  1.00  0.00     0.278 C 
BRANCH   9  10
ATOM     10  N   UNL A   1      33.997  23.106  24.650  1.00  0.00    -0.334 N 
ATOM     11  C   UNL A   1      34.297  21.705  24.359  1.00  0.00     0.262 C 
ATOM     12  C   UNL A   1      35.144  24.005  24.507  1.00  0.00     0.262 C 
ATOM     13  H   UNL A   1      33.803  23.109  25.652  1.00  0.00     0.348 HD
ATOM     14  C   UNL A   1      35.522  21.190  25.122  1.00  0.00     0.072 C 
ATOM     15  C   UNL A   1      36.379  23.516  25.270  1.00  0.00     0.072 C 
ATOM     16  C   UNL A   1      36.723  22.093  24.829  1.00  0.00     0.058 C 
BRANCH  16  17
ATOM     17  C   UNL A   1      38.030  21.576  25.412  1.00  0.00     0.076 C 
ATOM     18  S   UNL A   1      39.111  22.469  26.311  1.00  0.00    -0.066 S 
BRANCH  17  19
ATOM     19  N   UNL A   1      38.303  20.261  25.154  1.00  0.00    -0.393 N 
ATOM     20  H   UNL A   1      39.034  20.021  24.539  1.00  0.00     0.157 HD
ATOM     21  H   UNL A   1      37.770  19.554  25.584  1.00  0.00     0.157 HD
ENDBRANCH  17  19
ENDBRANCH  16  17
ENDBRANCH   9  10
ENDBRANCH   6   9
ENDBRANCH   3   6
ENDBRANCH   1   2
BRANCH   1  22
ATOM     22  C   UNL A   1      33.726  28.014  25.405  1.00  0.00     0.042 C 
BRANCH  22  23
ATOM     23  C   UNL A   1      33.797  28.221  26.913  1.00  0.00     0.118 C 
BRANCH  23  24
ATOM     24  N   UNL A   1      33.659  29.619  27.291  1.00  0.00    -0.352 N 
ATOM     25  C   UNL A   1      34.505  30.439  27.999  1.00  0.00     0.251 C 
ATOM     26  H   UNL A   1      32.824  30.046  26.992  1.00  0.00     0.163 HD
ATOM     27  O   UNL A   1      34.088  31.523  28.398  1.00  0.00    -0.269 OA
BRANCH  25  28
ATOM     28  C   UNL A   1      35.897  30.027  28.300  1.00  0.00     0.039 A 
ATOM     29  C   UNL A   1      36.857  30.103  27.286  1.00  0.00     0.014 A 
ATOM     30  C   UNL A   1      36.253  29.522  29.553  1.00  0.00     0.014 A 
ATOM     31  C   UNL A   1      38.180  29.734  27.547  1.00  0.00     0.010 A 
ATOM     32  C   UNL A   1      37.587  29.230  29.835  1.00  0.00     0.010 A 
ATOM     33  C   UNL A   1      38.564  29.325  28.833  1.00  0.00    -0.014 A 
BRANCH  33  34
ATOM     34  C   UNL A   1      39.978  28.985  29.151  1.00  0.00     0.031 A 
ATOM     35  C   UNL A   1      40.877  30.010  29.789  1.00  0.00     0.074 A 
ATOM     36  C   UNL A   1      40.470  27.780  28.802  1.00  0.00     0.049 A 
ATOM     37  N   UNL A   1      42.157  29.935  30.056  1.00  0.00    -0.248 NA
ATOM     38  C   UNL A   1      40.266  31.300  30.149  1.00  0.00     0.031 C 
ATOM     39  C   UNL A   1      39.715  26.717  28.135  1.00  0.00     0.029 A 
ATOM     40  N   UNL A   1      41.729  27.251  28.945  1.00  0.00    -0.354 N 
ATOM     41  C   UNL A   1      42.506  31.169  30.593  1.00  0.00     0.074 A 
ATOM     42  C   UNL A   1      41.315  31.990  30.571  1.00  0.00     0.031 C 
ATOM     43  C   UNL A   1      40.519  25.659  27.943  1.00  0.00     0.029 A 
ATOM     44  C   UNL A   1      41.855  25.979  28.437  1.00  0.00     0.049 A 
ATOM     45  H   UNL A   1      42.472  27.736  29.371  1.00  0.00     0.167 HD
ATOM     46  C   UNL A   1      43.705  31.575  31.078  1.00  0.00     0.037 A 
ATOM     47  C   UNL A   1      42.927  25.166  28.366  1.00  0.00     0.037 A 
ATOM     48  C   UNL A   1      44.878  30.743  31.131  1.00  0.00     0.049 A 
ATOM     49  C   UNL A   1      44.243  25.632  28.925  1.00  0.00     0.074 A 
ATOM     50  C   UNL A   1      46.121  31.041  31.663  1.00  0.00     0.029 A 
ATOM     51  N   UNL A   1      44.956  29.450  30.636  1.00  0.00    -0.354 N 
ATOM     52  N   UNL A   1      44.540  26.783  29.482  1.00  0.00    -0.248 NA
ATOM     53  C   UNL A   1      45.369  24.691  28.853  1.00  0.00     0.031 C 
ATOM     54  C   UNL A   1      46.960  29.940  31.458  1.00  0.00     0.029 A 
ATOM     55  C   UNL A   1      46.229  28.942  30.836  1.00  0.00     0.049 A 
ATOM     56  H   UNL A   1      44.216  28.964  30.205  1.00  0.00     0.167 HD
ATOM     57  C   UNL A   1      45.878  26.694  29.847  1.00  0.00     0.074 A 
ATOM     58  C   UNL A   1      46.331  25.373  29.460  1.00  0.00     0.031 C 
ATOM     59  C   UNL A   1      46.662  27.621  30.451  1.00  0.00     0.037 A 
BRANCH  46  60
ATOM     60  C   UNL A   1      43.804  32.982  31.599  1.00  0.00     0.058 A 
ATOM     61  C   UNL A   1      43.583  33.285  32.952  1.00  0.00     0.135 A 
ATOM     62  C   UNL A   1      44.157  34.038  30.743  1.00  0.00     0.135 A 
ATOM     63  F   UNL A   1      43.230  32.316  33.812  1.00  0.00    -0.206 F 
ATOM     64  C   UNL A   1      43.676  34.587  33.432  1.00  0.00     0.059 A 
ATOM     65  C   UNL A   1      44.281  35.346  31.206  1.00  0.00     0.059 A 
ATOM     66  F   UNL A   1      44.381  33.808  29.440  1.00  0.00    -0.206 F 
ATOM     67  C   UNL A   1      44.024  35.612  32.551  1.00  0.00     0.060 A 
BRANCH  67  68
ATOM     68  S   UNL A   1      44.140  37.296  33.189  1.00  0.00     0.124 S 
ATOM     69  O   UNL A   1      42.979  37.352  34.074  1.00  0.00    -0.237 OA
ATOM     70  O   UNL A   1      45.440  37.293  33.850  1.00  0.00    -0.237 OA
ATOM     71  O   UNL A   1      44.052  38.122  31.988  1.00  0.00    -0.744 OA
ENDBRANCH  67  68
ENDBRANCH  46  60
BRANCH  47  72
ATOM     72  C   UNL A   1      42.792  23.814  27.762  1.00  0.00     0.058 A 
ATOM     73  C   UNL A   1      42.981  23.619  26.386  1.00  0.00     0.135 A 
ATOM     74  C   UNL A   1      42.491  22.691  28.547  1.00  0.00     0.135 A 
ATOM     75  F   UNL A   1      43.264  24.664  25.593  1.00  0.00    -0.206 F 
ATOM     76  C   UNL A   1      42.863  22.361  25.805  1.00  0.00     0.059 A 
ATOM     77  C   UNL A   1      42.391  21.419  27.993  1.00  0.00     0.059 A 
ATOM     78  F   UNL A   1      42.317  22.822  29.871  1.00  0.00    -0.206 F 
ATOM     79  C   UNL A   1      42.570  21.265  26.619  1.00  0.00     0.060 A 
BRANCH  79  80
ATOM     80  S   UNL A   1      42.476  19.627  25.864  1.00  0.00     0.124 S 
ATOM     81  O   UNL A   1      43.421  19.757  24.761  1.00  0.00    -0.237 OA
ATOM     82  O   UNL A   1      42.890  18.757  26.961  1.00  0.00    -0.237 OA
ATOM     83  O   UNL A   1      41.071  19.514  25.484  1.00  0.00    -0.744 OA
ENDBRANCH  79  80
ENDBRANCH  47  72
BRANCH  59  84
ATOM     84  C   UNL A   1      48.081  27.233  30.760  1.00  0.00     0.058 A 
ATOM     85  C   UNL A   1      48.430  26.630  31.978  1.00  0.00     0.135 A 
ATOM     86  C   UNL A   1      49.093  27.422  29.805  1.00  0.00     0.135 A 
ATOM     87  F   UNL A   1      47.500  26.433  32.926  1.00  0.00    -0.206 F 
ATOM     88  C   UNL A   1      49.740  26.244  32.246  1.00  0.00     0.059 A 
ATOM     89  C   UNL A   1      50.404  27.022  30.043  1.00  0.00     0.059 A 
ATOM     90  F   UNL A   1      48.808  27.987  28.622  1.00  0.00    -0.206 F 
ATOM     91  C   UNL A   1      50.719  26.444  31.272  1.00  0.00     0.060 A 
BRANCH  91  92
ATOM     92  S   UNL A   1      52.408  25.907  31.617  1.00  0.00     0.124 S 
ATOM     93  O   UNL A   1      52.798  26.830  32.679  1.00  0.00    -0.237 OA
ATOM     94  O   UNL A   1      52.220  24.517  32.023  1.00  0.00    -0.237 OA
ATOM     95  O   UNL A   1      53.092  26.093  30.341  1.00  0.00    -0.744 OA
ENDBRANCH  91  92
ENDBRANCH  59  84
ENDBRANCH  33  34
ENDBRANCH  25  28
ENDBRANCH  23  24
ENDBRANCH  22  23
ENDBRANCH   1  22
TORSDOF 17
ENDMDL
MODEL 2
REMARK VINA RESULT:     -10.1      3.105      5.652
REMARK SMILES CC(C)(C[NH+]1CCC(C(N)=S)CC1)C(=O)NCCCNC(=O)c1ccc(-c2c3nc(c(-c4c(F)cc(S(=O)(=O)[O-])cc4F)c4ccc([nH]4)c(-c4c(F)cc(S(=O)(=O)[O-])cc4F)c4nc(c(-c5c(F)cc(S(=O)(=O)[O-])cc5F)c5ccc2[nH]5)C=C4)C=C3)cc1
REMARK SMILES IDX 17 1 16 2 14 3 15 4 2 6 1 7 3 8 4 9 5 10 6 11 13 12 7 14
REMARK SMILES IDX 12 15 8 16 9 17 11 18 10 19 18 22 19 23 20 24 21 25 22 27
REMARK SMILES IDX 23 28 24 29 88 30 25 31 87 32 26 33 27 34 28 35 81 36 29 37
REMARK SMILES IDX 86 38 80 39 82 40 30 41 85 42 79 43 78 44 31 46 65 47 44 48
REMARK SMILES IDX 64 49 45 50 48 51 63 52 83 53 46 54 47 55 62 57 84 58 49 59
REMARK SMILES IDX 32 60 33 61 42 62 34 63 35 64 41 65 43 66 36 67 37 68 38 69
REMARK SMILES IDX 39 70 40 71 66 72 67 73 76 74 68 75 69 76 75 77 77 78 70 79
REMARK SMILES IDX 71 80 72 81 73 82 74 83 50 84 51 85 60 86 52 87 53 88 59 89
REMARK SMILES IDX 61 90 54 91 55 92 56 93 57 94 58 95
REMARK H PARENT 16 5 5 13 10 20 10 21 20 26 82 45 48 56
REMARK Flexibility Score: inf
ROOT
ATOM      1  C   UNL A   1      34.739  33.024  30.837  1.00  0.00     0.117 C 
ENDROOT
BRANCH   1   2
ATOM      2  N   UNL A   1      34.852  33.959  31.942  1.00  0.00    -0.355 N 
ATOM      3  C   UNL A   1      35.881  34.362  32.733  1.00  0.00     0.231 C 
ATOM      4  O   UNL A   1      35.617  35.309  33.485  1.00  0.00    -0.274 OA
ATOM      5  H   UNL A   1      33.999  34.396  32.167  1.00  0.00     0.163 HD
BRANCH   3   6
ATOM      6  C   UNL A   1      37.276  33.707  32.739  1.00  0.00     0.092 C 
ATOM      7  C   UNL A   1      38.205  34.544  33.654  1.00  0.00     0.027 C 
ATOM      8  C   UNL A   1      37.928  33.825  31.341  1.00  0.00     0.027 C 
BRANCH   6   9
ATOM      9  C   UNL A   1      37.233  32.207  33.185  1.00  0.00     0.278 C 
BRANCH   9  10
ATOM     10  N   UNL A   1      38.382  31.285  33.075  1.00  0.00    -0.334 N 
ATOM     11  C   UNL A   1      39.520  31.603  33.937  1.00  0.00     0.262 C 
ATOM     12  C   UNL A   1      38.030  29.864  33.050  1.00  0.00     0.262 C 
ATOM     13  H   UNL A   1      38.732  31.472  32.134  1.00  0.00     0.348 HD
ATOM     14  C   UNL A   1      40.740  30.720  33.658  1.00  0.00     0.072 C 
ATOM     15  C   UNL A   1      39.234  28.961  32.762  1.00  0.00     0.072 C 
ATOM     16  C   UNL A   1      40.342  29.246  33.776  1.00  0.00     0.058 C 
BRANCH  16  17
ATOM     17  C   UNL A   1      41.519  28.287  33.675  1.00  0.00     0.076 C 
ATOM     18  S   UNL A   1      42.207  27.460  34.946  1.00  0.00    -0.066 S 
BRANCH  17  19
ATOM     19  N   UNL A   1      42.025  28.116  32.415  1.00  0.00    -0.393 N 
ATOM     20  H   UNL A   1      42.873  28.549  32.163  1.00  0.00     0.157 HD
ATOM     21  H   UNL A   1      41.542  27.560  31.762  1.00  0.00     0.157 HD
ENDBRANCH  17  19
ENDBRANCH  16  17
ENDBRANCH   9  10
ENDBRANCH   6   9
ENDBRANCH   3   6
ENDBRANCH   1   2
BRANCH   1  22
ATOM     22  C   UNL A   1      34.327  33.664  29.517  1.00  0.00     0.042 C 
BRANCH  22  23
ATOM     23  C   UNL A   1      34.783  32.921  28.267  1.00  0.00     0.118 C 
BRANCH  23  24
ATOM     24  N   UNL A   1      34.011  31.713  28.024  1.00  0.00    -0.352 N 
ATOM     25  C   UNL A   1      34.420  30.411  27.860  1.00  0.00     0.251 C 
ATOM     26  H   UNL A   1      33.038  31.849  27.967  1.00  0.00     0.163 HD
ATOM     27  O   UNL A   1      33.617  29.582  27.440  1.00  0.00    -0.269 OA
BRANCH  25  28
ATOM     28  C   UNL A   1      35.812  30.001  28.164  1.00  0.00     0.039 A 
ATOM     29  C   UNL A   1      36.770  30.059  27.146  1.00  0.00     0.014 A 
ATOM     30  C   UNL A   1      36.170  29.514  29.423  1.00  0.00     0.014 A 
ATOM     31  C   UNL A   1      38.093  29.691  27.410  1.00  0.00     0.010 A 
ATOM     32  C   UNL A   1      37.504  29.223  29.707  1.00  0.00     0.010 A 
ATOM     33  C   UNL A   1      38.479  29.301  28.702  1.00  0.00    -0.014 A 
BRANCH  33  34
ATOM     34  C   UNL A   1      39.892  28.962  29.022  1.00  0.00     0.031 A 
ATOM     35  C   UNL A   1      40.799  29.999  29.630  1.00  0.00     0.074 A 
ATOM     36  C   UNL A   1      40.377  27.747  28.701  1.00  0.00     0.049 A 
ATOM     37  N   UNL A   1      42.080  29.924  29.893  1.00  0.00    -0.248 NA
ATOM     38  C   UNL A   1      40.196  31.300  29.960  1.00  0.00     0.031 C 
ATOM     39  C   UNL A   1      39.615  26.671  28.065  1.00  0.00     0.029 A 
ATOM     40  N   UNL A   1      41.635  27.215  28.852  1.00  0.00    -0.354 N 
ATOM     41  C   UNL A   1      42.437  31.170  30.397  1.00  0.00     0.074 A 
ATOM     42  C   UNL A   1      41.250  31.996  30.360  1.00  0.00     0.031 C 
ATOM     43  C   UNL A   1      40.413  25.604  27.895  1.00  0.00     0.029 A 
ATOM     44  C   UNL A   1      41.753  25.930  28.375  1.00  0.00     0.049 A 
ATOM     45  H   UNL A   1      42.382  27.708  29.262  1.00  0.00     0.167 HD
ATOM     46  C   UNL A   1      43.640  31.583  30.866  1.00  0.00     0.037 A 
ATOM     47  C   UNL A   1      42.821  25.111  28.320  1.00  0.00     0.037 A 
ATOM     48  C   UNL A   1      44.810  30.747  30.934  1.00  0.00     0.049 A 
ATOM     49  C   UNL A   1      44.141  25.585  28.861  1.00  0.00     0.074 A 
ATOM     50  C   UNL A   1      46.056  31.052  31.454  1.00  0.00     0.029 A 
ATOM     51  N   UNL A   1      44.880  29.441  30.472  1.00  0.00    -0.354 N 
ATOM     52  N   UNL A   1      44.446  26.748  29.388  1.00  0.00    -0.248 NA
ATOM     53  C   UNL A   1      45.262  24.637  28.808  1.00  0.00     0.031 C 
ATOM     54  C   UNL A   1      46.889  29.943  31.272  1.00  0.00     0.029 A 
ATOM     55  C   UNL A   1      46.151  28.932  30.679  1.00  0.00     0.049 A 
ATOM     56  H   UNL A   1      44.135  28.948  30.057  1.00  0.00     0.167 HD
ATOM     57  C   UNL A   1      45.786  26.662  29.749  1.00  0.00     0.074 A 
ATOM     58  C   UNL A   1      46.230  25.329  29.393  1.00  0.00     0.031 C 
ATOM     59  C   UNL A   1      46.576  27.600  30.326  1.00  0.00     0.037 A 
BRANCH  46  60
ATOM     60  C   UNL A   1      43.748  33.002  31.351  1.00  0.00     0.058 A 
ATOM     61  C   UNL A   1      43.699  33.320  32.718  1.00  0.00     0.135 A 
ATOM     62  C   UNL A   1      43.936  34.056  30.442  1.00  0.00     0.135 A 
ATOM     63  F   UNL A   1      43.507  32.353  33.630  1.00  0.00    -0.206 F 
ATOM     64  C   UNL A   1      43.800  34.633  33.165  1.00  0.00     0.059 A 
ATOM     65  C   UNL A   1      44.066  35.375  30.868  1.00  0.00     0.059 A 
ATOM     66  F   UNL A   1      43.992  33.811  29.123  1.00  0.00    -0.206 F 
ATOM     67  C   UNL A   1      43.981  35.655  32.231  1.00  0.00     0.060 A 
BRANCH  67  68
ATOM     68  S   UNL A   1      44.109  37.354  32.827  1.00  0.00     0.124 S 
ATOM     69  O   UNL A   1      45.427  37.344  33.455  1.00  0.00    -0.237 OA
ATOM     70  O   UNL A   1      44.001  38.128  31.595  1.00  0.00    -0.237 OA
ATOM     71  O   UNL A   1      42.979  37.479  33.743  1.00  0.00    -0.744 OA
ENDBRANCH  67  68
ENDBRANCH  46  60
BRANCH  47  72
ATOM     72  C   UNL A   1      42.677  23.745  27.751  1.00  0.00     0.058 A 
ATOM     73  C   UNL A   1      42.486  22.635  28.586  1.00  0.00     0.135 A 
ATOM     74  C   UNL A   1      42.708  23.524  26.365  1.00  0.00     0.135 A 
ATOM     75  F   UNL A   1      42.456  22.794  29.918  1.00  0.00    -0.206 F 
ATOM     76  C   UNL A   1      42.345  21.350  28.071  1.00  0.00     0.059 A 
ATOM     77  C   UNL A   1      42.545  22.253  25.825  1.00  0.00     0.059 A 
ATOM     78  F   UNL A   1      42.872  24.556  25.524  1.00  0.00    -0.206 F 
ATOM     79  C   UNL A   1      42.373  21.170  26.686  1.00  0.00     0.060 A 
BRANCH  79  80
ATOM     80  S   UNL A   1      42.131  19.507  26.024  1.00  0.00     0.124 S 
ATOM     81  O   UNL A   1      42.571  18.679  27.141  1.00  0.00    -0.237 OA
ATOM     82  O   UNL A   1      40.699  19.493  25.743  1.00  0.00    -0.237 OA
ATOM     83  O   UNL A   1      42.992  19.489  24.845  1.00  0.00    -0.744 OA
ENDBRANCH  79  80
ENDBRANCH  47  72
BRANCH  59  84
ATOM     84  C   UNL A   1      47.995  27.214  30.638  1.00  0.00     0.058 A 
ATOM     85  C   UNL A   1      48.371  26.760  31.911  1.00  0.00     0.135 A 
ATOM     86  C   UNL A   1      48.978  27.251  29.636  1.00  0.00     0.135 A 
ATOM     87  F   UNL A   1      47.468  26.711  32.905  1.00  0.00    -0.206 F 
ATOM     88  C   UNL A   1      49.678  26.373  32.187  1.00  0.00     0.059 A 
ATOM     89  C   UNL A   1      50.286  26.847  29.883  1.00  0.00     0.059 A 
ATOM     90  F   UNL A   1      48.667  27.670  28.400  1.00  0.00    -0.206 F 
ATOM     91  C   UNL A   1      50.629  26.419  31.165  1.00  0.00     0.060 A 
BRANCH  91  92
ATOM     92  S   UNL A   1      52.315  25.882  31.524  1.00  0.00     0.124 S 
ATOM     93  O   UNL A   1      52.691  26.795  32.599  1.00  0.00    -0.237 OA
ATOM     94  O   UNL A   1      52.124  24.488  31.914  1.00  0.00    -0.237 OA
ATOM     95  O   UNL A   1      53.012  26.082  30.257  1.00  0.00    -0.744 OA
ENDBRANCH  91  92
ENDBRANCH  59  84
ENDBRANCH  33  34
ENDBRANCH  25  28
ENDBRANCH  23  24
ENDBRANCH  22  23
ENDBRANCH   1  22
TORSDOF 17
ENDMDL
MODEL 3
REMARK VINA RESULT:     -10.0      2.951      3.767
REMARK SMILES CC(C)(C[NH+]1CCC(C(N)=S)CC1)C(=O)NCCCNC(=O)c1ccc(-c2c3nc(c(-c4c(F)cc(S(=O)(=O)[O-])cc4F)c4ccc([nH]4)c(-c4c(F)cc(S(=O)(=O)[O-])cc4F)c4nc(c(-c5c(F)cc(S(=O)(=O)[O-])cc5F)c5ccc2[nH]5)C=C4)C=C3)cc1
REMARK SMILES IDX 17 1 16 2 14 3 15 4 2 6 1 7 3 8 4 9 5 10 6 11 13 12 7 14
REMARK SMILES IDX 12 15 8 16 9 17 11 18 10 19 18 22 19 23 20 24 21 25 22 27
REMARK SMILES IDX 23 28 24 29 88 30 25 31 87 32 26 33 27 34 28 35 81 36 29 37
REMARK SMILES IDX 86 38 80 39 82 40 30 41 85 42 79 43 78 44 31 46 65 47 44 48
REMARK SMILES IDX 64 49 45 50 48 51 63 52 83 53 46 54 47 55 62 57 84 58 49 59
REMARK SMILES IDX 32 60 33 61 42 62 34 63 35 64 41 65 43 66 36 67 37 68 38 69
REMARK SMILES IDX 39 70 40 71 66 72 67 73 76 74 68 75 69 76 75 77 77 78 70 79
REMARK SMILES IDX 71 80 72 81 73 82 74 83 50 84 51 85 60 86 52 87 53 88 59 89
REMARK SMILES IDX 61 90 54 91 55 92 56 93 57 94 58 95
REMARK H PARENT 16 5 5 13 10 20 10 21 20 26 82 45 48 56
REMARK Flexibility Score: inf
ROOT
ATOM      1  C   UNL A   1      33.512  29.712  26.002  1.00  0.00     0.117 C 
ENDROOT
BRANCH   1   2
ATOM      2  N   UNL A   1      32.318  30.112  25.277  1.00  0.00    -0.355 N 
ATOM      3  C   UNL A   1      31.342  29.430  24.622  1.00  0.00     0.231 C 
ATOM      4  O   UNL A   1      30.386  30.121  24.252  1.00  0.00    -0.274 OA
ATOM      5  H   UNL A   1      32.187  31.087  25.257  1.00  0.00     0.163 HD
BRANCH   3   6
ATOM      6  C   UNL A   1      31.393  27.918  24.325  1.00  0.00     0.092 C 
ATOM      7  C   UNL A   1      32.438  27.675  23.207  1.00  0.00     0.027 C 
ATOM      8  C   UNL A   1      30.059  27.452  23.693  1.00  0.00     0.027 C 
BRANCH   6   9
ATOM      9  C   UNL A   1      31.707  27.065  25.600  1.00  0.00     0.278 C 
BRANCH   9  10
ATOM     10  N   UNL A   1      32.394  25.758  25.563  1.00  0.00    -0.334 N 
ATOM     11  C   UNL A   1      33.831  25.801  25.831  1.00  0.00     0.262 C 
ATOM     12  C   UNL A   1      31.690  24.674  26.253  1.00  0.00     0.262 C 
ATOM     13  H   UNL A   1      32.340  25.502  24.577  1.00  0.00     0.348 HD
ATOM     14  C   UNL A   1      34.516  24.449  25.613  1.00  0.00     0.072 C 
ATOM     15  C   UNL A   1      32.351  23.309  26.040  1.00  0.00     0.072 C 
ATOM     16  C   UNL A   1      33.820  23.380  26.460  1.00  0.00     0.058 C 
BRANCH  16  17
ATOM     17  C   UNL A   1      34.523  22.032  26.439  1.00  0.00     0.076 C 
ATOM     18  S   UNL A   1      35.117  21.269  25.083  1.00  0.00    -0.066 S 
BRANCH  17  19
ATOM     19  N   UNL A   1      34.662  21.428  27.659  1.00  0.00    -0.393 N 
ATOM     20  H   UNL A   1      35.014  20.510  27.717  1.00  0.00     0.157 HD
ATOM     21  H   UNL A   1      34.411  21.911  28.479  1.00  0.00     0.157 HD
ENDBRANCH  17  19
ENDBRANCH  16  17
ENDBRANCH   9  10
ENDBRANCH   6   9
ENDBRANCH   3   6
ENDBRANCH   1   2
BRANCH   1  22
ATOM     22  C   UNL A   1      33.804  30.555  27.237  1.00  0.00     0.042 C 
BRANCH  22  23
ATOM     23  C   UNL A   1      35.136  30.265  27.918  1.00  0.00     0.118 C 
BRANCH  23  24
ATOM     24  N   UNL A   1      35.215  30.833  29.254  1.00  0.00    -0.352 N 
ATOM     25  C   UNL A   1      36.224  30.785  30.186  1.00  0.00     0.251 C 
ATOM     26  H   UNL A   1      34.415  31.332  29.538  1.00  0.00     0.163 HD
ATOM     27  O   UNL A   1      35.990  31.143  31.337  1.00  0.00    -0.269 OA
BRANCH  25  28
ATOM     28  C   UNL A   1      37.576  30.294  29.826  1.00  0.00     0.039 A 
ATOM     29  C   UNL A   1      37.954  30.284  28.479  1.00  0.00     0.014 A 
ATOM     30  C   UNL A   1      38.453  29.798  30.794  1.00  0.00     0.014 A 
ATOM     31  C   UNL A   1      39.228  29.839  28.114  1.00  0.00     0.010 A 
ATOM     32  C   UNL A   1      39.750  29.429  30.439  1.00  0.00     0.010 A 
ATOM     33  C   UNL A   1      40.150  29.438  29.094  1.00  0.00    -0.014 A 
BRANCH  33  34
ATOM     34  C   UNL A   1      41.531  29.017  28.736  1.00  0.00     0.031 A 
ATOM     35  C   UNL A   1      42.644  30.030  28.696  1.00  0.00     0.074 A 
ATOM     36  C   UNL A   1      41.770  27.740  28.380  1.00  0.00     0.049 A 
ATOM     37  N   UNL A   1      43.888  29.877  28.319  1.00  0.00    -0.248 NA
ATOM     38  C   UNL A   1      42.309  31.404  29.106  1.00  0.00     0.031 C 
ATOM     39  C   UNL A   1      40.768  26.673  28.332  1.00  0.00     0.029 A 
ATOM     40  N   UNL A   1      42.928  27.124  27.974  1.00  0.00    -0.354 N 
ATOM     41  C   UNL A   1      44.476  31.133  28.425  1.00  0.00     0.074 A 
ATOM     42  C   UNL A   1      43.440  32.047  28.858  1.00  0.00     0.031 C 
ATOM     43  C   UNL A   1      41.357  25.532  27.937  1.00  0.00     0.029 A 
ATOM     44  C   UNL A   1      42.768  25.792  27.668  1.00  0.00     0.049 A 
ATOM     45  H   UNL A   1      43.792  27.591  27.909  1.00  0.00     0.167 HD
ATOM     46  C   UNL A   1      45.764  31.490  28.202  1.00  0.00     0.037 A 
ATOM     47  C   UNL A   1      43.654  24.885  27.212  1.00  0.00     0.037 A 
ATOM     48  C   UNL A   1      46.799  30.571  27.805  1.00  0.00     0.049 A 
ATOM     49  C   UNL A   1      45.082  25.300  26.987  1.00  0.00     0.074 A 
ATOM     50  C   UNL A   1      48.147  30.822  27.619  1.00  0.00     0.029 A 
ATOM     51  N   UNL A   1      46.603  29.224  27.537  1.00  0.00    -0.354 N 
ATOM     52  N   UNL A   1      45.633  26.481  27.149  1.00  0.00    -0.248 NA
ATOM     53  C   UNL A   1      46.012  24.262  26.523  1.00  0.00     0.031 C 
ATOM     54  C   UNL A   1      48.760  29.635  27.202  1.00  0.00     0.029 A 
ATOM     55  C   UNL A   1      47.802  28.635  27.171  1.00  0.00     0.049 A 
ATOM     56  H   UNL A   1      45.739  28.756  27.598  1.00  0.00     0.167 HD
ATOM     57  C   UNL A   1      46.976  26.321  26.829  1.00  0.00     0.074 A 
ATOM     58  C   UNL A   1      47.159  24.927  26.477  1.00  0.00     0.031 C 
ATOM     59  C   UNL A   1      47.970  27.243  26.830  1.00  0.00     0.037 A 
BRANCH  46  60
ATOM     60  C   UNL A   1      46.128  32.936  28.389  1.00  0.00     0.058 A 
ATOM     61  C   UNL A   1      46.535  33.439  29.636  1.00  0.00     0.135 A 
ATOM     62  C   UNL A   1      46.103  33.826  27.303  1.00  0.00     0.135 A 
ATOM     63  F   UNL A   1      46.564  32.635  30.711  1.00  0.00    -0.206 F 
ATOM     64  C   UNL A   1      46.872  34.777  29.807  1.00  0.00     0.059 A 
ATOM     65  C   UNL A   1      46.462  35.164  27.445  1.00  0.00     0.059 A 
ATOM     66  F   UNL A   1      45.724  33.401  26.088  1.00  0.00    -0.206 F 
ATOM     67  C   UNL A   1      46.831  35.633  28.706  1.00  0.00     0.060 A 
BRANCH  67  68
ATOM     68  S   UNL A   1      47.270  37.368  28.945  1.00  0.00     0.124 S 
ATOM     69  O   UNL A   1      46.599  37.666  30.207  1.00  0.00    -0.237 OA
ATOM     70  O   UNL A   1      48.727  37.318  28.999  1.00  0.00    -0.237 OA
ATOM     71  O   UNL A   1      46.712  38.026  27.767  1.00  0.00    -0.744 OA
ENDBRANCH  67  68
ENDBRANCH  46  60
BRANCH  47  72
ATOM     72  C   UNL A   1      43.219  23.486  26.962  1.00  0.00     0.058 A 
ATOM     73  C   UNL A   1      42.943  23.041  25.661  1.00  0.00     0.135 A 
ATOM     74  C   UNL A   1      43.089  22.564  28.011  1.00  0.00     0.135 A 
ATOM     75  F   UNL A   1      43.046  23.889  24.626  1.00  0.00    -0.206 F 
ATOM     76  C   UNL A   1      42.539  21.734  25.408  1.00  0.00     0.059 A 
ATOM     77  C   UNL A   1      42.709  21.245  27.781  1.00  0.00     0.059 A 
ATOM     78  F   UNL A   1      43.358  22.936  29.272  1.00  0.00    -0.206 F 
ATOM     79  C   UNL A   1      42.428  20.842  26.476  1.00  0.00     0.060 A 
BRANCH  79  80
ATOM     80  S   UNL A   1      41.959  19.132  26.131  1.00  0.00     0.124 S 
ATOM     81  O   UNL A   1      40.526  19.263  25.891  1.00  0.00    -0.237 OA
ATOM     82  O   UNL A   1      42.777  18.818  24.964  1.00  0.00    -0.237 OA
ATOM     83  O   UNL A   1      42.333  18.429  27.355  1.00  0.00    -0.744 OA
ENDBRANCH  79  80
ENDBRANCH  47  72
BRANCH  59  84
ATOM     84  C   UNL A   1      49.351  26.774  26.470  1.00  0.00     0.058 A 
ATOM     85  C   UNL A   1      50.222  26.239  27.431  1.00  0.00     0.135 A 
ATOM     86  C   UNL A   1      49.789  26.814  25.135  1.00  0.00     0.135 A 
ATOM     87  F   UNL A   1      49.852  26.185  28.721  1.00  0.00    -0.206 F 
ATOM     88  C   UNL A   1      51.487  25.777  27.086  1.00  0.00     0.059 A 
ATOM     89  C   UNL A   1      51.041  26.335  24.764  1.00  0.00     0.059 A 
ATOM     90  F   UNL A   1      48.990  27.308  24.177  1.00  0.00    -0.206 F 
ATOM     91  C   UNL A   1      51.888  25.828  25.750  1.00  0.00     0.060 A 
BRANCH  91  92
ATOM     92  S   UNL A   1      53.519  25.193  25.308  1.00  0.00     0.124 S 
ATOM     93  O   UNL A   1      53.733  25.816  24.005  1.00  0.00    -0.237 OA
ATOM     94  O   UNL A   1      54.356  25.692  26.395  1.00  0.00    -0.237 OA
ATOM     95  O   UNL A   1      53.327  23.746  25.288  1.00  0.00    -0.744 OA
ENDBRANCH  91  92
ENDBRANCH  59  84
ENDBRANCH  33  34
ENDBRANCH  25  28
ENDBRANCH  23  24
ENDBRANCH  22  23
ENDBRANCH   1  22
TORSDOF 17
ENDMDL
