MODEL 1
REMARK VINA RESULT:     -11.1      0.000      0.000
REMARK SMILES C[C@H](Cc1cccs1)N(C)C(=O)N1CC[C@@H](CC(=O)NCCCNC(=O)c2ccc(-c3c4nc(c(-c5c(F)cc(S(=O)(=O)[O-])cc5F)c5ccc([nH]5)c(-c5c(F)cc(S(=O)(=O)[O-])cc5F)c5nc(c(-c6c(F)cc(S(=O)(=O)[O-])cc6F)c6ccc3[nH]6)C=C5)C=C4)cc2)C1
REMARK SMILES IDX 18 1 19 2 20 3 17 5 16 6 13 7 14 8 93 9 15 10 11 11 12 12
REMARK SMILES IDX 9 13 10 14 2 15 1 16 3 17 4 18 5 19 8 20 6 21 7 22 21 23
REMARK SMILES IDX 22 24 23 25 24 26 25 27 26 29 27 30 28 31 92 32 29 33 91 34
REMARK SMILES IDX 30 35 31 36 32 37 85 38 33 39 90 40 84 41 86 42 34 43 89 44
REMARK SMILES IDX 83 45 82 46 35 48 69 49 48 50 68 51 49 52 52 53 67 54 87 55
REMARK SMILES IDX 50 56 51 57 66 59 88 60 53 61 36 62 37 63 46 64 38 65 39 66
REMARK SMILES IDX 45 67 47 68 40 69 41 70 42 71 43 72 44 73 70 74 71 75 80 76
REMARK SMILES IDX 72 77 73 78 79 79 81 80 74 81 75 82 76 83 77 84 78 85 54 86
REMARK SMILES IDX 55 87 64 88 56 89 57 90 63 91 65 92 58 93 59 94 60 95 61 96
REMARK SMILES IDX 62 97
REMARK H PARENT 20 4 24 28 86 47 52 58
REMARK Flexibility Score: inf
ROOT
ATOM      1  C   UNL A   1      33.275  29.176  25.457  1.00  0.00     0.220 C 
ATOM      2  O   UNL A   1      33.039  29.302  24.255  1.00  0.00    -0.275 OA
ATOM      3  N   UNL A   1      33.942  30.176  26.093  1.00  0.00    -0.356 N 
ATOM      4  H   UNL A   1      34.206  30.926  25.513  1.00  0.00     0.163 HD
ENDROOT
BRANCH   1   5
ATOM      5  C   UNL A   1      32.861  27.925  26.200  1.00  0.00     0.105 C 
BRANCH   5   6
ATOM      6  C   UNL A   1      32.800  26.645  25.355  1.00  0.00     0.020 C 
ATOM      7  N   UNL A   1      32.277  24.446  26.066  1.00  0.00    -0.324 N 
ATOM      8  C   UNL A   1      31.014  25.124  25.905  1.00  0.00     0.122 C 
ATOM      9  C   UNL A   1      33.353  25.414  26.115  1.00  0.00     0.125 C 
ATOM     10  C   UNL A   1      31.390  26.191  24.910  1.00  0.00     0.027 C 
BRANCH   7  11
ATOM     11  C   UNL A   1      32.440  23.142  26.443  1.00  0.00     0.320 C 
ATOM     12  O   UNL A   1      32.297  22.821  27.622  1.00  0.00    -0.248 OA
BRANCH  11  13
ATOM     13  N   UNL A   1      32.812  22.244  25.450  1.00  0.00    -0.325 N 
ATOM     14  C   UNL A   1      32.104  20.998  25.179  1.00  0.00     0.149 C 
BRANCH  13  15
ATOM     15  C   UNL A   1      33.918  22.577  24.526  1.00  0.00     0.088 C 
ATOM     16  C   UNL A   1      33.357  22.797  23.117  1.00  0.00     0.031 C 
BRANCH  15  17
ATOM     17  C   UNL A   1      35.147  21.638  24.678  1.00  0.00     0.071 C 
BRANCH  17  18
ATOM     18  C   UNL A   1      36.376  22.274  25.262  1.00  0.00     0.007 A 
ATOM     19  C   UNL A   1      36.516  23.541  25.792  1.00  0.00     0.015 A 
ATOM     20  S   UNL A   1      37.845  21.392  25.356  1.00  0.00    -0.149 S 
ATOM     21  C   UNL A   1      37.854  23.811  26.200  1.00  0.00     0.012 A 
ATOM     22  C   UNL A   1      38.686  22.735  25.989  1.00  0.00     0.065 A 
ENDBRANCH  17  18
ENDBRANCH  15  17
ENDBRANCH  13  15
ENDBRANCH  11  13
ENDBRANCH   7  11
ENDBRANCH   5   6
ENDBRANCH   1   5
BRANCH   3  23
ATOM     23  C   UNL A   1      34.329  30.323  27.485  1.00  0.00     0.117 C 
BRANCH  23  24
ATOM     24  C   UNL A   1      34.583  31.770  27.915  1.00  0.00     0.042 C 
BRANCH  24  25
ATOM     25  C   UNL A   1      35.819  31.995  28.785  1.00  0.00     0.118 C 
BRANCH  25  26
ATOM     26  N   UNL A   1      35.661  31.442  30.118  1.00  0.00    -0.352 N 
ATOM     27  C   UNL A   1      36.434  30.529  30.794  1.00  0.00     0.251 C 
ATOM     28  H   UNL A   1      34.879  31.772  30.616  1.00  0.00     0.163 HD
ATOM     29  O   UNL A   1      35.992  30.029  31.827  1.00  0.00    -0.269 OA
BRANCH  27  30
ATOM     30  C   UNL A   1      37.774  30.130  30.298  1.00  0.00     0.039 A 
ATOM     31  C   UNL A   1      38.781  29.872  31.236  1.00  0.00     0.014 A 
ATOM     32  C   UNL A   1      38.073  30.081  28.933  1.00  0.00     0.014 A 
ATOM     33  C   UNL A   1      40.067  29.529  30.807  1.00  0.00     0.010 A 
ATOM     34  C   UNL A   1      39.345  29.685  28.507  1.00  0.00     0.010 A 
ATOM     35  C   UNL A   1      40.359  29.412  29.439  1.00  0.00    -0.014 A 
BRANCH  35  36
ATOM     36  C   UNL A   1      41.718  29.013  28.980  1.00  0.00     0.031 A 
ATOM     37  C   UNL A   1      42.838  30.018  28.931  1.00  0.00     0.074 A 
ATOM     38  C   UNL A   1      41.940  27.747  28.574  1.00  0.00     0.049 A 
ATOM     39  N   UNL A   1      44.076  29.857  28.536  1.00  0.00    -0.248 NA
ATOM     40  C   UNL A   1      42.522  31.389  29.363  1.00  0.00     0.031 C 
ATOM     41  C   UNL A   1      40.933  26.684  28.531  1.00  0.00     0.029 A 
ATOM     42  N   UNL A   1      43.081  27.139  28.112  1.00  0.00    -0.354 N 
ATOM     43  C   UNL A   1      44.683  31.102  28.660  1.00  0.00     0.074 A 
ATOM     44  C   UNL A   1      43.664  32.019  29.125  1.00  0.00     0.031 C 
ATOM     45  C   UNL A   1      41.505  25.553  28.090  1.00  0.00     0.029 A 
ATOM     46  C   UNL A   1      42.910  25.814  27.789  1.00  0.00     0.049 A 
ATOM     47  H   UNL A   1      43.943  27.608  28.023  1.00  0.00     0.167 HD
ATOM     48  C   UNL A   1      45.973  31.447  28.429  1.00  0.00     0.037 A 
ATOM     49  C   UNL A   1      43.782  24.908  27.302  1.00  0.00     0.037 A 
ATOM     50  C   UNL A   1      46.995  30.529  27.992  1.00  0.00     0.049 A 
ATOM     51  C   UNL A   1      45.211  25.312  27.060  1.00  0.00     0.074 A 
ATOM     52  C   UNL A   1      48.342  30.773  27.789  1.00  0.00     0.029 A 
ATOM     53  N   UNL A   1      46.783  29.192  27.690  1.00  0.00    -0.354 N 
ATOM     54  N   UNL A   1      45.779  26.480  27.243  1.00  0.00    -0.248 NA
ATOM     55  C   UNL A   1      46.119  24.273  26.554  1.00  0.00     0.031 C 
ATOM     56  C   UNL A   1      48.938  29.594  27.329  1.00  0.00     0.029 A 
ATOM     57  C   UNL A   1      47.971  28.604  27.284  1.00  0.00     0.049 A 
ATOM     58  H   UNL A   1      45.917  28.728  27.753  1.00  0.00     0.167 HD
ATOM     59  C   UNL A   1      47.115  26.312  26.893  1.00  0.00     0.074 A 
ATOM     60  C   UNL A   1      47.273  24.926  26.504  1.00  0.00     0.031 C 
ATOM     61  C   UNL A   1      48.118  27.223  26.897  1.00  0.00     0.037 A 
BRANCH  48  62
ATOM     62  C   UNL A   1      46.360  32.884  28.650  1.00  0.00     0.058 A 
ATOM     63  C   UNL A   1      46.255  33.839  27.625  1.00  0.00     0.135 A 
ATOM     64  C   UNL A   1      46.804  33.321  29.908  1.00  0.00     0.135 A 
ATOM     65  F   UNL A   1      45.848  33.474  26.400  1.00  0.00    -0.206 F 
ATOM     66  C   UNL A   1      46.608  35.168  27.832  1.00  0.00     0.059 A 
ATOM     67  C   UNL A   1      47.138  34.651  30.145  1.00  0.00     0.059 A 
ATOM     68  F   UNL A   1      46.919  32.450  30.925  1.00  0.00    -0.206 F 
ATOM     69  C   UNL A   1      47.052  35.564  29.095  1.00  0.00     0.060 A 
BRANCH  69  70
ATOM     70  S   UNL A   1      47.510  37.293  29.349  1.00  0.00     0.124 S 
ATOM     71  O   UNL A   1      47.372  37.418  30.798  1.00  0.00    -0.237 OA
ATOM     72  O   UNL A   1      48.879  37.332  28.840  1.00  0.00    -0.237 OA
ATOM     73  O   UNL A   1      46.530  38.024  28.559  1.00  0.00    -0.744 OA
ENDBRANCH  69  70
ENDBRANCH  48  62
BRANCH  49  74
ATOM     74  C   UNL A   1      43.330  23.519  27.030  1.00  0.00     0.058 A 
ATOM     75  C   UNL A   1      43.111  23.077  25.716  1.00  0.00     0.135 A 
ATOM     76  C   UNL A   1      43.123  22.604  28.073  1.00  0.00     0.135 A 
ATOM     77  F   UNL A   1      43.289  23.918  24.687  1.00  0.00    -0.206 F 
ATOM     78  C   UNL A   1      42.690  21.778  25.446  1.00  0.00     0.059 A 
ATOM     79  C   UNL A   1      42.724  21.294  27.826  1.00  0.00     0.059 A 
ATOM     80  F   UNL A   1      43.334  22.974  29.346  1.00  0.00    -0.206 F 
ATOM     81  C   UNL A   1      42.502  20.894  26.509  1.00  0.00     0.060 A 
BRANCH  81  82
ATOM     82  S   UNL A   1      42.011  19.194  26.146  1.00  0.00     0.124 S 
ATOM     83  O   UNL A   1      40.578  19.344  25.924  1.00  0.00    -0.237 OA
ATOM     84  O   UNL A   1      42.813  18.887  24.966  1.00  0.00    -0.237 OA
ATOM     85  O   UNL A   1      42.391  18.472  27.357  1.00  0.00    -0.744 OA
ENDBRANCH  81  82
ENDBRANCH  49  74
BRANCH  61  86
ATOM     86  C   UNL A   1      49.485  26.748  26.487  1.00  0.00     0.058 A 
ATOM     87  C   UNL A   1      50.383  26.202  27.416  1.00  0.00     0.135 A 
ATOM     88  C   UNL A   1      49.884  26.804  25.142  1.00  0.00     0.135 A 
ATOM     89  F   UNL A   1      50.053  26.133  28.715  1.00  0.00    -0.206 F 
ATOM     90  C   UNL A   1      51.640  25.748  27.029  1.00  0.00     0.059 A 
ATOM     91  C   UNL A   1      51.126  26.333  24.729  1.00  0.00     0.059 A 
ATOM     92  F   UNL A   1      49.058  27.309  24.211  1.00  0.00    -0.206 F 
ATOM     93  C   UNL A   1      52.003  25.818  25.683  1.00  0.00     0.060 A 
BRANCH  93  94
ATOM     94  S   UNL A   1      53.626  25.199  25.189  1.00  0.00     0.124 S 
ATOM     95  O   UNL A   1      53.419  23.756  25.240  1.00  0.00    -0.237 OA
ATOM     96  O   UNL A   1      53.787  25.769  23.856  1.00  0.00    -0.237 OA
ATOM     97  O   UNL A   1      54.520  25.743  26.207  1.00  0.00    -0.744 OA
ENDBRANCH  93  94
ENDBRANCH  61  86
ENDBRANCH  35  36
ENDBRANCH  27  30
ENDBRANCH  25  26
ENDBRANCH  24  25
ENDBRANCH  23  24
ENDBRANCH   3  23
TORSDOF 19
ENDMDL
MODEL 2
REMARK VINA RESULT:     -11.0      6.636     12.026
REMARK SMILES C[C@H](Cc1cccs1)N(C)C(=O)N1CC[C@@H](CC(=O)NCCCNC(=O)c2ccc(-c3c4nc(c(-c5c(F)cc(S(=O)(=O)[O-])cc5F)c5ccc([nH]5)c(-c5c(F)cc(S(=O)(=O)[O-])cc5F)c5nc(c(-c6c(F)cc(S(=O)(=O)[O-])cc6F)c6ccc3[nH]6)C=C5)C=C4)cc2)C1
REMARK SMILES IDX 18 1 19 2 20 3 17 5 16 6 13 7 14 8 93 9 15 10 11 11 12 12
REMARK SMILES IDX 9 13 10 14 2 15 1 16 3 17 4 18 5 19 8 20 6 21 7 22 21 23
REMARK SMILES IDX 22 24 23 25 24 26 25 27 26 29 27 30 28 31 92 32 29 33 91 34
REMARK SMILES IDX 30 35 31 36 32 37 85 38 33 39 90 40 84 41 86 42 34 43 89 44
REMARK SMILES IDX 83 45 82 46 35 48 69 49 48 50 68 51 49 52 52 53 67 54 87 55
REMARK SMILES IDX 50 56 51 57 66 59 88 60 53 61 36 62 37 63 46 64 38 65 39 66
REMARK SMILES IDX 45 67 47 68 40 69 41 70 42 71 43 72 44 73 70 74 71 75 80 76
REMARK SMILES IDX 72 77 73 78 79 79 81 80 74 81 75 82 76 83 77 84 78 85 54 86
REMARK SMILES IDX 55 87 64 88 56 89 57 90 63 91 65 92 58 93 59 94 60 95 61 96
REMARK SMILES IDX 62 97
REMARK H PARENT 20 4 24 28 86 47 52 58
REMARK Flexibility Score: inf
ROOT
ATOM      1  C   UNL A   1      34.498  21.875  26.647  1.00  0.00     0.220 C 
ATOM      2  O   UNL A   1      34.019  21.447  27.698  1.00  0.00    -0.275 OA
ATOM      3  N   UNL A   1      35.314  22.961  26.705  1.00  0.00    -0.356 N 
ATOM      4  H   UNL A   1      35.434  23.336  27.608  1.00  0.00     0.163 HD
ENDROOT
BRANCH   1   5
ATOM      5  C   UNL A   1      34.162  21.227  25.322  1.00  0.00     0.105 C 
BRANCH   5   6
ATOM      6  C   UNL A   1      32.720  21.423  24.838  1.00  0.00     0.020 C 
ATOM      7  N   UNL A   1      31.852  23.170  23.492  1.00  0.00    -0.324 N 
ATOM      8  C   UNL A   1      32.485  22.244  22.584  1.00  0.00     0.122 C 
ATOM      9  C   UNL A   1      32.295  22.913  24.847  1.00  0.00     0.125 C 
ATOM     10  C   UNL A   1      32.422  20.971  23.388  1.00  0.00     0.027 C 
BRANCH   7  11
ATOM     11  C   UNL A   1      31.199  24.315  23.135  1.00  0.00     0.320 C 
ATOM     12  O   UNL A   1      29.971  24.369  23.198  1.00  0.00    -0.248 OA
BRANCH  11  13
ATOM     13  N   UNL A   1      31.982  25.364  22.667  1.00  0.00    -0.325 N 
ATOM     14  C   UNL A   1      32.294  25.575  21.258  1.00  0.00     0.149 C 
BRANCH  13  15
ATOM     15  C   UNL A   1      32.461  26.406  23.601  1.00  0.00     0.088 C 
ATOM     16  C   UNL A   1      33.944  26.171  23.911  1.00  0.00     0.031 C 
BRANCH  15  17
ATOM     17  C   UNL A   1      31.499  26.643  24.798  1.00  0.00     0.071 C 
BRANCH  17  18
ATOM     18  C   UNL A   1      31.733  27.910  25.571  1.00  0.00     0.007 A 
ATOM     19  C   UNL A   1      31.765  28.086  26.940  1.00  0.00     0.015 A 
ATOM     20  S   UNL A   1      32.037  29.383  24.745  1.00  0.00    -0.149 S 
ATOM     21  C   UNL A   1      31.960  29.450  27.305  1.00  0.00     0.012 A 
ATOM     22  C   UNL A   1      32.091  30.265  26.205  1.00  0.00     0.065 A 
ENDBRANCH  17  18
ENDBRANCH  15  17
ENDBRANCH  13  15
ENDBRANCH  11  13
ENDBRANCH   7  11
ENDBRANCH   5   6
ENDBRANCH   1   5
BRANCH   3  23
ATOM     23  C   UNL A   1      36.039  23.661  25.659  1.00  0.00     0.117 C 
BRANCH  23  24
ATOM     24  C   UNL A   1      37.518  23.281  25.560  1.00  0.00     0.042 C 
BRANCH  24  25
ATOM     25  C   UNL A   1      38.442  23.938  26.585  1.00  0.00     0.118 C 
BRANCH  25  26
ATOM     26  N   UNL A   1      39.819  23.995  26.128  1.00  0.00    -0.352 N 
ATOM     27  C   UNL A   1      40.817  24.887  26.435  1.00  0.00     0.251 C 
ATOM     28  H   UNL A   1      40.078  23.283  25.498  1.00  0.00     0.163 HD
ATOM     29  O   UNL A   1      41.844  24.883  25.760  1.00  0.00    -0.269 OA
BRANCH  27  30
ATOM     30  C   UNL A   1      40.674  25.855  27.550  1.00  0.00     0.039 A 
ATOM     31  C   UNL A   1      41.616  26.884  27.663  1.00  0.00     0.014 A 
ATOM     32  C   UNL A   1      39.679  25.720  28.523  1.00  0.00     0.014 A 
ATOM     33  C   UNL A   1      41.537  27.795  28.722  1.00  0.00     0.010 A 
ATOM     34  C   UNL A   1      39.569  26.664  29.550  1.00  0.00     0.010 A 
ATOM     35  C   UNL A   1      40.502  27.707  29.666  1.00  0.00    -0.014 A 
BRANCH  35  36
ATOM     36  C   UNL A   1      40.394  28.696  30.774  1.00  0.00     0.031 A 
ATOM     37  C   UNL A   1      41.267  28.578  31.996  1.00  0.00     0.074 A 
ATOM     38  C   UNL A   1      39.484  29.687  30.697  1.00  0.00     0.049 A 
ATOM     39  N   UNL A   1      41.294  29.330  33.068  1.00  0.00    -0.248 NA
ATOM     40  C   UNL A   1      42.221  27.458  32.027  1.00  0.00     0.031 C 
ATOM     41  C   UNL A   1      38.549  29.892  29.590  1.00  0.00     0.029 A 
ATOM     42  N   UNL A   1      39.191  30.706  31.571  1.00  0.00    -0.354 N 
ATOM     43  C   UNL A   1      42.255  28.772  33.904  1.00  0.00     0.074 A 
ATOM     44  C   UNL A   1      42.756  27.591  33.233  1.00  0.00     0.031 C 
ATOM     45  C   UNL A   1      37.801  30.978  29.840  1.00  0.00     0.029 A 
ATOM     46  C   UNL A   1      38.181  31.532  31.137  1.00  0.00     0.049 A 
ATOM     47  H   UNL A   1      39.661  30.834  32.426  1.00  0.00     0.167 HD
ATOM     48  C   UNL A   1      42.694  29.211  35.108  1.00  0.00     0.037 A 
ATOM     49  C   UNL A   1      37.619  32.611  31.717  1.00  0.00     0.037 A 
ATOM     50  C   UNL A   1      42.216  30.402  35.763  1.00  0.00     0.049 A 
ATOM     51  C   UNL A   1      38.128  33.085  33.051  1.00  0.00     0.074 A 
ATOM     52  C   UNL A   1      42.644  30.960  36.956  1.00  0.00     0.029 A 
ATOM     53  N   UNL A   1      41.202  31.218  35.284  1.00  0.00    -0.354 N 
ATOM     54  N   UNL A   1      39.080  32.577  33.796  1.00  0.00    -0.248 NA
ATOM     55  C   UNL A   1      37.493  34.283  33.618  1.00  0.00     0.031 C 
ATOM     56  C   UNL A   1      41.864  32.092  37.216  1.00  0.00     0.029 A 
ATOM     57  C   UNL A   1      40.978  32.264  36.167  1.00  0.00     0.049 A 
ATOM     58  H   UNL A   1      40.712  31.076  34.442  1.00  0.00     0.167 HD
ATOM     59  C   UNL A   1      39.172  33.405  34.911  1.00  0.00     0.074 A 
ATOM     60  C   UNL A   1      38.190  34.454  34.734  1.00  0.00     0.031 C 
ATOM     61  C   UNL A   1      39.997  33.304  35.981  1.00  0.00     0.037 A 
BRANCH  48  62
ATOM     62  C   UNL A   1      43.757  28.400  35.799  1.00  0.00     0.058 A 
ATOM     63  C   UNL A   1      43.429  27.356  36.678  1.00  0.00     0.135 A 
ATOM     64  C   UNL A   1      45.118  28.645  35.552  1.00  0.00     0.135 A 
ATOM     65  F   UNL A   1      42.144  27.087  36.959  1.00  0.00    -0.206 F 
ATOM     66  C   UNL A   1      44.412  26.604  37.313  1.00  0.00     0.059 A 
ATOM     67  C   UNL A   1      46.118  27.888  36.156  1.00  0.00     0.059 A 
ATOM     68  F   UNL A   1      45.487  29.629  34.717  1.00  0.00    -0.206 F 
ATOM     69  C   UNL A   1      45.754  26.880  37.048  1.00  0.00     0.060 A 
BRANCH  69  70
ATOM     70  S   UNL A   1      47.021  25.898  37.880  1.00  0.00     0.124 S 
ATOM     71  O   UNL A   1      48.220  26.687  37.612  1.00  0.00    -0.237 OA
ATOM     72  O   UNL A   1      46.559  25.903  39.267  1.00  0.00    -0.237 OA
ATOM     73  O   UNL A   1      46.951  24.610  37.206  1.00  0.00    -0.744 OA
ENDBRANCH  69  70
ENDBRANCH  48  62
BRANCH  49  74
ATOM     74  C   UNL A   1      36.520  33.333  31.025  1.00  0.00     0.058 A 
ATOM     75  C   UNL A   1      36.772  34.100  29.877  1.00  0.00     0.135 A 
ATOM     76  C   UNL A   1      35.197  33.260  31.486  1.00  0.00     0.135 A 
ATOM     77  F   UNL A   1      38.022  34.206  29.403  1.00  0.00    -0.206 F 
ATOM     78  C   UNL A   1      35.753  34.780  29.217  1.00  0.00     0.059 A 
ATOM     79  C   UNL A   1      34.158  33.912  30.830  1.00  0.00     0.059 A 
ATOM     80  F   UNL A   1      34.902  32.527  32.571  1.00  0.00    -0.206 F 
ATOM     81  C   UNL A   1      34.448  34.677  29.700  1.00  0.00     0.060 A 
BRANCH  81  82
ATOM     82  S   UNL A   1      33.122  35.515  28.805  1.00  0.00     0.124 S 
ATOM     83  O   UNL A   1      33.868  36.509  28.041  1.00  0.00    -0.237 OA
ATOM     84  O   UNL A   1      32.535  34.425  28.034  1.00  0.00    -0.237 OA
ATOM     85  O   UNL A   1      32.279  36.041  29.874  1.00  0.00    -0.744 OA
ENDBRANCH  81  82
ENDBRANCH  49  74
BRANCH  61  86
ATOM     86  C   UNL A   1      39.890  34.367  37.039  1.00  0.00     0.058 A 
ATOM     87  C   UNL A   1      39.018  34.232  38.131  1.00  0.00     0.135 A 
ATOM     88  C   UNL A   1      40.696  35.514  36.981  1.00  0.00     0.135 A 
ATOM     89  F   UNL A   1      38.220  33.157  38.230  1.00  0.00    -0.206 F 
ATOM     90  C   UNL A   1      38.935  35.209  39.118  1.00  0.00     0.059 A 
ATOM     91  C   UNL A   1      40.647  36.493  37.969  1.00  0.00     0.059 A 
ATOM     92  F   UNL A   1      41.554  35.688  35.962  1.00  0.00    -0.206 F 
ATOM     93  C   UNL A   1      39.753  36.336  39.028  1.00  0.00     0.060 A 
BRANCH  93  94
ATOM     94  S   UNL A   1      39.656  37.585  40.329  1.00  0.00     0.124 S 
ATOM     95  O   UNL A   1      38.260  38.001  40.234  1.00  0.00    -0.237 OA
ATOM     96  O   UNL A   1      40.010  36.824  41.522  1.00  0.00    -0.237 OA
ATOM     97  O   UNL A   1      40.639  38.582  39.916  1.00  0.00    -0.744 OA
ENDBRANCH  93  94
ENDBRANCH  61  86
ENDBRANCH  35  36
ENDBRANCH  27  30
ENDBRANCH  25  26
ENDBRANCH  24  25
ENDBRANCH  23  24
ENDBRANCH   3  23
TORSDOF 19
ENDMDL
MODEL 3
REMARK VINA RESULT:     -10.9      2.988      3.835
REMARK SMILES C[C@H](Cc1cccs1)N(C)C(=O)N1CC[C@@H](CC(=O)NCCCNC(=O)c2ccc(-c3c4nc(c(-c5c(F)cc(S(=O)(=O)[O-])cc5F)c5ccc([nH]5)c(-c5c(F)cc(S(=O)(=O)[O-])cc5F)c5nc(c(-c6c(F)cc(S(=O)(=O)[O-])cc6F)c6ccc3[nH]6)C=C5)C=C4)cc2)C1
REMARK SMILES IDX 18 1 19 2 20 3 17 5 16 6 13 7 14 8 93 9 15 10 11 11 12 12
REMARK SMILES IDX 9 13 10 14 2 15 1 16 3 17 4 18 5 19 8 20 6 21 7 22 21 23
REMARK SMILES IDX 22 24 23 25 24 26 25 27 26 29 27 30 28 31 92 32 29 33 91 34
REMARK SMILES IDX 30 35 31 36 32 37 85 38 33 39 90 40 84 41 86 42 34 43 89 44
REMARK SMILES IDX 83 45 82 46 35 48 69 49 48 50 68 51 49 52 52 53 67 54 87 55
REMARK SMILES IDX 50 56 51 57 66 59 88 60 53 61 36 62 37 63 46 64 38 65 39 66
REMARK SMILES IDX 45 67 47 68 40 69 41 70 42 71 43 72 44 73 70 74 71 75 80 76
REMARK SMILES IDX 72 77 73 78 79 79 81 80 74 81 75 82 76 83 77 84 78 85 54 86
REMARK SMILES IDX 55 87 64 88 56 89 57 90 63 91 65 92 58 93 59 94 60 95 61 96
REMARK SMILES IDX 62 97
REMARK H PARENT 20 4 24 28 86 47 52 58
REMARK Flexibility Score: inf
ROOT
ATOM      1  C   UNL A   1      31.281  27.884  22.741  1.00  0.00     0.220 C 
ATOM      2  O   UNL A   1      30.304  28.150  22.040  1.00  0.00    -0.275 OA
ATOM      3  N   UNL A   1      31.994  28.912  23.273  1.00  0.00    -0.356 N 
ATOM      4  H   UNL A   1      31.670  29.807  23.024  1.00  0.00     0.163 HD
ENDROOT
BRANCH   1   5
ATOM      5  C   UNL A   1      31.696  26.448  22.977  1.00  0.00     0.105 C 
BRANCH   5   6
ATOM      6  C   UNL A   1      30.599  25.525  23.525  1.00  0.00     0.020 C 
ATOM      7  N   UNL A   1      30.811  23.785  25.120  1.00  0.00    -0.324 N 
ATOM      8  C   UNL A   1      30.751  25.013  25.874  1.00  0.00     0.122 C 
ATOM      9  C   UNL A   1      31.102  24.074  23.730  1.00  0.00     0.125 C 
ATOM     10  C   UNL A   1      30.017  25.905  24.907  1.00  0.00     0.027 C 
BRANCH   7  11
ATOM     11  C   UNL A   1      30.911  22.529  25.647  1.00  0.00     0.320 C 
ATOM     12  O   UNL A   1      29.979  22.060  26.300  1.00  0.00    -0.248 OA
BRANCH  11  13
ATOM     13  N   UNL A   1      32.111  21.857  25.446  1.00  0.00    -0.325 N 
ATOM     14  C   UNL A   1      32.299  20.822  24.435  1.00  0.00     0.149 C 
BRANCH  13  15
ATOM     15  C   UNL A   1      33.318  22.252  26.204  1.00  0.00     0.088 C 
ATOM     16  C   UNL A   1      32.918  22.645  27.631  1.00  0.00     0.031 C 
BRANCH  15  17
ATOM     17  C   UNL A   1      34.244  23.222  25.418  1.00  0.00     0.071 C 
BRANCH  17  18
ATOM     18  C   UNL A   1      35.717  22.964  25.562  1.00  0.00     0.007 A 
ATOM     19  C   UNL A   1      36.700  23.829  25.999  1.00  0.00     0.015 A 
ATOM     20  S   UNL A   1      36.365  21.419  25.190  1.00  0.00    -0.149 S 
ATOM     21  C   UNL A   1      37.998  23.242  25.948  1.00  0.00     0.012 A 
ATOM     22  C   UNL A   1      37.960  21.943  25.496  1.00  0.00     0.065 A 
ENDBRANCH  17  18
ENDBRANCH  15  17
ENDBRANCH  13  15
ENDBRANCH  11  13
ENDBRANCH   7  11
ENDBRANCH   5   6
ENDBRANCH   1   5
BRANCH   3  23
ATOM     23  C   UNL A   1      33.153  28.911  24.149  1.00  0.00     0.117 C 
BRANCH  23  24
ATOM     24  C   UNL A   1      33.120  27.828  25.231  1.00  0.00     0.042 C 
BRANCH  24  25
ATOM     25  C   UNL A   1      33.820  28.181  26.542  1.00  0.00     0.118 C 
BRANCH  25  26
ATOM     26  N   UNL A   1      33.592  29.561  26.933  1.00  0.00    -0.352 N 
ATOM     27  C   UNL A   1      34.356  30.398  27.709  1.00  0.00     0.251 C 
ATOM     28  H   UNL A   1      32.759  29.959  26.589  1.00  0.00     0.163 HD
ATOM     29  O   UNL A   1      33.865  31.455  28.100  1.00  0.00    -0.269 OA
BRANCH  27  30
ATOM     30  C   UNL A   1      35.747  30.048  28.089  1.00  0.00     0.039 A 
ATOM     31  C   UNL A   1      36.749  30.151  27.117  1.00  0.00     0.014 A 
ATOM     32  C   UNL A   1      36.063  29.550  29.357  1.00  0.00     0.014 A 
ATOM     33  C   UNL A   1      38.065  29.795  27.426  1.00  0.00     0.010 A 
ATOM     34  C   UNL A   1      37.389  29.246  29.680  1.00  0.00     0.010 A 
ATOM     35  C   UNL A   1      38.404  29.357  28.716  1.00  0.00    -0.014 A 
BRANCH  35  36
ATOM     36  C   UNL A   1      39.812  29.011  29.059  1.00  0.00     0.031 A 
ATOM     37  C   UNL A   1      40.703  30.012  29.746  1.00  0.00     0.074 A 
ATOM     38  C   UNL A   1      40.302  27.802  28.721  1.00  0.00     0.049 A 
ATOM     39  N   UNL A   1      41.960  29.896  30.097  1.00  0.00    -0.248 NA
ATOM     40  C   UNL A   1      40.113  31.322  30.063  1.00  0.00     0.031 C 
ATOM     41  C   UNL A   1      39.560  26.755  28.017  1.00  0.00     0.029 A 
ATOM     42  N   UNL A   1      41.544  27.250  28.919  1.00  0.00    -0.354 N 
ATOM     43  C   UNL A   1      42.314  31.115  30.664  1.00  0.00     0.074 A 
ATOM     44  C   UNL A   1      41.152  31.972  30.569  1.00  0.00     0.031 C 
ATOM     45  C   UNL A   1      40.352  25.683  27.859  1.00  0.00     0.029 A 
ATOM     46  C   UNL A   1      41.667  25.973  28.423  1.00  0.00     0.049 A 
ATOM     47  H   UNL A   1      42.278  27.724  29.373  1.00  0.00     0.167 HD
ATOM     48  C   UNL A   1      43.489  31.480  31.230  1.00  0.00     0.037 A 
ATOM     49  C   UNL A   1      42.719  25.130  28.419  1.00  0.00     0.037 A 
ATOM     50  C   UNL A   1      44.638  30.618  31.349  1.00  0.00     0.049 A 
ATOM     51  C   UNL A   1      44.012  25.555  29.060  1.00  0.00     0.074 A 
ATOM     52  C   UNL A   1      45.852  30.881  31.960  1.00  0.00     0.029 A 
ATOM     53  N   UNL A   1      44.716  29.328  30.848  1.00  0.00    -0.354 N 
ATOM     54  N   UNL A   1      44.306  26.691  29.645  1.00  0.00    -0.248 NA
ATOM     55  C   UNL A   1      45.113  24.582  29.046  1.00  0.00     0.031 C 
ATOM     56  C   UNL A   1      46.677  29.763  31.796  1.00  0.00     0.029 A 
ATOM     57  C   UNL A   1      45.965  28.788  31.119  1.00  0.00     0.049 A 
ATOM     58  H   UNL A   1      43.993  28.862  30.368  1.00  0.00     0.167 HD
ATOM     59  C   UNL A   1      45.619  26.562  30.088  1.00  0.00     0.074 A 
ATOM     60  C   UNL A   1      46.055  25.232  29.716  1.00  0.00     0.031 C 
ATOM     61  C   UNL A   1      46.390  27.463  30.744  1.00  0.00     0.037 A 
BRANCH  48  62
ATOM     62  C   UNL A   1      43.595  32.880  31.772  1.00  0.00     0.058 A 
ATOM     63  C   UNL A   1      43.255  33.181  33.101  1.00  0.00     0.135 A 
ATOM     64  C   UNL A   1      44.077  33.925  30.968  1.00  0.00     0.135 A 
ATOM     65  F   UNL A   1      42.778  32.222  33.910  1.00  0.00    -0.206 F 
ATOM     66  C   UNL A   1      43.358  34.473  33.603  1.00  0.00     0.059 A 
ATOM     67  C   UNL A   1      44.213  35.221  31.457  1.00  0.00     0.059 A 
ATOM     68  F   UNL A   1      44.420  33.693  29.690  1.00  0.00    -0.206 F 
ATOM     69  C   UNL A   1      43.835  35.488  32.772  1.00  0.00     0.060 A 
BRANCH  69  70
ATOM     70  S   UNL A   1      43.962  37.163  33.436  1.00  0.00     0.124 S 
ATOM     71  O   UNL A   1      42.751  37.244  34.249  1.00  0.00    -0.237 OA
ATOM     72  O   UNL A   1      45.219  37.111  34.180  1.00  0.00    -0.237 OA
ATOM     73  O   UNL A   1      43.977  38.001  32.245  1.00  0.00    -0.744 OA
ENDBRANCH  69  70
ENDBRANCH  48  62
BRANCH  49  74
ATOM     74  C   UNL A   1      42.584  23.785  27.803  1.00  0.00     0.058 A 
ATOM     75  C   UNL A   1      42.691  23.614  26.414  1.00  0.00     0.135 A 
ATOM     76  C   UNL A   1      42.361  22.643  28.588  1.00  0.00     0.135 A 
ATOM     77  F   UNL A   1      42.897  24.677  25.622  1.00  0.00    -0.206 F 
ATOM     78  C   UNL A   1      42.570  22.361  25.823  1.00  0.00     0.059 A 
ATOM     79  C   UNL A   1      42.259  21.377  28.022  1.00  0.00     0.059 A 
ATOM     80  F   UNL A   1      42.267  22.752  29.922  1.00  0.00    -0.206 F 
ATOM     81  C   UNL A   1      42.357  21.247  26.636  1.00  0.00     0.060 A 
BRANCH  81  82
ATOM     82  S   UNL A   1      42.258  19.616  25.867  1.00  0.00     0.124 S 
ATOM     83  O   UNL A   1      43.252  19.732  24.806  1.00  0.00    -0.237 OA
ATOM     84  O   UNL A   1      42.605  18.732  26.975  1.00  0.00    -0.237 OA
ATOM     85  O   UNL A   1      40.868  19.539  25.426  1.00  0.00    -0.744 OA
ENDBRANCH  81  82
ENDBRANCH  49  74
BRANCH  61  86
ATOM     86  C   UNL A   1      47.781  27.037  31.122  1.00  0.00     0.058 A 
ATOM     87  C   UNL A   1      48.061  26.470  32.375  1.00  0.00     0.135 A 
ATOM     88  C   UNL A   1      48.838  27.161  30.206  1.00  0.00     0.135 A 
ATOM     89  F   UNL A   1      47.087  26.336  33.289  1.00  0.00    -0.206 F 
ATOM     90  C   UNL A   1      49.347  26.060  32.715  1.00  0.00     0.059 A 
ATOM     91  C   UNL A   1      50.126  26.735  30.516  1.00  0.00     0.059 A 
ATOM     92  F   UNL A   1      48.622  27.688  28.991  1.00  0.00    -0.206 F 
ATOM     93  C   UNL A   1      50.373  26.197  31.778  1.00  0.00     0.060 A 
BRANCH  93  94
ATOM     94  S   UNL A   1      52.031  25.637  32.221  1.00  0.00     0.124 S 
ATOM     95  O   UNL A   1      51.882  24.187  32.146  1.00  0.00    -0.237 OA
ATOM     96  O   UNL A   1      52.856  26.243  31.182  1.00  0.00    -0.237 OA
ATOM     97  O   UNL A   1      52.226  26.181  33.562  1.00  0.00    -0.744 OA
ENDBRANCH  93  94
ENDBRANCH  61  86
ENDBRANCH  35  36
ENDBRANCH  27  30
ENDBRANCH  25  26
ENDBRANCH  24  25
ENDBRANCH  23  24
ENDBRANCH   3  23
TORSDOF 19
ENDMDL
