MODEL 1
REMARK VINA RESULT:     -15.4      0.000      0.000
REMARK SMILES CC(C)C(=O)Nc1ccc2c([C@H](C(=O)NCCCNC(=O)c3ccc(-c4c5nc(c(-c6c(F)cc(S(=O)(=O)[O-])cc6F)c6ccc([nH]6)c(-c6c(F)cc(S(=O)(=O)[O-])cc6F)c6nc(c(-c7c(F)cc(S(=O)(=O)[O-])cc7F)c7ccc4[nH]7)C=C6)C=C5)cc3)[NH+]3CC[NH+](CC(=O)N(C)C)CC3)c[nH]c2c1
REMARK SMILES IDX 17 1 16 2 15 3 13 4 14 5 12 7 11 8 7 9 8 10 103 11 9 12
REMARK SMILES IDX 102 13 10 14 101 15 100 16 6 18 4 19 5 20 2 22 1 23 3 24
REMARK SMILES IDX 88 25 89 26 99 27 90 29 98 30 91 31 92 33 93 34 94 35 95 36
REMARK SMILES IDX 96 37 97 38 18 39 19 40 20 41 21 43 22 44 23 45 87 46 24 47
REMARK SMILES IDX 86 48 25 49 26 50 27 51 80 52 28 53 85 54 79 55 81 56 29 57
REMARK SMILES IDX 84 58 78 59 77 60 30 62 64 63 43 64 63 65 44 66 47 67 62 68
REMARK SMILES IDX 82 69 45 70 46 71 61 73 83 74 48 75 31 76 32 77 41 78 33 79
REMARK SMILES IDX 34 80 40 81 42 82 35 83 36 84 37 85 38 86 39 87 65 88 66 89
REMARK SMILES IDX 75 90 67 91 68 92 74 93 76 94 69 95 70 96 71 97 72 98 73 99
REMARK SMILES IDX 49 100 50 101 59 102 51 103 52 104 58 105 60 106 53 107
REMARK SMILES IDX 54 108 55 109 56 110 57 111
REMARK H PARENT 15 6 101 17 6 21 88 28 91 32 19 42 81 61 47 72
REMARK Flexibility Score: inf
ROOT
ATOM      1  C   UNL A   1      33.254  28.941  27.065  1.00  0.00     0.042 C 
ENDROOT
BRANCH   1   2
ATOM      2  C   UNL A   1      31.811  27.812  27.315  1.00  0.00     0.118 C 
BRANCH   2   3
ATOM      3  N   UNL A   1      31.299  26.423  26.559  1.00  0.00    -0.351 N 
ATOM      4  C   UNL A   1      31.415  25.545  25.436  1.00  0.00     0.283 C 
ATOM      5  O   UNL A   1      30.417  24.822  25.257  1.00  0.00    -0.268 OA
ATOM      6  H   UNL A   1      30.611  26.031  27.144  1.00  0.00     0.163 HD
BRANCH   4   7
ATOM      7  C   UNL A   1      32.679  25.327  24.531  1.00  0.00     0.308 C 
BRANCH   7   8
ATOM      8  C   UNL A   1      33.817  24.331  24.826  1.00  0.00     0.044 A 
ATOM      9  C   UNL A   1      33.095  20.340  25.895  1.00  0.00     0.043 A 
ATOM     10  C   UNL A   1      32.109  20.989  25.174  1.00  0.00     0.027 A 
ATOM     11  C   UNL A   1      34.224  21.038  26.352  1.00  0.00     0.052 A 
ATOM     12  C   UNL A   1      32.320  22.243  24.653  1.00  0.00     0.013 A 
ATOM     13  C   UNL A   1      34.399  22.350  25.865  1.00  0.00     0.048 A 
ATOM     14  C   UNL A   1      33.486  22.943  24.995  1.00  0.00     0.009 A 
ATOM     15  N   UNL A   1      35.354  23.311  26.122  1.00  0.00    -0.361 N 
ATOM     16  C   UNL A   1      35.034  24.498  25.480  1.00  0.00     0.094 A 
ATOM     17  H   UNL A   1      36.151  23.174  26.683  1.00  0.00     0.166 HD
BRANCH   9  18
ATOM     18  N   UNL A   1      32.925  18.980  26.157  1.00  0.00    -0.326 N 
ATOM     19  C   UNL A   1      32.818  17.958  25.246  1.00  0.00     0.226 C 
ATOM     20  O   UNL A   1      32.339  16.886  25.632  1.00  0.00    -0.274 OA
ATOM     21  H   UNL A   1      32.876  18.723  27.107  1.00  0.00     0.169 HD
BRANCH  19  22
ATOM     22  C   UNL A   1      33.364  18.065  23.795  1.00  0.00     0.072 C 
ATOM     23  C   UNL A   1      34.319  16.958  23.346  1.00  0.00     0.018 C 
ATOM     24  C   UNL A   1      32.321  18.399  22.727  1.00  0.00     0.018 C 
ENDBRANCH  19  22
ENDBRANCH   9  18
ENDBRANCH   7   8
BRANCH   7  25
ATOM     25  N   UNL A   1      32.648  25.230  23.050  1.00  0.00    -0.312 N 
ATOM     26  C   UNL A   1      31.436  25.537  22.304  1.00  0.00     0.325 C 
ATOM     27  C   UNL A   1      33.698  26.005  22.490  1.00  0.00     0.325 C 
ATOM     28  H   UNL A   1      32.736  24.221  22.938  1.00  0.00     0.349 HD
ATOM     29  C   UNL A   1      30.830  26.923  22.583  1.00  0.00     0.325 C 
ATOM     30  C   UNL A   1      33.255  27.449  22.719  1.00  0.00     0.325 C 
ATOM     31  N   UNL A   1      31.796  27.993  22.913  1.00  0.00    -0.318 N 
ATOM     32  H   UNL A   1      32.072  28.803  22.359  1.00  0.00     0.348 HD
BRANCH  31  33
ATOM     33  C   UNL A   1      31.071  29.109  24.008  1.00  0.00     0.364 C 
BRANCH  33  34
ATOM     34  C   UNL A   1      29.753  30.240  23.808  1.00  0.00     0.277 C 
ATOM     35  O   UNL A   1      29.835  31.376  24.299  1.00  0.00    -0.268 OA
ATOM     36  N   UNL A   1      28.711  30.161  22.848  1.00  0.00    -0.344 N 
ATOM     37  C   UNL A   1      28.922  30.825  21.571  1.00  0.00     0.146 C 
ATOM     38  C   UNL A   1      27.282  30.240  23.250  1.00  0.00     0.146 C 
ENDBRANCH  33  34
ENDBRANCH  31  33
ENDBRANCH   7  25
ENDBRANCH   4   7
ENDBRANCH   2   3
ENDBRANCH   1   2
BRANCH   1  39
ATOM     39  C   UNL A   1      34.950  29.216  27.545  1.00  0.00     0.118 C 
BRANCH  39  40
ATOM     40  N   UNL A   1      35.441  30.116  28.627  1.00  0.00    -0.352 N 
ATOM     41  C   UNL A   1      36.221  30.018  29.766  1.00  0.00     0.251 C 
ATOM     42  H   UNL A   1      35.121  31.038  28.495  1.00  0.00     0.163 HD
ATOM     43  O   UNL A   1      35.956  30.625  30.807  1.00  0.00    -0.269 OA
BRANCH  41  44
ATOM     44  C   UNL A   1      37.645  29.709  29.651  1.00  0.00     0.039 A 
ATOM     45  C   UNL A   1      38.451  29.532  30.776  1.00  0.00     0.014 A 
ATOM     46  C   UNL A   1      38.221  29.908  28.388  1.00  0.00     0.014 A 
ATOM     47  C   UNL A   1      39.833  29.391  30.607  1.00  0.00     0.010 A 
ATOM     48  C   UNL A   1      39.590  29.752  28.218  1.00  0.00     0.010 A 
ATOM     49  C   UNL A   1      40.398  29.446  29.320  1.00  0.00    -0.014 A 
BRANCH  49  50
ATOM     50  C   UNL A   1      41.800  29.045  29.054  1.00  0.00     0.031 A 
ATOM     51  C   UNL A   1      42.896  30.067  28.985  1.00  0.00     0.074 A 
ATOM     52  C   UNL A   1      42.013  27.766  28.682  1.00  0.00     0.049 A 
ATOM     53  N   UNL A   1      44.123  29.930  28.555  1.00  0.00    -0.248 NA
ATOM     54  C   UNL A   1      42.558  31.429  29.422  1.00  0.00     0.031 C 
ATOM     55  C   UNL A   1      40.984  26.720  28.640  1.00  0.00     0.029 A 
ATOM     56  N   UNL A   1      43.141  27.137  28.230  1.00  0.00    -0.354 N 
ATOM     57  C   UNL A   1      44.699  31.193  28.639  1.00  0.00     0.074 A 
ATOM     58  C   UNL A   1      43.676  32.087  29.141  1.00  0.00     0.031 C 
ATOM     59  C   UNL A   1      41.529  25.582  28.185  1.00  0.00     0.029 A 
ATOM     60  C   UNL A   1      42.931  25.826  27.870  1.00  0.00     0.049 A 
ATOM     61  H   UNL A   1      44.018  27.579  28.168  1.00  0.00     0.167 HD
ATOM     62  C   UNL A   1      45.966  31.561  28.331  1.00  0.00     0.037 A 
ATOM     63  C   UNL A   1      43.771  24.926  27.328  1.00  0.00     0.037 A 
ATOM     64  C   UNL A   1      46.971  30.639  27.860  1.00  0.00     0.049 A 
ATOM     65  C   UNL A   1      45.186  25.347  27.051  1.00  0.00     0.074 A 
ATOM     66  C   UNL A   1      48.307  30.879  27.590  1.00  0.00     0.029 A 
ATOM     67  N   UNL A   1      46.744  29.296  27.591  1.00  0.00    -0.354 N 
ATOM     68  N   UNL A   1      45.735  26.529  27.202  1.00  0.00    -0.248 NA
ATOM     69  C   UNL A   1      46.097  24.315  26.543  1.00  0.00     0.031 C 
ATOM     70  C   UNL A   1      48.881  29.687  27.135  1.00  0.00     0.029 A 
ATOM     71  C   UNL A   1      47.914  28.695  27.156  1.00  0.00     0.049 A 
ATOM     72  H   UNL A   1      45.879  28.837  27.695  1.00  0.00     0.167 HD
ATOM     73  C   UNL A   1      47.065  26.378  26.832  1.00  0.00     0.074 A 
ATOM     74  C   UNL A   1      47.237  24.987  26.461  1.00  0.00     0.031 C 
ATOM     75  C   UNL A   1      48.055  27.303  26.804  1.00  0.00     0.037 A 
BRANCH  62  76
ATOM     76  C   UNL A   1      46.343  33.009  28.500  1.00  0.00     0.058 A 
ATOM     77  C   UNL A   1      46.136  33.948  27.477  1.00  0.00     0.135 A 
ATOM     78  C   UNL A   1      46.876  33.477  29.714  1.00  0.00     0.135 A 
ATOM     79  F   UNL A   1      45.637  33.557  26.293  1.00  0.00    -0.206 F 
ATOM     80  C   UNL A   1      46.471  35.290  27.637  1.00  0.00     0.059 A 
ATOM     81  C   UNL A   1      47.195  34.820  29.905  1.00  0.00     0.059 A 
ATOM     82  F   UNL A   1      47.091  32.627  30.730  1.00  0.00    -0.206 F 
ATOM     83  C   UNL A   1      47.001  35.716  28.856  1.00  0.00     0.060 A 
BRANCH  83  84
ATOM     84  S   UNL A   1      47.419  37.463  29.052  1.00  0.00     0.124 S 
ATOM     85  O   UNL A   1      46.814  38.042  27.857  1.00  0.00    -0.237 OA
ATOM     86  O   UNL A   1      46.772  37.800  30.316  1.00  0.00    -0.237 OA
ATOM     87  O   UNL A   1      48.878  37.462  29.079  1.00  0.00    -0.744 OA
ENDBRANCH  83  84
ENDBRANCH  62  76
BRANCH  63  88
ATOM     88  C   UNL A   1      43.306  23.541  27.062  1.00  0.00     0.058 A 
ATOM     89  C   UNL A   1      43.019  23.126  25.753  1.00  0.00     0.135 A 
ATOM     90  C   UNL A   1      43.173  22.597  28.092  1.00  0.00     0.135 A 
ATOM     91  F   UNL A   1      43.137  23.993  24.735  1.00  0.00    -0.206 F 
ATOM     92  C   UNL A   1      42.598  21.832  25.474  1.00  0.00     0.059 A 
ATOM     93  C   UNL A   1      42.773  21.288  27.835  1.00  0.00     0.059 A 
ATOM     94  F   UNL A   1      43.463  22.935  29.357  1.00  0.00    -0.206 F 
ATOM     95  C   UNL A   1      42.476  20.919  26.521  1.00  0.00     0.060 A 
BRANCH  95  96
ATOM     96  S   UNL A   1      41.979  19.219  26.161  1.00  0.00     0.124 S 
ATOM     97  O   UNL A   1      40.529  19.382  25.969  1.00  0.00    -0.237 OA
ATOM     98  O   UNL A   1      42.737  18.941  24.927  1.00  0.00    -0.237 OA
ATOM     99  O   UNL A   1      42.388  18.486  27.316  1.00  0.00    -0.744 OA
ENDBRANCH  95  96
ENDBRANCH  63  88
BRANCH  75 100
ATOM    100  C   UNL A   1      49.417  26.827  26.393  1.00  0.00     0.058 A 
ATOM    101  C   UNL A   1      50.274  26.180  27.296  1.00  0.00     0.135 A 
ATOM    102  C   UNL A   1      49.850  26.984  25.067  1.00  0.00     0.135 A 
ATOM    103  F   UNL A   1      49.908  26.017  28.577  1.00  0.00    -0.206 F 
ATOM    104  C   UNL A   1      51.525  25.720  26.901  1.00  0.00     0.059 A 
ATOM    105  C   UNL A   1      51.087  26.509  24.645  1.00  0.00     0.059 A 
ATOM    106  F   UNL A   1      49.062  27.592  24.166  1.00  0.00    -0.206 F 
ATOM    107  C   UNL A   1      51.922  25.888  25.573  1.00  0.00     0.060 A 
BRANCH 107 108
ATOM    108  S   UNL A   1      53.533  25.254  25.063  1.00  0.00     0.124 S 
ATOM    109  O   UNL A   1      54.426  25.950  25.983  1.00  0.00    -0.237 OA
ATOM    110  O   UNL A   1      53.389  23.818  25.282  1.00  0.00    -0.237 OA
ATOM    111  O   UNL A   1      53.629  25.662  23.664  1.00  0.00    -0.744 OA
ENDBRANCH 107 108
ENDBRANCH  75 100
ENDBRANCH  49  50
ENDBRANCH  41  44
ENDBRANCH  39  40
ENDBRANCH   1  39
TORSDOF 19
ENDMDL
MODEL 2
REMARK VINA RESULT:     -14.4      3.049      9.970
REMARK SMILES CC(C)C(=O)Nc1ccc2c([C@H](C(=O)NCCCNC(=O)c3ccc(-c4c5nc(c(-c6c(F)cc(S(=O)(=O)[O-])cc6F)c6ccc([nH]6)c(-c6c(F)cc(S(=O)(=O)[O-])cc6F)c6nc(c(-c7c(F)cc(S(=O)(=O)[O-])cc7F)c7ccc4[nH]7)C=C6)C=C5)cc3)[NH+]3CC[NH+](CC(=O)N(C)C)CC3)c[nH]c2c1
REMARK SMILES IDX 17 1 16 2 15 3 13 4 14 5 12 7 11 8 7 9 8 10 103 11 9 12
REMARK SMILES IDX 102 13 10 14 101 15 100 16 6 18 4 19 5 20 2 22 1 23 3 24
REMARK SMILES IDX 88 25 89 26 99 27 90 29 98 30 91 31 92 33 93 34 94 35 95 36
REMARK SMILES IDX 96 37 97 38 18 39 19 40 20 41 21 43 22 44 23 45 87 46 24 47
REMARK SMILES IDX 86 48 25 49 26 50 27 51 80 52 28 53 85 54 79 55 81 56 29 57
REMARK SMILES IDX 84 58 78 59 77 60 30 62 64 63 43 64 63 65 44 66 47 67 62 68
REMARK SMILES IDX 82 69 45 70 46 71 61 73 83 74 48 75 31 76 32 77 41 78 33 79
REMARK SMILES IDX 34 80 40 81 42 82 35 83 36 84 37 85 38 86 39 87 65 88 66 89
REMARK SMILES IDX 75 90 67 91 68 92 74 93 76 94 69 95 70 96 71 97 72 98 73 99
REMARK SMILES IDX 49 100 50 101 59 102 51 103 52 104 58 105 60 106 53 107
REMARK SMILES IDX 54 108 55 109 56 110 57 111
REMARK H PARENT 15 6 101 17 6 21 88 28 91 32 19 42 81 61 47 72
REMARK Flexibility Score: inf
ROOT
ATOM      1  C   UNL A   1      36.381  22.872  23.962  1.00  0.00     0.042 C 
ENDROOT
BRANCH   1   2
ATOM      2  C   UNL A   1      35.014  22.871  22.718  1.00  0.00     0.118 C 
BRANCH   2   3
ATOM      3  N   UNL A   1      33.438  23.399  22.747  1.00  0.00    -0.351 N 
ATOM      4  C   UNL A   1      32.332  23.859  23.529  1.00  0.00     0.283 C 
ATOM      5  O   UNL A   1      31.227  23.721  22.969  1.00  0.00    -0.268 OA
ATOM      6  H   UNL A   1      33.128  23.389  21.813  1.00  0.00     0.163 HD
BRANCH   4   7
ATOM      7  C   UNL A   1      32.393  24.610  24.906  1.00  0.00     0.308 C 
BRANCH   7   8
ATOM      8  C   UNL A   1      32.639  26.120  25.080  1.00  0.00     0.044 A 
ATOM      9  C   UNL A   1      31.008  28.981  22.483  1.00  0.00     0.043 A 
ATOM     10  C   UNL A   1      30.354  27.766  22.574  1.00  0.00     0.027 A 
ATOM     11  C   UNL A   1      32.233  29.186  23.136  1.00  0.00     0.052 A 
ATOM     12  C   UNL A   1      30.727  26.828  23.508  1.00  0.00     0.013 A 
ATOM     13  C   UNL A   1      32.643  28.186  24.044  1.00  0.00     0.048 A 
ATOM     14  C   UNL A   1      31.889  27.035  24.265  1.00  0.00     0.009 A 
ATOM     15  N   UNL A   1      33.776  28.049  24.816  1.00  0.00    -0.361 N 
ATOM     16  C   UNL A   1      33.775  26.825  25.469  1.00  0.00     0.094 A 
ATOM     17  H   UNL A   1      34.488  28.723  24.893  1.00  0.00     0.166 HD
BRANCH   9  18
ATOM     18  N   UNL A   1      30.416  29.986  21.716  1.00  0.00    -0.326 N 
ATOM     19  C   UNL A   1      29.128  30.454  21.799  1.00  0.00     0.226 C 
ATOM     20  O   UNL A   1      28.680  31.090  20.838  1.00  0.00    -0.274 OA
ATOM     21  H   UNL A   1      30.990  30.409  21.036  1.00  0.00     0.169 HD
BRANCH  19  22
ATOM     22  C   UNL A   1      28.259  30.304  23.079  1.00  0.00     0.072 C 
ATOM     23  C   UNL A   1      27.640  31.587  23.633  1.00  0.00     0.018 C 
ATOM     24  C   UNL A   1      27.266  29.140  23.062  1.00  0.00     0.018 C 
ENDBRANCH  19  22
ENDBRANCH   9  18
ENDBRANCH   7   8
BRANCH   7  25
ATOM     25  N   UNL A   1      31.449  24.384  26.030  1.00  0.00    -0.312 N 
ATOM     26  C   UNL A   1      30.475  23.304  25.985  1.00  0.00     0.325 C 
ATOM     27  C   UNL A   1      32.167  24.259  27.249  1.00  0.00     0.325 C 
ATOM     28  H   UNL A   1      30.870  25.219  25.943  1.00  0.00     0.349 HD
ATOM     29  C   UNL A   1      31.061  21.905  25.727  1.00  0.00     0.325 C 
ATOM     30  C   UNL A   1      32.851  22.897  27.137  1.00  0.00     0.325 C 
ATOM     31  N   UNL A   1      32.417  21.667  26.264  1.00  0.00    -0.318 N 
ATOM     32  H   UNL A   1      32.706  21.071  27.040  1.00  0.00     0.348 HD
BRANCH  31  33
ATOM     33  C   UNL A   1      33.262  20.572  25.236  1.00  0.00     0.364 C 
BRANCH  33  34
ATOM     34  C   UNL A   1      33.098  18.849  24.990  1.00  0.00     0.277 C 
ATOM     35  O   UNL A   1      32.263  18.209  25.647  1.00  0.00    -0.268 OA
ATOM     36  N   UNL A   1      33.560  18.108  23.872  1.00  0.00    -0.344 N 
ATOM     37  C   UNL A   1      32.642  17.932  22.757  1.00  0.00     0.146 C 
ATOM     38  C   UNL A   1      34.414  16.904  24.043  1.00  0.00     0.146 C 
ENDBRANCH  33  34
ENDBRANCH  31  33
ENDBRANCH   7  25
ENDBRANCH   4   7
ENDBRANCH   2   3
ENDBRANCH   1   2
BRANCH   1  39
ATOM     39  C   UNL A   1      36.723  23.028  25.706  1.00  0.00     0.118 C 
BRANCH  39  40
ATOM     40  N   UNL A   1      37.902  22.487  26.441  1.00  0.00    -0.352 N 
ATOM     41  C   UNL A   1      39.271  22.688  26.471  1.00  0.00     0.251 C 
ATOM     42  H   UNL A   1      37.631  21.791  27.083  1.00  0.00     0.163 HD
ATOM     43  O   UNL A   1      40.076  21.762  26.596  1.00  0.00    -0.269 OA
BRANCH  41  44
ATOM     44  C   UNL A   1      39.810  23.961  26.946  1.00  0.00     0.039 A 
ATOM     45  C   UNL A   1      39.742  24.330  28.290  1.00  0.00     0.014 A 
ATOM     46  C   UNL A   1      40.109  24.913  25.962  1.00  0.00     0.014 A 
ATOM     47  C   UNL A   1      40.136  25.621  28.661  1.00  0.00     0.010 A 
ATOM     48  C   UNL A   1      40.515  26.188  26.331  1.00  0.00     0.010 A 
ATOM     49  C   UNL A   1      40.575  26.535  27.687  1.00  0.00    -0.014 A 
BRANCH  49  50
ATOM     50  C   UNL A   1      41.245  27.808  28.041  1.00  0.00     0.031 A 
ATOM     51  C   UNL A   1      42.741  27.920  28.039  1.00  0.00     0.074 A 
ATOM     52  C   UNL A   1      40.473  28.788  28.552  1.00  0.00     0.049 A 
ATOM     53  N   UNL A   1      43.497  28.871  28.521  1.00  0.00    -0.248 NA
ATOM     54  C   UNL A   1      43.487  26.798  27.449  1.00  0.00     0.031 C 
ATOM     55  C   UNL A   1      39.011  28.731  28.671  1.00  0.00     0.029 A 
ATOM     56  N   UNL A   1      40.801  29.996  29.107  1.00  0.00    -0.354 N 
ATOM     57  C   UNL A   1      44.809  28.454  28.323  1.00  0.00     0.074 A 
ATOM     58  C   UNL A   1      44.743  27.150  27.696  1.00  0.00     0.031 C 
ATOM     59  C   UNL A   1      38.571  29.852  29.262  1.00  0.00     0.029 A 
ATOM     60  C   UNL A   1      39.718  30.687  29.596  1.00  0.00     0.049 A 
ATOM     61  H   UNL A   1      41.723  30.337  29.151  1.00  0.00     0.167 HD
ATOM     62  C   UNL A   1      45.954  29.108  28.633  1.00  0.00     0.037 A 
ATOM     63  C   UNL A   1      39.657  31.857  30.257  1.00  0.00     0.037 A 
ATOM     64  C   UNL A   1      45.985  30.419  29.233  1.00  0.00     0.049 A 
ATOM     65  C   UNL A   1      40.940  32.586  30.536  1.00  0.00     0.074 A 
ATOM     66  C   UNL A   1      47.082  31.213  29.520  1.00  0.00     0.029 A 
ATOM     67  N   UNL A   1      44.862  31.130  29.634  1.00  0.00    -0.354 N 
ATOM     68  N   UNL A   1      42.170  32.210  30.280  1.00  0.00    -0.248 NA
ATOM     69  C   UNL A   1      40.829  33.900  31.180  1.00  0.00     0.031 C 
ATOM     70  C   UNL A   1      46.622  32.392  30.118  1.00  0.00     0.029 A 
ATOM     71  C   UNL A   1      45.238  32.350  30.170  1.00  0.00     0.049 A 
ATOM     72  H   UNL A   1      43.933  30.813  29.551  1.00  0.00     0.167 HD
ATOM     73  C   UNL A   1      42.982  33.252  30.708  1.00  0.00     0.074 A 
ATOM     74  C   UNL A   1      42.099  34.278  31.230  1.00  0.00     0.031 C 
ATOM     75  C   UNL A   1      44.333  33.356  30.671  1.00  0.00     0.037 A 
BRANCH  62  76
ATOM     76  C   UNL A   1      47.262  28.428  28.325  1.00  0.00     0.058 A 
ATOM     77  C   UNL A   1      47.884  27.575  29.251  1.00  0.00     0.135 A 
ATOM     78  C   UNL A   1      47.880  28.592  27.074  1.00  0.00     0.135 A 
ATOM     79  F   UNL A   1      47.343  27.386  30.465  1.00  0.00    -0.206 F 
ATOM     80  C   UNL A   1      49.086  26.934  28.962  1.00  0.00     0.059 A 
ATOM     81  C   UNL A   1      49.070  27.941  26.754  1.00  0.00     0.059 A 
ATOM     82  F   UNL A   1      47.330  29.390  26.147  1.00  0.00    -0.206 F 
ATOM     83  C   UNL A   1      49.673  27.125  27.709  1.00  0.00     0.060 A 
BRANCH  83  84
ATOM     84  S   UNL A   1      51.226  26.277  27.345  1.00  0.00     0.124 S 
ATOM     85  O   UNL A   1      50.807  24.879  27.373  1.00  0.00    -0.237 OA
ATOM     86  O   UNL A   1      51.572  26.807  26.029  1.00  0.00    -0.237 OA
ATOM     87  O   UNL A   1      52.103  26.692  28.434  1.00  0.00    -0.744 OA
ENDBRANCH  83  84
ENDBRANCH  62  76
BRANCH  63  88
ATOM     88  C   UNL A   1      38.341  32.420  30.653  1.00  0.00     0.058 A 
ATOM     89  C   UNL A   1      37.818  32.176  31.931  1.00  0.00     0.135 A 
ATOM     90  C   UNL A   1      37.599  33.237  29.787  1.00  0.00     0.135 A 
ATOM     91  F   UNL A   1      38.495  31.404  32.795  1.00  0.00    -0.206 F 
ATOM     92  C   UNL A   1      36.597  32.704  32.332  1.00  0.00     0.059 A 
ATOM     93  C   UNL A   1      36.383  33.796  30.173  1.00  0.00     0.059 A 
ATOM     94  F   UNL A   1      38.068  33.525  28.564  1.00  0.00    -0.206 F 
ATOM     95  C   UNL A   1      35.885  33.512  31.447  1.00  0.00     0.060 A 
BRANCH  95  96
ATOM     96  S   UNL A   1      34.321  34.245  31.979  1.00  0.00     0.124 S 
ATOM     97  O   UNL A   1      34.794  35.465  32.654  1.00  0.00    -0.237 OA
ATOM     98  O   UNL A   1      33.645  34.477  30.689  1.00  0.00    -0.237 OA
ATOM     99  O   UNL A   1      33.735  33.245  32.813  1.00  0.00    -0.744 OA
ENDBRANCH  95  96
ENDBRANCH  63  88
BRANCH  75 100
ATOM    100  C   UNL A   1      44.930  34.636  31.176  1.00  0.00     0.058 A 
ATOM    101  C   UNL A   1      45.119  35.742  30.333  1.00  0.00     0.135 A 
ATOM    102  C   UNL A   1      45.276  34.769  32.530  1.00  0.00     0.135 A 
ATOM    103  F   UNL A   1      44.813  35.658  29.030  1.00  0.00    -0.206 F 
ATOM    104  C   UNL A   1      45.650  36.933  30.814  1.00  0.00     0.059 A 
ATOM    105  C   UNL A   1      45.786  35.959  33.037  1.00  0.00     0.059 A 
ATOM    106  F   UNL A   1      45.107  33.739  33.375  1.00  0.00    -0.206 F 
ATOM    107  C   UNL A   1      45.979  37.032  32.168  1.00  0.00     0.060 A 
BRANCH 107 108
ATOM    108  S   UNL A   1      46.634  38.596  32.788  1.00  0.00     0.124 S 
ATOM    109  O   UNL A   1      46.917  39.308  31.546  1.00  0.00    -0.237 OA
ATOM    110  O   UNL A   1      45.519  39.112  33.576  1.00  0.00    -0.237 OA
ATOM    111  O   UNL A   1      47.803  38.189  33.561  1.00  0.00    -0.744 OA
ENDBRANCH 107 108
ENDBRANCH  75 100
ENDBRANCH  49  50
ENDBRANCH  41  44
ENDBRANCH  39  40
ENDBRANCH   1  39
TORSDOF 19
ENDMDL
MODEL 3
REMARK VINA RESULT:     -14.1      6.453     11.947
REMARK SMILES CC(C)C(=O)Nc1ccc2c([C@H](C(=O)NCCCNC(=O)c3ccc(-c4c5nc(c(-c6c(F)cc(S(=O)(=O)[O-])cc6F)c6ccc([nH]6)c(-c6c(F)cc(S(=O)(=O)[O-])cc6F)c6nc(c(-c7c(F)cc(S(=O)(=O)[O-])cc7F)c7ccc4[nH]7)C=C6)C=C5)cc3)[NH+]3CC[NH+](CC(=O)N(C)C)CC3)c[nH]c2c1
REMARK SMILES IDX 17 1 16 2 15 3 13 4 14 5 12 7 11 8 7 9 8 10 103 11 9 12
REMARK SMILES IDX 102 13 10 14 101 15 100 16 6 18 4 19 5 20 2 22 1 23 3 24
REMARK SMILES IDX 88 25 89 26 99 27 90 29 98 30 91 31 92 33 93 34 94 35 95 36
REMARK SMILES IDX 96 37 97 38 18 39 19 40 20 41 21 43 22 44 23 45 87 46 24 47
REMARK SMILES IDX 86 48 25 49 26 50 27 51 80 52 28 53 85 54 79 55 81 56 29 57
REMARK SMILES IDX 84 58 78 59 77 60 30 62 64 63 43 64 63 65 44 66 47 67 62 68
REMARK SMILES IDX 82 69 45 70 46 71 61 73 83 74 48 75 31 76 32 77 41 78 33 79
REMARK SMILES IDX 34 80 40 81 42 82 35 83 36 84 37 85 38 86 39 87 65 88 66 89
REMARK SMILES IDX 75 90 67 91 68 92 74 93 76 94 69 95 70 96 71 97 72 98 73 99
REMARK SMILES IDX 49 100 50 101 59 102 51 103 52 104 58 105 60 106 53 107
REMARK SMILES IDX 54 108 55 109 56 110 57 111
REMARK H PARENT 15 6 101 17 6 21 88 28 91 32 19 42 81 61 47 72
REMARK Flexibility Score: inf
ROOT
ATOM      1  C   UNL A   1      38.000  23.201  25.900  1.00  0.00     0.042 C 
ENDROOT
BRANCH   1   2
ATOM      2  C   UNL A   1      36.274  22.962  25.281  1.00  0.00     0.118 C 
BRANCH   2   3
ATOM      3  N   UNL A   1      35.371  23.695  24.093  1.00  0.00    -0.351 N 
ATOM      4  C   UNL A   1      34.073  24.035  23.598  1.00  0.00     0.283 C 
ATOM      5  O   UNL A   1      34.047  24.275  22.376  1.00  0.00    -0.268 OA
ATOM      6  H   UNL A   1      36.016  24.053  23.441  1.00  0.00     0.163 HD
BRANCH   4   7
ATOM      7  C   UNL A   1      32.766  24.253  24.439  1.00  0.00     0.308 C 
BRANCH   7   8
ATOM      8  C   UNL A   1      32.308  25.600  25.029  1.00  0.00     0.044 A 
ATOM      9  C   UNL A   1      31.085  28.811  22.625  1.00  0.00     0.043 A 
ATOM     10  C   UNL A   1      30.981  27.543  22.085  1.00  0.00     0.027 A 
ATOM     11  C   UNL A   1      31.695  29.010  23.873  1.00  0.00     0.052 A 
ATOM     12  C   UNL A   1      31.214  26.424  22.849  1.00  0.00     0.013 A 
ATOM     13  C   UNL A   1      31.994  27.854  24.625  1.00  0.00     0.048 A 
ATOM     14  C   UNL A   1      31.726  26.572  24.146  1.00  0.00     0.009 A 
ATOM     15  N   UNL A   1      32.607  27.680  25.847  1.00  0.00    -0.361 N 
ATOM     16  C   UNL A   1      32.776  26.330  26.118  1.00  0.00     0.094 A 
ATOM     17  H   UNL A   1      32.887  28.410  26.443  1.00  0.00     0.166 HD
BRANCH   9  18
ATOM     18  N   UNL A   1      30.573  29.881  21.887  1.00  0.00    -0.326 N 
ATOM     19  C   UNL A   1      29.295  30.382  21.915  1.00  0.00     0.226 C 
ATOM     20  O   UNL A   1      28.931  31.091  20.970  1.00  0.00    -0.274 OA
ATOM     21  H   UNL A   1      31.203  30.327  21.275  1.00  0.00     0.169 HD
BRANCH  19  22
ATOM     22  C   UNL A   1      28.338  30.179  23.123  1.00  0.00     0.072 C 
ATOM     23  C   UNL A   1      27.608  31.424  23.626  1.00  0.00     0.018 C 
ATOM     24  C   UNL A   1      27.415  28.963  23.027  1.00  0.00     0.018 C 
ENDBRANCH  19  22
ENDBRANCH   9  18
ENDBRANCH   7   8
BRANCH   7  25
ATOM     25  N   UNL A   1      31.442  23.670  24.104  1.00  0.00    -0.312 N 
ATOM     26  C   UNL A   1      31.321  22.599  23.126  1.00  0.00     0.325 C 
ATOM     27  C   UNL A   1      30.787  23.240  25.289  1.00  0.00     0.325 C 
ATOM     28  H   UNL A   1      31.016  24.464  23.628  1.00  0.00     0.349 HD
ATOM     29  C   UNL A   1      32.195  21.363  23.398  1.00  0.00     0.325 C 
ATOM     30  C   UNL A   1      31.574  22.002  25.718  1.00  0.00     0.325 C 
ATOM     31  N   UNL A   1      32.442  21.051  24.821  1.00  0.00    -0.318 N 
ATOM     32  H   UNL A   1      32.088  20.274  25.380  1.00  0.00     0.348 HD
BRANCH  31  33
ATOM     33  C   UNL A   1      34.001  20.337  24.994  1.00  0.00     0.364 C 
BRANCH  33  34
ATOM     34  C   UNL A   1      34.610  18.757  24.557  1.00  0.00     0.277 C 
ATOM     35  O   UNL A   1      35.795  18.470  24.782  1.00  0.00    -0.268 OA
ATOM     36  N   UNL A   1      33.835  17.601  24.283  1.00  0.00    -0.344 N 
ATOM     37  C   UNL A   1      33.532  16.716  25.397  1.00  0.00     0.146 C 
ATOM     38  C   UNL A   1      34.025  16.822  23.031  1.00  0.00     0.146 C 
ENDBRANCH  33  34
ENDBRANCH  31  33
ENDBRANCH   7  25
ENDBRANCH   4   7
ENDBRANCH   2   3
ENDBRANCH   1   2
BRANCH   1  39
ATOM     39  C   UNL A   1      39.424  24.270  25.779  1.00  0.00     0.118 C 
BRANCH  39  40
ATOM     40  N   UNL A   1      40.684  24.177  26.569  1.00  0.00    -0.352 N 
ATOM     41  C   UNL A   1      41.604  25.041  27.136  1.00  0.00     0.251 C 
ATOM     42  H   UNL A   1      40.931  23.238  26.733  1.00  0.00     0.163 HD
ATOM     43  O   UNL A   1      42.817  24.820  27.127  1.00  0.00    -0.269 OA
BRANCH  41  44
ATOM     44  C   UNL A   1      41.205  25.903  28.248  1.00  0.00     0.039 A 
ATOM     45  C   UNL A   1      39.935  25.823  28.818  1.00  0.00     0.014 A 
ATOM     46  C   UNL A   1      42.030  27.008  28.501  1.00  0.00     0.014 A 
ATOM     47  C   UNL A   1      39.558  26.774  29.775  1.00  0.00     0.010 A 
ATOM     48  C   UNL A   1      41.663  27.942  29.460  1.00  0.00     0.010 A 
ATOM     49  C   UNL A   1      40.444  27.804  30.137  1.00  0.00    -0.014 A 
BRANCH  49  50
ATOM     50  C   UNL A   1      40.211  28.671  31.316  1.00  0.00     0.031 A 
ATOM     51  C   UNL A   1      39.204  29.781  31.270  1.00  0.00     0.074 A 
ATOM     52  C   UNL A   1      41.071  28.550  32.347  1.00  0.00     0.049 A 
ATOM     53  N   UNL A   1      39.021  30.762  32.115  1.00  0.00    -0.248 NA
ATOM     54  C   UNL A   1      38.309  29.815  30.104  1.00  0.00     0.031 C 
ATOM     55  C   UNL A   1      42.139  27.547  32.438  1.00  0.00     0.029 A 
ATOM     56  N   UNL A   1      41.217  29.291  33.488  1.00  0.00    -0.354 N 
ATOM     57  C   UNL A   1      38.011  31.550  31.572  1.00  0.00     0.074 A 
ATOM     58  C   UNL A   1      37.638  30.942  30.312  1.00  0.00     0.031 C 
ATOM     59  C   UNL A   1      42.830  27.739  33.572  1.00  0.00     0.029 A 
ATOM     60  C   UNL A   1      42.280  28.896  34.267  1.00  0.00     0.049 A 
ATOM     61  H   UNL A   1      40.620  30.036  33.729  1.00  0.00     0.167 HD
ATOM     62  C   UNL A   1      37.451  32.669  32.089  1.00  0.00     0.037 A 
ATOM     63  C   UNL A   1      42.768  29.419  35.406  1.00  0.00     0.037 A 
ATOM     64  C   UNL A   1      37.826  33.235  33.362  1.00  0.00     0.049 A 
ATOM     65  C   UNL A   1      42.089  30.627  35.984  1.00  0.00     0.074 A 
ATOM     66  C   UNL A   1      37.275  34.318  34.023  1.00  0.00     0.029 A 
ATOM     67  N   UNL A   1      38.849  32.753  34.167  1.00  0.00    -0.354 N 
ATOM     68  N   UNL A   1      41.089  31.321  35.493  1.00  0.00    -0.248 NA
ATOM     69  C   UNL A   1      42.592  31.118  37.273  1.00  0.00     0.031 C 
ATOM     70  C   UNL A   1      37.983  34.507  35.216  1.00  0.00     0.029 A 
ATOM     71  C   UNL A   1      38.949  33.519  35.317  1.00  0.00     0.049 A 
ATOM     72  H   UNL A   1      39.420  31.980  33.953  1.00  0.00     0.167 HD
ATOM     73  C   UNL A   1      40.825  32.315  36.425  1.00  0.00     0.074 A 
ATOM     74  C   UNL A   1      41.764  32.126  37.513  1.00  0.00     0.031 C 
ATOM     75  C   UNL A   1      39.889  33.296  36.388  1.00  0.00     0.037 A 
BRANCH  62  76
ATOM     76  C   UNL A   1      36.372  33.352  31.290  1.00  0.00     0.058 A 
ATOM     77  C   UNL A   1      35.027  33.320  31.691  1.00  0.00     0.135 A 
ATOM     78  C   UNL A   1      36.688  34.086  30.133  1.00  0.00     0.135 A 
ATOM     79  F   UNL A   1      34.664  32.629  32.783  1.00  0.00    -0.206 F 
ATOM     80  C   UNL A   1      34.031  33.964  30.961  1.00  0.00     0.059 A 
ATOM     81  C   UNL A   1      35.712  34.758  29.402  1.00  0.00     0.059 A 
ATOM     82  F   UNL A   1      37.958  34.156  29.704  1.00  0.00    -0.206 F 
ATOM     83  C   UNL A   1      34.383  34.680  29.816  1.00  0.00     0.060 A 
BRANCH  83  84
ATOM     84  S   UNL A   1      33.081  35.519  28.887  1.00  0.00     0.124 S 
ATOM     85  O   UNL A   1      32.511  34.414  28.121  1.00  0.00    -0.237 OA
ATOM     86  O   UNL A   1      32.234  36.056  29.947  1.00  0.00    -0.237 OA
ATOM     87  O   UNL A   1      33.808  36.514  28.106  1.00  0.00    -0.744 OA
ENDBRANCH  83  84
ENDBRANCH  62  76
BRANCH  63  88
ATOM     88  C   UNL A   1      43.921  28.776  36.086  1.00  0.00     0.058 A 
ATOM     89  C   UNL A   1      45.210  29.316  35.964  1.00  0.00     0.135 A 
ATOM     90  C   UNL A   1      43.760  27.640  36.894  1.00  0.00     0.135 A 
ATOM     91  F   UNL A   1      45.410  30.405  35.205  1.00  0.00    -0.206 F 
ATOM     92  C   UNL A   1      46.303  28.743  36.603  1.00  0.00     0.059 A 
ATOM     93  C   UNL A   1      44.837  27.061  37.561  1.00  0.00     0.059 A 
ATOM     94  F   UNL A   1      42.544  27.102  37.067  1.00  0.00    -0.206 F 
ATOM     95  C   UNL A   1      46.109  27.616  37.399  1.00  0.00     0.060 A 
BRANCH  95  96
ATOM     96  S   UNL A   1      47.516  26.896  38.274  1.00  0.00     0.124 S 
ATOM     97  O   UNL A   1      48.504  27.982  38.166  1.00  0.00    -0.237 OA
ATOM     98  O   UNL A   1      46.960  26.699  39.625  1.00  0.00    -0.237 OA
ATOM     99  O   UNL A   1      47.804  25.702  37.545  1.00  0.00    -0.744 OA
ENDBRANCH  95  96
ENDBRANCH  63  88
BRANCH  75 100
ATOM    100  C   UNL A   1      39.816  34.210  37.575  1.00  0.00     0.058 A 
ATOM    101  C   UNL A   1      39.108  33.857  38.733  1.00  0.00     0.135 A 
ATOM    102  C   UNL A   1      40.501  35.435  37.566  1.00  0.00     0.135 A 
ATOM    103  F   UNL A   1      38.430  32.700  38.784  1.00  0.00    -0.206 F 
ATOM    104  C   UNL A   1      39.066  34.698  39.839  1.00  0.00     0.059 A 
ATOM    105  C   UNL A   1      40.492  36.281  38.670  1.00  0.00     0.059 A 
ATOM    106  F   UNL A   1      41.197  35.814  36.482  1.00  0.00    -0.206 F 
ATOM    107  C   UNL A   1      39.762  35.908  39.798  1.00  0.00     0.060 A 
BRANCH 107 108
ATOM    108  S   UNL A   1      39.730  36.976  41.253  1.00  0.00     0.124 S 
ATOM    109  O   UNL A   1      39.034  38.151  40.738  1.00  0.00    -0.237 OA
ATOM    110  O   UNL A   1      38.987  36.170  42.217  1.00  0.00    -0.237 OA
ATOM    111  O   UNL A   1      41.143  37.167  41.563  1.00  0.00    -0.744 OA
ENDBRANCH 107 108
ENDBRANCH  75 100
ENDBRANCH  49  50
ENDBRANCH  41  44
ENDBRANCH  39  40
ENDBRANCH   1  39
TORSDOF 19
ENDMDL
