MODEL 1
REMARK VINA RESULT:     -11.2      0.000      0.000
REMARK SMILES C[NH2+][C@]1(C(=O)NCCCNC(=O)c2ccc(-c3c4nc(c(-c5c(F)cc(S(=O)(=O)[O-])cc5F)c5ccc([nH]5)c(-c5c(F)cc(S(=O)(=O)[O-])cc5F)c5nc(c(-c6c(F)cc(S(=O)(=O)[O-])cc6F)c6ccc3[nH]6)C=C5)C=C4)cc2)CC[C@@H](OCCCc2ccccc2)C1
REMARK SMILES IDX 7 1 6 2 4 3 5 4 3 6 79 7 92 8 80 9 81 10 2 11 1 12 82 15
REMARK SMILES IDX 83 16 84 17 85 18 86 19 87 20 91 21 88 22 90 23 89 24 8 25
REMARK SMILES IDX 9 26 10 27 11 28 12 30 13 31 14 32 78 33 15 34 77 35 16 36
REMARK SMILES IDX 17 37 18 38 71 39 19 40 76 41 70 42 72 43 20 44 75 45 69 46
REMARK SMILES IDX 68 47 21 49 55 50 34 51 54 52 35 53 38 54 53 55 73 56 36 57
REMARK SMILES IDX 37 58 52 60 74 61 39 62 22 63 23 64 32 65 24 66 25 67 31 68
REMARK SMILES IDX 33 69 26 70 27 71 28 72 29 73 30 74 56 75 57 76 66 77 58 78
REMARK SMILES IDX 59 79 65 80 67 81 60 82 61 83 62 84 63 85 64 86 40 87 41 88
REMARK SMILES IDX 50 89 42 90 43 91 49 92 51 93 44 94 45 95 46 96 47 97 48 98
REMARK H PARENT 6 5 2 13 2 14 10 29 72 48 38 59
REMARK Flexibility Score: inf
ROOT
ATOM      1  C   UNL A   1      34.221  31.237  27.310  1.00  0.00     0.118 C 
ENDROOT
BRANCH   1   2
ATOM      2  N   UNL A   1      32.885  30.340  27.663  1.00  0.00    -0.351 N 
ATOM      3  C   UNL A   1      31.976  28.655  27.282  1.00  0.00     0.281 C 
ATOM      4  O   UNL A   1      31.052  28.106  27.989  1.00  0.00    -0.268 OA
ATOM      5  H   UNL A   1      32.341  30.843  28.312  1.00  0.00     0.163 HD
BRANCH   3   6
ATOM      6  C   UNL A   1      32.187  27.420  25.883  1.00  0.00     0.177 C 
ATOM      7  C   UNL A   1      33.598  26.950  25.386  1.00  0.00     0.082 C 
ATOM      8  C   UNL A   1      31.292  26.126  25.738  1.00  0.00     0.111 C 
ATOM      9  C   UNL A   1      33.558  25.444  25.109  1.00  0.00     0.039 C 
ATOM     10  C   UNL A   1      32.213  24.915  25.565  1.00  0.00     0.125 C 
BRANCH   6  11
ATOM     11  N   UNL A   1      31.658  28.253  24.668  1.00  0.00    -0.336 N 
ATOM     12  C   UNL A   1      30.376  27.775  24.108  1.00  0.00     0.331 C 
ATOM     13  H   UNL A   1      31.532  29.218  24.974  1.00  0.00     0.346 HD
ATOM     14  H   UNL A   1      32.351  28.159  23.926  1.00  0.00     0.346 HD
ENDBRANCH   6  11
BRANCH  10  15
ATOM     15  O   UNL A   1      32.333  23.844  26.489  1.00  0.00    -0.378 OA
BRANCH  15  16
ATOM     16  C   UNL A   1      31.878  22.531  26.267  1.00  0.00     0.161 C 
BRANCH  16  17
ATOM     17  C   UNL A   1      31.515  22.174  24.838  1.00  0.00     0.033 C 
BRANCH  17  18
ATOM     18  C   UNL A   1      32.469  21.295  24.053  1.00  0.00     0.038 C 
BRANCH  18  19
ATOM     19  C   UNL A   1      33.919  21.130  24.481  1.00  0.00    -0.048 A 
ATOM     20  C   UNL A   1      34.790  19.526  24.849  1.00  0.00     0.004 A 
ATOM     21  C   UNL A   1      34.940  22.631  24.211  1.00  0.00     0.004 A 
ATOM     22  C   UNL A   1      36.616  19.457  24.873  1.00  0.00     0.000 A 
ATOM     23  C   UNL A   1      36.753  22.535  24.225  1.00  0.00     0.000 A 
ATOM     24  C   UNL A   1      37.602  20.941  24.530  1.00  0.00     0.000 A 
ENDBRANCH  18  19
ENDBRANCH  17  18
ENDBRANCH  16  17
ENDBRANCH  15  16
ENDBRANCH  10  15
ENDBRANCH   3   6
ENDBRANCH   1   2
BRANCH   1  25
ATOM     25  C   UNL A   1      34.693  31.988  28.540  1.00  0.00     0.042 C 
BRANCH  25  26
ATOM     26  C   UNL A   1      36.051  31.488  28.982  1.00  0.00     0.118 C 
BRANCH  26  27
ATOM     27  N   UNL A   1      36.027  31.150  30.406  1.00  0.00    -0.352 N 
ATOM     28  C   UNL A   1      36.737  30.141  31.012  1.00  0.00     0.251 C 
ATOM     29  H   UNL A   1      35.447  31.696  30.983  1.00  0.00     0.163 HD
ATOM     30  O   UNL A   1      36.340  29.600  32.034  1.00  0.00    -0.269 OA
BRANCH  28  31
ATOM     31  C   UNL A   1      37.998  29.754  30.360  1.00  0.00     0.039 A 
ATOM     32  C   UNL A   1      38.216  29.996  29.007  1.00  0.00     0.014 A 
ATOM     33  C   UNL A   1      39.010  29.250  31.181  1.00  0.00     0.014 A 
ATOM     34  C   UNL A   1      39.490  29.767  28.489  1.00  0.00     0.010 A 
ATOM     35  C   UNL A   1      40.302  29.206  30.706  1.00  0.00     0.010 A 
ATOM     36  C   UNL A   1      40.546  29.401  29.343  1.00  0.00    -0.014 A 
BRANCH  36  37
ATOM     37  C   UNL A   1      41.908  29.117  28.844  1.00  0.00     0.031 A 
ATOM     38  C   UNL A   1      42.226  27.724  28.360  1.00  0.00     0.074 A 
ATOM     39  C   UNL A   1      42.858  30.069  28.902  1.00  0.00     0.049 A 
ATOM     40  N   UNL A   1      43.369  27.228  27.969  1.00  0.00    -0.248 NA
ATOM     41  C   UNL A   1      41.124  26.743  28.365  1.00  0.00     0.031 C 
ATOM     42  C   UNL A   1      42.672  31.427  29.419  1.00  0.00     0.029 A 
ATOM     43  N   UNL A   1      44.173  30.037  28.522  1.00  0.00    -0.354 N 
ATOM     44  C   UNL A   1      43.123  25.884  27.712  1.00  0.00     0.074 A 
ATOM     45  C   UNL A   1      41.755  25.617  28.081  1.00  0.00     0.031 C 
ATOM     46  C   UNL A   1      43.818  32.112  29.279  1.00  0.00     0.029 A 
ATOM     47  C   UNL A   1      44.831  31.229  28.709  1.00  0.00     0.049 A 
ATOM     48  H   UNL A   1      44.607  29.235  28.149  1.00  0.00     0.167 HD
ATOM     49  C   UNL A   1      43.952  24.963  27.171  1.00  0.00     0.037 A 
ATOM     50  C   UNL A   1      46.109  31.563  28.450  1.00  0.00     0.037 A 
ATOM     51  C   UNL A   1      45.298  25.260  26.768  1.00  0.00     0.049 A 
ATOM     52  C   UNL A   1      47.014  30.525  27.843  1.00  0.00     0.074 A 
ATOM     53  C   UNL A   1      46.211  24.431  26.145  1.00  0.00     0.029 A 
ATOM     54  N   UNL A   1      45.921  26.487  26.949  1.00  0.00    -0.354 N 
ATOM     55  N   UNL A   1      46.745  29.278  27.530  1.00  0.00    -0.248 NA
ATOM     56  C   UNL A   1      48.390  30.936  27.546  1.00  0.00     0.031 C 
ATOM     57  C   UNL A   1      47.409  25.136  26.009  1.00  0.00     0.029 A 
ATOM     58  C   UNL A   1      47.220  26.427  26.477  1.00  0.00     0.049 A 
ATOM     59  H   UNL A   1      45.502  27.280  27.354  1.00  0.00     0.167 HD
ATOM     60  C   UNL A   1      47.910  28.768  26.967  1.00  0.00     0.074 A 
ATOM     61  C   UNL A   1      48.878  29.845  26.972  1.00  0.00     0.031 C 
ATOM     62  C   UNL A   1      48.159  27.522  26.487  1.00  0.00     0.037 A 
BRANCH  49  63
ATOM     63  C   UNL A   1      43.422  23.567  26.984  1.00  0.00     0.058 A 
ATOM     64  C   UNL A   1      43.288  22.671  28.059  1.00  0.00     0.135 A 
ATOM     65  C   UNL A   1      43.025  23.123  25.712  1.00  0.00     0.135 A 
ATOM     66  F   UNL A   1      43.673  23.032  29.294  1.00  0.00    -0.206 F 
ATOM     67  C   UNL A   1      42.813  21.377  27.874  1.00  0.00     0.059 A 
ATOM     68  C   UNL A   1      42.512  21.845  25.511  1.00  0.00     0.059 A 
ATOM     69  F   UNL A   1      43.139  23.931  24.647  1.00  0.00    -0.206 F 
ATOM     70  C   UNL A   1      42.423  20.975  26.596  1.00  0.00     0.060 A 
BRANCH  70  71
ATOM     71  S   UNL A   1      41.792  19.298  26.378  1.00  0.00     0.124 S 
ATOM     72  O   UNL A   1      40.365  19.545  26.204  1.00  0.00    -0.237 OA
ATOM     73  O   UNL A   1      42.508  18.852  25.187  1.00  0.00    -0.237 OA
ATOM     74  O   UNL A   1      42.166  18.629  27.620  1.00  0.00    -0.744 OA
ENDBRANCH  70  71
ENDBRANCH  49  63
BRANCH  50  75
ATOM     75  C   UNL A   1      46.592  32.943  28.730  1.00  0.00     0.058 A 
ATOM     76  C   UNL A   1      46.431  33.970  27.787  1.00  0.00     0.135 A 
ATOM     77  C   UNL A   1      47.209  33.268  29.948  1.00  0.00     0.135 A 
ATOM     78  F   UNL A   1      45.848  33.712  26.607  1.00  0.00    -0.206 F 
ATOM     79  C   UNL A   1      46.884  35.262  28.031  1.00  0.00     0.059 A 
ATOM     80  C   UNL A   1      47.642  34.560  30.228  1.00  0.00     0.059 A 
ATOM     81  F   UNL A   1      47.368  32.329  30.893  1.00  0.00    -0.206 F 
ATOM     82  C   UNL A   1      47.486  35.548  29.258  1.00  0.00     0.060 A 
BRANCH  82  83
ATOM     83  S   UNL A   1      48.033  37.239  29.579  1.00  0.00     0.124 S 
ATOM     84  O   UNL A   1      46.916  37.767  30.353  1.00  0.00    -0.237 OA
ATOM     85  O   UNL A   1      49.275  37.021  30.313  1.00  0.00    -0.237 OA
ATOM     86  O   UNL A   1      48.195  37.798  28.241  1.00  0.00    -0.744 OA
ENDBRANCH  82  83
ENDBRANCH  50  75
BRANCH  62  87
ATOM     87  C   UNL A   1      49.513  27.271  25.885  1.00  0.00     0.058 A 
ATOM     88  C   UNL A   1      50.603  26.846  26.660  1.00  0.00     0.135 A 
ATOM     89  C   UNL A   1      49.701  27.396  24.499  1.00  0.00     0.135 A 
ATOM     90  F   UNL A   1      50.476  26.713  27.990  1.00  0.00    -0.206 F 
ATOM     91  C   UNL A   1      51.840  26.582  26.084  1.00  0.00     0.059 A 
ATOM     92  C   UNL A   1      50.918  27.102  23.898  1.00  0.00     0.059 A 
ATOM     93  F   UNL A   1      48.686  27.786  23.710  1.00  0.00    -0.206 F 
ATOM     94  C   UNL A   1      51.987  26.708  24.702  1.00  0.00     0.060 A 
BRANCH  94  95
ATOM     95  S   UNL A   1      53.590  26.328  23.967  1.00  0.00     0.124 S 
ATOM     96  O   UNL A   1      54.290  27.599  24.115  1.00  0.00    -0.237 OA
ATOM     97  O   UNL A   1      54.066  25.237  24.810  1.00  0.00    -0.237 OA
ATOM     98  O   UNL A   1      53.255  25.952  22.596  1.00  0.00    -0.744 OA
ENDBRANCH  94  95
ENDBRANCH  62  87
ENDBRANCH  36  37
ENDBRANCH  28  31
ENDBRANCH  26  27
ENDBRANCH  25  26
ENDBRANCH   1  25
TORSDOF 19
ENDMDL
MODEL 2
REMARK VINA RESULT:     -11.2      1.087      8.366
REMARK SMILES C[NH2+][C@]1(C(=O)NCCCNC(=O)c2ccc(-c3c4nc(c(-c5c(F)cc(S(=O)(=O)[O-])cc5F)c5ccc([nH]5)c(-c5c(F)cc(S(=O)(=O)[O-])cc5F)c5nc(c(-c6c(F)cc(S(=O)(=O)[O-])cc6F)c6ccc3[nH]6)C=C5)C=C4)cc2)CC[C@@H](OCCCc2ccccc2)C1
REMARK SMILES IDX 7 1 6 2 4 3 5 4 3 6 79 7 92 8 80 9 81 10 2 11 1 12 82 15
REMARK SMILES IDX 83 16 84 17 85 18 86 19 87 20 91 21 88 22 90 23 89 24 8 25
REMARK SMILES IDX 9 26 10 27 11 28 12 30 13 31 14 32 78 33 15 34 77 35 16 36
REMARK SMILES IDX 17 37 18 38 71 39 19 40 76 41 70 42 72 43 20 44 75 45 69 46
REMARK SMILES IDX 68 47 21 49 55 50 34 51 54 52 35 53 38 54 53 55 73 56 36 57
REMARK SMILES IDX 37 58 52 60 74 61 39 62 22 63 23 64 32 65 24 66 25 67 31 68
REMARK SMILES IDX 33 69 26 70 27 71 28 72 29 73 30 74 56 75 57 76 66 77 58 78
REMARK SMILES IDX 59 79 65 80 67 81 60 82 61 83 62 84 63 85 64 86 40 87 41 88
REMARK SMILES IDX 50 89 42 90 43 91 49 92 51 93 44 94 45 95 46 96 47 97 48 98
REMARK H PARENT 6 5 2 13 2 14 10 29 72 48 38 59
REMARK Flexibility Score: inf
ROOT
ATOM      1  C   UNL A   1      34.701  30.953  27.488  1.00  0.00     0.118 C 
ENDROOT
BRANCH   1   2
ATOM      2  N   UNL A   1      33.965  29.480  27.436  1.00  0.00    -0.351 N 
ATOM      3  C   UNL A   1      33.284  28.104  26.229  1.00  0.00     0.281 C 
ATOM      4  O   UNL A   1      33.025  26.880  26.531  1.00  0.00    -0.268 OA
ATOM      5  H   UNL A   1      33.812  29.181  28.361  1.00  0.00     0.163 HD
BRANCH   3   6
ATOM      6  C   UNL A   1      32.860  28.156  24.401  1.00  0.00     0.177 C 
ATOM      7  C   UNL A   1      33.958  28.079  23.283  1.00  0.00     0.082 C 
ATOM      8  C   UNL A   1      31.640  27.367  23.779  1.00  0.00     0.111 C 
ATOM      9  C   UNL A   1      33.458  27.180  22.149  1.00  0.00     0.039 C 
ATOM     10  C   UNL A   1      32.146  26.557  22.583  1.00  0.00     0.125 C 
BRANCH   6  11
ATOM     11  N   UNL A   1      32.333  29.624  24.259  1.00  0.00    -0.336 N 
ATOM     12  C   UNL A   1      30.893  29.789  24.552  1.00  0.00     0.331 C 
ATOM     13  H   UNL A   1      32.859  30.215  24.903  1.00  0.00     0.346 HD
ATOM     14  H   UNL A   1      32.462  29.887  23.283  1.00  0.00     0.346 HD
ENDBRANCH   6  11
BRANCH  10  15
ATOM     15  O   UNL A   1      32.164  25.139  22.507  1.00  0.00    -0.378 OA
BRANCH  15  16
ATOM     16  C   UNL A   1      31.681  24.272  23.505  1.00  0.00     0.161 C 
BRANCH  16  17
ATOM     17  C   UNL A   1      32.504  23.027  23.775  1.00  0.00     0.033 C 
BRANCH  17  18
ATOM     18  C   UNL A   1      32.997  22.784  25.188  1.00  0.00     0.038 C 
BRANCH  18  19
ATOM     19  C   UNL A   1      34.435  22.372  25.460  1.00  0.00    -0.048 A 
ATOM     20  C   UNL A   1      35.218  20.736  25.040  1.00  0.00     0.004 A 
ATOM     21  C   UNL A   1      35.537  23.781  25.874  1.00  0.00     0.004 A 
ATOM     22  C   UNL A   1      37.038  20.574  24.986  1.00  0.00     0.000 A 
ATOM     23  C   UNL A   1      37.342  23.601  25.800  1.00  0.00     0.000 A 
ATOM     24  C   UNL A   1      38.103  22.003  25.329  1.00  0.00     0.000 A 
ENDBRANCH  18  19
ENDBRANCH  17  18
ENDBRANCH  16  17
ENDBRANCH  15  16
ENDBRANCH  10  15
ENDBRANCH   3   6
ENDBRANCH   1   2
BRANCH   1  25
ATOM     25  C   UNL A   1      34.653  31.517  28.895  1.00  0.00     0.042 C 
BRANCH  25  26
ATOM     26  C   UNL A   1      36.051  31.761  29.420  1.00  0.00     0.118 C 
BRANCH  26  27
ATOM     27  N   UNL A   1      36.097  31.526  30.864  1.00  0.00    -0.352 N 
ATOM     28  C   UNL A   1      36.799  30.531  31.501  1.00  0.00     0.251 C 
ATOM     29  H   UNL A   1      35.576  32.138  31.431  1.00  0.00     0.163 HD
ATOM     30  O   UNL A   1      36.441  30.083  32.581  1.00  0.00    -0.269 OA
BRANCH  28  31
ATOM     31  C   UNL A   1      38.002  30.041  30.810  1.00  0.00     0.039 A 
ATOM     32  C   UNL A   1      38.210  30.291  29.457  1.00  0.00     0.014 A 
ATOM     33  C   UNL A   1      38.981  29.427  31.595  1.00  0.00     0.014 A 
ATOM     34  C   UNL A   1      39.444  29.955  28.902  1.00  0.00     0.010 A 
ATOM     35  C   UNL A   1      40.251  29.272  31.086  1.00  0.00     0.010 A 
ATOM     36  C   UNL A   1      40.480  29.473  29.721  1.00  0.00    -0.014 A 
BRANCH  36  37
ATOM     37  C   UNL A   1      41.798  29.073  29.182  1.00  0.00     0.031 A 
ATOM     38  C   UNL A   1      42.888  30.112  29.093  1.00  0.00     0.074 A 
ATOM     39  C   UNL A   1      41.982  27.826  28.710  1.00  0.00     0.049 A 
ATOM     40  N   UNL A   1      44.081  30.012  28.572  1.00  0.00    -0.248 NA
ATOM     41  C   UNL A   1      42.577  31.459  29.609  1.00  0.00     0.031 C 
ATOM     42  C   UNL A   1      40.970  26.767  28.684  1.00  0.00     0.029 A 
ATOM     43  N   UNL A   1      43.089  27.240  28.156  1.00  0.00    -0.354 N 
ATOM     44  C   UNL A   1      44.641  31.280  28.678  1.00  0.00     0.074 A 
ATOM     45  C   UNL A   1      43.631  32.155  29.218  1.00  0.00     0.031 C 
ATOM     46  C   UNL A   1      41.518  25.647  28.188  1.00  0.00     0.029 A 
ATOM     47  C   UNL A   1      42.902  25.922  27.815  1.00  0.00     0.049 A 
ATOM     48  H   UNL A   1      43.938  27.717  28.017  1.00  0.00     0.167 HD
ATOM     49  C   UNL A   1      45.903  31.671  28.393  1.00  0.00     0.037 A 
ATOM     50  C   UNL A   1      43.757  25.041  27.261  1.00  0.00     0.037 A 
ATOM     51  C   UNL A   1      46.909  30.774  27.897  1.00  0.00     0.049 A 
ATOM     52  C   UNL A   1      45.158  25.496  26.956  1.00  0.00     0.074 A 
ATOM     53  C   UNL A   1      48.241  31.036  27.636  1.00  0.00     0.029 A 
ATOM     54  N   UNL A   1      46.690  29.440  27.588  1.00  0.00    -0.354 N 
ATOM     55  N   UNL A   1      45.700  26.679  27.135  1.00  0.00    -0.248 NA
ATOM     56  C   UNL A   1      46.069  24.499  26.382  1.00  0.00     0.031 C 
ATOM     57  C   UNL A   1      48.812  29.876  27.108  1.00  0.00     0.029 A 
ATOM     58  C   UNL A   1      47.857  28.871  27.109  1.00  0.00     0.049 A 
ATOM     59  H   UNL A   1      45.833  28.968  27.693  1.00  0.00     0.167 HD
ATOM     60  C   UNL A   1      47.024  26.557  26.728  1.00  0.00     0.074 A 
ATOM     61  C   UNL A   1      47.202  25.183  26.306  1.00  0.00     0.031 C 
ATOM     62  C   UNL A   1      48.006  27.494  26.706  1.00  0.00     0.037 A 
BRANCH  49  63
ATOM     63  C   UNL A   1      46.256  33.117  28.616  1.00  0.00     0.058 A 
ATOM     64  C   UNL A   1      46.129  34.081  27.600  1.00  0.00     0.135 A 
ATOM     65  C   UNL A   1      46.713  33.551  29.871  1.00  0.00     0.135 A 
ATOM     66  F   UNL A   1      45.720  33.721  26.372  1.00  0.00    -0.206 F 
ATOM     67  C   UNL A   1      46.474  35.411  27.810  1.00  0.00     0.059 A 
ATOM     68  C   UNL A   1      47.028  34.884  30.115  1.00  0.00     0.059 A 
ATOM     69  F   UNL A   1      46.863  32.674  30.876  1.00  0.00    -0.206 F 
ATOM     70  C   UNL A   1      46.918  35.804  29.073  1.00  0.00     0.060 A 
BRANCH  70  71
ATOM     71  S   UNL A   1      47.343  37.539  29.332  1.00  0.00     0.124 S 
ATOM     72  O   UNL A   1      48.476  37.427  30.245  1.00  0.00    -0.237 OA
ATOM     73  O   UNL A   1      47.662  37.984  27.979  1.00  0.00    -0.237 OA
ATOM     74  O   UNL A   1      46.128  38.105  29.908  1.00  0.00    -0.744 OA
ENDBRANCH  70  71
ENDBRANCH  49  63
BRANCH  50  75
ATOM     75  C   UNL A   1      43.320  23.644  26.994  1.00  0.00     0.058 A 
ATOM     76  C   UNL A   1      43.183  22.718  28.040  1.00  0.00     0.135 A 
ATOM     77  C   UNL A   1      43.017  23.208  25.695  1.00  0.00     0.135 A 
ATOM     78  F   UNL A   1      43.461  23.083  29.301  1.00  0.00    -0.206 F 
ATOM     79  C   UNL A   1      42.784  21.406  27.806  1.00  0.00     0.059 A 
ATOM     80  C   UNL A   1      42.586  21.910  25.439  1.00  0.00     0.059 A 
ATOM     81  F   UNL A   1      43.110  24.059  24.662  1.00  0.00    -0.206 F 
ATOM     82  C   UNL A   1      42.484  21.013  26.501  1.00  0.00     0.060 A 
BRANCH  82  83
ATOM     83  S   UNL A   1      41.927  19.318  26.215  1.00  0.00     0.124 S 
ATOM     84  O   UNL A   1      42.249  18.684  27.488  1.00  0.00    -0.237 OA
ATOM     85  O   UNL A   1      40.508  19.509  25.936  1.00  0.00    -0.237 OA
ATOM     86  O   UNL A   1      42.730  18.890  25.074  1.00  0.00    -0.744 OA
ENDBRANCH  82  83
ENDBRANCH  50  75
BRANCH  62  87
ATOM     87  C   UNL A   1      49.371  27.055  26.255  1.00  0.00     0.058 A 
ATOM     88  C   UNL A   1      50.317  26.535  27.151  1.00  0.00     0.135 A 
ATOM     89  C   UNL A   1      49.710  27.100  24.892  1.00  0.00     0.135 A 
ATOM     90  F   UNL A   1      50.044  26.474  28.464  1.00  0.00    -0.206 F 
ATOM     91  C   UNL A   1      51.563  26.099  26.714  1.00  0.00     0.059 A 
ATOM     92  C   UNL A   1      50.934  26.635  24.429  1.00  0.00     0.059 A 
ATOM     93  F   UNL A   1      48.835  27.576  23.992  1.00  0.00    -0.206 F 
ATOM     94  C   UNL A   1      51.860  26.149  25.351  1.00  0.00     0.060 A 
BRANCH  94  95
ATOM     95  S   UNL A   1      53.468  25.546  24.797  1.00  0.00     0.124 S 
ATOM     96  O   UNL A   1      54.376  26.310  25.646  1.00  0.00    -0.237 OA
ATOM     97  O   UNL A   1      53.379  24.118  25.083  1.00  0.00    -0.237 OA
ATOM     98  O   UNL A   1      53.493  25.896  23.379  1.00  0.00    -0.744 OA
ENDBRANCH  94  95
ENDBRANCH  62  87
ENDBRANCH  36  37
ENDBRANCH  28  31
ENDBRANCH  26  27
ENDBRANCH  25  26
ENDBRANCH   1  25
TORSDOF 19
ENDMDL
MODEL 3
REMARK VINA RESULT:     -10.8      8.961     14.545
REMARK SMILES C[NH2+][C@]1(C(=O)NCCCNC(=O)c2ccc(-c3c4nc(c(-c5c(F)cc(S(=O)(=O)[O-])cc5F)c5ccc([nH]5)c(-c5c(F)cc(S(=O)(=O)[O-])cc5F)c5nc(c(-c6c(F)cc(S(=O)(=O)[O-])cc6F)c6ccc3[nH]6)C=C5)C=C4)cc2)CC[C@@H](OCCCc2ccccc2)C1
REMARK SMILES IDX 7 1 6 2 4 3 5 4 3 6 79 7 92 8 80 9 81 10 2 11 1 12 82 15
REMARK SMILES IDX 83 16 84 17 85 18 86 19 87 20 91 21 88 22 90 23 89 24 8 25
REMARK SMILES IDX 9 26 10 27 11 28 12 30 13 31 14 32 78 33 15 34 77 35 16 36
REMARK SMILES IDX 17 37 18 38 71 39 19 40 76 41 70 42 72 43 20 44 75 45 69 46
REMARK SMILES IDX 68 47 21 49 55 50 34 51 54 52 35 53 38 54 53 55 73 56 36 57
REMARK SMILES IDX 37 58 52 60 74 61 39 62 22 63 23 64 32 65 24 66 25 67 31 68
REMARK SMILES IDX 33 69 26 70 27 71 28 72 29 73 30 74 56 75 57 76 66 77 58 78
REMARK SMILES IDX 59 79 65 80 67 81 60 82 61 83 62 84 63 85 64 86 40 87 41 88
REMARK SMILES IDX 50 89 42 90 43 91 49 92 51 93 44 94 45 95 46 96 47 97 48 98
REMARK H PARENT 6 5 2 13 2 14 10 29 72 48 38 59
REMARK Flexibility Score: inf
ROOT
ATOM      1  C   UNL A   1      49.287  23.947  36.454  1.00  0.00     0.118 C 
ENDROOT
BRANCH   1   2
ATOM      2  N   UNL A   1      49.705  22.384  36.766  1.00  0.00    -0.351 N 
ATOM      3  C   UNL A   1      49.001  20.646  37.309  1.00  0.00     0.281 C 
ATOM      4  O   UNL A   1      49.577  19.505  37.161  1.00  0.00    -0.268 OA
ATOM      5  H   UNL A   1      50.675  22.292  36.627  1.00  0.00     0.163 HD
BRANCH   3   6
ATOM      6  C   UNL A   1      47.379  20.163  38.125  1.00  0.00     0.177 C 
ATOM      7  C   UNL A   1      46.339  19.219  37.429  1.00  0.00     0.082 C 
ATOM      8  C   UNL A   1      47.269  19.777  39.653  1.00  0.00     0.111 C 
ATOM      9  C   UNL A   1      45.769  18.247  38.467  1.00  0.00     0.039 C 
ATOM     10  C   UNL A   1      46.530  18.441  39.764  1.00  0.00     0.125 C 
BRANCH   6  11
ATOM     11  N   UNL A   1      46.632  21.540  38.139  1.00  0.00    -0.336 N 
ATOM     12  C   UNL A   1      45.706  21.747  37.005  1.00  0.00     0.331 C 
ATOM     13  H   UNL A   1      46.096  21.602  39.004  1.00  0.00     0.346 HD
ATOM     14  H   UNL A   1      47.349  22.261  38.062  1.00  0.00     0.346 HD
ENDBRANCH   6  11
BRANCH  10  15
ATOM     15  O   UNL A   1      47.099  17.233  40.248  1.00  0.00    -0.378 OA
BRANCH  15  16
ATOM     16  C   UNL A   1      46.754  16.608  41.461  1.00  0.00     0.161 C 
BRANCH  16  17
ATOM     17  C   UNL A   1      45.939  17.432  42.439  1.00  0.00     0.033 C 
BRANCH  17  18
ATOM     18  C   UNL A   1      44.860  16.734  43.242  1.00  0.00     0.038 C 
BRANCH  18  19
ATOM     19  C   UNL A   1      43.753  15.948  42.556  1.00  0.00    -0.048 A 
ATOM     20  C   UNL A   1      43.222  16.103  40.778  1.00  0.00     0.004 A 
ATOM     21  C   UNL A   1      43.207  14.472  43.500  1.00  0.00     0.004 A 
ATOM     22  C   UNL A   1      42.236  14.779  39.995  1.00  0.00     0.000 A 
ATOM     23  C   UNL A   1      42.239  13.162  42.696  1.00  0.00     0.000 A 
ATOM     24  C   UNL A   1      41.771  13.295  40.931  1.00  0.00     0.000 A 
ENDBRANCH  18  19
ENDBRANCH  17  18
ENDBRANCH  16  17
ENDBRANCH  15  16
ENDBRANCH  10  15
ENDBRANCH   3   6
ENDBRANCH   1   2
BRANCH   1  25
ATOM     25  C   UNL A   1      48.147  23.999  35.456  1.00  0.00     0.042 C 
BRANCH  25  26
ATOM     26  C   UNL A   1      47.089  24.983  35.906  1.00  0.00     0.118 C 
BRANCH  26  27
ATOM     27  N   UNL A   1      47.158  25.172  37.355  1.00  0.00    -0.352 N 
ATOM     28  C   UNL A   1      46.852  26.326  38.037  1.00  0.00     0.251 C 
ATOM     29  H   UNL A   1      47.451  24.402  37.892  1.00  0.00     0.163 HD
ATOM     30  O   UNL A   1      47.365  26.590  39.115  1.00  0.00    -0.269 OA
BRANCH  28  31
ATOM     31  C   UNL A   1      45.874  27.219  37.396  1.00  0.00     0.039 A 
ATOM     32  C   UNL A   1      46.282  28.268  36.578  1.00  0.00     0.014 A 
ATOM     33  C   UNL A   1      44.524  26.893  37.540  1.00  0.00     0.014 A 
ATOM     34  C   UNL A   1      45.312  28.968  35.861  1.00  0.00     0.010 A 
ATOM     35  C   UNL A   1      43.600  27.462  36.693  1.00  0.00     0.010 A 
ATOM     36  C   UNL A   1      43.970  28.548  35.893  1.00  0.00    -0.014 A 
BRANCH  36  37
ATOM     37  C   UNL A   1      42.896  29.269  35.177  1.00  0.00     0.031 A 
ATOM     38  C   UNL A   1      42.531  28.825  33.782  1.00  0.00     0.074 A 
ATOM     39  C   UNL A   1      42.319  30.348  35.739  1.00  0.00     0.049 A 
ATOM     40  N   UNL A   1      41.692  29.364  32.939  1.00  0.00    -0.248 NA
ATOM     41  C   UNL A   1      43.243  27.650  33.243  1.00  0.00     0.031 C 
ATOM     42  C   UNL A   1      42.651  30.903  37.054  1.00  0.00     0.029 A 
ATOM     43  N   UNL A   1      41.333  31.174  35.270  1.00  0.00    -0.354 N 
ATOM     44  C   UNL A   1      41.800  28.610  31.775  1.00  0.00     0.074 A 
ATOM     45  C   UNL A   1      42.849  27.643  31.981  1.00  0.00     0.031 C 
ATOM     46  C   UNL A   1      41.846  31.947  37.305  1.00  0.00     0.029 A 
ATOM     47  C   UNL A   1      40.980  32.167  36.152  1.00  0.00     0.049 A 
ATOM     48  H   UNL A   1      40.916  31.066  34.385  1.00  0.00     0.167 HD
ATOM     49  C   UNL A   1      41.057  28.688  30.648  1.00  0.00     0.037 A 
ATOM     50  C   UNL A   1      40.059  33.143  36.034  1.00  0.00     0.037 A 
ATOM     51  C   UNL A   1      39.986  29.630  30.478  1.00  0.00     0.049 A 
ATOM     52  C   UNL A   1      39.240  33.208  34.774  1.00  0.00     0.074 A 
ATOM     53  C   UNL A   1      39.117  29.759  29.412  1.00  0.00     0.029 A 
ATOM     54  N   UNL A   1      39.640  30.603  31.405  1.00  0.00    -0.354 N 
ATOM     55  N   UNL A   1      39.297  32.438  33.711  1.00  0.00    -0.248 NA
ATOM     56  C   UNL A   1      38.226  34.266  34.696  1.00  0.00     0.031 C 
ATOM     57  C   UNL A   1      38.287  30.854  29.664  1.00  0.00     0.029 A 
ATOM     58  C   UNL A   1      38.587  31.359  30.920  1.00  0.00     0.049 A 
ATOM     59  H   UNL A   1      40.078  30.737  32.276  1.00  0.00     0.167 HD
ATOM     60  C   UNL A   1      38.303  32.899  32.854  1.00  0.00     0.074 A 
ATOM     61  C   UNL A   1      37.654  34.004  33.529  1.00  0.00     0.031 C 
ATOM     62  C   UNL A   1      37.955  32.449  31.621  1.00  0.00     0.037 A 
BRANCH  49  63
ATOM     63  C   UNL A   1      41.376  27.732  29.531  1.00  0.00     0.058 A 
ATOM     64  C   UNL A   1      40.526  26.662  29.200  1.00  0.00     0.135 A 
ATOM     65  C   UNL A   1      42.543  27.896  28.767  1.00  0.00     0.135 A 
ATOM     66  F   UNL A   1      39.408  26.440  29.910  1.00  0.00    -0.206 F 
ATOM     67  C   UNL A   1      40.837  25.774  28.177  1.00  0.00     0.059 A 
ATOM     68  C   UNL A   1      42.855  27.042  27.714  1.00  0.00     0.059 A 
ATOM     69  F   UNL A   1      43.397  28.894  29.043  1.00  0.00    -0.206 F 
ATOM     70  C   UNL A   1      42.002  25.975  27.436  1.00  0.00     0.060 A 
BRANCH  70  71
ATOM     71  S   UNL A   1      42.380  24.822  26.100  1.00  0.00     0.124 S 
ATOM     72  O   UNL A   1      42.275  25.688  24.930  1.00  0.00    -0.237 OA
ATOM     73  O   UNL A   1      43.729  24.384  26.444  1.00  0.00    -0.237 OA
ATOM     74  O   UNL A   1      41.341  23.805  26.222  1.00  0.00    -0.744 OA
ENDBRANCH  70  71
ENDBRANCH  49  63
BRANCH  50  75
ATOM     75  C   UNL A   1      39.845  34.106  37.148  1.00  0.00     0.058 A 
ATOM     76  C   UNL A   1      39.001  33.790  38.224  1.00  0.00     0.135 A 
ATOM     77  C   UNL A   1      40.490  35.352  37.170  1.00  0.00     0.135 A 
ATOM     78  F   UNL A   1      38.361  32.611  38.251  1.00  0.00    -0.206 F 
ATOM     79  C   UNL A   1      38.785  34.683  39.269  1.00  0.00     0.059 A 
ATOM     80  C   UNL A   1      40.315  36.250  38.220  1.00  0.00     0.059 A 
ATOM     81  F   UNL A   1      41.325  35.695  36.178  1.00  0.00    -0.206 F 
ATOM     82  C   UNL A   1      39.450  35.910  39.259  1.00  0.00     0.060 A 
BRANCH  82  83
ATOM     83  S   UNL A   1      39.193  37.044  40.641  1.00  0.00     0.124 S 
ATOM     84  O   UNL A   1      38.546  36.175  41.617  1.00  0.00    -0.237 OA
ATOM     85  O   UNL A   1      40.558  37.453  40.954  1.00  0.00    -0.237 OA
ATOM     86  O   UNL A   1      38.350  38.087  40.066  1.00  0.00    -0.744 OA
ENDBRANCH  82  83
ENDBRANCH  50  75
BRANCH  62  87
ATOM     87  C   UNL A   1      36.793  33.119  30.943  1.00  0.00     0.058 A 
ATOM     88  C   UNL A   1      36.970  34.000  29.865  1.00  0.00     0.135 A 
ATOM     89  C   UNL A   1      35.479  32.822  31.341  1.00  0.00     0.135 A 
ATOM     90  F   UNL A   1      38.206  34.319  29.447  1.00  0.00    -0.206 F 
ATOM     91  C   UNL A   1      35.884  34.584  29.224  1.00  0.00     0.059 A 
ATOM     92  C   UNL A   1      34.379  33.367  30.690  1.00  0.00     0.059 A 
ATOM     93  F   UNL A   1      35.255  31.975  32.358  1.00  0.00    -0.206 F 
ATOM     94  C   UNL A   1      34.593  34.258  29.640  1.00  0.00     0.060 A 
BRANCH  94  95
ATOM     95  S   UNL A   1      33.194  34.998  28.774  1.00  0.00     0.124 S 
ATOM     96  O   UNL A   1      32.316  35.353  29.883  1.00  0.00    -0.237 OA
ATOM     97  O   UNL A   1      33.820  36.117  28.075  1.00  0.00    -0.237 OA
ATOM     98  O   UNL A   1      32.715  33.919  27.914  1.00  0.00    -0.744 OA
ENDBRANCH  94  95
ENDBRANCH  62  87
ENDBRANCH  36  37
ENDBRANCH  28  31
ENDBRANCH  26  27
ENDBRANCH  25  26
ENDBRANCH   1  25
TORSDOF 19
ENDMDL
