MODEL 1
REMARK VINA RESULT:     -12.0      0.000      0.000
REMARK SMILES O=C(C[C@H](NS(=O)(=O)c1cccs1)c1ccccc1Cl)NCCCNC(=O)c1ccc(-c2c3nc(c(-c4c(F)cc(S(=O)(=O)[O-])cc4F)c4ccc([nH]4)c(-c4c(F)cc(S(=O)(=O)[O-])cc4F)c4nc(c(-c5c(F)cc(S(=O)(=O)[O-])cc5F)c5ccc2[nH]5)C=C4)C=C3)cc1
REMARK SMILES IDX 22 1 21 2 1 3 2 4 3 6 4 7 14 8 15 9 19 10 16 11 18 12 20 13
REMARK SMILES IDX 17 14 5 15 6 17 7 18 8 19 9 20 10 21 13 22 11 23 12 24 23 25
REMARK SMILES IDX 24 26 25 27 26 28 27 30 28 31 29 32 93 33 30 34 92 35 31 36
REMARK SMILES IDX 32 37 33 38 86 39 34 40 91 41 85 42 87 43 35 44 90 45 84 46
REMARK SMILES IDX 83 47 36 49 70 50 49 51 69 52 50 53 53 54 68 55 88 56 51 57
REMARK SMILES IDX 52 58 67 60 89 61 54 62 37 63 38 64 47 65 39 66 40 67 46 68
REMARK SMILES IDX 48 69 41 70 42 71 43 72 44 73 45 74 71 75 72 76 81 77 73 78
REMARK SMILES IDX 74 79 80 80 82 81 75 82 76 83 77 84 78 85 79 86 55 87 56 88
REMARK SMILES IDX 65 89 57 90 58 91 64 92 66 93 59 94 60 95 61 96 62 97 63 98
REMARK H PARENT 21 5 5 16 25 29 87 48 53 59
REMARK Flexibility Score: inf
ROOT
ATOM      1  C   UNL A   1      32.801  28.638  27.446  1.00  0.00     0.117 C 
ENDROOT
BRANCH   1   2
ATOM      2  N   UNL A   1      31.845  28.210  26.446  1.00  0.00    -0.356 N 
ATOM      3  O   UNL A   1      32.475  25.997  26.397  1.00  0.00    -0.275 OA
ATOM      4  C   UNL A   1      31.719  26.897  26.051  1.00  0.00     0.221 C 
ATOM      5  H   UNL A   1      31.261  28.885  26.031  1.00  0.00     0.163 HD
BRANCH   4   6
ATOM      6  C   UNL A   1      30.504  26.648  25.191  1.00  0.00     0.125 C 
BRANCH   6   7
ATOM      7  C   UNL A   1      30.721  26.949  23.698  1.00  0.00     0.111 C 
BRANCH   7   8
ATOM      8  C   UNL A   1      29.741  27.994  23.171  1.00  0.00    -0.011 A 
ATOM      9  C   UNL A   1      30.291  29.102  22.487  1.00  0.00     0.007 A 
ATOM     10  C   UNL A   1      28.340  27.940  23.303  1.00  0.00     0.045 A 
ATOM     11  C   UNL A   1      29.484  30.124  21.983  1.00  0.00     0.000 A 
ATOM     12  C   UNL A   1      27.537  28.973  22.799  1.00  0.00     0.021 A 
ATOM     13  Cl  UNL A   1      27.505  26.643  24.084  1.00  0.00    -0.084 Cl
ATOM     14  C   UNL A   1      28.107  30.063  22.146  1.00  0.00     0.002 A 
ENDBRANCH   7   8
BRANCH   7  15
ATOM     15  N   UNL A   1      32.113  27.242  23.320  1.00  0.00    -0.202 NA
ATOM     16  H   UNL A   1      32.668  27.163  24.172  1.00  0.00     0.142 HD
BRANCH  15  17
ATOM     17  S   UNL A   1      32.893  26.333  22.156  1.00  0.00     0.250 S 
ATOM     18  O   UNL A   1      31.850  25.805  21.307  1.00  0.00    -0.206 OA
ATOM     19  O   UNL A   1      33.978  27.135  21.634  1.00  0.00    -0.206 OA
BRANCH  17  20
ATOM     20  C   UNL A   1      33.630  24.952  22.981  1.00  0.00     0.134 A 
ATOM     21  C   UNL A   1      34.509  24.863  24.044  1.00  0.00     0.033 A 
ATOM     22  S   UNL A   1      33.198  23.409  22.388  1.00  0.00    -0.131 S 
ATOM     23  C   UNL A   1      34.833  23.513  24.367  1.00  0.00     0.013 A 
ATOM     24  C   UNL A   1      34.180  22.619  23.546  1.00  0.00     0.066 A 
ENDBRANCH  17  20
ENDBRANCH  15  17
ENDBRANCH   7  15
ENDBRANCH   6   7
ENDBRANCH   4   6
ENDBRANCH   1   2
BRANCH   1  25
ATOM     25  C   UNL A   1      33.802  29.657  26.916  1.00  0.00     0.042 C 
BRANCH  25  26
ATOM     26  C   UNL A   1      35.162  29.662  27.608  1.00  0.00     0.118 C 
BRANCH  26  27
ATOM     27  N   UNL A   1      35.212  30.471  28.818  1.00  0.00    -0.352 N 
ATOM     28  C   UNL A   1      36.248  30.600  29.716  1.00  0.00     0.251 C 
ATOM     29  H   UNL A   1      34.401  30.992  29.019  1.00  0.00     0.163 HD
ATOM     30  O   UNL A   1      36.098  31.215  30.767  1.00  0.00    -0.269 OA
BRANCH  28  31
ATOM     31  C   UNL A   1      37.549  29.960  29.417  1.00  0.00     0.039 A 
ATOM     32  C   UNL A   1      38.000  29.911  28.096  1.00  0.00     0.014 A 
ATOM     33  C   UNL A   1      38.336  29.442  30.451  1.00  0.00     0.014 A 
ATOM     34  C   UNL A   1      39.282  29.426  27.819  1.00  0.00     0.010 A 
ATOM     35  C   UNL A   1      39.633  29.010  30.179  1.00  0.00     0.010 A 
ATOM     36  C   UNL A   1      40.125  29.015  28.864  1.00  0.00    -0.014 A 
BRANCH  36  37
ATOM     37  C   UNL A   1      41.538  28.625  28.623  1.00  0.00     0.031 A 
ATOM     38  C   UNL A   1      42.619  29.670  28.617  1.00  0.00     0.074 A 
ATOM     39  C   UNL A   1      41.833  27.349  28.302  1.00  0.00     0.049 A 
ATOM     40  N   UNL A   1      43.873  29.560  28.265  1.00  0.00    -0.248 NA
ATOM     41  C   UNL A   1      42.229  31.024  29.041  1.00  0.00     0.031 C 
ATOM     42  C   UNL A   1      40.872  26.247  28.240  1.00  0.00     0.029 A 
ATOM     43  N   UNL A   1      43.025  26.768  27.943  1.00  0.00    -0.354 N 
ATOM     44  C   UNL A   1      44.417  30.831  28.395  1.00  0.00     0.074 A 
ATOM     45  C   UNL A   1      43.349  31.704  28.835  1.00  0.00     0.031 C 
ATOM     46  C   UNL A   1      41.510  25.125  27.869  1.00  0.00     0.029 A 
ATOM     47  C   UNL A   1      42.915  25.433  27.626  1.00  0.00     0.049 A 
ATOM     48  H   UNL A   1      43.877  27.260  27.916  1.00  0.00     0.167 HD
ATOM     49  C   UNL A   1      45.693  31.233  28.177  1.00  0.00     0.037 A 
ATOM     50  C   UNL A   1      43.836  24.563  27.170  1.00  0.00     0.037 A 
ATOM     51  C   UNL A   1      46.760  30.357  27.770  1.00  0.00     0.049 A 
ATOM     52  C   UNL A   1      45.248  25.028  26.948  1.00  0.00     0.074 A 
ATOM     53  C   UNL A   1      48.095  30.663  27.568  1.00  0.00     0.029 A 
ATOM     54  N   UNL A   1      46.617  29.002  27.509  1.00  0.00    -0.354 N 
ATOM     55  N   UNL A   1      45.753  26.228  27.107  1.00  0.00    -0.248 NA
ATOM     56  C   UNL A   1      46.218  24.025  26.485  1.00  0.00     0.031 C 
ATOM     57  C   UNL A   1      48.754  29.499  27.160  1.00  0.00     0.029 A 
ATOM     58  C   UNL A   1      47.837  28.460  27.141  1.00  0.00     0.049 A 
ATOM     59  H   UNL A   1      45.772  28.501  27.574  1.00  0.00     0.167 HD
ATOM     60  C   UNL A   1      47.103  26.117  26.796  1.00  0.00     0.074 A 
ATOM     61  C   UNL A   1      47.338  24.733  26.436  1.00  0.00     0.031 C 
ATOM     62  C   UNL A   1      48.060  27.075  26.810  1.00  0.00     0.037 A 
BRANCH  49  63
ATOM     63  C   UNL A   1      46.004  32.688  28.375  1.00  0.00     0.058 A 
ATOM     64  C   UNL A   1      45.908  33.610  27.321  1.00  0.00     0.135 A 
ATOM     65  C   UNL A   1      46.373  33.175  29.640  1.00  0.00     0.135 A 
ATOM     66  F   UNL A   1      45.572  33.195  26.089  1.00  0.00    -0.206 F 
ATOM     67  C   UNL A   1      46.197  34.958  27.505  1.00  0.00     0.059 A 
ATOM     68  C   UNL A   1      46.644  34.523  29.852  1.00  0.00     0.059 A 
ATOM     69  F   UNL A   1      46.478  32.336  30.682  1.00  0.00    -0.206 F 
ATOM     70  C   UNL A   1      46.570  35.405  28.775  1.00  0.00     0.060 A 
BRANCH  70  71
ATOM     71  S   UNL A   1      46.947  37.155  29.001  1.00  0.00     0.124 S 
ATOM     72  O   UNL A   1      45.645  37.683  29.398  1.00  0.00    -0.237 OA
ATOM     73  O   UNL A   1      47.964  37.127  30.048  1.00  0.00    -0.237 OA
ATOM     74  O   UNL A   1      47.419  37.573  27.685  1.00  0.00    -0.744 OA
ENDBRANCH  70  71
ENDBRANCH  49  63
BRANCH  50  75
ATOM     75  C   UNL A   1      43.451  23.151  26.906  1.00  0.00     0.058 A 
ATOM     76  C   UNL A   1      43.384  22.660  25.594  1.00  0.00     0.135 A 
ATOM     77  C   UNL A   1      43.162  22.265  27.955  1.00  0.00     0.135 A 
ATOM     78  F   UNL A   1      43.646  23.472  24.560  1.00  0.00    -0.206 F 
ATOM     79  C   UNL A   1      43.033  21.341  25.329  1.00  0.00     0.059 A 
ATOM     80  C   UNL A   1      42.829  20.936  27.715  1.00  0.00     0.059 A 
ATOM     81  F   UNL A   1      43.228  22.685  29.227  1.00  0.00    -0.206 F 
ATOM     82  C   UNL A   1      42.757  20.485  26.397  1.00  0.00     0.060 A 
BRANCH  82  83
ATOM     83  S   UNL A   1      42.353  18.760  26.047  1.00  0.00     0.124 S 
ATOM     84  O   UNL A   1      42.661  18.124  27.322  1.00  0.00    -0.237 OA
ATOM     85  O   UNL A   1      40.938  18.839  25.698  1.00  0.00    -0.237 OA
ATOM     86  O   UNL A   1      43.245  18.426  24.941  1.00  0.00    -0.744 OA
ENDBRANCH  82  83
ENDBRANCH  50  75
BRANCH  62  87
ATOM     87  C   UNL A   1      49.465  26.662  26.477  1.00  0.00     0.058 A 
ATOM     88  C   UNL A   1      50.292  26.037  27.422  1.00  0.00     0.135 A 
ATOM     89  C   UNL A   1      49.957  26.821  25.171  1.00  0.00     0.135 A 
ATOM     90  F   UNL A   1      49.870  25.870  28.684  1.00  0.00    -0.206 F 
ATOM     91  C   UNL A   1      51.565  25.586  27.084  1.00  0.00     0.059 A 
ATOM     92  C   UNL A   1      51.218  26.360  24.807  1.00  0.00     0.059 A 
ATOM     93  F   UNL A   1      49.200  27.408  24.230  1.00  0.00    -0.206 F 
ATOM     94  C   UNL A   1      52.017  25.747  25.772  1.00  0.00     0.060 A 
BRANCH  94  95
ATOM     95  S   UNL A   1      53.642  25.098  25.327  1.00  0.00     0.124 S 
ATOM     96  O   UNL A   1      54.478  25.642  26.392  1.00  0.00    -0.237 OA
ATOM     97  O   UNL A   1      53.426  23.654  25.365  1.00  0.00    -0.237 OA
ATOM     98  O   UNL A   1      53.876  25.654  23.998  1.00  0.00    -0.744 OA
ENDBRANCH  94  95
ENDBRANCH  62  87
ENDBRANCH  36  37
ENDBRANCH  28  31
ENDBRANCH  26  27
ENDBRANCH  25  26
ENDBRANCH   1  25
TORSDOF 18
ENDMDL
MODEL 2
REMARK VINA RESULT:     -11.9      3.326      4.991
REMARK SMILES O=C(C[C@H](NS(=O)(=O)c1cccs1)c1ccccc1Cl)NCCCNC(=O)c1ccc(-c2c3nc(c(-c4c(F)cc(S(=O)(=O)[O-])cc4F)c4ccc([nH]4)c(-c4c(F)cc(S(=O)(=O)[O-])cc4F)c4nc(c(-c5c(F)cc(S(=O)(=O)[O-])cc5F)c5ccc2[nH]5)C=C4)C=C3)cc1
REMARK SMILES IDX 22 1 21 2 1 3 2 4 3 6 4 7 14 8 15 9 19 10 16 11 18 12 20 13
REMARK SMILES IDX 17 14 5 15 6 17 7 18 8 19 9 20 10 21 13 22 11 23 12 24 23 25
REMARK SMILES IDX 24 26 25 27 26 28 27 30 28 31 29 32 93 33 30 34 92 35 31 36
REMARK SMILES IDX 32 37 33 38 86 39 34 40 91 41 85 42 87 43 35 44 90 45 84 46
REMARK SMILES IDX 83 47 36 49 70 50 49 51 69 52 50 53 53 54 68 55 88 56 51 57
REMARK SMILES IDX 52 58 67 60 89 61 54 62 37 63 38 64 47 65 39 66 40 67 46 68
REMARK SMILES IDX 48 69 41 70 42 71 43 72 44 73 45 74 71 75 72 76 81 77 73 78
REMARK SMILES IDX 74 79 80 80 82 81 75 82 76 83 77 84 78 85 79 86 55 87 56 88
REMARK SMILES IDX 65 89 57 90 58 91 64 92 66 93 59 94 60 95 61 96 62 97 63 98
REMARK H PARENT 21 5 5 16 25 29 87 48 53 59
REMARK Flexibility Score: inf
ROOT
ATOM      1  C   UNL A   1      32.501  26.716  25.490  1.00  0.00     0.117 C 
ENDROOT
BRANCH   1   2
ATOM      2  N   UNL A   1      33.057  25.577  26.192  1.00  0.00    -0.356 N 
ATOM      3  O   UNL A   1      32.252  23.960  24.766  1.00  0.00    -0.275 OA
ATOM      4  C   UNL A   1      32.939  24.286  25.727  1.00  0.00     0.221 C 
ATOM      5  H   UNL A   1      33.540  25.732  27.035  1.00  0.00     0.163 HD
BRANCH   4   6
ATOM      6  C   UNL A   1      33.800  23.302  26.478  1.00  0.00     0.125 C 
BRANCH   6   7
ATOM      7  C   UNL A   1      34.552  22.311  25.574  1.00  0.00     0.111 C 
BRANCH   7   8
ATOM      8  C   UNL A   1      36.068  22.433  25.717  1.00  0.00    -0.011 A 
ATOM      9  C   UNL A   1      36.569  23.661  26.207  1.00  0.00     0.007 A 
ATOM     10  C   UNL A   1      37.001  21.425  25.410  1.00  0.00     0.045 A 
ATOM     11  C   UNL A   1      37.939  23.884  26.356  1.00  0.00     0.000 A 
ATOM     12  C   UNL A   1      38.376  21.659  25.557  1.00  0.00     0.021 A 
ATOM     13  Cl  UNL A   1      36.556  19.858  24.829  1.00  0.00    -0.084 Cl
ATOM     14  C   UNL A   1      38.843  22.884  26.024  1.00  0.00     0.002 A 
ENDBRANCH   7   8
BRANCH   7  15
ATOM     15  N   UNL A   1      34.090  20.917  25.660  1.00  0.00    -0.202 NA
ATOM     16  H   UNL A   1      33.783  20.771  26.622  1.00  0.00     0.142 HD
BRANCH  15  17
ATOM     17  S   UNL A   1      32.859  20.361  24.678  1.00  0.00     0.250 S 
ATOM     18  O   UNL A   1      31.654  20.457  25.469  1.00  0.00    -0.206 OA
ATOM     19  O   UNL A   1      32.993  21.020  23.398  1.00  0.00    -0.206 OA
BRANCH  17  20
ATOM     20  C   UNL A   1      33.152  18.639  24.399  1.00  0.00     0.134 A 
ATOM     21  C   UNL A   1      33.760  17.953  23.364  1.00  0.00     0.033 A 
ATOM     22  S   UNL A   1      32.602  17.578  25.621  1.00  0.00    -0.131 S 
ATOM     23  C   UNL A   1      33.765  16.544  23.577  1.00  0.00     0.013 A 
ATOM     24  C   UNL A   1      33.172  16.205  24.773  1.00  0.00     0.066 A 
ENDBRANCH  17  20
ENDBRANCH  15  17
ENDBRANCH   7  15
ENDBRANCH   6   7
ENDBRANCH   4   6
ENDBRANCH   1   2
BRANCH   1  25
ATOM     25  C   UNL A   1      32.351  27.946  26.377  1.00  0.00     0.042 C 
BRANCH  25  26
ATOM     26  C   UNL A   1      33.654  28.519  26.928  1.00  0.00     0.118 C 
BRANCH  26  27
ATOM     27  N   UNL A   1      33.544  29.887  27.416  1.00  0.00    -0.352 N 
ATOM     28  C   UNL A   1      34.477  30.622  28.114  1.00  0.00     0.251 C 
ATOM     29  H   UNL A   1      32.694  30.345  27.221  1.00  0.00     0.163 HD
ATOM     30  O   UNL A   1      34.193  31.721  28.579  1.00  0.00    -0.269 OA
BRANCH  28  31
ATOM     31  C   UNL A   1      35.829  30.058  28.329  1.00  0.00     0.039 A 
ATOM     32  C   UNL A   1      36.761  30.102  27.290  1.00  0.00     0.014 A 
ATOM     33  C   UNL A   1      36.181  29.521  29.572  1.00  0.00     0.014 A 
ATOM     34  C   UNL A   1      38.077  29.691  27.523  1.00  0.00     0.010 A 
ATOM     35  C   UNL A   1      37.505  29.164  29.817  1.00  0.00     0.010 A 
ATOM     36  C   UNL A   1      38.470  29.263  28.801  1.00  0.00    -0.014 A 
BRANCH  36  37
ATOM     37  C   UNL A   1      39.887  28.951  29.122  1.00  0.00     0.031 A 
ATOM     38  C   UNL A   1      40.786  30.017  29.683  1.00  0.00     0.074 A 
ATOM     39  C   UNL A   1      40.392  27.741  28.807  1.00  0.00     0.049 A 
ATOM     40  N   UNL A   1      42.080  29.993  29.870  1.00  0.00    -0.248 NA
ATOM     41  C   UNL A   1      40.146  31.287  30.061  1.00  0.00     0.031 C 
ATOM     42  C   UNL A   1      39.634  26.631  28.226  1.00  0.00     0.029 A 
ATOM     43  N   UNL A   1      41.671  27.250  28.907  1.00  0.00    -0.354 N 
ATOM     44  C   UNL A   1      42.417  31.249  30.358  1.00  0.00     0.074 A 
ATOM     45  C   UNL A   1      41.193  32.020  30.415  1.00  0.00     0.031 C 
ATOM     46  C   UNL A   1      40.458  25.590  28.025  1.00  0.00     0.029 A 
ATOM     47  C   UNL A   1      41.811  25.970  28.421  1.00  0.00     0.049 A 
ATOM     48  H   UNL A   1      42.417  27.765  29.290  1.00  0.00     0.167 HD
ATOM     49  C   UNL A   1      43.632  31.713  30.734  1.00  0.00     0.037 A 
ATOM     50  C   UNL A   1      42.907  25.198  28.289  1.00  0.00     0.037 A 
ATOM     51  C   UNL A   1      44.842  30.934  30.705  1.00  0.00     0.049 A 
ATOM     52  C   UNL A   1      44.243  25.730  28.725  1.00  0.00     0.074 A 
ATOM     53  C   UNL A   1      46.114  31.303  31.109  1.00  0.00     0.029 A 
ATOM     54  N   UNL A   1      44.931  29.625  30.255  1.00  0.00    -0.354 N 
ATOM     55  N   UNL A   1      44.538  26.910  29.215  1.00  0.00    -0.248 NA
ATOM     56  C   UNL A   1      45.398  24.829  28.591  1.00  0.00     0.031 C 
ATOM     57  C   UNL A   1      46.976  30.226  30.878  1.00  0.00     0.029 A 
ATOM     58  C   UNL A   1      46.235  29.175  30.363  1.00  0.00     0.049 A 
ATOM     59  H   UNL A   1      44.177  29.095  29.907  1.00  0.00     0.167 HD
ATOM     60  C   UNL A   1      45.903  26.882  29.478  1.00  0.00     0.074 A 
ATOM     61  C   UNL A   1      46.378  25.570  29.091  1.00  0.00     0.031 C 
ATOM     62  C   UNL A   1      46.689  27.856  29.996  1.00  0.00     0.037 A 
BRANCH  49  63
ATOM     63  C   UNL A   1      43.714  33.135  31.209  1.00  0.00     0.058 A 
ATOM     64  C   UNL A   1      43.468  33.479  32.547  1.00  0.00     0.135 A 
ATOM     65  C   UNL A   1      44.072  34.165  30.322  1.00  0.00     0.135 A 
ATOM     66  F   UNL A   1      43.110  32.535  33.432  1.00  0.00    -0.206 F 
ATOM     67  C   UNL A   1      43.543  34.797  32.985  1.00  0.00     0.059 A 
ATOM     68  C   UNL A   1      44.176  35.487  30.744  1.00  0.00     0.059 A 
ATOM     69  F   UNL A   1      44.318  33.890  29.032  1.00  0.00    -0.206 F 
ATOM     70  C   UNL A   1      43.894  35.796  32.074  1.00  0.00     0.060 A 
BRANCH  70  71
ATOM     71  S   UNL A   1      43.984  37.503  32.652  1.00  0.00     0.124 S 
ATOM     72  O   UNL A   1      43.695  38.240  31.426  1.00  0.00    -0.237 OA
ATOM     73  O   UNL A   1      42.945  37.546  33.676  1.00  0.00    -0.237 OA
ATOM     74  O   UNL A   1      45.352  37.621  33.148  1.00  0.00    -0.744 OA
ENDBRANCH  70  71
ENDBRANCH  49  63
BRANCH  50  75
ATOM     75  C   UNL A   1      42.781  23.827  27.729  1.00  0.00     0.058 A 
ATOM     76  C   UNL A   1      42.577  22.724  28.571  1.00  0.00     0.135 A 
ATOM     77  C   UNL A   1      42.843  23.594  26.347  1.00  0.00     0.135 A 
ATOM     78  F   UNL A   1      42.517  22.899  29.900  1.00  0.00    -0.206 F 
ATOM     79  C   UNL A   1      42.450  21.435  28.066  1.00  0.00     0.059 A 
ATOM     80  C   UNL A   1      42.699  22.316  25.816  1.00  0.00     0.059 A 
ATOM     81  F   UNL A   1      43.022  24.619  25.500  1.00  0.00    -0.206 F 
ATOM     82  C   UNL A   1      42.512  21.241  26.685  1.00  0.00     0.060 A 
BRANCH  82  83
ATOM     83  S   UNL A   1      42.294  19.571  26.031  1.00  0.00     0.124 S 
ATOM     84  O   UNL A   1      42.750  18.757  27.152  1.00  0.00    -0.237 OA
ATOM     85  O   UNL A   1      40.861  19.532  25.755  1.00  0.00    -0.237 OA
ATOM     86  O   UNL A   1      43.153  19.560  24.851  1.00  0.00    -0.744 OA
ENDBRANCH  82  83
ENDBRANCH  50  75
BRANCH  62  87
ATOM     87  C   UNL A   1      48.137  27.534  30.228  1.00  0.00     0.058 A 
ATOM     88  C   UNL A   1      48.571  26.890  31.396  1.00  0.00     0.135 A 
ATOM     89  C   UNL A   1      49.088  27.801  29.229  1.00  0.00     0.135 A 
ATOM     90  F   UNL A   1      47.701  26.622  32.382  1.00  0.00    -0.206 F 
ATOM     91  C   UNL A   1      49.902  26.524  31.569  1.00  0.00     0.059 A 
ATOM     92  C   UNL A   1      50.420  27.426  29.373  1.00  0.00     0.059 A 
ATOM     93  F   UNL A   1      48.720  28.410  28.091  1.00  0.00    -0.206 F 
ATOM     94  C   UNL A   1      50.818  26.791  30.550  1.00  0.00     0.060 A 
BRANCH  94  95
ATOM     95  S   UNL A   1      52.529  26.251  30.755  1.00  0.00     0.124 S 
ATOM     96  O   UNL A   1      52.939  26.041  29.370  1.00  0.00    -0.237 OA
ATOM     97  O   UNL A   1      53.141  27.391  31.431  1.00  0.00    -0.237 OA
ATOM     98  O   UNL A   1      52.408  25.043  31.564  1.00  0.00    -0.744 OA
ENDBRANCH  94  95
ENDBRANCH  62  87
ENDBRANCH  36  37
ENDBRANCH  28  31
ENDBRANCH  26  27
ENDBRANCH  25  26
ENDBRANCH   1  25
TORSDOF 18
ENDMDL
MODEL 3
REMARK VINA RESULT:     -11.9      6.542     12.089
REMARK SMILES O=C(C[C@H](NS(=O)(=O)c1cccs1)c1ccccc1Cl)NCCCNC(=O)c1ccc(-c2c3nc(c(-c4c(F)cc(S(=O)(=O)[O-])cc4F)c4ccc([nH]4)c(-c4c(F)cc(S(=O)(=O)[O-])cc4F)c4nc(c(-c5c(F)cc(S(=O)(=O)[O-])cc5F)c5ccc2[nH]5)C=C4)C=C3)cc1
REMARK SMILES IDX 22 1 21 2 1 3 2 4 3 6 4 7 14 8 15 9 19 10 16 11 18 12 20 13
REMARK SMILES IDX 17 14 5 15 6 17 7 18 8 19 9 20 10 21 13 22 11 23 12 24 23 25
REMARK SMILES IDX 24 26 25 27 26 28 27 30 28 31 29 32 93 33 30 34 92 35 31 36
REMARK SMILES IDX 32 37 33 38 86 39 34 40 91 41 85 42 87 43 35 44 90 45 84 46
REMARK SMILES IDX 83 47 36 49 70 50 49 51 69 52 50 53 53 54 68 55 88 56 51 57
REMARK SMILES IDX 52 58 67 60 89 61 54 62 37 63 38 64 47 65 39 66 40 67 46 68
REMARK SMILES IDX 48 69 41 70 42 71 43 72 44 73 45 74 71 75 72 76 81 77 73 78
REMARK SMILES IDX 74 79 80 80 82 81 75 82 76 83 77 84 78 85 79 86 55 87 56 88
REMARK SMILES IDX 65 89 57 90 58 91 64 92 66 93 59 94 60 95 61 96 62 97 63 98
REMARK H PARENT 21 5 5 16 25 29 87 48 53 59
REMARK Flexibility Score: inf
ROOT
ATOM      1  C   UNL A   1      37.217  23.490  25.943  1.00  0.00     0.117 C 
ENDROOT
BRANCH   1   2
ATOM      2  N   UNL A   1      36.003  22.807  26.341  1.00  0.00    -0.356 N 
ATOM      3  O   UNL A   1      35.336  22.186  24.227  1.00  0.00    -0.275 OA
ATOM      4  C   UNL A   1      35.191  22.149  25.443  1.00  0.00     0.221 C 
ATOM      5  H   UNL A   1      35.748  22.812  27.291  1.00  0.00     0.163 HD
BRANCH   4   6
ATOM      6  C   UNL A   1      34.130  21.307  26.107  1.00  0.00     0.125 C 
BRANCH   6   7
ATOM      7  C   UNL A   1      32.849  21.142  25.272  1.00  0.00     0.111 C 
BRANCH   7   8
ATOM      8  C   UNL A   1      32.837  19.836  24.482  1.00  0.00    -0.011 A 
ATOM      9  C   UNL A   1      33.275  18.674  25.158  1.00  0.00     0.007 A 
ATOM     10  C   UNL A   1      32.422  19.693  23.144  1.00  0.00     0.045 A 
ATOM     11  C   UNL A   1      33.324  17.432  24.521  1.00  0.00     0.000 A 
ATOM     12  C   UNL A   1      32.479  18.444  22.510  1.00  0.00     0.021 A 
ATOM     13  Cl  UNL A   1      31.832  21.004  22.184  1.00  0.00    -0.084 Cl
ATOM     14  C   UNL A   1      32.932  17.319  23.194  1.00  0.00     0.002 A 
ENDBRANCH   7   8
BRANCH   7  15
ATOM     15  N   UNL A   1      31.594  21.366  26.008  1.00  0.00    -0.202 NA
ATOM     16  H   UNL A   1      31.677  20.853  26.886  1.00  0.00     0.142 HD
BRANCH  15  17
ATOM     17  S   UNL A   1      31.096  22.910  26.402  1.00  0.00     0.250 S 
ATOM     18  O   UNL A   1      29.667  22.823  26.594  1.00  0.00    -0.206 OA
ATOM     19  O   UNL A   1      31.982  23.401  27.435  1.00  0.00    -0.206 OA
BRANCH  17  20
ATOM     20  C   UNL A   1      31.362  23.923  24.977  1.00  0.00     0.134 A 
ATOM     21  C   UNL A   1      30.702  24.021  23.766  1.00  0.00     0.033 A 
ATOM     22  S   UNL A   1      32.674  25.014  25.070  1.00  0.00    -0.131 S 
ATOM     23  C   UNL A   1      31.287  24.997  22.908  1.00  0.00     0.013 A 
ATOM     24  C   UNL A   1      32.365  25.619  23.499  1.00  0.00     0.066 A 
ENDBRANCH  17  20
ENDBRANCH  15  17
ENDBRANCH   7  15
ENDBRANCH   6   7
ENDBRANCH   4   6
ENDBRANCH   1   2
BRANCH   1  25
ATOM     25  C   UNL A   1      38.460  22.618  26.073  1.00  0.00     0.042 C 
BRANCH  25  26
ATOM     26  C   UNL A   1      39.583  23.201  26.928  1.00  0.00     0.118 C 
BRANCH  26  27
ATOM     27  N   UNL A   1      40.830  23.414  26.207  1.00  0.00    -0.352 N 
ATOM     28  C   UNL A   1      41.652  24.519  26.233  1.00  0.00     0.251 C 
ATOM     29  H   UNL A   1      41.123  22.673  25.628  1.00  0.00     0.163 HD
ATOM     30  O   UNL A   1      42.605  24.613  25.466  1.00  0.00    -0.269 OA
BRANCH  28  31
ATOM     31  C   UNL A   1      41.357  25.619  27.179  1.00  0.00     0.039 A 
ATOM     32  C   UNL A   1      40.419  25.415  28.193  1.00  0.00     0.014 A 
ATOM     33  C   UNL A   1      42.038  26.837  27.082  1.00  0.00     0.014 A 
ATOM     34  C   UNL A   1      40.228  26.400  29.168  1.00  0.00     0.010 A 
ATOM     35  C   UNL A   1      41.887  27.792  28.083  1.00  0.00     0.010 A 
ATOM     36  C   UNL A   1      40.994  27.576  29.146  1.00  0.00    -0.014 A 
BRANCH  36  37
ATOM     37  C   UNL A   1      40.919  28.580  30.239  1.00  0.00     0.031 A 
ATOM     38  C   UNL A   1      41.803  28.448  31.447  1.00  0.00     0.074 A 
ATOM     39  C   UNL A   1      39.981  29.548  30.193  1.00  0.00     0.049 A 
ATOM     40  N   UNL A   1      41.772  29.116  32.571  1.00  0.00    -0.248 NA
ATOM     41  C   UNL A   1      42.844  27.409  31.392  1.00  0.00     0.031 C 
ATOM     42  C   UNL A   1      39.039  29.764  29.092  1.00  0.00     0.029 A 
ATOM     43  N   UNL A   1      39.647  30.516  31.107  1.00  0.00    -0.354 N 
ATOM     44  C   UNL A   1      42.765  28.563  33.369  1.00  0.00     0.074 A 
ATOM     45  C   UNL A   1      43.365  27.486  32.609  1.00  0.00     0.031 C 
ATOM     46  C   UNL A   1      38.238  30.798  29.394  1.00  0.00     0.029 A 
ATOM     47  C   UNL A   1      38.578  31.293  30.724  1.00  0.00     0.049 A 
ATOM     48  H   UNL A   1      40.127  30.643  31.957  1.00  0.00     0.167 HD
ATOM     49  C   UNL A   1      43.149  28.926  34.616  1.00  0.00     0.037 A 
ATOM     50  C   UNL A   1      37.931  32.278  31.377  1.00  0.00     0.037 A 
ATOM     51  C   UNL A   1      42.571  30.017  35.357  1.00  0.00     0.049 A 
ATOM     52  C   UNL A   1      38.383  32.672  32.756  1.00  0.00     0.074 A 
ATOM     53  C   UNL A   1      42.925  30.489  36.609  1.00  0.00     0.029 A 
ATOM     54  N   UNL A   1      41.526  30.811  34.911  1.00  0.00    -0.354 N 
ATOM     55  N   UNL A   1      39.347  32.159  33.483  1.00  0.00    -0.248 NA
ATOM     56  C   UNL A   1      37.664  33.778  33.405  1.00  0.00     0.031 C 
ATOM     57  C   UNL A   1      42.075  31.552  36.932  1.00  0.00     0.029 A 
ATOM     58  C   UNL A   1      41.216  31.765  35.866  1.00  0.00     0.049 A 
ATOM     59  H   UNL A   1      41.070  30.711  34.044  1.00  0.00     0.167 HD
ATOM     60  C   UNL A   1      39.369  32.898  34.659  1.00  0.00     0.074 A 
ATOM     61  C   UNL A   1      38.322  33.894  34.550  1.00  0.00     0.031 C 
ATOM     62  C   UNL A   1      40.187  32.765  35.732  1.00  0.00     0.037 A 
BRANCH  49  63
ATOM     63  C   UNL A   1      44.248  28.132  35.262  1.00  0.00     0.058 A 
ATOM     64  C   UNL A   1      43.975  26.994  36.037  1.00  0.00     0.135 A 
ATOM     65  C   UNL A   1      45.593  28.493  35.078  1.00  0.00     0.135 A 
ATOM     66  F   UNL A   1      42.706  26.614  36.255  1.00  0.00    -0.206 F 
ATOM     67  C   UNL A   1      44.994  26.260  36.635  1.00  0.00     0.059 A 
ATOM     68  C   UNL A   1      46.629  27.759  35.647  1.00  0.00     0.059 A 
ATOM     69  F   UNL A   1      45.909  29.571  34.344  1.00  0.00    -0.206 F 
ATOM     70  C   UNL A   1      46.319  26.654  36.438  1.00  0.00     0.060 A 
BRANCH  70  71
ATOM     71  S   UNL A   1      47.632  25.696  37.221  1.00  0.00     0.124 S 
ATOM     72  O   UNL A   1      48.700  25.804  36.232  1.00  0.00    -0.237 OA
ATOM     73  O   UNL A   1      47.851  26.420  38.470  1.00  0.00    -0.237 OA
ATOM     74  O   UNL A   1      47.043  24.369  37.368  1.00  0.00    -0.744 OA
ENDBRANCH  70  71
ENDBRANCH  49  63
BRANCH  50  75
ATOM     75  C   UNL A   1      36.790  32.972  30.724  1.00  0.00     0.058 A 
ATOM     76  C   UNL A   1      35.469  32.687  31.097  1.00  0.00     0.135 A 
ATOM     77  C   UNL A   1      36.998  33.944  29.733  1.00  0.00     0.135 A 
ATOM     78  F   UNL A   1      35.223  31.761  32.036  1.00  0.00    -0.206 F 
ATOM     79  C   UNL A   1      34.390  33.331  30.503  1.00  0.00     0.059 A 
ATOM     80  C   UNL A   1      35.935  34.616  29.139  1.00  0.00     0.059 A 
ATOM     81  F   UNL A   1      38.245  34.262  29.354  1.00  0.00    -0.206 F 
ATOM     82  C   UNL A   1      34.633  34.296  29.524  1.00  0.00     0.060 A 
BRANCH  82  83
ATOM     83  S   UNL A   1      33.229  35.166  28.793  1.00  0.00     0.124 S 
ATOM     84  O   UNL A   1      33.897  36.246  28.076  1.00  0.00    -0.237 OA
ATOM     85  O   UNL A   1      32.620  34.130  27.965  1.00  0.00    -0.237 OA
ATOM     86  O   UNL A   1      32.445  35.570  29.957  1.00  0.00    -0.744 OA
ENDBRANCH  82  83
ENDBRANCH  50  75
BRANCH  62  87
ATOM     87  C   UNL A   1      40.026  33.746  36.858  1.00  0.00     0.058 A 
ATOM     88  C   UNL A   1      40.766  34.936  36.909  1.00  0.00     0.135 A 
ATOM     89  C   UNL A   1      39.057  33.528  37.851  1.00  0.00     0.135 A 
ATOM     90  F   UNL A   1      41.708  35.186  35.987  1.00  0.00    -0.206 F 
ATOM     91  C   UNL A   1      40.555  35.877  37.912  1.00  0.00     0.059 A 
ATOM     92  C   UNL A   1      38.817  34.464  38.852  1.00  0.00     0.059 A 
ATOM     93  F   UNL A   1      38.319  32.406  37.841  1.00  0.00    -0.206 F 
ATOM     94  C   UNL A   1      39.574  35.634  38.876  1.00  0.00     0.060 A 
BRANCH  94  95
ATOM     95  S   UNL A   1      39.261  36.892  40.134  1.00  0.00     0.124 S 
ATOM     96  O   UNL A   1      38.618  37.939  39.348  1.00  0.00    -0.237 OA
ATOM     97  O   UNL A   1      38.398  36.187  41.077  1.00  0.00    -0.237 OA
ATOM     98  O   UNL A   1      40.595  37.210  40.634  1.00  0.00    -0.744 OA
ENDBRANCH  94  95
ENDBRANCH  62  87
ENDBRANCH  36  37
ENDBRANCH  28  31
ENDBRANCH  26  27
ENDBRANCH  25  26
ENDBRANCH   1  25
TORSDOF 18
ENDMDL
