MODEL 1
REMARK VINA RESULT:     -12.4      0.000      0.000
REMARK SMILES CS(=O)(=O)N1C[C@@H]2CN(C(=O)c3ccco3)C[C@]2(C(=O)NCCCNC(=O)c2ccc(-c3c4nc(c(-c5c(F)cc(S(=O)(=O)[O-])cc5F)c5ccc([nH]5)c(-c5c(F)cc(S(=O)(=O)[O-])cc5F)c5nc(c(-c6c(F)cc(S(=O)(=O)[O-])cc6F)c6ccc3[nH]6)C=C5)C=C4)cc2)C1
REMARK SMILES IDX 23 1 22 2 21 3 19 4 20 5 18 7 5 8 6 9 94 10 7 11 8 12 17 13
REMARK SMILES IDX 9 14 2 15 1 16 3 17 4 18 10 19 11 20 12 21 13 22 16 23 14 24
REMARK SMILES IDX 15 25 24 26 25 27 26 28 27 30 28 31 29 32 93 33 30 34 92 35
REMARK SMILES IDX 31 36 32 37 33 38 86 39 34 40 91 41 85 42 87 43 35 44 90 45
REMARK SMILES IDX 84 46 83 47 36 49 70 50 49 51 69 52 50 53 53 54 68 55 88 56
REMARK SMILES IDX 51 57 52 58 67 60 89 61 54 62 37 63 38 64 47 65 39 66 40 67
REMARK SMILES IDX 46 68 48 69 41 70 42 71 43 72 44 73 45 74 71 75 72 76 81 77
REMARK SMILES IDX 73 78 74 79 80 80 82 81 75 82 76 83 77 84 78 85 79 86 55 87
REMARK SMILES IDX 56 88 65 89 57 90 58 91 64 92 66 93 59 94 60 95 61 96 62 97
REMARK SMILES IDX 63 98
REMARK H PARENT 21 6 25 29 87 48 53 59
REMARK Flexibility Score: inf
ROOT
ATOM      1  C   UNL A   1      33.744  28.570  27.187  1.00  0.00     0.042 C 
ENDROOT
BRANCH   1   2
ATOM      2  C   UNL A   1      32.635  29.284  26.420  1.00  0.00     0.117 C 
BRANCH   2   3
ATOM      3  N   UNL A   1      33.071  29.574  25.063  1.00  0.00    -0.355 N 
ATOM      4  C   UNL A   1      32.858  28.817  23.939  1.00  0.00     0.229 C 
ATOM      5  O   UNL A   1      33.600  28.997  22.971  1.00  0.00    -0.274 OA
ATOM      6  H   UNL A   1      33.576  30.409  24.937  1.00  0.00     0.163 HD
BRANCH   4   7
ATOM      7  C   UNL A   1      31.651  27.837  23.959  1.00  0.00     0.086 C 
ATOM      8  N   UNL A   1      29.467  28.803  23.232  1.00  0.00    -0.201 NA
ATOM      9  C   UNL A   1      29.208  27.410  23.484  1.00  0.00     0.108 C 
ATOM     10  C   UNL A   1      30.919  29.018  23.121  1.00  0.00     0.121 C 
ATOM     11  C   UNL A   1      30.599  26.843  23.307  1.00  0.00     0.042 C 
ATOM     12  C   UNL A   1      30.741  25.505  23.994  1.00  0.00     0.126 C 
ATOM     13  C   UNL A   1      32.756  26.677  23.696  1.00  0.00     0.138 C 
ATOM     14  N   UNL A   1      32.147  25.462  24.243  1.00  0.00    -0.334 N 
BRANCH   8  15
ATOM     15  S   UNL A   1      28.336  29.859  22.634  1.00  0.00     0.211 S 
ATOM     16  C   UNL A   1      28.703  31.377  23.494  1.00  0.00     0.176 C 
ATOM     17  O   UNL A   1      27.038  29.412  23.097  1.00  0.00    -0.213 OA
ATOM     18  O   UNL A   1      28.598  30.059  21.227  1.00  0.00    -0.213 OA
ENDBRANCH   8  15
BRANCH  14  19
ATOM     19  C   UNL A   1      32.633  24.521  25.149  1.00  0.00     0.289 C 
ATOM     20  O   UNL A   1      33.262  24.907  26.137  1.00  0.00    -0.265 OA
BRANCH  19  21
ATOM     21  C   UNL A   1      32.515  23.113  24.844  1.00  0.00     0.191 A 
ATOM     22  C   UNL A   1      32.064  22.079  25.648  1.00  0.00     0.056 A 
ATOM     23  O   UNL A   1      32.845  22.620  23.611  1.00  0.00    -0.459 OA
ATOM     24  C   UNL A   1      32.158  20.896  24.882  1.00  0.00     0.043 A 
ATOM     25  C   UNL A   1      32.591  21.284  23.636  1.00  0.00     0.196 A 
ENDBRANCH  19  21
ENDBRANCH  14  19
ENDBRANCH   4   7
ENDBRANCH   2   3
ENDBRANCH   1   2
BRANCH   1  26
ATOM     26  C   UNL A   1      35.049  29.353  27.294  1.00  0.00     0.118 C 
BRANCH  26  27
ATOM     27  N   UNL A   1      35.083  30.159  28.500  1.00  0.00    -0.352 N 
ATOM     28  C   UNL A   1      36.088  30.340  29.419  1.00  0.00     0.251 C 
ATOM     29  H   UNL A   1      34.253  30.654  28.691  1.00  0.00     0.163 HD
ATOM     30  O   UNL A   1      35.793  30.813  30.516  1.00  0.00    -0.269 OA
BRANCH  28  31
ATOM     31  C   UNL A   1      37.502  29.976  29.136  1.00  0.00     0.039 A 
ATOM     32  C   UNL A   1      38.350  29.733  30.223  1.00  0.00     0.014 A 
ATOM     33  C   UNL A   1      38.035  29.956  27.844  1.00  0.00     0.014 A 
ATOM     34  C   UNL A   1      39.702  29.431  30.017  1.00  0.00     0.010 A 
ATOM     35  C   UNL A   1      39.368  29.582  27.634  1.00  0.00     0.010 A 
ATOM     36  C   UNL A   1      40.219  29.317  28.717  1.00  0.00    -0.014 A 
BRANCH  36  37
ATOM     37  C   UNL A   1      41.633  28.902  28.484  1.00  0.00     0.031 A 
ATOM     38  C   UNL A   1      42.748  29.915  28.490  1.00  0.00     0.074 A 
ATOM     39  C   UNL A   1      41.913  27.610  28.216  1.00  0.00     0.049 A 
ATOM     40  N   UNL A   1      44.022  29.743  28.233  1.00  0.00    -0.248 NA
ATOM     41  C   UNL A   1      42.387  31.303  28.818  1.00  0.00     0.031 C 
ATOM     42  C   UNL A   1      40.932  26.524  28.178  1.00  0.00     0.029 A 
ATOM     43  N   UNL A   1      43.099  26.988  27.908  1.00  0.00    -0.354 N 
ATOM     44  C   UNL A   1      44.612  30.996  28.364  1.00  0.00     0.074 A 
ATOM     45  C   UNL A   1      43.549  31.928  28.679  1.00  0.00     0.031 C 
ATOM     46  C   UNL A   1      41.549  25.378  27.857  1.00  0.00     0.029 A 
ATOM     47  C   UNL A   1      42.966  25.646  27.636  1.00  0.00     0.049 A 
ATOM     48  H   UNL A   1      43.963  27.460  27.884  1.00  0.00     0.167 HD
ATOM     49  C   UNL A   1      45.920  31.334  28.251  1.00  0.00     0.037 A 
ATOM     50  C   UNL A   1      43.872  24.731  27.239  1.00  0.00     0.037 A 
ATOM     51  C   UNL A   1      46.977  30.401  27.950  1.00  0.00     0.049 A 
ATOM     52  C   UNL A   1      45.307  25.143  27.063  1.00  0.00     0.074 A 
ATOM     53  C   UNL A   1      48.340  30.644  27.871  1.00  0.00     0.029 A 
ATOM     54  N   UNL A   1      46.798  29.056  27.663  1.00  0.00    -0.354 N 
ATOM     55  N   UNL A   1      45.855  26.318  27.257  1.00  0.00    -0.248 NA
ATOM     56  C   UNL A   1      46.248  24.106  26.616  1.00  0.00     0.031 C 
ATOM     57  C   UNL A   1      48.974  29.461  27.476  1.00  0.00     0.029 A 
ATOM     58  C   UNL A   1      48.017  28.466  27.365  1.00  0.00     0.049 A 
ATOM     59  H   UNL A   1      45.931  28.589  27.671  1.00  0.00     0.167 HD
ATOM     60  C   UNL A   1      47.207  26.158  26.973  1.00  0.00     0.074 A 
ATOM     61  C   UNL A   1      47.398  24.768  26.616  1.00  0.00     0.031 C 
ATOM     62  C   UNL A   1      48.199  27.082  27.003  1.00  0.00     0.037 A 
BRANCH  49  63
ATOM     63  C   UNL A   1      46.293  32.781  28.445  1.00  0.00     0.058 A 
ATOM     64  C   UNL A   1      46.730  33.273  29.686  1.00  0.00     0.135 A 
ATOM     65  C   UNL A   1      46.266  33.676  27.363  1.00  0.00     0.135 A 
ATOM     66  F   UNL A   1      46.766  32.466  30.759  1.00  0.00    -0.206 F 
ATOM     67  C   UNL A   1      47.099  34.605  29.853  1.00  0.00     0.059 A 
ATOM     68  C   UNL A   1      46.660  35.004  27.499  1.00  0.00     0.059 A 
ATOM     69  F   UNL A   1      45.862  33.260  26.152  1.00  0.00    -0.206 F 
ATOM     70  C   UNL A   1      47.061  35.463  28.752  1.00  0.00     0.060 A 
BRANCH  70  71
ATOM     71  S   UNL A   1      47.545  37.185  28.988  1.00  0.00     0.124 S 
ATOM     72  O   UNL A   1      48.933  37.163  28.534  1.00  0.00    -0.237 OA
ATOM     73  O   UNL A   1      46.609  37.895  28.122  1.00  0.00    -0.237 OA
ATOM     74  O   UNL A   1      47.359  37.400  30.419  1.00  0.00    -0.744 OA
ENDBRANCH  70  71
ENDBRANCH  49  63
BRANCH  50  75
ATOM     75  C   UNL A   1      43.444  23.330  26.976  1.00  0.00     0.058 A 
ATOM     76  C   UNL A   1      43.114  22.465  28.029  1.00  0.00     0.135 A 
ATOM     77  C   UNL A   1      43.347  22.831  25.666  1.00  0.00     0.135 A 
ATOM     78  F   UNL A   1      43.198  22.890  29.298  1.00  0.00    -0.206 F 
ATOM     79  C   UNL A   1      42.719  21.151  27.796  1.00  0.00     0.059 A 
ATOM     80  C   UNL A   1      42.926  21.532  25.407  1.00  0.00     0.059 A 
ATOM     81  F   UNL A   1      43.638  23.624  24.622  1.00  0.00    -0.206 F 
ATOM     82  C   UNL A   1      42.625  20.695  26.480  1.00  0.00     0.060 A 
BRANCH  82  83
ATOM     83  S   UNL A   1      42.072  19.000  26.190  1.00  0.00     0.124 S 
ATOM     84  O   UNL A   1      42.979  18.573  25.131  1.00  0.00    -0.237 OA
ATOM     85  O   UNL A   1      42.282  18.386  27.498  1.00  0.00    -0.237 OA
ATOM     86  O   UNL A   1      40.676  19.164  25.799  1.00  0.00    -0.744 OA
ENDBRANCH  82  83
ENDBRANCH  50  75
BRANCH  62  87
ATOM     87  C   UNL A   1      49.588  26.625  26.643  1.00  0.00     0.058 A 
ATOM     88  C   UNL A   1      50.433  26.031  27.594  1.00  0.00     0.135 A 
ATOM     89  C   UNL A   1      50.057  26.725  25.324  1.00  0.00     0.135 A 
ATOM     90  F   UNL A   1      50.039  25.919  28.873  1.00  0.00    -0.206 F 
ATOM     91  C   UNL A   1      51.698  25.565  27.251  1.00  0.00     0.059 A 
ATOM     92  C   UNL A   1      51.307  26.239  24.953  1.00  0.00     0.059 A 
ATOM     93  F   UNL A   1      49.287  27.280  24.373  1.00  0.00    -0.206 F 
ATOM     94  C   UNL A   1      52.124  25.666  25.925  1.00  0.00     0.060 A 
BRANCH  94  95
ATOM     95  S   UNL A   1      53.747  25.009  25.488  1.00  0.00     0.124 S 
ATOM     96  O   UNL A   1      54.502  25.247  26.714  1.00  0.00    -0.237 OA
ATOM     97  O   UNL A   1      53.447  23.612  25.190  1.00  0.00    -0.237 OA
ATOM     98  O   UNL A   1      54.144  25.818  24.339  1.00  0.00    -0.744 OA
ENDBRANCH  94  95
ENDBRANCH  62  87
ENDBRANCH  36  37
ENDBRANCH  28  31
ENDBRANCH  26  27
ENDBRANCH   1  26
TORSDOF 16
ENDMDL
MODEL 2
REMARK VINA RESULT:     -12.2      6.636     12.117
REMARK SMILES CS(=O)(=O)N1C[C@@H]2CN(C(=O)c3ccco3)C[C@]2(C(=O)NCCCNC(=O)c2ccc(-c3c4nc(c(-c5c(F)cc(S(=O)(=O)[O-])cc5F)c5ccc([nH]5)c(-c5c(F)cc(S(=O)(=O)[O-])cc5F)c5nc(c(-c6c(F)cc(S(=O)(=O)[O-])cc6F)c6ccc3[nH]6)C=C5)C=C4)cc2)C1
REMARK SMILES IDX 23 1 22 2 21 3 19 4 20 5 18 7 5 8 6 9 94 10 7 11 8 12 17 13
REMARK SMILES IDX 9 14 2 15 1 16 3 17 4 18 10 19 11 20 12 21 13 22 16 23 14 24
REMARK SMILES IDX 15 25 24 26 25 27 26 28 27 30 28 31 29 32 93 33 30 34 92 35
REMARK SMILES IDX 31 36 32 37 33 38 86 39 34 40 91 41 85 42 87 43 35 44 90 45
REMARK SMILES IDX 84 46 83 47 36 49 70 50 49 51 69 52 50 53 53 54 68 55 88 56
REMARK SMILES IDX 51 57 52 58 67 60 89 61 54 62 37 63 38 64 47 65 39 66 40 67
REMARK SMILES IDX 46 68 48 69 41 70 42 71 43 72 44 73 45 74 71 75 72 76 81 77
REMARK SMILES IDX 73 78 74 79 80 80 82 81 75 82 76 83 77 84 78 85 79 86 55 87
REMARK SMILES IDX 56 88 65 89 57 90 58 91 64 92 66 93 59 94 60 95 61 96 62 97
REMARK SMILES IDX 63 98
REMARK H PARENT 21 6 25 29 87 48 53 59
REMARK Flexibility Score: inf
ROOT
ATOM      1  C   UNL A   1      37.603  22.984  25.766  1.00  0.00     0.042 C 
ENDROOT
BRANCH   1   2
ATOM      2  C   UNL A   1      36.105  23.265  25.848  1.00  0.00     0.117 C 
BRANCH   2   3
ATOM      3  N   UNL A   1      35.469  22.325  26.757  1.00  0.00    -0.355 N 
ATOM      4  C   UNL A   1      34.157  21.923  26.757  1.00  0.00     0.229 C 
ATOM      5  O   UNL A   1      33.701  21.439  27.795  1.00  0.00    -0.274 OA
ATOM      6  H   UNL A   1      36.045  21.934  27.452  1.00  0.00     0.163 HD
BRANCH   4   7
ATOM      7  C   UNL A   1      33.373  22.051  25.420  1.00  0.00     0.086 C 
ATOM      8  N   UNL A   1      32.855  19.901  24.264  1.00  0.00    -0.201 NA
ATOM      9  C   UNL A   1      32.232  20.926  23.469  1.00  0.00     0.108 C 
ATOM     10  C   UNL A   1      33.196  20.447  25.588  1.00  0.00     0.121 C 
ATOM     11  C   UNL A   1      32.073  22.012  24.510  1.00  0.00     0.042 C 
ATOM     12  C   UNL A   1      31.917  23.371  23.870  1.00  0.00     0.126 C 
ATOM     13  C   UNL A   1      32.756  23.408  26.064  1.00  0.00     0.138 C 
ATOM     14  N   UNL A   1      32.394  24.230  24.907  1.00  0.00    -0.334 N 
BRANCH   8  15
ATOM     15  S   UNL A   1      32.716  18.277  23.951  1.00  0.00     0.211 S 
ATOM     16  C   UNL A   1      34.396  17.693  24.083  1.00  0.00     0.176 C 
ATOM     17  O   UNL A   1      32.325  18.135  22.563  1.00  0.00    -0.213 OA
ATOM     18  O   UNL A   1      31.941  17.674  25.011  1.00  0.00    -0.213 OA
ENDBRANCH   8  15
BRANCH  14  19
ATOM     19  C   UNL A   1      32.707  25.549  24.586  1.00  0.00     0.289 C 
ATOM     20  O   UNL A   1      33.198  25.799  23.482  1.00  0.00    -0.265 OA
BRANCH  19  21
ATOM     21  C   UNL A   1      32.582  26.577  25.595  1.00  0.00     0.191 A 
ATOM     22  C   UNL A   1      31.571  26.777  26.519  1.00  0.00     0.056 A 
ATOM     23  O   UNL A   1      33.553  27.525  25.770  1.00  0.00    -0.459 OA
ATOM     24  C   UNL A   1      31.923  27.922  27.267  1.00  0.00     0.043 A 
ATOM     25  C   UNL A   1      33.158  28.312  26.807  1.00  0.00     0.196 A 
ENDBRANCH  19  21
ENDBRANCH  14  19
ENDBRANCH   4   7
ENDBRANCH   2   3
ENDBRANCH   1   2
BRANCH   1  26
ATOM     26  C   UNL A   1      38.489  24.074  26.362  1.00  0.00     0.118 C 
BRANCH  26  27
ATOM     27  N   UNL A   1      39.894  23.789  26.144  1.00  0.00    -0.352 N 
ATOM     28  C   UNL A   1      41.012  24.498  26.512  1.00  0.00     0.251 C 
ATOM     29  H   UNL A   1      40.076  22.955  25.654  1.00  0.00     0.163 HD
ATOM     30  O   UNL A   1      42.076  24.232  25.956  1.00  0.00    -0.269 OA
BRANCH  28  31
ATOM     31  C   UNL A   1      40.971  25.572  27.540  1.00  0.00     0.039 A 
ATOM     32  C   UNL A   1      39.936  25.541  28.484  1.00  0.00     0.014 A 
ATOM     33  C   UNL A   1      41.861  26.649  27.547  1.00  0.00     0.014 A 
ATOM     34  C   UNL A   1      39.823  26.552  29.447  1.00  0.00     0.010 A 
ATOM     35  C   UNL A   1      41.791  27.619  28.554  1.00  0.00     0.010 A 
ATOM     36  C   UNL A   1      40.770  27.585  29.515  1.00  0.00    -0.014 A 
BRANCH  36  37
ATOM     37  C   UNL A   1      40.713  28.612  30.595  1.00  0.00     0.031 A 
ATOM     38  C   UNL A   1      41.612  28.518  31.801  1.00  0.00     0.074 A 
ATOM     39  C   UNL A   1      39.813  29.614  30.516  1.00  0.00     0.049 A 
ATOM     40  N   UNL A   1      41.646  29.279  32.867  1.00  0.00    -0.248 NA
ATOM     41  C   UNL A   1      42.594  27.423  31.818  1.00  0.00     0.031 C 
ATOM     42  C   UNL A   1      38.883  29.826  29.406  1.00  0.00     0.029 A 
ATOM     43  N   UNL A   1      39.518  30.633  31.389  1.00  0.00    -0.354 N 
ATOM     44  C   UNL A   1      42.645  28.756  33.681  1.00  0.00     0.074 A 
ATOM     45  C   UNL A   1      43.162  27.584  33.006  1.00  0.00     0.031 C 
ATOM     46  C   UNL A   1      38.116  30.896  29.666  1.00  0.00     0.029 A 
ATOM     47  C   UNL A   1      38.477  31.433  30.974  1.00  0.00     0.049 A 
ATOM     48  H   UNL A   1      40.005  30.778  32.232  1.00  0.00     0.167 HD
ATOM     49  C   UNL A   1      43.101  29.219  34.870  1.00  0.00     0.037 A 
ATOM     50  C   UNL A   1      37.866  32.472  31.577  1.00  0.00     0.037 A 
ATOM     51  C   UNL A   1      42.592  30.394  35.534  1.00  0.00     0.049 A 
ATOM     52  C   UNL A   1      38.351  32.930  32.924  1.00  0.00     0.074 A 
ATOM     53  C   UNL A   1      43.031  30.971  36.715  1.00  0.00     0.029 A 
ATOM     54  N   UNL A   1      41.526  31.163  35.090  1.00  0.00    -0.354 N 
ATOM     55  N   UNL A   1      39.341  32.462  33.645  1.00  0.00    -0.248 NA
ATOM     56  C   UNL A   1      37.639  34.060  33.540  1.00  0.00     0.031 C 
ATOM     57  C   UNL A   1      42.192  32.049  37.015  1.00  0.00     0.029 A 
ATOM     58  C   UNL A   1      41.266  32.182  35.994  1.00  0.00     0.049 A 
ATOM     59  H   UNL A   1      41.028  31.008  34.256  1.00  0.00     0.167 HD
ATOM     60  C   UNL A   1      39.382  33.250  34.791  1.00  0.00     0.074 A 
ATOM     61  C   UNL A   1      38.333  34.239  34.656  1.00  0.00     0.031 C 
ATOM     62  C   UNL A   1      40.214  33.159  35.858  1.00  0.00     0.037 A 
BRANCH  49  63
ATOM     63  C   UNL A   1      44.207  28.453  35.548  1.00  0.00     0.058 A 
ATOM     64  C   UNL A   1      45.561  28.714  35.280  1.00  0.00     0.135 A 
ATOM     65  C   UNL A   1      43.911  27.482  36.520  1.00  0.00     0.135 A 
ATOM     66  F   UNL A   1      45.903  29.623  34.353  1.00  0.00    -0.206 F 
ATOM     67  C   UNL A   1      46.579  28.021  35.929  1.00  0.00     0.059 A 
ATOM     68  C   UNL A   1      44.913  26.799  37.203  1.00  0.00     0.059 A 
ATOM     69  F   UNL A   1      42.635  27.194  36.820  1.00  0.00    -0.206 F 
ATOM     70  C   UNL A   1      46.244  27.065  36.890  1.00  0.00     0.060 A 
BRANCH  70  71
ATOM     71  S   UNL A   1      47.579  26.179  37.722  1.00  0.00     0.124 S 
ATOM     72  O   UNL A   1      47.436  24.841  37.157  1.00  0.00    -0.237 OA
ATOM     73  O   UNL A   1      48.760  26.922  37.296  1.00  0.00    -0.237 OA
ATOM     74  O   UNL A   1      47.240  26.301  39.136  1.00  0.00    -0.744 OA
ENDBRANCH  70  71
ENDBRANCH  49  63
BRANCH  50  75
ATOM     75  C   UNL A   1      36.721  33.147  30.909  1.00  0.00     0.058 A 
ATOM     76  C   UNL A   1      36.924  34.013  29.825  1.00  0.00     0.135 A 
ATOM     77  C   UNL A   1      35.400  32.933  31.335  1.00  0.00     0.135 A 
ATOM     78  F   UNL A   1      38.168  34.258  29.386  1.00  0.00    -0.206 F 
ATOM     79  C   UNL A   1      35.862  34.656  29.197  1.00  0.00     0.059 A 
ATOM     80  C   UNL A   1      34.319  33.540  30.705  1.00  0.00     0.059 A 
ATOM     81  F   UNL A   1      35.150  32.101  32.360  1.00  0.00    -0.206 F 
ATOM     82  C   UNL A   1      34.562  34.410  29.643  1.00  0.00     0.060 A 
BRANCH  82  83
ATOM     83  S   UNL A   1      33.189  35.219  28.792  1.00  0.00     0.124 S 
ATOM     84  O   UNL A   1      32.402  35.717  29.914  1.00  0.00    -0.237 OA
ATOM     85  O   UNL A   1      33.880  36.230  27.997  1.00  0.00    -0.237 OA
ATOM     86  O   UNL A   1      32.583  34.135  28.026  1.00  0.00    -0.744 OA
ENDBRANCH  82  83
ENDBRANCH  50  75
BRANCH  62  87
ATOM     87  C   UNL A   1      40.030  34.156  36.971  1.00  0.00     0.058 A 
ATOM     88  C   UNL A   1      40.598  35.438  36.909  1.00  0.00     0.135 A 
ATOM     89  C   UNL A   1      39.228  33.850  38.083  1.00  0.00     0.135 A 
ATOM     90  F   UNL A   1      41.383  35.780  35.874  1.00  0.00    -0.206 F 
ATOM     91  C   UNL A   1      40.390  36.376  37.914  1.00  0.00     0.059 A 
ATOM     92  C   UNL A   1      38.981  34.783  39.085  1.00  0.00     0.059 A 
ATOM     93  F   UNL A   1      38.655  32.640  38.191  1.00  0.00    -0.206 F 
ATOM     94  C   UNL A   1      39.573  36.042  38.996  1.00  0.00     0.060 A 
BRANCH  94  95
ATOM     95  S   UNL A   1      39.270  37.289  40.266  1.00  0.00     0.124 S 
ATOM     96  O   UNL A   1      40.628  37.689  40.617  1.00  0.00    -0.237 OA
ATOM     97  O   UNL A   1      38.483  38.284  39.543  1.00  0.00    -0.237 OA
ATOM     98  O   UNL A   1      38.545  36.555  41.298  1.00  0.00    -0.744 OA
ENDBRANCH  94  95
ENDBRANCH  62  87
ENDBRANCH  36  37
ENDBRANCH  28  31
ENDBRANCH  26  27
ENDBRANCH   1  26
TORSDOF 16
ENDMDL
MODEL 3
REMARK VINA RESULT:     -12.2      2.919      4.745
REMARK SMILES CS(=O)(=O)N1C[C@@H]2CN(C(=O)c3ccco3)C[C@]2(C(=O)NCCCNC(=O)c2ccc(-c3c4nc(c(-c5c(F)cc(S(=O)(=O)[O-])cc5F)c5ccc([nH]5)c(-c5c(F)cc(S(=O)(=O)[O-])cc5F)c5nc(c(-c6c(F)cc(S(=O)(=O)[O-])cc6F)c6ccc3[nH]6)C=C5)C=C4)cc2)C1
REMARK SMILES IDX 23 1 22 2 21 3 19 4 20 5 18 7 5 8 6 9 94 10 7 11 8 12 17 13
REMARK SMILES IDX 9 14 2 15 1 16 3 17 4 18 10 19 11 20 12 21 13 22 16 23 14 24
REMARK SMILES IDX 15 25 24 26 25 27 26 28 27 30 28 31 29 32 93 33 30 34 92 35
REMARK SMILES IDX 31 36 32 37 33 38 86 39 34 40 91 41 85 42 87 43 35 44 90 45
REMARK SMILES IDX 84 46 83 47 36 49 70 50 49 51 69 52 50 53 53 54 68 55 88 56
REMARK SMILES IDX 51 57 52 58 67 60 89 61 54 62 37 63 38 64 47 65 39 66 40 67
REMARK SMILES IDX 46 68 48 69 41 70 42 71 43 72 44 73 45 74 71 75 72 76 81 77
REMARK SMILES IDX 73 78 74 79 80 80 82 81 75 82 76 83 77 84 78 85 79 86 55 87
REMARK SMILES IDX 56 88 65 89 57 90 58 91 64 92 66 93 59 94 60 95 61 96 62 97
REMARK SMILES IDX 63 98
REMARK H PARENT 21 6 25 29 87 48 53 59
REMARK Flexibility Score: inf
ROOT
ATOM      1  C   UNL A   1      33.305  27.514  26.491  1.00  0.00     0.042 C 
ENDROOT
BRANCH   1   2
ATOM      2  C   UNL A   1      31.820  27.861  26.455  1.00  0.00     0.117 C 
BRANCH   2   3
ATOM      3  N   UNL A   1      31.027  26.709  26.854  1.00  0.00    -0.355 N 
ATOM      4  C   UNL A   1      30.432  25.782  26.035  1.00  0.00     0.229 C 
ATOM      5  O   UNL A   1      29.504  25.115  26.496  1.00  0.00    -0.274 OA
ATOM      6  H   UNL A   1      30.903  26.580  27.822  1.00  0.00     0.163 HD
BRANCH   4   7
ATOM      7  C   UNL A   1      31.026  25.607  24.609  1.00  0.00     0.086 C 
ATOM      8  N   UNL A   1      31.923  23.337  24.087  1.00  0.00    -0.201 NA
ATOM      9  C   UNL A   1      32.063  24.096  22.872  1.00  0.00     0.108 C 
ATOM     10  C   UNL A   1      30.993  24.031  24.993  1.00  0.00     0.121 C 
ATOM     11  C   UNL A   1      30.998  25.148  23.090  1.00  0.00     0.042 C 
ATOM     12  C   UNL A   1      31.244  26.368  22.234  1.00  0.00     0.126 C 
ATOM     13  C   UNL A   1      29.975  26.765  24.171  1.00  0.00     0.138 C 
ATOM     14  N   UNL A   1      30.584  27.383  22.991  1.00  0.00    -0.334 N 
BRANCH   8  15
ATOM     15  S   UNL A   1      32.300  21.727  24.218  1.00  0.00     0.211 S 
ATOM     16  C   UNL A   1      34.057  21.745  24.527  1.00  0.00     0.176 C 
ATOM     17  O   UNL A   1      32.105  21.128  22.914  1.00  0.00    -0.213 OA
ATOM     18  O   UNL A   1      31.639  21.198  25.389  1.00  0.00    -0.213 OA
ENDBRANCH   8  15
BRANCH  14  19
ATOM     19  C   UNL A   1      30.855  28.717  22.692  1.00  0.00     0.289 C 
ATOM     20  O   UNL A   1      32.024  29.111  22.708  1.00  0.00    -0.265 OA
BRANCH  19  21
ATOM     21  C   UNL A   1      29.760  29.642  22.507  1.00  0.00     0.191 A 
ATOM     22  C   UNL A   1      29.205  30.533  23.411  1.00  0.00     0.056 A 
ATOM     23  O   UNL A   1      29.119  29.758  21.304  1.00  0.00    -0.459 OA
ATOM     24  C   UNL A   1      28.155  31.196  22.739  1.00  0.00     0.043 A 
ATOM     25  C   UNL A   1      28.174  30.725  21.447  1.00  0.00     0.196 A 
ENDBRANCH  19  21
ENDBRANCH  14  19
ENDBRANCH   4   7
ENDBRANCH   2   3
ENDBRANCH   1   2
BRANCH   1  26
ATOM     26  C   UNL A   1      34.230  28.618  25.986  1.00  0.00     0.118 C 
BRANCH  26  27
ATOM     27  N   UNL A   1      33.976  29.871  26.670  1.00  0.00    -0.352 N 
ATOM     28  C   UNL A   1      34.646  30.465  27.713  1.00  0.00     0.251 C 
ATOM     29  H   UNL A   1      33.201  30.377  26.335  1.00  0.00     0.163 HD
ATOM     30  O   UNL A   1      34.077  31.363  28.331  1.00  0.00    -0.269 OA
BRANCH  28  31
ATOM     31  C   UNL A   1      36.016  30.052  28.118  1.00  0.00     0.039 A 
ATOM     32  C   UNL A   1      37.040  30.147  27.168  1.00  0.00     0.014 A 
ATOM     33  C   UNL A   1      36.301  29.492  29.367  1.00  0.00     0.014 A 
ATOM     34  C   UNL A   1      38.340  29.729  27.481  1.00  0.00     0.010 A 
ATOM     35  C   UNL A   1      37.613  29.143  29.704  1.00  0.00     0.010 A 
ATOM     36  C   UNL A   1      38.650  29.254  28.765  1.00  0.00    -0.014 A 
BRANCH  36  37
ATOM     37  C   UNL A   1      40.049  28.897  29.137  1.00  0.00     0.031 A 
ATOM     38  C   UNL A   1      40.954  29.901  29.805  1.00  0.00     0.074 A 
ATOM     39  C   UNL A   1      40.529  27.673  28.831  1.00  0.00     0.049 A 
ATOM     40  N   UNL A   1      42.217  29.786  30.131  1.00  0.00    -0.248 NA
ATOM     41  C   UNL A   1      40.366  31.207  30.142  1.00  0.00     0.031 C 
ATOM     42  C   UNL A   1      39.765  26.604  28.187  1.00  0.00     0.029 A 
ATOM     43  N   UNL A   1      41.777  27.124  29.004  1.00  0.00    -0.354 N 
ATOM     44  C   UNL A   1      42.577  31.000  30.706  1.00  0.00     0.074 A 
ATOM     45  C   UNL A   1      41.410  31.854  30.643  1.00  0.00     0.031 C 
ATOM     46  C   UNL A   1      40.557  25.537  28.009  1.00  0.00     0.029 A 
ATOM     47  C   UNL A   1      41.895  25.849  28.499  1.00  0.00     0.049 A 
ATOM     48  H   UNL A   1      42.517  27.599  29.447  1.00  0.00     0.167 HD
ATOM     49  C   UNL A   1      43.764  31.362  31.252  1.00  0.00     0.037 A 
ATOM     50  C   UNL A   1      42.957  25.024  28.421  1.00  0.00     0.037 A 
ATOM     51  C   UNL A   1      44.921  30.504  31.324  1.00  0.00     0.049 A 
ATOM     52  C   UNL A   1      44.279  25.472  28.981  1.00  0.00     0.074 A 
ATOM     53  C   UNL A   1      46.149  30.766  31.910  1.00  0.00     0.029 A 
ATOM     54  N   UNL A   1      45.004  29.229  30.785  1.00  0.00    -0.354 N 
ATOM     55  N   UNL A   1      44.580  26.598  29.580  1.00  0.00    -0.248 NA
ATOM     56  C   UNL A   1      45.406  24.535  28.857  1.00  0.00     0.031 C 
ATOM     57  C   UNL A   1      46.992  29.675  31.671  1.00  0.00     0.029 A 
ATOM     58  C   UNL A   1      46.274  28.708  30.986  1.00  0.00     0.049 A 
ATOM     59  H   UNL A   1      44.269  28.761  30.327  1.00  0.00     0.167 HD
ATOM     60  C   UNL A   1      45.925  26.499  29.920  1.00  0.00     0.074 A 
ATOM     61  C   UNL A   1      46.374  25.195  29.480  1.00  0.00     0.031 C 
ATOM     62  C   UNL A   1      46.717  27.411  30.539  1.00  0.00     0.037 A 
BRANCH  49  63
ATOM     63  C   UNL A   1      43.886  32.755  31.813  1.00  0.00     0.058 A 
ATOM     64  C   UNL A   1      43.608  33.036  33.161  1.00  0.00     0.135 A 
ATOM     65  C   UNL A   1      44.341  33.811  31.008  1.00  0.00     0.135 A 
ATOM     66  F   UNL A   1      43.159  32.068  33.976  1.00  0.00    -0.206 F 
ATOM     67  C   UNL A   1      43.748  34.320  33.681  1.00  0.00     0.059 A 
ATOM     68  C   UNL A   1      44.517  35.096  31.514  1.00  0.00     0.059 A 
ATOM     69  F   UNL A   1      44.627  33.599  29.713  1.00  0.00    -0.206 F 
ATOM     70  C   UNL A   1      44.204  35.344  32.848  1.00  0.00     0.060 A 
BRANCH  70  71
ATOM     71  S   UNL A   1      44.381  37.001  33.541  1.00  0.00     0.124 S 
ATOM     72  O   UNL A   1      44.422  36.715  34.973  1.00  0.00    -0.237 OA
ATOM     73  O   UNL A   1      45.637  37.454  32.951  1.00  0.00    -0.237 OA
ATOM     74  O   UNL A   1      43.185  37.696  33.076  1.00  0.00    -0.744 OA
ENDBRANCH  70  71
ENDBRANCH  49  63
BRANCH  50  75
ATOM     75  C   UNL A   1      42.813  23.689  27.781  1.00  0.00     0.058 A 
ATOM     76  C   UNL A   1      42.500  22.552  28.541  1.00  0.00     0.135 A 
ATOM     77  C   UNL A   1      42.977  23.523  26.396  1.00  0.00     0.135 A 
ATOM     78  F   UNL A   1      42.342  22.656  29.869  1.00  0.00    -0.206 F 
ATOM     79  C   UNL A   1      42.370  21.297  27.955  1.00  0.00     0.059 A 
ATOM     80  C   UNL A   1      42.822  22.285  25.783  1.00  0.00     0.059 A 
ATOM     81  F   UNL A   1      43.263  24.583  25.622  1.00  0.00    -0.206 F 
ATOM     82  C   UNL A   1      42.530  21.175  26.574  1.00  0.00     0.060 A 
BRANCH  82  83
ATOM     83  S   UNL A   1      42.318  19.547  25.821  1.00  0.00     0.124 S 
ATOM     84  O   UNL A   1      43.260  19.612  24.710  1.00  0.00    -0.237 OA
ATOM     85  O   UNL A   1      42.684  18.656  26.918  1.00  0.00    -0.237 OA
ATOM     86  O   UNL A   1      40.906  19.528  25.452  1.00  0.00    -0.744 OA
ENDBRANCH  82  83
ENDBRANCH  50  75
BRANCH  62  87
ATOM     87  C   UNL A   1      48.153  27.033  30.783  1.00  0.00     0.058 A 
ATOM     88  C   UNL A   1      49.160  27.340  29.855  1.00  0.00     0.135 A 
ATOM     89  C   UNL A   1      48.537  26.413  31.983  1.00  0.00     0.135 A 
ATOM     90  F   UNL A   1      48.848  27.922  28.686  1.00  0.00    -0.206 F 
ATOM     91  C   UNL A   1      50.495  27.034  30.102  1.00  0.00     0.059 A 
ATOM     92  C   UNL A   1      49.869  26.126  32.264  1.00  0.00     0.059 A 
ATOM     93  F   UNL A   1      47.615  26.103  32.909  1.00  0.00    -0.206 F 
ATOM     94  C   UNL A   1      50.841  26.433  31.314  1.00  0.00     0.060 A 
BRANCH  94  95
ATOM     95  S   UNL A   1      52.583  26.091  31.640  1.00  0.00     0.124 S 
ATOM     96  O   UNL A   1      52.885  27.065  32.683  1.00  0.00    -0.237 OA
ATOM     97  O   UNL A   1      52.552  24.695  32.066  1.00  0.00    -0.237 OA
ATOM     98  O   UNL A   1      53.225  26.333  30.351  1.00  0.00    -0.744 OA
ENDBRANCH  94  95
ENDBRANCH  62  87
ENDBRANCH  36  37
ENDBRANCH  28  31
ENDBRANCH  26  27
ENDBRANCH   1  26
TORSDOF 16
ENDMDL
