MODEL 1
REMARK VINA RESULT:     -11.3      0.000      0.000
REMARK SMILES O=C(NCCCNC(=O)[C@H]1CC(=O)N(CCS(=O)(=O)c2ccc(F)cc2)C1)c1ccc(-c2c3nc(c(-c4c(F)cc(S(=O)(=O)[O-])cc4F)c4ccc([nH]4)c(-c4c(F)cc(S(=O)(=O)[O-])cc4F)c4nc(c(-c5c(F)cc(S(=O)(=O)[O-])cc5F)c5ccc2[nH]5)C=C4)C=C3)cc1
REMARK SMILES IDX 5 1 4 2 3 3 1 4 2 5 28 7 29 8 93 9 30 10 92 11 31 12 32 13
REMARK SMILES IDX 33 14 86 15 34 16 91 17 85 18 87 19 35 20 90 21 84 22 83 23
REMARK SMILES IDX 36 25 70 26 49 27 69 28 50 29 53 30 68 31 88 32 51 33 52 34
REMARK SMILES IDX 67 36 89 37 54 38 37 39 38 40 47 41 39 42 40 43 46 44 48 45
REMARK SMILES IDX 41 46 42 47 43 48 44 49 45 50 71 51 72 52 81 53 73 54 74 55
REMARK SMILES IDX 80 56 82 57 75 58 76 59 77 60 78 61 79 62 55 63 56 64 65 65
REMARK SMILES IDX 57 66 58 67 64 68 66 69 59 70 60 71 61 72 62 73 63 74 6 75
REMARK SMILES IDX 7 76 8 77 9 79 10 80 11 81 27 82 12 83 14 84 13 85 15 86
REMARK SMILES IDX 16 87 17 88 18 89 19 90 20 91 21 92 26 93 22 94 25 95 23 96
REMARK SMILES IDX 24 97
REMARK H PARENT 3 6 87 24 53 35 7 78
REMARK Flexibility Score: inf
ROOT
ATOM      1  C   UNL A   1      34.486  32.518  28.033  1.00  0.00     0.042 C 
ENDROOT
BRANCH   1   2
ATOM      2  C   UNL A   1      35.652  31.669  28.550  1.00  0.00     0.118 C 
BRANCH   2   3
ATOM      3  N   UNL A   1      35.503  31.251  29.931  1.00  0.00    -0.352 N 
ATOM      4  O   UNL A   1      35.981  30.211  31.858  1.00  0.00    -0.269 OA
ATOM      5  C   UNL A   1      36.385  30.597  30.762  1.00  0.00     0.251 C 
ATOM      6  H   UNL A   1      34.634  31.469  30.338  1.00  0.00     0.163 HD
BRANCH   5   7
ATOM      7  C   UNL A   1      37.794  30.331  30.369  1.00  0.00     0.039 A 
ATOM      8  C   UNL A   1      38.748  29.862  31.278  1.00  0.00     0.014 A 
ATOM      9  C   UNL A   1      38.144  30.452  29.018  1.00  0.00     0.014 A 
ATOM     10  C   UNL A   1      40.058  29.604  30.854  1.00  0.00     0.010 A 
ATOM     11  C   UNL A   1      39.439  30.135  28.584  1.00  0.00     0.010 A 
ATOM     12  C   UNL A   1      40.416  29.716  29.499  1.00  0.00    -0.014 A 
BRANCH  12  13
ATOM     13  C   UNL A   1      41.776  29.307  29.040  1.00  0.00     0.031 A 
ATOM     14  C   UNL A   1      42.935  30.271  29.055  1.00  0.00     0.074 A 
ATOM     15  C   UNL A   1      41.972  28.046  28.603  1.00  0.00     0.049 A 
ATOM     16  N   UNL A   1      44.177  30.072  28.688  1.00  0.00    -0.248 NA
ATOM     17  C   UNL A   1      42.670  31.634  29.541  1.00  0.00     0.031 C 
ATOM     18  C   UNL A   1      40.934  27.015  28.519  1.00  0.00     0.029 A 
ATOM     19  N   UNL A   1      43.104  27.406  28.160  1.00  0.00    -0.354 N 
ATOM     20  C   UNL A   1      44.841  31.275  28.901  1.00  0.00     0.074 A 
ATOM     21  C   UNL A   1      43.855  32.214  29.395  1.00  0.00     0.031 C 
ATOM     22  C   UNL A   1      41.486  25.865  28.100  1.00  0.00     0.029 A 
ATOM     23  C   UNL A   1      42.904  26.084  27.834  1.00  0.00     0.049 A 
ATOM     24  H   UNL A   1      43.978  27.853  28.083  1.00  0.00     0.167 HD
ATOM     25  C   UNL A   1      46.153  31.566  28.719  1.00  0.00     0.037 A 
ATOM     26  C   UNL A   1      43.757  25.151  27.367  1.00  0.00     0.037 A 
ATOM     27  C   UNL A   1      47.138  30.631  28.233  1.00  0.00     0.049 A 
ATOM     28  C   UNL A   1      45.196  25.517  27.129  1.00  0.00     0.074 A 
ATOM     29  C   UNL A   1      48.493  30.841  28.031  1.00  0.00     0.029 A 
ATOM     30  N   UNL A   1      46.884  29.316  27.878  1.00  0.00    -0.354 N 
ATOM     31  N   UNL A   1      45.803  26.657  27.352  1.00  0.00    -0.248 NA
ATOM     32  C   UNL A   1      46.065  24.472  26.568  1.00  0.00     0.031 C 
ATOM     33  C   UNL A   1      49.050  29.665  27.518  1.00  0.00     0.029 A 
ATOM     34  C   UNL A   1      48.053  28.708  27.444  1.00  0.00     0.049 A 
ATOM     35  H   UNL A   1      46.004  28.878  27.927  1.00  0.00     0.167 HD
ATOM     36  C   UNL A   1      47.128  26.459  26.979  1.00  0.00     0.074 A 
ATOM     37  C   UNL A   1      47.239  25.087  26.530  1.00  0.00     0.031 C 
ATOM     38  C   UNL A   1      48.159  27.339  27.005  1.00  0.00     0.037 A 
BRANCH  25  39
ATOM     39  C   UNL A   1      46.628  32.954  29.059  1.00  0.00     0.058 A 
ATOM     40  C   UNL A   1      47.005  33.281  30.371  1.00  0.00     0.135 A 
ATOM     41  C   UNL A   1      46.600  33.987  28.109  1.00  0.00     0.135 A 
ATOM     42  F   UNL A   1      47.052  32.333  31.319  1.00  0.00    -0.206 F 
ATOM     43  C   UNL A   1      47.314  34.589  30.735  1.00  0.00     0.059 A 
ATOM     44  C   UNL A   1      46.925  35.298  28.445  1.00  0.00     0.059 A 
ATOM     45  F   UNL A   1      46.262  33.724  26.837  1.00  0.00    -0.206 F 
ATOM     46  C   UNL A   1      47.263  35.593  29.766  1.00  0.00     0.060 A 
BRANCH  46  47
ATOM     47  S   UNL A   1      47.665  37.285  30.255  1.00  0.00     0.124 S 
ATOM     48  O   UNL A   1      47.740  37.169  31.706  1.00  0.00    -0.237 OA
ATOM     49  O   UNL A   1      48.934  37.507  29.567  1.00  0.00    -0.237 OA
ATOM     50  O   UNL A   1      46.541  38.062  29.741  1.00  0.00    -0.744 OA
ENDBRANCH  46  47
ENDBRANCH  25  39
BRANCH  26  51
ATOM     51  C   UNL A   1      43.275  23.768  27.106  1.00  0.00     0.058 A 
ATOM     52  C   UNL A   1      43.088  22.849  28.151  1.00  0.00     0.135 A 
ATOM     53  C   UNL A   1      42.996  23.337  25.800  1.00  0.00     0.135 A 
ATOM     54  F   UNL A   1      43.347  23.208  29.418  1.00  0.00    -0.206 F 
ATOM     55  C   UNL A   1      42.662  21.548  27.908  1.00  0.00     0.059 A 
ATOM     56  C   UNL A   1      42.542  22.049  25.535  1.00  0.00     0.059 A 
ATOM     57  F   UNL A   1      43.145  24.185  24.770  1.00  0.00    -0.206 F 
ATOM     58  C   UNL A   1      42.392  21.157  26.596  1.00  0.00     0.060 A 
BRANCH  58  59
ATOM     59  S   UNL A   1      41.826  19.468  26.304  1.00  0.00     0.124 S 
ATOM     60  O   UNL A   1      42.264  18.799  27.524  1.00  0.00    -0.237 OA
ATOM     61  O   UNL A   1      40.386  19.648  26.159  1.00  0.00    -0.237 OA
ATOM     62  O   UNL A   1      42.533  19.082  25.086  1.00  0.00    -0.744 OA
ENDBRANCH  58  59
ENDBRANCH  26  51
BRANCH  38  63
ATOM     63  C   UNL A   1      49.508  26.849  26.558  1.00  0.00     0.058 A 
ATOM     64  C   UNL A   1      49.908  26.982  25.219  1.00  0.00     0.135 A 
ATOM     65  C   UNL A   1      50.380  26.192  27.440  1.00  0.00     0.135 A 
ATOM     66  F   UNL A   1      49.110  27.600  24.333  1.00  0.00    -0.206 F 
ATOM     67  C   UNL A   1      51.119  26.469  24.766  1.00  0.00     0.059 A 
ATOM     68  C   UNL A   1      51.608  25.693  27.015  1.00  0.00     0.059 A 
ATOM     69  F   UNL A   1      50.051  26.050  28.734  1.00  0.00    -0.206 F 
ATOM     70  C   UNL A   1      51.961  25.822  25.671  1.00  0.00     0.060 A 
BRANCH  70  71
ATOM     71  S   UNL A   1      53.537  25.175  25.071  1.00  0.00     0.124 S 
ATOM     72  O   UNL A   1      53.375  23.742  25.290  1.00  0.00    -0.237 OA
ATOM     73  O   UNL A   1      53.539  25.609  23.677  1.00  0.00    -0.237 OA
ATOM     74  O   UNL A   1      54.521  25.834  25.926  1.00  0.00    -0.744 OA
ENDBRANCH  70  71
ENDBRANCH  38  63
ENDBRANCH  12  13
ENDBRANCH   5   7
ENDBRANCH   2   3
ENDBRANCH   1   2
BRANCH   1  75
ATOM     75  C   UNL A   1      34.717  34.032  27.994  1.00  0.00     0.117 C 
BRANCH  75  76
ATOM     76  N   UNL A   1      33.497  34.811  28.137  1.00  0.00    -0.356 N 
ATOM     77  C   UNL A   1      33.112  35.747  29.045  1.00  0.00     0.225 C 
ATOM     78  H   UNL A   1      32.821  34.624  27.446  1.00  0.00     0.163 HD
ATOM     79  O   UNL A   1      32.081  36.372  28.792  1.00  0.00    -0.275 OA
BRANCH  77  80
ATOM     80  C   UNL A   1      33.927  36.023  30.297  1.00  0.00     0.107 C 
ATOM     81  C   UNL A   1      33.235  37.049  31.214  1.00  0.00     0.115 C 
ATOM     82  C   UNL A   1      34.023  34.788  31.176  1.00  0.00     0.133 C 
ATOM     83  C   UNL A   1      33.529  36.570  32.612  1.00  0.00     0.223 C 
ATOM     84  N   UNL A   1      34.017  35.278  32.529  1.00  0.00    -0.341 N 
ATOM     85  O   UNL A   1      33.332  37.203  33.635  1.00  0.00    -0.275 OA
BRANCH  84  86
ATOM     86  C   UNL A   1      34.415  34.477  33.683  1.00  0.00     0.136 C 
BRANCH  86  87
ATOM     87  C   UNL A   1      35.258  33.250  33.372  1.00  0.00     0.163 C 
BRANCH  87  88
ATOM     88  S   UNL A   1      36.924  33.308  33.997  1.00  0.00     0.180 S 
ATOM     89  O   UNL A   1      37.084  34.558  34.734  1.00  0.00    -0.224 OA
ATOM     90  O   UNL A   1      37.217  32.039  34.617  1.00  0.00    -0.224 OA
BRANCH  88  91
ATOM     91  C   UNL A   1      37.971  33.408  32.565  1.00  0.00     0.067 A 
ATOM     92  C   UNL A   1      39.327  33.075  32.666  1.00  0.00     0.023 A 
ATOM     93  C   UNL A   1      37.439  33.888  31.363  1.00  0.00     0.023 A 
ATOM     94  C   UNL A   1      40.168  33.317  31.580  1.00  0.00     0.040 A 
ATOM     95  C   UNL A   1      38.291  34.129  30.285  1.00  0.00     0.040 A 
ATOM     96  C   UNL A   1      39.651  33.864  30.412  1.00  0.00     0.123 A 
ATOM     97  F   UNL A   1      40.478  34.148  29.398  1.00  0.00    -0.207 F 
ENDBRANCH  88  91
ENDBRANCH  87  88
ENDBRANCH  86  87
ENDBRANCH  84  86
ENDBRANCH  77  80
ENDBRANCH  75  76
ENDBRANCH   1  75
TORSDOF 17
ENDMDL
MODEL 2
REMARK VINA RESULT:     -11.2      6.391     13.366
REMARK SMILES O=C(NCCCNC(=O)[C@H]1CC(=O)N(CCS(=O)(=O)c2ccc(F)cc2)C1)c1ccc(-c2c3nc(c(-c4c(F)cc(S(=O)(=O)[O-])cc4F)c4ccc([nH]4)c(-c4c(F)cc(S(=O)(=O)[O-])cc4F)c4nc(c(-c5c(F)cc(S(=O)(=O)[O-])cc5F)c5ccc2[nH]5)C=C4)C=C3)cc1
REMARK SMILES IDX 5 1 4 2 3 3 1 4 2 5 28 7 29 8 93 9 30 10 92 11 31 12 32 13
REMARK SMILES IDX 33 14 86 15 34 16 91 17 85 18 87 19 35 20 90 21 84 22 83 23
REMARK SMILES IDX 36 25 70 26 49 27 69 28 50 29 53 30 68 31 88 32 51 33 52 34
REMARK SMILES IDX 67 36 89 37 54 38 37 39 38 40 47 41 39 42 40 43 46 44 48 45
REMARK SMILES IDX 41 46 42 47 43 48 44 49 45 50 71 51 72 52 81 53 73 54 74 55
REMARK SMILES IDX 80 56 82 57 75 58 76 59 77 60 78 61 79 62 55 63 56 64 65 65
REMARK SMILES IDX 57 66 58 67 64 68 66 69 59 70 60 71 61 72 62 73 63 74 6 75
REMARK SMILES IDX 7 76 8 77 9 79 10 80 11 81 27 82 12 83 14 84 13 85 15 86
REMARK SMILES IDX 16 87 17 88 18 89 19 90 20 91 21 92 26 93 22 94 25 95 23 96
REMARK SMILES IDX 24 97
REMARK H PARENT 3 6 87 24 53 35 7 78
REMARK Flexibility Score: inf
ROOT
ATOM      1  C   UNL A   1      40.668  22.109  27.201  1.00  0.00     0.042 C 
ENDROOT
BRANCH   1   2
ATOM      2  C   UNL A   1      41.891  23.032  27.236  1.00  0.00     0.118 C 
BRANCH   2   3
ATOM      3  N   UNL A   1      41.972  23.938  26.106  1.00  0.00    -0.352 N 
ATOM      4  O   UNL A   1      41.796  25.851  24.951  1.00  0.00    -0.269 OA
ATOM      5  C   UNL A   1      41.837  25.307  26.054  1.00  0.00     0.251 C 
ATOM      6  H   UNL A   1      42.151  23.505  25.241  1.00  0.00     0.163 HD
BRANCH   5   7
ATOM      7  C   UNL A   1      41.721  26.139  27.281  1.00  0.00     0.039 A 
ATOM      8  C   UNL A   1      42.623  27.165  27.577  1.00  0.00     0.014 A 
ATOM      9  C   UNL A   1      40.605  25.954  28.109  1.00  0.00     0.014 A 
ATOM     10  C   UNL A   1      42.458  27.937  28.735  1.00  0.00     0.010 A 
ATOM     11  C   UNL A   1      40.409  26.768  29.234  1.00  0.00     0.010 A 
ATOM     12  C   UNL A   1      41.338  27.763  29.567  1.00  0.00    -0.014 A 
BRANCH  12  13
ATOM     13  C   UNL A   1      41.105  28.682  30.720  1.00  0.00     0.031 A 
ATOM     14  C   UNL A   1      40.019  29.728  30.686  1.00  0.00     0.074 A 
ATOM     15  C   UNL A   1      41.883  28.572  31.817  1.00  0.00     0.049 A 
ATOM     16  N   UNL A   1      39.690  30.603  31.604  1.00  0.00    -0.248 NA
ATOM     17  C   UNL A   1      39.199  29.806  29.468  1.00  0.00     0.031 C 
ATOM     18  C   UNL A   1      42.981  27.615  31.977  1.00  0.00     0.029 A 
ATOM     19  N   UNL A   1      41.868  29.254  33.010  1.00  0.00    -0.354 N 
ATOM     20  C   UNL A   1      38.627  31.331  31.081  1.00  0.00     0.074 A 
ATOM     21  C   UNL A   1      38.389  30.820  29.747  1.00  0.00     0.031 C 
ATOM     22  C   UNL A   1      43.499  27.739  33.208  1.00  0.00     0.029 A 
ATOM     23  C   UNL A   1      42.812  28.817  33.911  1.00  0.00     0.049 A 
ATOM     24  H   UNL A   1      41.240  29.988  33.201  1.00  0.00     0.167 HD
ATOM     25  C   UNL A   1      37.905  32.320  31.663  1.00  0.00     0.037 A 
ATOM     26  C   UNL A   1      43.101  29.236  35.159  1.00  0.00     0.037 A 
ATOM     27  C   UNL A   1      38.136  32.826  32.994  1.00  0.00     0.049 A 
ATOM     28  C   UNL A   1      42.315  30.368  35.760  1.00  0.00     0.074 A 
ATOM     29  C   UNL A   1      37.442  33.819  33.667  1.00  0.00     0.029 A 
ATOM     30  N   UNL A   1      39.126  32.382  33.856  1.00  0.00    -0.354 N 
ATOM     31  N   UNL A   1      41.304  31.030  35.252  1.00  0.00    -0.248 NA
ATOM     32  C   UNL A   1      42.712  30.816  37.104  1.00  0.00     0.031 C 
ATOM     33  C   UNL A   1      38.036  34.002  34.920  1.00  0.00     0.029 A 
ATOM     34  C   UNL A   1      39.071  33.091  35.047  1.00  0.00     0.049 A 
ATOM     35  H   UNL A   1      39.774  31.668  33.654  1.00  0.00     0.167 HD
ATOM     36  C   UNL A   1      40.932  31.957  36.220  1.00  0.00     0.074 A 
ATOM     37  C   UNL A   1      41.816  31.761  37.351  1.00  0.00     0.031 C 
ATOM     38  C   UNL A   1      39.949  32.887  36.172  1.00  0.00     0.037 A 
BRANCH  25  39
ATOM     39  C   UNL A   1      36.771  32.928  30.882  1.00  0.00     0.058 A 
ATOM     40  C   UNL A   1      37.022  33.836  29.841  1.00  0.00     0.135 A 
ATOM     41  C   UNL A   1      35.433  32.698  31.242  1.00  0.00     0.135 A 
ATOM     42  F   UNL A   1      38.281  34.091  29.454  1.00  0.00    -0.206 F 
ATOM     43  C   UNL A   1      35.988  34.514  29.200  1.00  0.00     0.059 A 
ATOM     44  C   UNL A   1      34.382  33.348  30.600  1.00  0.00     0.059 A 
ATOM     45  F   UNL A   1      35.138  31.828  32.219  1.00  0.00    -0.206 F 
ATOM     46  C   UNL A   1      34.671  34.269  29.593  1.00  0.00     0.060 A 
BRANCH  46  47
ATOM     47  S   UNL A   1      33.342  35.157  28.752  1.00  0.00     0.124 S 
ATOM     48  O   UNL A   1      32.528  35.613  29.873  1.00  0.00    -0.237 OA
ATOM     49  O   UNL A   1      34.076  36.194  28.033  1.00  0.00    -0.237 OA
ATOM     50  O   UNL A   1      32.733  34.134  27.906  1.00  0.00    -0.744 OA
ENDBRANCH  46  47
ENDBRANCH  25  39
BRANCH  26  51
ATOM     51  C   UNL A   1      44.180  28.569  35.935  1.00  0.00     0.058 A 
ATOM     52  C   UNL A   1      43.903  27.510  36.814  1.00  0.00     0.135 A 
ATOM     53  C   UNL A   1      45.516  28.983  35.814  1.00  0.00     0.135 A 
ATOM     54  F   UNL A   1      42.642  27.079  36.972  1.00  0.00    -0.206 F 
ATOM     55  C   UNL A   1      44.906  26.902  37.560  1.00  0.00     0.059 A 
ATOM     56  C   UNL A   1      46.541  28.372  36.529  1.00  0.00     0.059 A 
ATOM     57  F   UNL A   1      45.832  29.982  34.974  1.00  0.00    -0.206 F 
ATOM     58  C   UNL A   1      46.222  27.340  37.411  1.00  0.00     0.060 A 
BRANCH  58  59
ATOM     59  S   UNL A   1      47.512  26.526  38.377  1.00  0.00     0.124 S 
ATOM     60  O   UNL A   1      48.344  27.660  38.764  1.00  0.00    -0.237 OA
ATOM     61  O   UNL A   1      46.745  25.905  39.451  1.00  0.00    -0.237 OA
ATOM     62  O   UNL A   1      48.114  25.600  37.423  1.00  0.00    -0.744 OA
ENDBRANCH  58  59
ENDBRANCH  26  51
BRANCH  38  63
ATOM     63  C   UNL A   1      39.750  33.757  37.382  1.00  0.00     0.058 A 
ATOM     64  C   UNL A   1      38.852  33.377  38.394  1.00  0.00     0.135 A 
ATOM     65  C   UNL A   1      40.400  34.994  37.514  1.00  0.00     0.135 A 
ATOM     66  F   UNL A   1      38.202  32.205  38.316  1.00  0.00    -0.206 F 
ATOM     67  C   UNL A   1      38.595  34.200  39.485  1.00  0.00     0.059 A 
ATOM     68  C   UNL A   1      40.177  35.822  38.611  1.00  0.00     0.059 A 
ATOM     69  F   UNL A   1      41.278  35.397  36.583  1.00  0.00    -0.206 F 
ATOM     70  C   UNL A   1      39.260  35.424  39.583  1.00  0.00     0.060 A 
BRANCH  70  71
ATOM     71  S   UNL A   1      38.926  36.473  41.014  1.00  0.00     0.124 S 
ATOM     72  O   UNL A   1      38.462  37.703  40.382  1.00  0.00    -0.237 OA
ATOM     73  O   UNL A   1      37.912  35.706  41.732  1.00  0.00    -0.237 OA
ATOM     74  O   UNL A   1      40.223  36.559  41.680  1.00  0.00    -0.744 OA
ENDBRANCH  70  71
ENDBRANCH  38  63
ENDBRANCH  12  13
ENDBRANCH   5   7
ENDBRANCH   2   3
ENDBRANCH   1   2
BRANCH   1  75
ATOM     75  C   UNL A   1      39.422  22.663  26.505  1.00  0.00     0.117 C 
BRANCH  75  76
ATOM     76  N   UNL A   1      38.465  21.638  26.119  1.00  0.00    -0.356 N 
ATOM     77  C   UNL A   1      37.417  21.646  25.252  1.00  0.00     0.225 C 
ATOM     78  H   UNL A   1      38.600  20.775  26.573  1.00  0.00     0.163 HD
ATOM     79  O   UNL A   1      36.902  20.556  24.998  1.00  0.00    -0.275 OA
BRANCH  77  80
ATOM     80  C   UNL A   1      36.924  22.933  24.613  1.00  0.00     0.107 C 
ATOM     81  C   UNL A   1      36.108  22.659  23.335  1.00  0.00     0.115 C 
ATOM     82  C   UNL A   1      35.927  23.647  25.509  1.00  0.00     0.133 C 
ATOM     83  C   UNL A   1      35.011  23.692  23.356  1.00  0.00     0.223 C 
ATOM     84  N   UNL A   1      34.976  24.257  24.618  1.00  0.00    -0.341 N 
ATOM     85  O   UNL A   1      34.264  23.950  22.428  1.00  0.00    -0.275 OA
BRANCH  84  86
ATOM     86  C   UNL A   1      34.041  25.302  25.021  1.00  0.00     0.136 C 
BRANCH  86  87
ATOM     87  C   UNL A   1      33.217  25.003  26.265  1.00  0.00     0.163 C 
BRANCH  87  88
ATOM     88  S   UNL A   1      31.733  24.065  25.972  1.00  0.00     0.180 S 
ATOM     89  O   UNL A   1      31.027  23.933  27.242  1.00  0.00    -0.224 OA
ATOM     90  O   UNL A   1      31.075  24.614  24.811  1.00  0.00    -0.224 OA
BRANCH  88  91
ATOM     91  C   UNL A   1      32.277  22.439  25.505  1.00  0.00     0.067 A 
ATOM     92  C   UNL A   1      33.029  21.670  26.401  1.00  0.00     0.023 A 
ATOM     93  C   UNL A   1      32.006  21.973  24.213  1.00  0.00     0.023 A 
ATOM     94  C   UNL A   1      33.588  20.470  25.962  1.00  0.00     0.040 A 
ATOM     95  C   UNL A   1      32.574  20.773  23.785  1.00  0.00     0.040 A 
ATOM     96  C   UNL A   1      33.379  20.045  24.654  1.00  0.00     0.123 A 
ATOM     97  F   UNL A   1      33.971  18.923  24.227  1.00  0.00    -0.207 F 
ENDBRANCH  88  91
ENDBRANCH  87  88
ENDBRANCH  86  87
ENDBRANCH  84  86
ENDBRANCH  77  80
ENDBRANCH  75  76
ENDBRANCH   1  75
TORSDOF 17
ENDMDL
MODEL 3
REMARK VINA RESULT:     -11.1      0.508      8.122
REMARK SMILES O=C(NCCCNC(=O)[C@H]1CC(=O)N(CCS(=O)(=O)c2ccc(F)cc2)C1)c1ccc(-c2c3nc(c(-c4c(F)cc(S(=O)(=O)[O-])cc4F)c4ccc([nH]4)c(-c4c(F)cc(S(=O)(=O)[O-])cc4F)c4nc(c(-c5c(F)cc(S(=O)(=O)[O-])cc5F)c5ccc2[nH]5)C=C4)C=C3)cc1
REMARK SMILES IDX 5 1 4 2 3 3 1 4 2 5 28 7 29 8 93 9 30 10 92 11 31 12 32 13
REMARK SMILES IDX 33 14 86 15 34 16 91 17 85 18 87 19 35 20 90 21 84 22 83 23
REMARK SMILES IDX 36 25 70 26 49 27 69 28 50 29 53 30 68 31 88 32 51 33 52 34
REMARK SMILES IDX 67 36 89 37 54 38 37 39 38 40 47 41 39 42 40 43 46 44 48 45
REMARK SMILES IDX 41 46 42 47 43 48 44 49 45 50 71 51 72 52 81 53 73 54 74 55
REMARK SMILES IDX 80 56 82 57 75 58 76 59 77 60 78 61 79 62 55 63 56 64 65 65
REMARK SMILES IDX 57 66 58 67 64 68 66 69 59 70 60 71 61 72 62 73 63 74 6 75
REMARK SMILES IDX 7 76 8 77 9 79 10 80 11 81 27 82 12 83 14 84 13 85 15 86
REMARK SMILES IDX 16 87 17 88 18 89 19 90 20 91 21 92 26 93 22 94 25 95 23 96
REMARK SMILES IDX 24 97
REMARK H PARENT 3 6 87 24 53 35 7 78
REMARK Flexibility Score: inf
ROOT
ATOM      1  C   UNL A   1      34.502  32.632  28.083  1.00  0.00     0.042 C 
ENDROOT
BRANCH   1   2
ATOM      2  C   UNL A   1      35.748  31.904  28.597  1.00  0.00     0.118 C 
BRANCH   2   3
ATOM      3  N   UNL A   1      35.572  31.294  29.901  1.00  0.00    -0.352 N 
ATOM      4  O   UNL A   1      35.998  29.967  31.657  1.00  0.00    -0.269 OA
ATOM      5  C   UNL A   1      36.424  30.496  30.632  1.00  0.00     0.251 C 
ATOM      6  H   UNL A   1      34.706  31.479  30.332  1.00  0.00     0.163 HD
BRANCH   5   7
ATOM      7  C   UNL A   1      37.828  30.242  30.210  1.00  0.00     0.039 A 
ATOM      8  C   UNL A   1      38.861  30.048  31.131  1.00  0.00     0.014 A 
ATOM      9  C   UNL A   1      38.096  30.087  28.844  1.00  0.00     0.014 A 
ATOM     10  C   UNL A   1      40.164  29.790  30.685  1.00  0.00     0.010 A 
ATOM     11  C   UNL A   1      39.388  29.768  28.401  1.00  0.00     0.010 A 
ATOM     12  C   UNL A   1      40.441  29.625  29.316  1.00  0.00    -0.014 A 
BRANCH  12  13
ATOM     13  C   UNL A   1      41.803  29.215  28.865  1.00  0.00     0.031 A 
ATOM     14  C   UNL A   1      42.095  27.804  28.421  1.00  0.00     0.074 A 
ATOM     15  C   UNL A   1      42.795  30.130  28.855  1.00  0.00     0.049 A 
ATOM     16  N   UNL A   1      43.225  27.290  28.002  1.00  0.00    -0.248 NA
ATOM     17  C   UNL A   1      40.980  26.846  28.451  1.00  0.00     0.031 C 
ATOM     18  C   UNL A   1      42.656  31.527  29.276  1.00  0.00     0.029 A 
ATOM     19  N   UNL A   1      44.110  30.035  28.468  1.00  0.00    -0.354 N 
ATOM     20  C   UNL A   1      42.960  25.955  27.716  1.00  0.00     0.074 A 
ATOM     21  C   UNL A   1      41.567  25.728  28.044  1.00  0.00     0.031 C 
ATOM     22  C   UNL A   1      43.819  32.166  29.079  1.00  0.00     0.029 A 
ATOM     23  C   UNL A   1      44.806  31.219  28.569  1.00  0.00     0.049 A 
ATOM     24  H   UNL A   1      44.517  29.198  28.146  1.00  0.00     0.167 HD
ATOM     25  C   UNL A   1      43.792  25.012  27.210  1.00  0.00     0.037 A 
ATOM     26  C   UNL A   1      46.092  31.513  28.293  1.00  0.00     0.037 A 
ATOM     27  C   UNL A   1      45.178  25.238  26.877  1.00  0.00     0.049 A 
ATOM     28  C   UNL A   1      47.004  30.434  27.780  1.00  0.00     0.074 A 
ATOM     29  C   UNL A   1      46.090  24.339  26.347  1.00  0.00     0.029 A 
ATOM     30  N   UNL A   1      45.851  26.439  27.033  1.00  0.00    -0.354 N 
ATOM     31  N   UNL A   1      46.726  29.184  27.502  1.00  0.00    -0.248 NA
ATOM     32  C   UNL A   1      48.409  30.804  27.548  1.00  0.00     0.031 C 
ATOM     33  C   UNL A   1      47.323  24.986  26.219  1.00  0.00     0.029 A 
ATOM     34  C   UNL A   1      47.169  26.301  26.625  1.00  0.00     0.049 A 
ATOM     35  H   UNL A   1      45.452  27.269  27.382  1.00  0.00     0.167 HD
ATOM     36  C   UNL A   1      47.913  28.624  27.044  1.00  0.00     0.074 A 
ATOM     37  C   UNL A   1      48.910  29.675  27.066  1.00  0.00     0.031 C 
ATOM     38  C   UNL A   1      48.155  27.352  26.644  1.00  0.00     0.037 A 
BRANCH  25  39
ATOM     39  C   UNL A   1      43.239  23.634  26.960  1.00  0.00     0.058 A 
ATOM     40  C   UNL A   1      43.040  22.737  28.022  1.00  0.00     0.135 A 
ATOM     41  C   UNL A   1      43.015  23.165  25.655  1.00  0.00     0.135 A 
ATOM     42  F   UNL A   1      43.236  23.133  29.289  1.00  0.00    -0.206 F 
ATOM     43  C   UNL A   1      42.662  21.416  27.797  1.00  0.00     0.059 A 
ATOM     44  C   UNL A   1      42.616  21.854  25.409  1.00  0.00     0.059 A 
ATOM     45  F   UNL A   1      43.176  23.987  24.607  1.00  0.00    -0.206 F 
ATOM     46  C   UNL A   1      42.460  20.982  26.486  1.00  0.00     0.060 A 
BRANCH  46  47
ATOM     47  S   UNL A   1      41.971  19.265  26.212  1.00  0.00     0.124 S 
ATOM     48  O   UNL A   1      42.367  18.635  27.466  1.00  0.00    -0.237 OA
ATOM     49  O   UNL A   1      40.534  19.390  25.987  1.00  0.00    -0.237 OA
ATOM     50  O   UNL A   1      42.747  18.874  25.038  1.00  0.00    -0.744 OA
ENDBRANCH  46  47
ENDBRANCH  25  39
BRANCH  26  51
ATOM     51  C   UNL A   1      46.593  32.901  28.483  1.00  0.00     0.058 A 
ATOM     52  C   UNL A   1      47.061  33.346  29.729  1.00  0.00     0.135 A 
ATOM     53  C   UNL A   1      46.609  33.813  27.416  1.00  0.00     0.135 A 
ATOM     54  F   UNL A   1      47.060  32.517  30.784  1.00  0.00    -0.206 F 
ATOM     55  C   UNL A   1      47.506  34.650  29.915  1.00  0.00     0.059 A 
ATOM     56  C   UNL A   1      47.075  35.114  27.571  1.00  0.00     0.059 A 
ATOM     57  F   UNL A   1      46.186  33.428  26.201  1.00  0.00    -0.206 F 
ATOM     58  C   UNL A   1      47.509  35.527  28.830  1.00  0.00     0.060 A 
BRANCH  58  59
ATOM     59  S   UNL A   1      48.105  37.211  29.089  1.00  0.00     0.124 S 
ATOM     60  O   UNL A   1      49.550  37.018  29.046  1.00  0.00    -0.237 OA
ATOM     61  O   UNL A   1      47.524  37.920  27.954  1.00  0.00    -0.237 OA
ATOM     62  O   UNL A   1      47.555  37.566  30.394  1.00  0.00    -0.744 OA
ENDBRANCH  58  59
ENDBRANCH  26  51
BRANCH  38  63
ATOM     63  C   UNL A   1      49.543  27.019  26.172  1.00  0.00     0.058 A 
ATOM     64  C   UNL A   1      49.915  27.243  24.836  1.00  0.00     0.135 A 
ATOM     65  C   UNL A   1      50.486  26.423  27.024  1.00  0.00     0.135 A 
ATOM     66  F   UNL A   1      49.051  27.808  23.978  1.00  0.00    -0.206 F 
ATOM     67  C   UNL A   1      51.168  26.872  24.358  1.00  0.00     0.059 A 
ATOM     68  C   UNL A   1      51.754  26.068  26.573  1.00  0.00     0.059 A 
ATOM     69  F   UNL A   1      50.185  26.201  28.313  1.00  0.00    -0.206 F 
ATOM     70  C   UNL A   1      52.080  26.282  25.234  1.00  0.00     0.060 A 
BRANCH  70  71
ATOM     71  S   UNL A   1      53.708  25.823  24.601  1.00  0.00     0.124 S 
ATOM     72  O   UNL A   1      53.449  25.697  23.171  1.00  0.00    -0.237 OA
ATOM     73  O   UNL A   1      54.529  26.963  25.000  1.00  0.00    -0.237 OA
ATOM     74  O   UNL A   1      54.003  24.575  25.299  1.00  0.00    -0.744 OA
ENDBRANCH  70  71
ENDBRANCH  38  63
ENDBRANCH  12  13
ENDBRANCH   5   7
ENDBRANCH   2   3
ENDBRANCH   1   2
BRANCH   1  75
ATOM     75  C   UNL A   1      34.661  34.129  27.800  1.00  0.00     0.117 C 
BRANCH  75  76
ATOM     76  N   UNL A   1      33.452  34.900  28.043  1.00  0.00    -0.356 N 
ATOM     77  C   UNL A   1      33.098  35.756  29.038  1.00  0.00     0.225 C 
ATOM     78  H   UNL A   1      32.757  34.778  27.356  1.00  0.00     0.163 HD
ATOM     79  O   UNL A   1      32.067  36.407  28.867  1.00  0.00    -0.275 OA
BRANCH  77  80
ATOM     80  C   UNL A   1      33.948  35.918  30.287  1.00  0.00     0.107 C 
ATOM     81  C   UNL A   1      33.347  36.952  31.257  1.00  0.00     0.115 C 
ATOM     82  C   UNL A   1      33.963  34.643  31.113  1.00  0.00     0.133 C 
ATOM     83  C   UNL A   1      33.622  36.394  32.629  1.00  0.00     0.223 C 
ATOM     84  N   UNL A   1      34.011  35.074  32.485  1.00  0.00    -0.341 N 
ATOM     85  O   UNL A   1      33.486  36.995  33.680  1.00  0.00    -0.275 OA
BRANCH  84  86
ATOM     86  C   UNL A   1      34.363  34.198  33.598  1.00  0.00     0.136 C 
BRANCH  86  87
ATOM     87  C   UNL A   1      35.398  33.126  33.289  1.00  0.00     0.163 C 
BRANCH  87  88
ATOM     88  S   UNL A   1      37.032  33.462  33.910  1.00  0.00     0.180 S 
ATOM     89  O   UNL A   1      37.026  34.803  34.486  1.00  0.00    -0.224 OA
ATOM     90  O   UNL A   1      37.462  32.324  34.685  1.00  0.00    -0.224 OA
BRANCH  88  91
ATOM     91  C   UNL A   1      38.088  33.512  32.481  1.00  0.00     0.067 A 
ATOM     92  C   UNL A   1      39.458  33.258  32.616  1.00  0.00     0.023 A 
ATOM     93  C   UNL A   1      37.545  33.875  31.244  1.00  0.00     0.023 A 
ATOM     94  C   UNL A   1      40.296  33.463  31.521  1.00  0.00     0.040 A 
ATOM     95  C   UNL A   1      38.394  34.081  30.157  1.00  0.00     0.040 A 
ATOM     96  C   UNL A   1      39.764  33.897  30.312  1.00  0.00     0.123 A 
ATOM     97  F   UNL A   1      40.587  34.149  29.287  1.00  0.00    -0.207 F 
ENDBRANCH  88  91
ENDBRANCH  87  88
ENDBRANCH  86  87
ENDBRANCH  84  86
ENDBRANCH  77  80
ENDBRANCH  75  76
ENDBRANCH   1  75
TORSDOF 17
ENDMDL
