MODEL 1
REMARK VINA RESULT:     -12.0      0.000      0.000
REMARK SMILES CC[C@@H](C)[C@H](NC(=O)C1CCN(C(=O)OC(C)(C)C)CC1)C(=O)NCCCNC(=O)c1ccc(-c2c3nc(c(-c4c(F)cc(S(=O)(=O)[O-])cc4F)c4ccc([nH]4)c(-c4c(F)cc(S(=O)(=O)[O-])cc4F)c4nc(c(-c5c(F)cc(S(=O)(=O)[O-])cc5F)c5ccc2[nH]5)C=C4)C=C3)cc1
REMARK SMILES IDX 25 1 24 2 22 3 23 4 5 6 3 7 4 8 2 9 1 10 6 11 7 12 8 14 9 15
REMARK SMILES IDX 10 16 21 17 11 18 20 19 12 20 13 21 14 22 15 23 16 24 17 25
REMARK SMILES IDX 18 26 19 27 26 28 27 29 28 30 29 31 30 33 31 34 32 35 96 36
REMARK SMILES IDX 33 37 95 38 34 39 35 40 36 41 89 42 37 43 94 44 88 45 90 46
REMARK SMILES IDX 38 47 93 48 87 49 86 50 39 52 73 53 52 54 72 55 53 56 56 57
REMARK SMILES IDX 71 58 91 59 54 60 55 61 70 63 92 64 57 65 40 66 41 67 50 68
REMARK SMILES IDX 42 69 43 70 49 71 51 72 44 73 45 74 46 75 47 76 48 77 74 78
REMARK SMILES IDX 75 79 84 80 76 81 77 82 83 83 85 84 78 85 79 86 80 87 81 88
REMARK SMILES IDX 82 89 58 90 59 91 68 92 60 93 61 94 67 95 69 96 62 97 63 98
REMARK SMILES IDX 64 99 65 100 66 101
REMARK H PARENT 24 5 6 13 28 32 90 51 56 62
REMARK Flexibility Score: inf
ROOT
ATOM      1  C   UNL A   1      36.929  23.596  26.031  1.00  0.00     0.117 C 
ENDROOT
BRANCH   1   2
ATOM      2  N   UNL A   1      35.951  22.961  26.888  1.00  0.00    -0.354 N 
ATOM      3  C   UNL A   1      34.605  22.801  26.730  1.00  0.00     0.242 C 
ATOM      4  O   UNL A   1      34.046  21.986  27.471  1.00  0.00    -0.273 OA
ATOM      5  H   UNL A   1      36.315  22.582  27.720  1.00  0.00     0.163 HD
BRANCH   3   6
ATOM      6  C   UNL A   1      33.808  23.503  25.600  1.00  0.00     0.174 C 
BRANCH   6   7
ATOM      7  C   UNL A   1      34.006  22.820  24.208  1.00  0.00     0.018 C 
ATOM      8  C   UNL A   1      34.473  23.733  23.068  1.00  0.00     0.010 C 
BRANCH   7   9
ATOM      9  C   UNL A   1      32.717  22.068  23.813  1.00  0.00     0.002 C 
ATOM     10  C   UNL A   1      32.707  20.601  24.230  1.00  0.00     0.004 C 
ENDBRANCH   7   9
ENDBRANCH   6   7
BRANCH   6  11
ATOM     11  N   UNL A   1      34.032  24.952  25.624  1.00  0.00    -0.344 N 
ATOM     12  C   UNL A   1      33.183  25.984  25.850  1.00  0.00     0.223 C 
ATOM     13  H   UNL A   1      34.962  25.223  25.444  1.00  0.00     0.164 HD
ATOM     14  O   UNL A   1      33.695  27.037  26.234  1.00  0.00    -0.275 OA
BRANCH  12  15
ATOM     15  C   UNL A   1      31.696  25.874  25.551  1.00  0.00     0.082 C 
ATOM     16  C   UNL A   1      31.500  25.628  24.046  1.00  0.00     0.035 C 
ATOM     17  C   UNL A   1      30.940  27.128  26.015  1.00  0.00     0.035 C 
ATOM     18  C   UNL A   1      31.730  26.882  23.204  1.00  0.00     0.124 C 
ATOM     19  C   UNL A   1      31.138  28.345  25.105  1.00  0.00     0.124 C 
ATOM     20  N   UNL A   1      30.938  27.995  23.703  1.00  0.00    -0.308 N 
ATOM     21  C   UNL A   1      30.178  28.732  22.810  1.00  0.00     0.410 C 
ATOM     22  O   UNL A   1      30.070  28.446  21.627  1.00  0.00    -0.224 OA
BRANCH  21  23
ATOM     23  O   UNL A   1      29.550  29.789  23.396  1.00  0.00    -0.444 OA
BRANCH  23  24
ATOM     24  C   UNL A   1      28.239  30.205  22.932  1.00  0.00     0.106 C 
ATOM     25  C   UNL A   1      28.286  30.718  21.488  1.00  0.00     0.056 C 
ATOM     26  C   UNL A   1      27.206  29.085  23.114  1.00  0.00     0.056 C 
ATOM     27  C   UNL A   1      27.840  31.376  23.846  1.00  0.00     0.056 C 
ENDBRANCH  23  24
ENDBRANCH  21  23
ENDBRANCH  12  15
ENDBRANCH   6  11
ENDBRANCH   3   6
ENDBRANCH   1   2
BRANCH   1  28
ATOM     28  C   UNL A   1      38.278  22.917  26.039  1.00  0.00     0.042 C 
BRANCH  28  29
ATOM     29  C   UNL A   1      39.297  23.657  26.878  1.00  0.00     0.118 C 
BRANCH  29  30
ATOM     30  N   UNL A   1      40.424  24.146  26.086  1.00  0.00    -0.352 N 
ATOM     31  C   UNL A   1      41.091  25.345  26.127  1.00  0.00     0.251 C 
ATOM     32  H   UNL A   1      40.759  23.511  25.413  1.00  0.00     0.163 HD
ATOM     33  O   UNL A   1      41.863  25.636  25.218  1.00  0.00    -0.269 OA
BRANCH  31  34
ATOM     34  C   UNL A   1      40.874  26.276  27.253  1.00  0.00     0.039 A 
ATOM     35  C   UNL A   1      39.962  25.941  28.257  1.00  0.00     0.014 A 
ATOM     36  C   UNL A   1      41.561  27.489  27.312  1.00  0.00     0.014 A 
ATOM     37  C   UNL A   1      39.789  26.802  29.342  1.00  0.00     0.010 A 
ATOM     38  C   UNL A   1      41.500  28.264  28.457  1.00  0.00     0.010 A 
ATOM     39  C   UNL A   1      40.581  27.956  29.466  1.00  0.00    -0.014 A 
BRANCH  39  40
ATOM     40  C   UNL A   1      40.421  28.894  30.602  1.00  0.00     0.031 A 
ATOM     41  C   UNL A   1      41.283  28.732  31.829  1.00  0.00     0.074 A 
ATOM     42  C   UNL A   1      39.471  29.848  30.554  1.00  0.00     0.049 A 
ATOM     43  N   UNL A   1      41.261  29.404  32.950  1.00  0.00    -0.248 NA
ATOM     44  C   UNL A   1      42.273  27.640  31.811  1.00  0.00     0.031 C 
ATOM     45  C   UNL A   1      38.531  30.055  29.450  1.00  0.00     0.029 A 
ATOM     46  N   UNL A   1      39.136  30.821  31.460  1.00  0.00    -0.354 N 
ATOM     47  C   UNL A   1      42.214  28.808  33.767  1.00  0.00     0.074 A 
ATOM     48  C   UNL A   1      42.737  27.669  33.051  1.00  0.00     0.031 C 
ATOM     49  C   UNL A   1      37.750  31.111  29.728  1.00  0.00     0.029 A 
ATOM     50  C   UNL A   1      38.106  31.631  31.044  1.00  0.00     0.049 A 
ATOM     51  H   UNL A   1      39.590  30.929  32.327  1.00  0.00     0.167 HD
ATOM     52  C   UNL A   1      42.649  29.199  34.987  1.00  0.00     0.037 A 
ATOM     53  C   UNL A   1      37.518  32.676  31.656  1.00  0.00     0.037 A 
ATOM     54  C   UNL A   1      42.146  30.357  35.676  1.00  0.00     0.049 A 
ATOM     55  C   UNL A   1      38.031  33.108  33.004  1.00  0.00     0.074 A 
ATOM     56  C   UNL A   1      42.549  30.878  36.892  1.00  0.00     0.029 A 
ATOM     57  N   UNL A   1      41.132  31.178  35.204  1.00  0.00    -0.354 N 
ATOM     58  N   UNL A   1      38.980  32.573  33.735  1.00  0.00    -0.248 NA
ATOM     59  C   UNL A   1      37.406  34.294  33.602  1.00  0.00     0.031 C 
ATOM     60  C   UNL A   1      41.745  31.987  37.178  1.00  0.00     0.029 A 
ATOM     61  C   UNL A   1      40.884  32.193  36.111  1.00  0.00     0.049 A 
ATOM     62  H   UNL A   1      40.657  31.055  34.350  1.00  0.00     0.167 HD
ATOM     63  C   UNL A   1      39.088  33.375  34.866  1.00  0.00     0.074 A 
ATOM     64  C   UNL A   1      38.115  34.439  34.712  1.00  0.00     0.031 C 
ATOM     65  C   UNL A   1      39.916  33.247  35.933  1.00  0.00     0.037 A 
BRANCH  52  66
ATOM     66  C   UNL A   1      43.729  28.376  35.639  1.00  0.00     0.058 A 
ATOM     67  C   UNL A   1      43.425  27.329  36.527  1.00  0.00     0.135 A 
ATOM     68  C   UNL A   1      45.083  28.624  35.365  1.00  0.00     0.135 A 
ATOM     69  F   UNL A   1      42.149  27.057  36.843  1.00  0.00    -0.206 F 
ATOM     70  C   UNL A   1      44.424  26.584  37.146  1.00  0.00     0.059 A 
ATOM     71  C   UNL A   1      46.098  27.869  35.946  1.00  0.00     0.059 A 
ATOM     72  F   UNL A   1      45.433  29.614  34.527  1.00  0.00    -0.206 F 
ATOM     73  C   UNL A   1      45.758  26.862  36.848  1.00  0.00     0.060 A 
BRANCH  73  74
ATOM     74  S   UNL A   1      47.041  25.884  37.658  1.00  0.00     0.124 S 
ATOM     75  O   UNL A   1      47.230  26.624  38.902  1.00  0.00    -0.237 OA
ATOM     76  O   UNL A   1      46.400  24.579  37.790  1.00  0.00    -0.237 OA
ATOM     77  O   UNL A   1      48.156  25.939  36.719  1.00  0.00    -0.744 OA
ENDBRANCH  73  74
ENDBRANCH  52  66
BRANCH  53  78
ATOM     78  C   UNL A   1      36.407  33.401  30.983  1.00  0.00     0.058 A 
ATOM     79  C   UNL A   1      36.644  34.215  29.865  1.00  0.00     0.135 A 
ATOM     80  C   UNL A   1      35.082  33.277  31.429  1.00  0.00     0.135 A 
ATOM     81  F   UNL A   1      37.894  34.369  29.400  1.00  0.00    -0.206 F 
ATOM     82  C   UNL A   1      35.613  34.895  29.226  1.00  0.00     0.059 A 
ATOM     83  C   UNL A   1      34.029  33.923  30.788  1.00  0.00     0.059 A 
ATOM     84  F   UNL A   1      34.797  32.492  32.481  1.00  0.00    -0.206 F 
ATOM     85  C   UNL A   1      34.307  34.740  29.694  1.00  0.00     0.060 A 
BRANCH  85  86
ATOM     86  S   UNL A   1      32.971  35.589  28.825  1.00  0.00     0.124 S 
ATOM     87  O   UNL A   1      33.706  36.594  28.065  1.00  0.00    -0.237 OA
ATOM     88  O   UNL A   1      32.376  34.507  28.046  1.00  0.00    -0.237 OA
ATOM     89  O   UNL A   1      32.138  36.102  29.908  1.00  0.00    -0.744 OA
ENDBRANCH  85  86
ENDBRANCH  53  78
BRANCH  65  90
ATOM     90  C   UNL A   1      39.838  34.308  36.996  1.00  0.00     0.058 A 
ATOM     91  C   UNL A   1      39.034  34.160  38.136  1.00  0.00     0.135 A 
ATOM     92  C   UNL A   1      40.614  35.473  36.888  1.00  0.00     0.135 A 
ATOM     93  F   UNL A   1      38.271  33.067  38.289  1.00  0.00    -0.206 F 
ATOM     94  C   UNL A   1      38.973  35.148  39.114  1.00  0.00     0.059 A 
ATOM     95  C   UNL A   1      40.596  36.458  37.869  1.00  0.00     0.059 A 
ATOM     96  F   UNL A   1      41.414  35.658  35.824  1.00  0.00    -0.206 F 
ATOM     97  C   UNL A   1      39.757  36.294  38.970  1.00  0.00     0.060 A 
BRANCH  97  98
ATOM     98  S   UNL A   1      39.678  37.563  40.251  1.00  0.00     0.124 S 
ATOM     99  O   UNL A   1      38.710  38.495  39.683  1.00  0.00    -0.237 OA
ATOM    100  O   UNL A   1      39.222  36.805  41.412  1.00  0.00    -0.237 OA
ATOM    101  O   UNL A   1      41.051  38.052  40.330  1.00  0.00    -0.744 OA
ENDBRANCH  97  98
ENDBRANCH  65  90
ENDBRANCH  39  40
ENDBRANCH  31  34
ENDBRANCH  29  30
ENDBRANCH  28  29
ENDBRANCH   1  28
TORSDOF 19
ENDMDL
MODEL 2
REMARK VINA RESULT:     -11.8      0.642      8.138
REMARK SMILES CC[C@@H](C)[C@H](NC(=O)C1CCN(C(=O)OC(C)(C)C)CC1)C(=O)NCCCNC(=O)c1ccc(-c2c3nc(c(-c4c(F)cc(S(=O)(=O)[O-])cc4F)c4ccc([nH]4)c(-c4c(F)cc(S(=O)(=O)[O-])cc4F)c4nc(c(-c5c(F)cc(S(=O)(=O)[O-])cc5F)c5ccc2[nH]5)C=C4)C=C3)cc1
REMARK SMILES IDX 25 1 24 2 22 3 23 4 5 6 3 7 4 8 2 9 1 10 6 11 7 12 8 14 9 15
REMARK SMILES IDX 10 16 21 17 11 18 20 19 12 20 13 21 14 22 15 23 16 24 17 25
REMARK SMILES IDX 18 26 19 27 26 28 27 29 28 30 29 31 30 33 31 34 32 35 96 36
REMARK SMILES IDX 33 37 95 38 34 39 35 40 36 41 89 42 37 43 94 44 88 45 90 46
REMARK SMILES IDX 38 47 93 48 87 49 86 50 39 52 73 53 52 54 72 55 53 56 56 57
REMARK SMILES IDX 71 58 91 59 54 60 55 61 70 63 92 64 57 65 40 66 41 67 50 68
REMARK SMILES IDX 42 69 43 70 49 71 51 72 44 73 45 74 46 75 47 76 48 77 74 78
REMARK SMILES IDX 75 79 84 80 76 81 77 82 83 83 85 84 78 85 79 86 80 87 81 88
REMARK SMILES IDX 82 89 58 90 59 91 68 92 60 93 61 94 67 95 69 96 62 97 63 98
REMARK SMILES IDX 64 99 65 100 66 101
REMARK H PARENT 24 5 6 13 28 32 90 51 56 62
REMARK Flexibility Score: inf
ROOT
ATOM      1  C   UNL A   1      36.751  22.848  25.738  1.00  0.00     0.117 C 
ENDROOT
BRANCH   1   2
ATOM      2  N   UNL A   1      35.821  22.407  26.756  1.00  0.00    -0.354 N 
ATOM      3  C   UNL A   1      34.457  22.407  26.768  1.00  0.00     0.242 C 
ATOM      4  O   UNL A   1      33.904  21.728  27.640  1.00  0.00    -0.273 OA
ATOM      5  H   UNL A   1      36.241  22.050  27.571  1.00  0.00     0.163 HD
BRANCH   3   6
ATOM      6  C   UNL A   1      33.611  23.116  25.680  1.00  0.00     0.174 C 
BRANCH   6   7
ATOM      7  C   UNL A   1      33.700  22.407  24.290  1.00  0.00     0.018 C 
ATOM      8  C   UNL A   1      34.281  23.241  23.141  1.00  0.00     0.010 C 
BRANCH   7   9
ATOM      9  C   UNL A   1      32.315  21.841  23.908  1.00  0.00     0.002 C 
ATOM     10  C   UNL A   1      32.177  21.496  22.428  1.00  0.00     0.004 C 
ENDBRANCH   7   9
ENDBRANCH   6   7
BRANCH   6  11
ATOM     11  N   UNL A   1      33.879  24.558  25.665  1.00  0.00    -0.344 N 
ATOM     12  C   UNL A   1      33.046  25.623  25.763  1.00  0.00     0.223 C 
ATOM     13  H   UNL A   1      34.830  24.793  25.567  1.00  0.00     0.164 HD
ATOM     14  O   UNL A   1      33.553  26.676  26.151  1.00  0.00    -0.275 OA
BRANCH  12  15
ATOM     15  C   UNL A   1      31.593  25.542  25.323  1.00  0.00     0.082 C 
ATOM     16  C   UNL A   1      31.532  25.480  23.788  1.00  0.00     0.035 C 
ATOM     17  C   UNL A   1      30.778  26.726  25.866  1.00  0.00     0.035 C 
ATOM     18  C   UNL A   1      31.814  26.828  23.128  1.00  0.00     0.124 C 
ATOM     19  C   UNL A   1      31.035  28.045  25.131  1.00  0.00     0.124 C 
ATOM     20  N   UNL A   1      30.964  27.868  23.686  1.00  0.00    -0.308 N 
ATOM     21  C   UNL A   1      30.272  28.704  22.825  1.00  0.00     0.410 C 
ATOM     22  O   UNL A   1      30.272  28.564  21.611  1.00  0.00    -0.224 OA
BRANCH  21  23
ATOM     23  O   UNL A   1      29.578  29.678  23.478  1.00  0.00    -0.444 OA
BRANCH  23  24
ATOM     24  C   UNL A   1      28.285  30.110  22.977  1.00  0.00     0.106 C 
ATOM     25  C   UNL A   1      27.716  31.267  23.806  1.00  0.00     0.056 C 
ATOM     26  C   UNL A   1      28.354  30.449  21.483  1.00  0.00     0.056 C 
ATOM     27  C   UNL A   1      27.359  28.894  23.150  1.00  0.00     0.056 C 
ENDBRANCH  23  24
ENDBRANCH  21  23
ENDBRANCH  12  15
ENDBRANCH   6  11
ENDBRANCH   3   6
ENDBRANCH   1   2
BRANCH   1  28
ATOM     28  C   UNL A   1      38.191  22.867  26.194  1.00  0.00     0.042 C 
BRANCH  28  29
ATOM     29  C   UNL A   1      38.674  24.260  26.538  1.00  0.00     0.118 C 
BRANCH  29  30
ATOM     30  N   UNL A   1      39.927  24.597  25.866  1.00  0.00    -0.352 N 
ATOM     31  C   UNL A   1      40.791  25.646  26.061  1.00  0.00     0.251 C 
ATOM     32  H   UNL A   1      40.196  23.969  25.158  1.00  0.00     0.163 HD
ATOM     33  O   UNL A   1      41.670  25.864  25.233  1.00  0.00    -0.269 OA
BRANCH  31  34
ATOM     34  C   UNL A   1      40.654  26.506  27.254  1.00  0.00     0.039 A 
ATOM     35  C   UNL A   1      39.933  26.043  28.357  1.00  0.00     0.014 A 
ATOM     36  C   UNL A   1      41.229  27.777  27.281  1.00  0.00     0.014 A 
ATOM     37  C   UNL A   1      39.841  26.840  29.500  1.00  0.00     0.010 A 
ATOM     38  C   UNL A   1      41.264  28.497  28.462  1.00  0.00     0.010 A 
ATOM     39  C   UNL A   1      40.533  28.061  29.572  1.00  0.00    -0.014 A 
BRANCH  39  40
ATOM     40  C   UNL A   1      40.455  28.933  30.768  1.00  0.00     0.031 A 
ATOM     41  C   UNL A   1      39.423  30.032  30.822  1.00  0.00     0.074 A 
ATOM     42  C   UNL A   1      41.341  28.776  31.771  1.00  0.00     0.049 A 
ATOM     43  N   UNL A   1      39.228  30.939  31.743  1.00  0.00    -0.248 NA
ATOM     44  C   UNL A   1      38.517  30.156  29.667  1.00  0.00     0.031 C 
ATOM     45  C   UNL A   1      42.428  27.794  31.797  1.00  0.00     0.029 A 
ATOM     46  N   UNL A   1      41.470  29.443  32.961  1.00  0.00    -0.354 N 
ATOM     47  C   UNL A   1      38.196  31.741  31.271  1.00  0.00     0.074 A 
ATOM     48  C   UNL A   1      37.863  31.272  29.947  1.00  0.00     0.031 C 
ATOM     49  C   UNL A   1      43.089  27.901  32.960  1.00  0.00     0.029 A 
ATOM     50  C   UNL A   1      42.500  28.980  33.744  1.00  0.00     0.049 A 
ATOM     51  H   UNL A   1      40.879  30.184  33.230  1.00  0.00     0.167 HD
ATOM     52  C   UNL A   1      37.553  32.752  31.900  1.00  0.00     0.037 A 
ATOM     53  C   UNL A   1      42.920  29.382  34.959  1.00  0.00     0.037 A 
ATOM     54  C   UNL A   1      37.869  33.188  33.233  1.00  0.00     0.049 A 
ATOM     55  C   UNL A   1      42.177  30.494  35.650  1.00  0.00     0.074 A 
ATOM     56  C   UNL A   1      37.250  34.165  33.991  1.00  0.00     0.029 A 
ATOM     57  N   UNL A   1      38.893  32.666  34.012  1.00  0.00    -0.354 N 
ATOM     58  N   UNL A   1      41.159  31.200  35.216  1.00  0.00    -0.248 NA
ATOM     59  C   UNL A   1      42.627  30.852  37.001  1.00  0.00     0.031 C 
ATOM     60  C   UNL A   1      37.929  34.268  35.209  1.00  0.00     0.029 A 
ATOM     61  C   UNL A   1      38.933  33.312  35.235  1.00  0.00     0.049 A 
ATOM     62  H   UNL A   1      39.502  31.944  33.734  1.00  0.00     0.167 HD
ATOM     63  C   UNL A   1      40.826  32.066  36.253  1.00  0.00     0.074 A 
ATOM     64  C   UNL A   1      41.744  31.782  37.339  1.00  0.00     0.031 C 
ATOM     65  C   UNL A   1      39.851  33.007  36.305  1.00  0.00     0.037 A 
BRANCH  52  66
ATOM     66  C   UNL A   1      36.436  33.437  31.156  1.00  0.00     0.058 A 
ATOM     67  C   UNL A   1      36.685  34.255  30.041  1.00  0.00     0.135 A 
ATOM     68  C   UNL A   1      35.100  33.264  31.551  1.00  0.00     0.135 A 
ATOM     69  F   UNL A   1      37.945  34.475  29.629  1.00  0.00    -0.206 F 
ATOM     70  C   UNL A   1      35.656  34.906  29.369  1.00  0.00     0.059 A 
ATOM     71  C   UNL A   1      34.051  33.877  30.872  1.00  0.00     0.059 A 
ATOM     72  F   UNL A   1      34.802  32.496  32.611  1.00  0.00    -0.206 F 
ATOM     73  C   UNL A   1      34.341  34.710  29.792  1.00  0.00     0.060 A 
BRANCH  73  74
ATOM     74  S   UNL A   1      33.017  35.559  28.906  1.00  0.00     0.124 S 
ATOM     75  O   UNL A   1      33.767  36.552  28.144  1.00  0.00    -0.237 OA
ATOM     76  O   UNL A   1      32.423  34.478  28.124  1.00  0.00    -0.237 OA
ATOM     77  O   UNL A   1      32.178  36.090  29.974  1.00  0.00    -0.744 OA
ENDBRANCH  73  74
ENDBRANCH  52  66
BRANCH  53  78
ATOM     78  C   UNL A   1      44.076  28.706  35.606  1.00  0.00     0.058 A 
ATOM     79  C   UNL A   1      45.390  29.143  35.383  1.00  0.00     0.135 A 
ATOM     80  C   UNL A   1      43.889  27.624  36.481  1.00  0.00     0.135 A 
ATOM     81  F   UNL A   1      45.623  30.172  34.553  1.00  0.00    -0.206 F 
ATOM     82  C   UNL A   1      46.479  28.521  35.985  1.00  0.00     0.059 A 
ATOM     83  C   UNL A   1      44.959  27.005  37.119  1.00  0.00     0.059 A 
ATOM     84  F   UNL A   1      42.650  27.181  36.747  1.00  0.00    -0.206 F 
ATOM     85  C   UNL A   1      46.252  27.454  36.855  1.00  0.00     0.060 A 
BRANCH  85  86
ATOM     86  S   UNL A   1      47.669  26.686  37.670  1.00  0.00     0.124 S 
ATOM     87  O   UNL A   1      47.042  26.077  38.838  1.00  0.00    -0.237 OA
ATOM     88  O   UNL A   1      48.146  25.762  36.647  1.00  0.00    -0.237 OA
ATOM     89  O   UNL A   1      48.551  27.815  37.946  1.00  0.00    -0.744 OA
ENDBRANCH  85  86
ENDBRANCH  53  78
BRANCH  65  90
ATOM     90  C   UNL A   1      39.696  33.768  37.593  1.00  0.00     0.058 A 
ATOM     91  C   UNL A   1      40.395  34.958  37.842  1.00  0.00     0.135 A 
ATOM     92  C   UNL A   1      38.800  33.315  38.576  1.00  0.00     0.135 A 
ATOM     93  F   UNL A   1      41.265  35.434  36.938  1.00  0.00    -0.206 F 
ATOM     94  C   UNL A   1      40.241  35.653  39.037  1.00  0.00     0.059 A 
ATOM     95  C   UNL A   1      38.604  34.012  39.763  1.00  0.00     0.059 A 
ATOM     96  F   UNL A   1      38.093  32.189  38.382  1.00  0.00    -0.206 F 
ATOM     97  C   UNL A   1      39.344  35.171  39.992  1.00  0.00     0.060 A 
BRANCH  97  98
ATOM     98  S   UNL A   1      39.143  36.089  41.533  1.00  0.00     0.124 S 
ATOM     99  O   UNL A   1      39.069  37.463  41.048  1.00  0.00    -0.237 OA
ATOM    100  O   UNL A   1      37.902  35.537  42.065  1.00  0.00    -0.237 OA
ATOM    101  O   UNL A   1      40.346  35.753  42.288  1.00  0.00    -0.744 OA
ENDBRANCH  97  98
ENDBRANCH  65  90
ENDBRANCH  39  40
ENDBRANCH  31  34
ENDBRANCH  29  30
ENDBRANCH  28  29
ENDBRANCH   1  28
TORSDOF 19
ENDMDL
MODEL 3
REMARK VINA RESULT:     -11.0      4.997      6.173
REMARK SMILES CC[C@@H](C)[C@H](NC(=O)C1CCN(C(=O)OC(C)(C)C)CC1)C(=O)NCCCNC(=O)c1ccc(-c2c3nc(c(-c4c(F)cc(S(=O)(=O)[O-])cc4F)c4ccc([nH]4)c(-c4c(F)cc(S(=O)(=O)[O-])cc4F)c4nc(c(-c5c(F)cc(S(=O)(=O)[O-])cc5F)c5ccc2[nH]5)C=C4)C=C3)cc1
REMARK SMILES IDX 25 1 24 2 22 3 23 4 5 6 3 7 4 8 2 9 1 10 6 11 7 12 8 14 9 15
REMARK SMILES IDX 10 16 21 17 11 18 20 19 12 20 13 21 14 22 15 23 16 24 17 25
REMARK SMILES IDX 18 26 19 27 26 28 27 29 28 30 29 31 30 33 31 34 32 35 96 36
REMARK SMILES IDX 33 37 95 38 34 39 35 40 36 41 89 42 37 43 94 44 88 45 90 46
REMARK SMILES IDX 38 47 93 48 87 49 86 50 39 52 73 53 52 54 72 55 53 56 56 57
REMARK SMILES IDX 71 58 91 59 54 60 55 61 70 63 92 64 57 65 40 66 41 67 50 68
REMARK SMILES IDX 42 69 43 70 49 71 51 72 44 73 45 74 46 75 47 76 48 77 74 78
REMARK SMILES IDX 75 79 84 80 76 81 77 82 83 83 85 84 78 85 79 86 80 87 81 88
REMARK SMILES IDX 82 89 58 90 59 91 68 92 60 93 61 94 67 95 69 96 62 97 63 98
REMARK SMILES IDX 64 99 65 100 66 101
REMARK H PARENT 24 5 6 13 28 32 90 51 56 62
REMARK Flexibility Score: inf
ROOT
ATOM      1  C   UNL A   1      35.677  21.695  25.833  1.00  0.00     0.117 C 
ENDROOT
BRANCH   1   2
ATOM      2  N   UNL A   1      34.755  22.046  26.892  1.00  0.00    -0.354 N 
ATOM      3  C   UNL A   1      33.496  22.568  26.833  1.00  0.00     0.242 C 
ATOM      4  O   UNL A   1      32.820  22.519  27.866  1.00  0.00    -0.273 OA
ATOM      5  H   UNL A   1      35.091  21.881  27.802  1.00  0.00     0.163 HD
BRANCH   3   6
ATOM      6  C   UNL A   1      32.870  23.094  25.515  1.00  0.00     0.174 C 
BRANCH   6   7
ATOM      7  C   UNL A   1      32.943  22.049  24.355  1.00  0.00     0.018 C 
ATOM      8  C   UNL A   1      32.555  22.559  22.961  1.00  0.00     0.010 C 
BRANCH   7   9
ATOM      9  C   UNL A   1      32.116  20.801  24.729  1.00  0.00     0.002 C 
ATOM     10  C   UNL A   1      32.875  19.488  24.566  1.00  0.00     0.004 C 
ENDBRANCH   7   9
ENDBRANCH   6   7
BRANCH   6  11
ATOM     11  N   UNL A   1      33.382  24.429  25.189  1.00  0.00    -0.344 N 
ATOM     12  C   UNL A   1      32.739  25.597  24.945  1.00  0.00     0.223 C 
ATOM     13  H   UNL A   1      34.364  24.486  25.139  1.00  0.00     0.164 HD
ATOM     14  O   UNL A   1      33.393  26.625  25.125  1.00  0.00    -0.275 OA
BRANCH  12  15
ATOM     15  C   UNL A   1      31.326  25.628  24.386  1.00  0.00     0.082 C 
ATOM     16  C   UNL A   1      31.386  25.890  22.872  1.00  0.00     0.035 C 
ATOM     17  C   UNL A   1      30.466  26.681  25.101  1.00  0.00     0.035 C 
ATOM     18  C   UNL A   1      31.713  27.343  22.533  1.00  0.00     0.124 C 
ATOM     19  C   UNL A   1      30.775  28.122  24.681  1.00  0.00     0.124 C 
ATOM     20  N   UNL A   1      30.817  28.253  23.230  1.00  0.00    -0.308 N 
ATOM     21  C   UNL A   1      30.192  29.259  22.512  1.00  0.00     0.410 C 
ATOM     22  O   UNL A   1      30.288  29.376  21.300  1.00  0.00    -0.224 OA
BRANCH  21  23
ATOM     23  O   UNL A   1      29.445  30.083  23.299  1.00  0.00    -0.444 OA
BRANCH  23  24
ATOM     24  C   UNL A   1      28.043  30.308  22.992  1.00  0.00     0.106 C 
ATOM     25  C   UNL A   1      27.236  29.006  23.049  1.00  0.00     0.056 C 
ATOM     26  C   UNL A   1      27.447  31.397  23.893  1.00  0.00     0.056 C 
ATOM     27  C   UNL A   1      28.025  30.823  21.543  1.00  0.00     0.056 C 
ENDBRANCH  23  24
ENDBRANCH  21  23
ENDBRANCH  12  15
ENDBRANCH   6  11
ENDBRANCH   3   6
ENDBRANCH   1   2
BRANCH   1  28
ATOM     28  C   UNL A   1      36.324  22.887  25.167  1.00  0.00     0.042 C 
BRANCH  28  29
ATOM     29  C   UNL A   1      37.475  23.450  25.973  1.00  0.00     0.118 C 
BRANCH  29  30
ATOM     30  N   UNL A   1      38.451  22.427  26.341  1.00  0.00    -0.352 N 
ATOM     31  C   UNL A   1      39.761  22.543  26.736  1.00  0.00     0.251 C 
ATOM     32  H   UNL A   1      38.115  21.503  26.297  1.00  0.00     0.163 HD
ATOM     33  O   UNL A   1      40.468  21.541  26.778  1.00  0.00    -0.269 OA
BRANCH  31  34
ATOM     34  C   UNL A   1      40.311  23.865  27.099  1.00  0.00     0.039 A 
ATOM     35  C   UNL A   1      40.076  24.960  26.264  1.00  0.00     0.014 A 
ATOM     36  C   UNL A   1      41.071  24.022  28.258  1.00  0.00     0.014 A 
ATOM     37  C   UNL A   1      40.561  26.217  26.630  1.00  0.00     0.010 A 
ATOM     38  C   UNL A   1      41.419  25.289  28.692  1.00  0.00     0.010 A 
ATOM     39  C   UNL A   1      41.209  26.397  27.864  1.00  0.00    -0.014 A 
BRANCH  39  40
ATOM     40  C   UNL A   1      41.739  27.716  28.283  1.00  0.00     0.031 A 
ATOM     41  C   UNL A   1      43.221  27.983  28.201  1.00  0.00     0.074 A 
ATOM     42  C   UNL A   1      40.902  28.646  28.785  1.00  0.00     0.049 A 
ATOM     43  N   UNL A   1      43.892  29.042  28.573  1.00  0.00    -0.248 NA
ATOM     44  C   UNL A   1      44.068  26.899  27.673  1.00  0.00     0.031 C 
ATOM     45  C   UNL A   1      39.461  28.473  28.979  1.00  0.00     0.029 A 
ATOM     46  N   UNL A   1      41.146  29.919  29.230  1.00  0.00    -0.354 N 
ATOM     47  C   UNL A   1      45.229  28.743  28.338  1.00  0.00     0.074 A 
ATOM     48  C   UNL A   1      45.286  27.377  27.875  1.00  0.00     0.031 C 
ATOM     49  C   UNL A   1      38.944  29.611  29.468  1.00  0.00     0.029 A 
ATOM     50  C   UNL A   1      40.019  30.578  29.661  1.00  0.00     0.049 A 
ATOM     51  H   UNL A   1      42.044  30.324  29.239  1.00  0.00     0.167 HD
ATOM     52  C   UNL A   1      46.311  29.548  28.455  1.00  0.00     0.037 A 
ATOM     53  C   UNL A   1      39.872  31.821  30.154  1.00  0.00     0.037 A 
ATOM     54  C   UNL A   1      46.239  30.919  28.883  1.00  0.00     0.049 A 
ATOM     55  C   UNL A   1      41.085  32.708  30.256  1.00  0.00     0.074 A 
ATOM     56  C   UNL A   1      47.262  31.844  28.989  1.00  0.00     0.029 A 
ATOM     57  N   UNL A   1      45.073  31.564  29.271  1.00  0.00    -0.354 N 
ATOM     58  N   UNL A   1      42.335  32.431  29.967  1.00  0.00    -0.248 NA
ATOM     59  C   UNL A   1      40.866  34.078  30.735  1.00  0.00     0.031 C 
ATOM     60  C   UNL A   1      46.722  33.034  29.486  1.00  0.00     0.029 A 
ATOM     61  C   UNL A   1      45.353  32.871  29.632  1.00  0.00     0.049 A 
ATOM     62  H   UNL A   1      44.179  31.153  29.289  1.00  0.00     0.167 HD
ATOM     63  C   UNL A   1      43.047  33.603  30.199  1.00  0.00     0.074 A 
ATOM     64  C   UNL A   1      42.084  34.593  30.638  1.00  0.00     0.031 C 
ATOM     65  C   UNL A   1      44.376  33.841  30.059  1.00  0.00     0.037 A 
BRANCH  52  66
ATOM     66  C   UNL A   1      47.654  28.967  28.099  1.00  0.00     0.058 A 
ATOM     67  C   UNL A   1      48.538  28.492  29.083  1.00  0.00     0.135 A 
ATOM     68  C   UNL A   1      48.059  28.868  26.758  1.00  0.00     0.135 A 
ATOM     69  F   UNL A   1      48.214  28.578  30.384  1.00  0.00    -0.206 F 
ATOM     70  C   UNL A   1      49.788  27.976  28.755  1.00  0.00     0.059 A 
ATOM     71  C   UNL A   1      49.291  28.323  26.404  1.00  0.00     0.059 A 
ATOM     72  F   UNL A   1      47.258  29.308  25.775  1.00  0.00    -0.206 F 
ATOM     73  C   UNL A   1      50.155  27.896  27.412  1.00  0.00     0.060 A 
BRANCH  73  74
ATOM     74  S   UNL A   1      51.778  27.220  27.004  1.00  0.00     0.124 S 
ATOM     75  O   UNL A   1      51.416  25.974  26.335  1.00  0.00    -0.237 OA
ATOM     76  O   UNL A   1      52.340  28.259  26.145  1.00  0.00    -0.237 OA
ATOM     77  O   UNL A   1      52.422  27.071  28.304  1.00  0.00    -0.744 OA
ENDBRANCH  73  74
ENDBRANCH  52  66
BRANCH  53  78
ATOM     78  C   UNL A   1      38.524  32.308  30.553  1.00  0.00     0.058 A 
ATOM     79  C   UNL A   1      38.002  32.036  31.827  1.00  0.00     0.135 A 
ATOM     80  C   UNL A   1      37.740  33.075  29.678  1.00  0.00     0.135 A 
ATOM     81  F   UNL A   1      38.712  31.305  32.700  1.00  0.00    -0.206 F 
ATOM     82  C   UNL A   1      36.744  32.488  32.212  1.00  0.00     0.059 A 
ATOM     83  C   UNL A   1      36.492  33.564  30.050  1.00  0.00     0.059 A 
ATOM     84  F   UNL A   1      38.202  33.383  28.455  1.00  0.00    -0.206 F 
ATOM     85  C   UNL A   1      35.998  33.255  31.316  1.00  0.00     0.060 A 
BRANCH  85  86
ATOM     86  S   UNL A   1      34.388  33.879  31.845  1.00  0.00     0.124 S 
ATOM     87  O   UNL A   1      33.827  32.712  32.517  1.00  0.00    -0.237 OA
ATOM     88  O   UNL A   1      34.761  34.995  32.709  1.00  0.00    -0.237 OA
ATOM     89  O   UNL A   1      33.743  34.255  30.591  1.00  0.00    -0.744 OA
ENDBRANCH  85  86
ENDBRANCH  53  78
BRANCH  65  90
ATOM     90  C   UNL A   1      44.858  35.237  30.341  1.00  0.00     0.058 A 
ATOM     91  C   UNL A   1      45.313  35.625  31.610  1.00  0.00     0.135 A 
ATOM     92  C   UNL A   1      44.903  36.190  29.309  1.00  0.00     0.135 A 
ATOM     93  F   UNL A   1      45.290  34.755  32.632  1.00  0.00    -0.206 F 
ATOM     94  C   UNL A   1      45.759  36.919  31.857  1.00  0.00     0.059 A 
ATOM     95  C   UNL A   1      45.378  37.479  29.524  1.00  0.00     0.059 A 
ATOM     96  F   UNL A   1      44.495  35.867  28.071  1.00  0.00    -0.206 F 
ATOM     97  C   UNL A   1      45.786  37.839  30.807  1.00  0.00     0.060 A 
BRANCH  97  98
ATOM     98  S   UNL A   1      46.379  39.512  31.137  1.00  0.00     0.124 S 
ATOM     99  O   UNL A   1      46.861  39.387  32.509  1.00  0.00    -0.237 OA
ATOM    100  O   UNL A   1      47.409  39.684  30.117  1.00  0.00    -0.237 OA
ATOM    101  O   UNL A   1      45.188  40.336  30.962  1.00  0.00    -0.744 OA
ENDBRANCH  97  98
ENDBRANCH  65  90
ENDBRANCH  39  40
ENDBRANCH  31  34
ENDBRANCH  29  30
ENDBRANCH  28  29
ENDBRANCH   1  28
TORSDOF 19
ENDMDL
