MODEL 1
REMARK VINA RESULT:     -12.1      0.000      0.000
REMARK SMILES CCc1ccc(C(=O)NCc2ccc(C(=O)NCCCNC(=O)c3ccc(-c4c5nc(c(-c6c(F)cc(S(=O)(=O)[O-])cc6F)c6ccc([nH]6)c(-c6c(F)cc(S(=O)(=O)[O-])cc6F)c6nc(c(-c7c(F)cc(S(=O)(=O)[O-])cc7F)c7ccc4[nH]7)C=C6)C=C5)cc3)o2)cc1
REMARK SMILES IDX 18 1 17 2 15 3 16 4 14 6 11 7 12 8 90 9 13 10 10 11 9 12
REMARK SMILES IDX 7 13 8 14 6 16 3 17 4 18 92 19 5 20 91 21 2 22 1 23 19 24
REMARK SMILES IDX 20 25 21 26 22 27 23 29 24 30 25 31 89 32 26 33 88 34 27 35
REMARK SMILES IDX 28 36 29 37 82 38 30 39 87 40 81 41 83 42 31 43 86 44 80 45
REMARK SMILES IDX 79 46 32 48 66 49 45 50 65 51 46 52 49 53 64 54 84 55 47 56
REMARK SMILES IDX 48 57 63 59 85 60 50 61 33 62 34 63 43 64 35 65 36 66 42 67
REMARK SMILES IDX 44 68 37 69 38 70 39 71 40 72 41 73 67 74 68 75 77 76 69 77
REMARK SMILES IDX 70 78 76 79 78 80 71 81 72 82 73 83 74 84 75 85 51 86 52 87
REMARK SMILES IDX 61 88 53 89 54 90 60 91 62 92 55 93 56 94 57 95 58 96 59 97
REMARK H PARENT 17 5 9 15 21 28 83 47 49 58
REMARK Flexibility Score: inf
ROOT
ATOM      1  C   UNL A   1      36.122  23.438  25.665  1.00  0.00     0.118 C 
ENDROOT
BRANCH   1   2
ATOM      2  N   UNL A   1      35.338  22.737  26.660  1.00  0.00    -0.349 N 
ATOM      3  C   UNL A   1      34.170  22.023  26.555  1.00  0.00     0.286 C 
ATOM      4  O   UNL A   1      33.804  21.441  27.584  1.00  0.00    -0.266 OA
ATOM      5  H   UNL A   1      35.706  22.780  27.573  1.00  0.00     0.163 HD
BRANCH   3   6
ATOM      6  C   UNL A   1      33.437  21.944  25.307  1.00  0.00     0.191 A 
ATOM      7  C   UNL A   1      32.101  22.809  23.760  1.00  0.00     0.124 A 
ATOM      8  C   UNL A   1      32.423  21.540  23.334  1.00  0.00     0.048 A 
ATOM      9  O   UNL A   1      32.699  23.049  24.960  1.00  0.00    -0.454 OA
ATOM     10  C   UNL A   1      33.305  21.004  24.301  1.00  0.00     0.056 A 
BRANCH   7  11
ATOM     11  C   UNL A   1      31.324  23.938  23.190  1.00  0.00     0.191 C 
BRANCH  11  12
ATOM     12  N   UNL A   1      32.179  24.655  22.268  1.00  0.00    -0.345 N 
ATOM     13  C   UNL A   1      32.966  25.767  22.347  1.00  0.00     0.251 C 
ATOM     14  O   UNL A   1      33.599  26.058  21.328  1.00  0.00    -0.269 OA
ATOM     15  H   UNL A   1      32.195  24.245  21.374  1.00  0.00     0.164 HD
BRANCH  13  16
ATOM     16  C   UNL A   1      33.127  26.635  23.556  1.00  0.00     0.039 A 
ATOM     17  C   UNL A   1      33.595  28.115  25.932  1.00  0.00    -0.048 A 
ATOM     18  C   UNL A   1      33.983  26.777  25.846  1.00  0.00     0.004 A 
ATOM     19  C   UNL A   1      32.983  28.707  24.827  1.00  0.00     0.004 A 
ATOM     20  C   UNL A   1      33.756  26.052  24.670  1.00  0.00     0.014 A 
ATOM     21  C   UNL A   1      32.752  27.975  23.658  1.00  0.00     0.014 A 
BRANCH  17  22
ATOM     22  C   UNL A   1      33.801  28.908  27.195  1.00  0.00     0.032 C 
ATOM     23  C   UNL A   1      35.236  29.402  27.309  1.00  0.00     0.009 C 
ENDBRANCH  17  22
ENDBRANCH  13  16
ENDBRANCH  11  12
ENDBRANCH   7  11
ENDBRANCH   3   6
ENDBRANCH   1   2
BRANCH   1  24
ATOM     24  C   UNL A   1      37.595  23.049  25.730  1.00  0.00     0.042 C 
BRANCH  24  25
ATOM     25  C   UNL A   1      38.463  24.114  26.399  1.00  0.00     0.118 C 
BRANCH  25  26
ATOM     26  N   UNL A   1      39.885  23.872  26.183  1.00  0.00    -0.352 N 
ATOM     27  C   UNL A   1      40.979  24.599  26.575  1.00  0.00     0.251 C 
ATOM     28  H   UNL A   1      40.092  23.058  25.672  1.00  0.00     0.163 HD
ATOM     29  O   UNL A   1      42.072  24.357  26.069  1.00  0.00    -0.269 OA
BRANCH  27  30
ATOM     30  C   UNL A   1      40.852  25.661  27.595  1.00  0.00     0.039 A 
ATOM     31  C   UNL A   1      39.807  25.587  28.522  1.00  0.00     0.014 A 
ATOM     32  C   UNL A   1      41.727  26.750  27.614  1.00  0.00     0.014 A 
ATOM     33  C   UNL A   1      39.677  26.574  29.499  1.00  0.00     0.010 A 
ATOM     34  C   UNL A   1      41.643  27.690  28.637  1.00  0.00     0.010 A 
ATOM     35  C   UNL A   1      40.614  27.617  29.585  1.00  0.00    -0.014 A 
BRANCH  35  36
ATOM     36  C   UNL A   1      40.537  28.634  30.665  1.00  0.00     0.031 A 
ATOM     37  C   UNL A   1      41.434  28.533  31.869  1.00  0.00     0.074 A 
ATOM     38  C   UNL A   1      39.609  29.610  30.589  1.00  0.00     0.049 A 
ATOM     39  N   UNL A   1      41.462  29.280  32.941  1.00  0.00    -0.248 NA
ATOM     40  C   UNL A   1      42.410  27.431  31.881  1.00  0.00     0.031 C 
ATOM     41  C   UNL A   1      38.648  29.778  29.495  1.00  0.00     0.029 A 
ATOM     42  N   UNL A   1      39.310  30.634  31.451  1.00  0.00    -0.354 N 
ATOM     43  C   UNL A   1      42.441  28.732  33.761  1.00  0.00     0.074 A 
ATOM     44  C   UNL A   1      42.949  27.560  33.085  1.00  0.00     0.031 C 
ATOM     45  C   UNL A   1      37.881  30.851  29.744  1.00  0.00     0.029 A 
ATOM     46  C   UNL A   1      38.265  31.422  31.032  1.00  0.00     0.049 A 
ATOM     47  H   UNL A   1      39.800  30.790  32.291  1.00  0.00     0.167 HD
ATOM     48  C   UNL A   1      42.889  29.179  34.959  1.00  0.00     0.037 A 
ATOM     49  C   UNL A   1      37.670  32.477  31.623  1.00  0.00     0.037 A 
ATOM     50  C   UNL A   1      42.392  30.363  35.612  1.00  0.00     0.049 A 
ATOM     51  C   UNL A   1      38.188  32.956  32.951  1.00  0.00     0.074 A 
ATOM     52  C   UNL A   1      42.824  30.937  36.794  1.00  0.00     0.029 A 
ATOM     53  N   UNL A   1      41.350  31.150  35.143  1.00  0.00    -0.354 N 
ATOM     54  N   UNL A   1      39.163  32.467  33.679  1.00  0.00    -0.248 NA
ATOM     55  C   UNL A   1      37.533  34.135  33.534  1.00  0.00     0.031 C 
ATOM     56  C   UNL A   1      42.007  32.039  37.068  1.00  0.00     0.029 A 
ATOM     57  C   UNL A   1      41.107  32.190  36.026  1.00  0.00     0.049 A 
ATOM     58  H   UNL A   1      40.855  30.992  34.306  1.00  0.00     0.167 HD
ATOM     59  C   UNL A   1      39.257  33.293  34.794  1.00  0.00     0.074 A 
ATOM     60  C   UNL A   1      38.248  34.321  34.636  1.00  0.00     0.031 C 
ATOM     61  C   UNL A   1      40.101  33.209  35.852  1.00  0.00     0.037 A 
BRANCH  48  62
ATOM     62  C   UNL A   1      43.971  28.389  35.646  1.00  0.00     0.058 A 
ATOM     63  C   UNL A   1      45.332  28.615  35.384  1.00  0.00     0.135 A 
ATOM     64  C   UNL A   1      43.646  27.426  36.615  1.00  0.00     0.135 A 
ATOM     65  F   UNL A   1      45.704  29.511  34.455  1.00  0.00    -0.206 F 
ATOM     66  C   UNL A   1      46.329  27.900  36.039  1.00  0.00     0.059 A 
ATOM     67  C   UNL A   1      44.627  26.720  37.306  1.00  0.00     0.059 A 
ATOM     68  F   UNL A   1      42.360  27.168  36.905  1.00  0.00    -0.206 F 
ATOM     69  C   UNL A   1      45.966  26.956  37.002  1.00  0.00     0.060 A 
BRANCH  69  70
ATOM     70  S   UNL A   1      47.274  26.051  37.856  1.00  0.00     0.124 S 
ATOM     71  O   UNL A   1      47.461  26.868  39.051  1.00  0.00    -0.237 OA
ATOM     72  O   UNL A   1      46.658  24.746  38.072  1.00  0.00    -0.237 OA
ATOM     73  O   UNL A   1      48.380  26.069  36.903  1.00  0.00    -0.744 OA
ENDBRANCH  69  70
ENDBRANCH  48  62
BRANCH  49  74
ATOM     74  C   UNL A   1      36.528  33.155  30.951  1.00  0.00     0.058 A 
ATOM     75  C   UNL A   1      35.227  33.068  31.468  1.00  0.00     0.135 A 
ATOM     76  C   UNL A   1      36.721  33.924  29.792  1.00  0.00     0.135 A 
ATOM     77  F   UNL A   1      34.992  32.341  32.571  1.00  0.00    -0.206 F 
ATOM     78  C   UNL A   1      34.155  33.707  30.855  1.00  0.00     0.059 A 
ATOM     79  C   UNL A   1      35.668  34.594  29.176  1.00  0.00     0.059 A 
ATOM     80  F   UNL A   1      37.949  34.055  29.267  1.00  0.00    -0.206 F 
ATOM     81  C   UNL A   1      34.386  34.473  29.711  1.00  0.00     0.060 A 
BRANCH  81  82
ATOM     82  S   UNL A   1      32.997  35.344  28.956  1.00  0.00     0.124 S 
ATOM     83  O   UNL A   1      33.648  36.537  28.429  1.00  0.00    -0.237 OA
ATOM     84  O   UNL A   1      32.532  34.377  27.965  1.00  0.00    -0.237 OA
ATOM     85  O   UNL A   1      32.089  35.563  30.078  1.00  0.00    -0.744 OA
ENDBRANCH  81  82
ENDBRANCH  49  74
BRANCH  61  86
ATOM     86  C   UNL A   1      39.999  34.276  36.908  1.00  0.00     0.058 A 
ATOM     87  C   UNL A   1      40.762  35.452  36.851  1.00  0.00     0.135 A 
ATOM     88  C   UNL A   1      39.082  34.141  37.964  1.00  0.00     0.135 A 
ATOM     89  F   UNL A   1      41.659  35.629  35.867  1.00  0.00    -0.206 F 
ATOM     90  C   UNL A   1      40.638  36.446  37.816  1.00  0.00     0.059 A 
ATOM     91  C   UNL A   1      38.918  35.135  38.922  1.00  0.00     0.059 A 
ATOM     92  F   UNL A   1      38.319  33.040  38.061  1.00  0.00    -0.206 F 
ATOM     93  C   UNL A   1      39.710  36.279  38.846  1.00  0.00     0.060 A 
BRANCH  93  94
ATOM     94  S   UNL A   1      39.536  37.593  40.072  1.00  0.00     0.124 S 
ATOM     95  O   UNL A   1      38.420  38.359  39.527  1.00  0.00    -0.237 OA
ATOM     96  O   UNL A   1      39.254  36.844  41.293  1.00  0.00    -0.237 OA
ATOM     97  O   UNL A   1      40.833  38.262  40.041  1.00  0.00    -0.744 OA
ENDBRANCH  93  94
ENDBRANCH  61  86
ENDBRANCH  35  36
ENDBRANCH  27  30
ENDBRANCH  25  26
ENDBRANCH  24  25
ENDBRANCH   1  24
TORSDOF 17
ENDMDL
MODEL 2
REMARK VINA RESULT:     -11.9      6.517     11.915
REMARK SMILES CCc1ccc(C(=O)NCc2ccc(C(=O)NCCCNC(=O)c3ccc(-c4c5nc(c(-c6c(F)cc(S(=O)(=O)[O-])cc6F)c6ccc([nH]6)c(-c6c(F)cc(S(=O)(=O)[O-])cc6F)c6nc(c(-c7c(F)cc(S(=O)(=O)[O-])cc7F)c7ccc4[nH]7)C=C6)C=C5)cc3)o2)cc1
REMARK SMILES IDX 18 1 17 2 15 3 16 4 14 6 11 7 12 8 90 9 13 10 10 11 9 12
REMARK SMILES IDX 7 13 8 14 6 16 3 17 4 18 92 19 5 20 91 21 2 22 1 23 19 24
REMARK SMILES IDX 20 25 21 26 22 27 23 29 24 30 25 31 89 32 26 33 88 34 27 35
REMARK SMILES IDX 28 36 29 37 82 38 30 39 87 40 81 41 83 42 31 43 86 44 80 45
REMARK SMILES IDX 79 46 32 48 66 49 45 50 65 51 46 52 49 53 64 54 84 55 47 56
REMARK SMILES IDX 48 57 63 59 85 60 50 61 33 62 34 63 43 64 35 65 36 66 42 67
REMARK SMILES IDX 44 68 37 69 38 70 39 71 40 72 41 73 67 74 68 75 77 76 69 77
REMARK SMILES IDX 70 78 76 79 78 80 71 81 72 82 73 83 74 84 75 85 51 86 52 87
REMARK SMILES IDX 61 88 53 89 54 90 60 91 62 92 55 93 56 94 57 95 58 96 59 97
REMARK H PARENT 17 5 9 15 21 28 83 47 49 58
REMARK Flexibility Score: inf
ROOT
ATOM      1  C   UNL A   1      34.069  29.837  27.026  1.00  0.00     0.118 C 
ENDROOT
BRANCH   1   2
ATOM      2  N   UNL A   1      32.993  29.134  27.693  1.00  0.00    -0.349 N 
ATOM      3  C   UNL A   1      31.851  28.551  27.203  1.00  0.00     0.286 C 
ATOM      4  O   UNL A   1      31.176  27.921  28.027  1.00  0.00    -0.266 OA
ATOM      5  H   UNL A   1      33.099  29.061  28.670  1.00  0.00     0.163 HD
BRANCH   3   6
ATOM      6  C   UNL A   1      31.486  28.652  25.804  1.00  0.00     0.191 A 
ATOM      7  C   UNL A   1      30.890  27.755  23.863  1.00  0.00     0.124 A 
ATOM      8  C   UNL A   1      30.936  29.117  23.667  1.00  0.00     0.048 A 
ATOM      9  O   UNL A   1      31.238  27.471  25.149  1.00  0.00    -0.454 OA
ATOM     10  C   UNL A   1      31.279  29.690  24.914  1.00  0.00     0.056 A 
BRANCH   7  11
ATOM     11  C   UNL A   1      30.504  26.590  23.027  1.00  0.00     0.191 C 
BRANCH  11  12
ATOM     12  N   UNL A   1      31.476  26.455  21.964  1.00  0.00    -0.345 N 
ATOM     13  C   UNL A   1      32.672  25.811  21.825  1.00  0.00     0.251 C 
ATOM     14  O   UNL A   1      33.208  25.896  20.716  1.00  0.00    -0.269 OA
ATOM     15  H   UNL A   1      31.213  26.942  21.150  1.00  0.00     0.164 HD
BRANCH  13  16
ATOM     16  C   UNL A   1      33.361  25.016  22.889  1.00  0.00     0.039 A 
ATOM     17  C   UNL A   1      34.737  23.350  24.730  1.00  0.00    -0.048 A 
ATOM     18  C   UNL A   1      34.407  22.877  23.459  1.00  0.00     0.004 A 
ATOM     19  C   UNL A   1      34.384  24.657  25.070  1.00  0.00     0.004 A 
ATOM     20  C   UNL A   1      33.733  23.703  22.551  1.00  0.00     0.014 A 
ATOM     21  C   UNL A   1      33.704  25.475  24.160  1.00  0.00     0.014 A 
BRANCH  17  22
ATOM     22  C   UNL A   1      35.434  22.472  25.734  1.00  0.00     0.032 C 
ATOM     23  C   UNL A   1      34.756  22.543  27.095  1.00  0.00     0.009 C 
ENDBRANCH  17  22
ENDBRANCH  13  16
ENDBRANCH  11  12
ENDBRANCH   7  11
ENDBRANCH   3   6
ENDBRANCH   1   2
BRANCH   1  24
ATOM     24  C   UNL A   1      34.293  31.223  27.622  1.00  0.00     0.042 C 
BRANCH  24  25
ATOM     25  C   UNL A   1      35.664  31.374  28.279  1.00  0.00     0.118 C 
BRANCH  25  26
ATOM     26  N   UNL A   1      35.585  31.274  29.732  1.00  0.00    -0.352 N 
ATOM     27  C   UNL A   1      36.405  30.632  30.624  1.00  0.00     0.251 C 
ATOM     28  H   UNL A   1      34.819  31.740  30.138  1.00  0.00     0.163 HD
ATOM     29  O   UNL A   1      36.016  30.456  31.775  1.00  0.00    -0.269 OA
BRANCH  27  30
ATOM     30  C   UNL A   1      37.742  30.157  30.210  1.00  0.00     0.039 A 
ATOM     31  C   UNL A   1      38.056  30.126  28.848  1.00  0.00     0.014 A 
ATOM     32  C   UNL A   1      38.667  29.700  31.152  1.00  0.00     0.014 A 
ATOM     33  C   UNL A   1      39.317  29.691  28.438  1.00  0.00     0.010 A 
ATOM     34  C   UNL A   1      39.950  29.343  30.748  1.00  0.00     0.010 A 
ATOM     35  C   UNL A   1      40.287  29.328  29.387  1.00  0.00    -0.014 A 
BRANCH  35  36
ATOM     36  C   UNL A   1      41.659  28.935  28.975  1.00  0.00     0.031 A 
ATOM     37  C   UNL A   1      42.758  29.962  28.918  1.00  0.00     0.074 A 
ATOM     38  C   UNL A   1      41.895  27.666  28.587  1.00  0.00     0.049 A 
ATOM     39  N   UNL A   1      43.994  29.827  28.515  1.00  0.00    -0.248 NA
ATOM     40  C   UNL A   1      42.414  31.329  29.345  1.00  0.00     0.031 C 
ATOM     41  C   UNL A   1      40.896  26.594  28.549  1.00  0.00     0.029 A 
ATOM     42  N   UNL A   1      43.043  27.063  28.137  1.00  0.00    -0.354 N 
ATOM     43  C   UNL A   1      44.570  31.087  28.622  1.00  0.00     0.074 A 
ATOM     44  C   UNL A   1      43.534  31.986  29.081  1.00  0.00     0.031 C 
ATOM     45  C   UNL A   1      41.479  25.464  28.119  1.00  0.00     0.029 A 
ATOM     46  C   UNL A   1      42.879  25.738  27.809  1.00  0.00     0.049 A 
ATOM     47  H   UNL A   1      43.903  27.536  28.056  1.00  0.00     0.167 HD
ATOM     48  C   UNL A   1      45.851  31.454  28.380  1.00  0.00     0.037 A 
ATOM     49  C   UNL A   1      43.752  24.846  27.303  1.00  0.00     0.037 A 
ATOM     50  C   UNL A   1      46.880  30.545  27.947  1.00  0.00     0.049 A 
ATOM     51  C   UNL A   1      45.170  25.278  27.047  1.00  0.00     0.074 A 
ATOM     52  C   UNL A   1      48.223  30.804  27.738  1.00  0.00     0.029 A 
ATOM     53  N   UNL A   1      46.681  29.204  27.651  1.00  0.00    -0.354 N 
ATOM     54  N   UNL A   1      45.715  26.458  27.222  1.00  0.00    -0.248 NA
ATOM     55  C   UNL A   1      46.094  24.257  26.534  1.00  0.00     0.031 C 
ATOM     56  C   UNL A   1      48.824  29.634  27.263  1.00  0.00     0.029 A 
ATOM     57  C   UNL A   1      47.871  28.629  27.236  1.00  0.00     0.049 A 
ATOM     58  H   UNL A   1      45.821  28.730  27.725  1.00  0.00     0.167 HD
ATOM     59  C   UNL A   1      47.052  26.316  26.865  1.00  0.00     0.074 A 
ATOM     60  C   UNL A   1      47.234  24.931  26.479  1.00  0.00     0.031 C 
ATOM     61  C   UNL A   1      48.038  27.246  26.859  1.00  0.00     0.037 A 
BRANCH  48  62
ATOM     62  C   UNL A   1      46.217  32.902  28.577  1.00  0.00     0.058 A 
ATOM     63  C   UNL A   1      46.677  33.387  29.812  1.00  0.00     0.135 A 
ATOM     64  C   UNL A   1      46.154  33.806  27.504  1.00  0.00     0.135 A 
ATOM     65  F   UNL A   1      46.743  32.574  30.878  1.00  0.00    -0.206 F 
ATOM     66  C   UNL A   1      47.038  34.720  29.982  1.00  0.00     0.059 A 
ATOM     67  C   UNL A   1      46.539  35.136  27.643  1.00  0.00     0.059 A 
ATOM     68  F   UNL A   1      45.720  33.397  26.301  1.00  0.00    -0.206 F 
ATOM     69  C   UNL A   1      46.969  35.587  28.890  1.00  0.00     0.060 A 
BRANCH  69  70
ATOM     70  S   UNL A   1      47.459  37.308  29.124  1.00  0.00     0.124 S 
ATOM     71  O   UNL A   1      48.043  37.624  27.824  1.00  0.00    -0.237 OA
ATOM     72  O   UNL A   1      46.186  37.956  29.421  1.00  0.00    -0.237 OA
ATOM     73  O   UNL A   1      48.402  37.246  30.236  1.00  0.00    -0.744 OA
ENDBRANCH  69  70
ENDBRANCH  48  62
BRANCH  49  74
ATOM     74  C   UNL A   1      43.308  23.453  27.022  1.00  0.00     0.058 A 
ATOM     75  C   UNL A   1      43.060  23.023  25.710  1.00  0.00     0.135 A 
ATOM     76  C   UNL A   1      43.146  22.519  28.058  1.00  0.00     0.135 A 
ATOM     77  F   UNL A   1      43.196  23.880  24.686  1.00  0.00    -0.206 F 
ATOM     78  C   UNL A   1      42.656  21.721  25.434  1.00  0.00     0.059 A 
ATOM     79  C   UNL A   1      42.769  21.204  27.804  1.00  0.00     0.059 A 
ATOM     80  F   UNL A   1      43.389  22.875  29.328  1.00  0.00    -0.206 F 
ATOM     81  C   UNL A   1      42.517  20.817  26.488  1.00  0.00     0.060 A 
BRANCH  81  82
ATOM     82  S   UNL A   1      42.047  19.114  26.112  1.00  0.00     0.124 S 
ATOM     83  O   UNL A   1      42.433  18.425  27.337  1.00  0.00    -0.237 OA
ATOM     84  O   UNL A   1      40.612  19.240  25.874  1.00  0.00    -0.237 OA
ATOM     85  O   UNL A   1      42.844  18.799  24.931  1.00  0.00    -0.744 OA
ENDBRANCH  81  82
ENDBRANCH  49  74
BRANCH  61  86
ATOM     86  C   UNL A   1      49.416  26.795  26.455  1.00  0.00     0.058 A 
ATOM     87  C   UNL A   1      50.315  26.242  27.378  1.00  0.00     0.135 A 
ATOM     88  C   UNL A   1      49.819  26.868  25.111  1.00  0.00     0.135 A 
ATOM     89  F   UNL A   1      49.983  26.155  28.677  1.00  0.00    -0.206 F 
ATOM     90  C   UNL A   1      51.576  25.799  26.990  1.00  0.00     0.059 A 
ATOM     91  C   UNL A   1      51.061  26.403  24.694  1.00  0.00     0.059 A 
ATOM     92  F   UNL A   1      48.993  27.379  24.183  1.00  0.00    -0.206 F 
ATOM     93  C   UNL A   1      51.937  25.881  25.643  1.00  0.00     0.060 A 
BRANCH  93  94
ATOM     94  S   UNL A   1      53.563  25.271  25.147  1.00  0.00     0.124 S 
ATOM     95  O   UNL A   1      53.381  23.827  25.254  1.00  0.00    -0.237 OA
ATOM     96  O   UNL A   1      53.692  25.795  23.791  1.00  0.00    -0.237 OA
ATOM     97  O   UNL A   1      54.464  25.866  26.131  1.00  0.00    -0.744 OA
ENDBRANCH  93  94
ENDBRANCH  61  86
ENDBRANCH  35  36
ENDBRANCH  27  30
ENDBRANCH  25  26
ENDBRANCH  24  25
ENDBRANCH   1  24
TORSDOF 17
ENDMDL
MODEL 3
REMARK VINA RESULT:     -11.8      6.765     12.114
REMARK SMILES CCc1ccc(C(=O)NCc2ccc(C(=O)NCCCNC(=O)c3ccc(-c4c5nc(c(-c6c(F)cc(S(=O)(=O)[O-])cc6F)c6ccc([nH]6)c(-c6c(F)cc(S(=O)(=O)[O-])cc6F)c6nc(c(-c7c(F)cc(S(=O)(=O)[O-])cc7F)c7ccc4[nH]7)C=C6)C=C5)cc3)o2)cc1
REMARK SMILES IDX 18 1 17 2 15 3 16 4 14 6 11 7 12 8 90 9 13 10 10 11 9 12
REMARK SMILES IDX 7 13 8 14 6 16 3 17 4 18 92 19 5 20 91 21 2 22 1 23 19 24
REMARK SMILES IDX 20 25 21 26 22 27 23 29 24 30 25 31 89 32 26 33 88 34 27 35
REMARK SMILES IDX 28 36 29 37 82 38 30 39 87 40 81 41 83 42 31 43 86 44 80 45
REMARK SMILES IDX 79 46 32 48 66 49 45 50 65 51 46 52 49 53 64 54 84 55 47 56
REMARK SMILES IDX 48 57 63 59 85 60 50 61 33 62 34 63 43 64 35 65 36 66 42 67
REMARK SMILES IDX 44 68 37 69 38 70 39 71 40 72 41 73 67 74 68 75 77 76 69 77
REMARK SMILES IDX 70 78 76 79 78 80 71 81 72 82 73 83 74 84 75 85 51 86 52 87
REMARK SMILES IDX 61 88 53 89 54 90 60 91 62 92 55 93 56 94 57 95 58 96 59 97
REMARK H PARENT 17 5 9 15 21 28 83 47 49 58
REMARK Flexibility Score: inf
ROOT
ATOM      1  C   UNL A   1      34.614  31.726  28.098  1.00  0.00     0.118 C 
ENDROOT
BRANCH   1   2
ATOM      2  N   UNL A   1      33.355  32.124  27.504  1.00  0.00    -0.349 N 
ATOM      3  C   UNL A   1      32.367  31.388  26.898  1.00  0.00     0.286 C 
ATOM      4  O   UNL A   1      31.347  32.016  26.587  1.00  0.00    -0.266 OA
ATOM      5  H   UNL A   1      33.176  33.092  27.541  1.00  0.00     0.163 HD
BRANCH   3   6
ATOM      6  C   UNL A   1      32.512  29.965  26.666  1.00  0.00     0.191 A 
ATOM      7  C   UNL A   1      33.109  28.234  25.412  1.00  0.00     0.124 A 
ATOM      8  C   UNL A   1      32.633  27.714  26.594  1.00  0.00     0.048 A 
ATOM      9  O   UNL A   1      33.022  29.593  25.446  1.00  0.00    -0.454 OA
ATOM     10  C   UNL A   1      32.288  28.819  27.408  1.00  0.00     0.056 A 
BRANCH   7  11
ATOM     11  C   UNL A   1      33.721  27.658  24.188  1.00  0.00     0.191 C 
BRANCH  11  12
ATOM     12  N   UNL A   1      32.911  26.539  23.760  1.00  0.00    -0.345 N 
ATOM     13  C   UNL A   1      31.661  26.399  23.228  1.00  0.00     0.251 C 
ATOM     14  O   UNL A   1      31.317  25.248  22.945  1.00  0.00    -0.269 OA
ATOM     15  H   UNL A   1      33.368  25.676  23.881  1.00  0.00     0.164 HD
BRANCH  13  16
ATOM     16  C   UNL A   1      30.701  27.515  22.958  1.00  0.00     0.039 A 
ATOM     17  C   UNL A   1      28.734  29.533  22.618  1.00  0.00    -0.048 A 
ATOM     18  C   UNL A   1      28.420  28.345  23.281  1.00  0.00     0.004 A 
ATOM     19  C   UNL A   1      30.032  29.708  22.137  1.00  0.00     0.004 A 
ATOM     20  C   UNL A   1      29.394  27.354  23.452  1.00  0.00     0.014 A 
ATOM     21  C   UNL A   1      30.999  28.711  22.305  1.00  0.00     0.014 A 
BRANCH  17  22
ATOM     22  C   UNL A   1      27.696  30.600  22.395  1.00  0.00     0.032 C 
ATOM     23  C   UNL A   1      27.530  31.475  23.630  1.00  0.00     0.009 C 
ENDBRANCH  17  22
ENDBRANCH  13  16
ENDBRANCH  11  12
ENDBRANCH   7  11
ENDBRANCH   3   6
ENDBRANCH   1   2
BRANCH   1  24
ATOM     24  C   UNL A   1      35.651  32.843  28.026  1.00  0.00     0.042 C 
BRANCH  24  25
ATOM     25  C   UNL A   1      36.468  32.979  29.309  1.00  0.00     0.118 C 
BRANCH  25  26
ATOM     26  N   UNL A   1      36.075  31.995  30.312  1.00  0.00    -0.352 N 
ATOM     27  C   UNL A   1      36.641  30.792  30.646  1.00  0.00     0.251 C 
ATOM     28  H   UNL A   1      35.274  32.232  30.831  1.00  0.00     0.163 HD
ATOM     29  O   UNL A   1      36.005  30.003  31.339  1.00  0.00    -0.269 OA
BRANCH  27  30
ATOM     30  C   UNL A   1      38.000  30.444  30.181  1.00  0.00     0.039 A 
ATOM     31  C   UNL A   1      39.047  30.421  31.108  1.00  0.00     0.014 A 
ATOM     32  C   UNL A   1      38.255  30.187  28.831  1.00  0.00     0.014 A 
ATOM     33  C   UNL A   1      40.335  30.084  30.690  1.00  0.00     0.010 A 
ATOM     34  C   UNL A   1      39.523  29.774  28.431  1.00  0.00     0.010 A 
ATOM     35  C   UNL A   1      40.577  29.725  29.354  1.00  0.00    -0.014 A 
BRANCH  35  36
ATOM     36  C   UNL A   1      41.925  29.290  28.906  1.00  0.00     0.031 A 
ATOM     37  C   UNL A   1      43.046  30.287  28.790  1.00  0.00     0.074 A 
ATOM     38  C   UNL A   1      42.116  28.007  28.537  1.00  0.00     0.049 A 
ATOM     39  N   UNL A   1      44.264  30.111  28.349  1.00  0.00    -0.248 NA
ATOM     40  C   UNL A   1      42.750  31.670  29.198  1.00  0.00     0.031 C 
ATOM     41  C   UNL A   1      41.090  26.960  28.556  1.00  0.00     0.029 A 
ATOM     42  N   UNL A   1      43.232  27.366  28.062  1.00  0.00    -0.354 N 
ATOM     43  C   UNL A   1      44.874  31.358  28.409  1.00  0.00     0.074 A 
ATOM     44  C   UNL A   1      43.877  32.293  28.882  1.00  0.00     0.031 C 
ATOM     45  C   UNL A   1      41.630  25.807  28.131  1.00  0.00     0.029 A 
ATOM     46  C   UNL A   1      43.025  26.039  27.769  1.00  0.00     0.049 A 
ATOM     47  H   UNL A   1      44.101  27.815  27.943  1.00  0.00     0.167 HD
ATOM     48  C   UNL A   1      46.155  31.688  28.117  1.00  0.00     0.037 A 
ATOM     49  C   UNL A   1      43.858  25.114  27.253  1.00  0.00     0.037 A 
ATOM     50  C   UNL A   1      47.146  30.744  27.670  1.00  0.00     0.049 A 
ATOM     51  C   UNL A   1      45.277  25.505  26.941  1.00  0.00     0.074 A 
ATOM     52  C   UNL A   1      48.487  30.964  27.411  1.00  0.00     0.029 A 
ATOM     53  N   UNL A   1      46.904  29.403  27.410  1.00  0.00    -0.354 N 
ATOM     54  N   UNL A   1      45.857  26.674  27.072  1.00  0.00    -0.248 NA
ATOM     55  C   UNL A   1      46.157  24.450  26.420  1.00  0.00     0.031 C 
ATOM     56  C   UNL A   1      49.043  29.770  26.941  1.00  0.00     0.029 A 
ATOM     57  C   UNL A   1      48.065  28.789  26.967  1.00  0.00     0.049 A 
ATOM     58  H   UNL A   1      46.035  28.953  27.523  1.00  0.00     0.167 HD
ATOM     59  C   UNL A   1      47.176  26.491  26.674  1.00  0.00     0.074 A 
ATOM     60  C   UNL A   1      47.312  25.094  26.312  1.00  0.00     0.031 C 
ATOM     61  C   UNL A   1      48.185  27.395  26.615  1.00  0.00     0.037 A 
BRANCH  48  62
ATOM     62  C   UNL A   1      46.563  33.130  28.270  1.00  0.00     0.058 A 
ATOM     63  C   UNL A   1      47.112  33.621  29.466  1.00  0.00     0.135 A 
ATOM     64  C   UNL A   1      46.451  34.022  27.191  1.00  0.00     0.135 A 
ATOM     65  F   UNL A   1      47.229  32.819  30.537  1.00  0.00    -0.206 F 
ATOM     66  C   UNL A   1      47.511  34.947  29.594  1.00  0.00     0.059 A 
ATOM     67  C   UNL A   1      46.872  35.345  27.287  1.00  0.00     0.059 A 
ATOM     68  F   UNL A   1      45.932  33.607  26.024  1.00  0.00    -0.206 F 
ATOM     69  C   UNL A   1      47.390  35.801  28.497  1.00  0.00     0.060 A 
BRANCH  69  70
ATOM     70  S   UNL A   1      47.930  37.515  28.676  1.00  0.00     0.124 S 
ATOM     71  O   UNL A   1      47.611  37.775  30.077  1.00  0.00    -0.237 OA
ATOM     72  O   UNL A   1      49.351  37.427  28.356  1.00  0.00    -0.237 OA
ATOM     73  O   UNL A   1      47.114  38.233  27.703  1.00  0.00    -0.744 OA
ENDBRANCH  69  70
ENDBRANCH  48  62
BRANCH  49  74
ATOM     74  C   UNL A   1      43.371  23.728  27.018  1.00  0.00     0.058 A 
ATOM     75  C   UNL A   1      43.256  22.811  28.073  1.00  0.00     0.135 A 
ATOM     76  C   UNL A   1      42.987  23.301  25.736  1.00  0.00     0.135 A 
ATOM     77  F   UNL A   1      43.615  23.170  29.315  1.00  0.00    -0.206 F 
ATOM     78  C   UNL A   1      42.791  21.516  27.867  1.00  0.00     0.059 A 
ATOM     79  C   UNL A   1      42.493  22.020  25.510  1.00  0.00     0.059 A 
ATOM     80  F   UNL A   1      43.060  24.145  24.696  1.00  0.00    -0.206 F 
ATOM     81  C   UNL A   1      42.407  21.131  26.581  1.00  0.00     0.060 A 
BRANCH  81  82
ATOM     82  S   UNL A   1      41.752  19.467  26.336  1.00  0.00     0.124 S 
ATOM     83  O   UNL A   1      42.442  19.054  25.120  1.00  0.00    -0.237 OA
ATOM     84  O   UNL A   1      42.162  18.793  27.565  1.00  0.00    -0.237 OA
ATOM     85  O   UNL A   1      40.315  19.688  26.203  1.00  0.00    -0.744 OA
ENDBRANCH  81  82
ENDBRANCH  49  74
BRANCH  61  86
ATOM     86  C   UNL A   1      49.537  26.901  26.176  1.00  0.00     0.058 A 
ATOM     87  C   UNL A   1      49.933  26.923  24.830  1.00  0.00     0.135 A 
ATOM     88  C   UNL A   1      50.469  26.451  27.126  1.00  0.00     0.135 A 
ATOM     89  F   UNL A   1      49.078  27.337  23.880  1.00  0.00    -0.206 F 
ATOM     90  C   UNL A   1      51.196  26.493  24.437  1.00  0.00     0.059 A 
ATOM     91  C   UNL A   1      51.748  26.046  26.760  1.00  0.00     0.059 A 
ATOM     92  F   UNL A   1      50.146  26.420  28.429  1.00  0.00    -0.206 F 
ATOM     93  C   UNL A   1      52.098  26.060  25.411  1.00  0.00     0.060 A 
BRANCH  93  94
ATOM     94  S   UNL A   1      53.746  25.536  24.891  1.00  0.00     0.124 S 
ATOM     95  O   UNL A   1      53.553  24.103  24.699  1.00  0.00    -0.237 OA
ATOM     96  O   UNL A   1      53.951  26.317  23.675  1.00  0.00    -0.237 OA
ATOM     97  O   UNL A   1      54.594  25.911  26.019  1.00  0.00    -0.744 OA
ENDBRANCH  93  94
ENDBRANCH  61  86
ENDBRANCH  35  36
ENDBRANCH  27  30
ENDBRANCH  25  26
ENDBRANCH  24  25
ENDBRANCH   1  24
TORSDOF 17
ENDMDL
