MODEL 1
REMARK VINA RESULT:      -9.4      0.000      0.000
REMARK SMILES C[N@@H+](CC(=O)NCCCNC(=O)c1ccc(-c2c3nc(c(-c4c(F)cc(S(=O)(=O)[O-])cc4F)c4ccc([nH]4)c(-c4c(F)cc(S(=O)(=O)[O-])cc4F)c4nc(c(-c5c(F)cc(S(=O)(=O)[O-])cc5F)c5ccc2[nH]5)C=C4)C=C3)cc1)Cc1nc(-c2ccsc2)no1
REMARK SMILES IDX 7 1 6 2 4 3 5 4 3 6 2 7 1 8 79 10 80 11 81 12 89 13 82 14
REMARK SMILES IDX 88 15 83 16 84 17 87 18 85 19 86 20 8 21 9 22 10 23 11 24
REMARK SMILES IDX 12 26 13 27 14 28 78 29 15 30 77 31 16 32 17 33 18 34 71 35
REMARK SMILES IDX 19 36 76 37 70 38 72 39 20 40 75 41 69 42 68 43 21 45 55 46
REMARK SMILES IDX 34 47 54 48 35 49 38 50 53 51 73 52 36 53 37 54 52 56 74 57
REMARK SMILES IDX 39 58 22 59 23 60 32 61 24 62 25 63 31 64 33 65 26 66 27 67
REMARK SMILES IDX 28 68 29 69 30 70 56 71 57 72 66 73 58 74 59 75 65 76 67 77
REMARK SMILES IDX 60 78 61 79 62 80 63 81 64 82 40 83 41 84 50 85 42 86 43 87
REMARK SMILES IDX 49 88 51 89 44 90 45 91 46 92 47 93 48 94
REMARK H PARENT 6 5 2 9 10 25 72 44 38 55
REMARK Flexibility Score: inf
ROOT
ATOM      1  C   UNL A   1      35.192  32.883  30.446  1.00  0.00     0.118 C 
ENDROOT
BRANCH   1   2
ATOM      2  N   UNL A   1      34.339  32.716  31.607  1.00  0.00    -0.351 N 
ATOM      3  C   UNL A   1      34.179  33.491  32.712  1.00  0.00     0.275 C 
ATOM      4  O   UNL A   1      33.275  33.186  33.496  1.00  0.00    -0.269 OA
ATOM      5  H   UNL A   1      33.780  31.904  31.592  1.00  0.00     0.163 HD
BRANCH   3   6
ATOM      6  C   UNL A   1      35.049  34.720  32.967  1.00  0.00     0.363 C 
BRANCH   6   7
ATOM      7  N   UNL A   1      36.424  34.469  33.412  1.00  0.00    -0.322 N 
ATOM      8  C   UNL A   1      37.486  34.719  32.465  1.00  0.00     0.333 C 
ATOM      9  H   UNL A   1      36.501  35.274  34.034  1.00  0.00     0.348 HD
BRANCH   7  10
ATOM     10  C   UNL A   1      36.665  33.383  34.369  1.00  0.00     0.364 C 
BRANCH  10  11
ATOM     11  C   UNL A   1      37.356  32.151  33.881  1.00  0.00     0.282 A 
ATOM     12  N   UNL A   1      38.623  31.820  33.994  1.00  0.00    -0.186 NA
ATOM     13  O   UNL A   1      36.619  31.227  33.199  1.00  0.00    -0.333 OA
ATOM     14  C   UNL A   1      38.660  30.595  33.384  1.00  0.00     0.203 A 
ATOM     15  N   UNL A   1      37.492  30.181  32.875  1.00  0.00    -0.057 NA
BRANCH  14  16
ATOM     16  C   UNL A   1      39.920  29.851  33.324  1.00  0.00     0.033 A 
ATOM     17  C   UNL A   1      41.169  30.376  33.775  1.00  0.00     0.024 A 
ATOM     18  C   UNL A   1      40.047  28.565  32.840  1.00  0.00     0.077 A 
ATOM     19  C   UNL A   1      42.194  29.463  33.633  1.00  0.00     0.065 A 
ATOM     20  S   UNL A   1      41.658  27.994  32.938  1.00  0.00    -0.152 S 
ENDBRANCH  14  16
ENDBRANCH  10  11
ENDBRANCH   7  10
ENDBRANCH   6   7
ENDBRANCH   3   6
ENDBRANCH   1   2
BRANCH   1  21
ATOM     21  C   UNL A   1      34.461  33.477  29.246  1.00  0.00     0.042 C 
BRANCH  21  22
ATOM     22  C   UNL A   1      34.654  32.732  27.931  1.00  0.00     0.118 C 
BRANCH  22  23
ATOM     23  N   UNL A   1      33.943  31.465  27.897  1.00  0.00    -0.352 N 
ATOM     24  C   UNL A   1      34.425  30.179  27.909  1.00  0.00     0.251 C 
ATOM     25  H   UNL A   1      32.962  31.541  27.860  1.00  0.00     0.163 HD
ATOM     26  O   UNL A   1      33.647  29.253  27.682  1.00  0.00    -0.269 OA
BRANCH  24  27
ATOM     27  C   UNL A   1      35.859  29.889  28.164  1.00  0.00     0.039 A 
ATOM     28  C   UNL A   1      36.235  29.438  29.435  1.00  0.00     0.014 A 
ATOM     29  C   UNL A   1      36.842  30.102  27.193  1.00  0.00     0.014 A 
ATOM     30  C   UNL A   1      37.576  29.153  29.712  1.00  0.00     0.010 A 
ATOM     31  C   UNL A   1      38.168  29.743  27.445  1.00  0.00     0.010 A 
ATOM     32  C   UNL A   1      38.553  29.276  28.711  1.00  0.00    -0.014 A 
BRANCH  32  33
ATOM     33  C   UNL A   1      39.978  28.942  28.980  1.00  0.00     0.031 A 
ATOM     34  C   UNL A   1      40.905  29.978  29.562  1.00  0.00     0.074 A 
ATOM     35  C   UNL A   1      40.455  27.723  28.657  1.00  0.00     0.049 A 
ATOM     36  N   UNL A   1      42.187  29.894  29.813  1.00  0.00    -0.248 NA
ATOM     37  C   UNL A   1      40.320  31.289  29.882  1.00  0.00     0.031 C 
ATOM     38  C   UNL A   1      39.676  26.644  28.048  1.00  0.00     0.029 A 
ATOM     39  N   UNL A   1      41.713  27.187  28.790  1.00  0.00    -0.354 N 
ATOM     40  C   UNL A   1      42.563  31.140  30.303  1.00  0.00     0.074 A 
ATOM     41  C   UNL A   1      41.384  31.977  30.268  1.00  0.00     0.031 C 
ATOM     42  C   UNL A   1      40.466  25.570  27.878  1.00  0.00     0.029 A 
ATOM     43  C   UNL A   1      41.815  25.893  28.334  1.00  0.00     0.049 A 
ATOM     44  H   UNL A   1      42.471  27.683  29.176  1.00  0.00     0.167 HD
ATOM     45  C   UNL A   1      43.773  31.544  30.759  1.00  0.00     0.037 A 
ATOM     46  C   UNL A   1      42.875  25.063  28.280  1.00  0.00     0.037 A 
ATOM     47  C   UNL A   1      44.938  30.700  30.823  1.00  0.00     0.049 A 
ATOM     48  C   UNL A   1      44.206  25.530  28.804  1.00  0.00     0.074 A 
ATOM     49  C   UNL A   1      46.192  31.001  31.325  1.00  0.00     0.029 A 
ATOM     50  N   UNL A   1      44.993  29.389  30.372  1.00  0.00    -0.354 N 
ATOM     51  N   UNL A   1      44.528  26.694  29.316  1.00  0.00    -0.248 NA
ATOM     52  C   UNL A   1      45.317  24.570  28.748  1.00  0.00     0.031 C 
ATOM     53  C   UNL A   1      47.016  29.884  31.146  1.00  0.00     0.029 A 
ATOM     54  C   UNL A   1      46.263  28.873  30.570  1.00  0.00     0.049 A 
ATOM     55  H   UNL A   1      44.240  28.898  29.971  1.00  0.00     0.167 HD
ATOM     56  C   UNL A   1      45.869  26.598  29.665  1.00  0.00     0.074 A 
ATOM     57  C   UNL A   1      46.298  25.260  29.317  1.00  0.00     0.031 C 
ATOM     58  C   UNL A   1      46.674  27.535  30.225  1.00  0.00     0.037 A 
BRANCH  45  59
ATOM     59  C   UNL A   1      43.898  32.966  31.235  1.00  0.00     0.058 A 
ATOM     60  C   UNL A   1      44.060  34.031  30.334  1.00  0.00     0.135 A 
ATOM     61  C   UNL A   1      43.824  33.271  32.603  1.00  0.00     0.135 A 
ATOM     62  F   UNL A   1      44.151  33.795  29.016  1.00  0.00    -0.206 F 
ATOM     63  C   UNL A   1      44.176  35.345  30.776  1.00  0.00     0.059 A 
ATOM     64  C   UNL A   1      43.909  34.582  33.066  1.00  0.00     0.059 A 
ATOM     65  F   UNL A   1      43.667  32.291  33.508  1.00  0.00    -0.206 F 
ATOM     66  C   UNL A   1      44.102  35.611  32.144  1.00  0.00     0.060 A 
BRANCH  66  67
ATOM     67  S   UNL A   1      44.254  37.321  32.703  1.00  0.00     0.124 S 
ATOM     68  O   UNL A   1      44.111  38.051  31.446  1.00  0.00    -0.237 OA
ATOM     69  O   UNL A   1      43.137  37.445  33.636  1.00  0.00    -0.237 OA
ATOM     70  O   UNL A   1      45.579  37.365  33.309  1.00  0.00    -0.744 OA
ENDBRANCH  66  67
ENDBRANCH  45  59
BRANCH  46  71
ATOM     71  C   UNL A   1      42.713  23.691  27.731  1.00  0.00     0.058 A 
ATOM     72  C   UNL A   1      42.533  22.590  28.581  1.00  0.00     0.135 A 
ATOM     73  C   UNL A   1      42.719  23.454  26.348  1.00  0.00     0.135 A 
ATOM     74  F   UNL A   1      42.528  22.764  29.911  1.00  0.00    -0.206 F 
ATOM     75  C   UNL A   1      42.378  21.301  28.082  1.00  0.00     0.059 A 
ATOM     76  C   UNL A   1      42.543  22.178  25.823  1.00  0.00     0.059 A 
ATOM     77  F   UNL A   1      42.872  24.477  25.492  1.00  0.00    -0.206 F 
ATOM     78  C   UNL A   1      42.381  21.105  26.699  1.00  0.00     0.060 A 
BRANCH  78  79
ATOM     79  S   UNL A   1      42.122  19.437  26.058  1.00  0.00     0.124 S 
ATOM     80  O   UNL A   1      42.554  18.619  27.185  1.00  0.00    -0.237 OA
ATOM     81  O   UNL A   1      40.689  19.433  25.777  1.00  0.00    -0.237 OA
ATOM     82  O   UNL A   1      42.982  19.395  24.879  1.00  0.00    -0.744 OA
ENDBRANCH  78  79
ENDBRANCH  46  71
BRANCH  58  83
ATOM     83  C   UNL A   1      48.092  27.139  30.526  1.00  0.00     0.058 A 
ATOM     84  C   UNL A   1      49.133  27.379  29.617  1.00  0.00     0.135 A 
ATOM     85  C   UNL A   1      48.421  26.560  31.764  1.00  0.00     0.135 A 
ATOM     86  F   UNL A   1      48.872  27.925  28.419  1.00  0.00    -0.206 F 
ATOM     87  C   UNL A   1      50.450  27.040  29.915  1.00  0.00     0.059 A 
ATOM     88  C   UNL A   1      49.733  26.235  32.092  1.00  0.00     0.059 A 
ATOM     89  F   UNL A   1      47.463  26.318  32.673  1.00  0.00    -0.206 F 
ATOM     90  C   UNL A   1      50.740  26.468  31.155  1.00  0.00     0.060 A 
BRANCH  90  91
ATOM     91  S   UNL A   1      52.456  26.064  31.544  1.00  0.00     0.124 S 
ATOM     92  O   UNL A   1      52.318  24.738  32.136  1.00  0.00    -0.237 OA
ATOM     93  O   UNL A   1      53.095  26.108  30.231  1.00  0.00    -0.237 OA
ATOM     94  O   UNL A   1      52.855  27.125  32.463  1.00  0.00    -0.744 OA
ENDBRANCH  90  91
ENDBRANCH  58  83
ENDBRANCH  32  33
ENDBRANCH  24  27
ENDBRANCH  22  23
ENDBRANCH  21  22
ENDBRANCH   1  21
TORSDOF 17
ENDMDL
MODEL 2
REMARK VINA RESULT:      -9.3      4.206      6.861
REMARK SMILES C[N@@H+](CC(=O)NCCCNC(=O)c1ccc(-c2c3nc(c(-c4c(F)cc(S(=O)(=O)[O-])cc4F)c4ccc([nH]4)c(-c4c(F)cc(S(=O)(=O)[O-])cc4F)c4nc(c(-c5c(F)cc(S(=O)(=O)[O-])cc5F)c5ccc2[nH]5)C=C4)C=C3)cc1)Cc1nc(-c2ccsc2)no1
REMARK SMILES IDX 7 1 6 2 4 3 5 4 3 6 2 7 1 8 79 10 80 11 81 12 89 13 82 14
REMARK SMILES IDX 88 15 83 16 84 17 87 18 85 19 86 20 8 21 9 22 10 23 11 24
REMARK SMILES IDX 12 26 13 27 14 28 78 29 15 30 77 31 16 32 17 33 18 34 71 35
REMARK SMILES IDX 19 36 76 37 70 38 72 39 20 40 75 41 69 42 68 43 21 45 55 46
REMARK SMILES IDX 34 47 54 48 35 49 38 50 53 51 73 52 36 53 37 54 52 56 74 57
REMARK SMILES IDX 39 58 22 59 23 60 32 61 24 62 25 63 31 64 33 65 26 66 27 67
REMARK SMILES IDX 28 68 29 69 30 70 56 71 57 72 66 73 58 74 59 75 65 76 67 77
REMARK SMILES IDX 60 78 61 79 62 80 63 81 64 82 40 83 41 84 50 85 42 86 43 87
REMARK SMILES IDX 49 88 51 89 44 90 45 91 46 92 47 93 48 94
REMARK H PARENT 6 5 2 9 10 25 72 44 38 55
REMARK Flexibility Score: inf
ROOT
ATOM      1  C   UNL A   1      34.189  29.206  27.426  1.00  0.00     0.118 C 
ENDROOT
BRANCH   1   2
ATOM      2  N   UNL A   1      32.813  28.776  27.589  1.00  0.00    -0.351 N 
ATOM      3  C   UNL A   1      32.161  27.683  27.109  1.00  0.00     0.275 C 
ATOM      4  O   UNL A   1      31.013  27.481  27.516  1.00  0.00    -0.269 OA
ATOM      5  H   UNL A   1      32.259  29.376  28.140  1.00  0.00     0.163 HD
BRANCH   3   6
ATOM      6  C   UNL A   1      32.825  26.711  26.137  1.00  0.00     0.363 C 
BRANCH   6   7
ATOM      7  N   UNL A   1      31.951  25.720  25.500  1.00  0.00    -0.322 N 
ATOM      8  C   UNL A   1      32.054  24.353  25.954  1.00  0.00     0.333 C 
ATOM      9  H   UNL A   1      31.081  26.024  25.938  1.00  0.00     0.348 HD
BRANCH   7  10
ATOM     10  C   UNL A   1      31.601  25.899  24.086  1.00  0.00     0.364 C 
BRANCH  10  11
ATOM     11  C   UNL A   1      30.493  26.842  23.746  1.00  0.00     0.282 A 
ATOM     12  N   UNL A   1      30.567  28.117  23.430  1.00  0.00    -0.186 NA
ATOM     13  O   UNL A   1      29.213  26.371  23.778  1.00  0.00    -0.333 OA
ATOM     14  C   UNL A   1      29.255  28.439  23.209  1.00  0.00     0.203 A 
ATOM     15  N   UNL A   1      28.386  27.439  23.410  1.00  0.00    -0.057 NA
BRANCH  14  16
ATOM     16  C   UNL A   1      28.900  29.797  22.794  1.00  0.00     0.033 A 
ATOM     17  C   UNL A   1      28.248  30.101  21.561  1.00  0.00     0.024 A 
ATOM     18  C   UNL A   1      29.139  30.932  23.541  1.00  0.00     0.077 A 
ATOM     19  C   UNL A   1      28.000  31.451  21.425  1.00  0.00     0.065 A 
ATOM     20  S   UNL A   1      28.574  32.349  22.765  1.00  0.00    -0.152 S 
ENDBRANCH  14  16
ENDBRANCH  10  11
ENDBRANCH   7  10
ENDBRANCH   6   7
ENDBRANCH   3   6
ENDBRANCH   1   2
BRANCH   1  21
ATOM     21  C   UNL A   1      34.339  30.724  27.366  1.00  0.00     0.042 C 
BRANCH  21  22
ATOM     22  C   UNL A   1      35.529  31.291  28.128  1.00  0.00     0.118 C 
BRANCH  22  23
ATOM     23  N   UNL A   1      35.443  31.051  29.558  1.00  0.00    -0.352 N 
ATOM     24  C   UNL A   1      36.334  30.444  30.410  1.00  0.00     0.251 C 
ATOM     25  H   UNL A   1      34.617  31.375  29.985  1.00  0.00     0.163 HD
ATOM     26  O   UNL A   1      35.972  30.179  31.556  1.00  0.00    -0.269 OA
BRANCH  24  27
ATOM     27  C   UNL A   1      37.705  30.080  29.970  1.00  0.00     0.039 A 
ATOM     28  C   UNL A   1      38.664  29.783  30.946  1.00  0.00     0.014 A 
ATOM     29  C   UNL A   1      38.075  30.078  28.622  1.00  0.00     0.014 A 
ATOM     30  C   UNL A   1      39.966  29.436  30.570  1.00  0.00     0.010 A 
ATOM     31  C   UNL A   1      39.351  29.654  28.244  1.00  0.00     0.010 A 
ATOM     32  C   UNL A   1      40.315  29.340  29.213  1.00  0.00    -0.014 A 
BRANCH  32  33
ATOM     33  C   UNL A   1      41.686  28.936  28.797  1.00  0.00     0.031 A 
ATOM     34  C   UNL A   1      42.798  29.952  28.753  1.00  0.00     0.074 A 
ATOM     35  C   UNL A   1      41.924  27.666  28.412  1.00  0.00     0.049 A 
ATOM     36  N   UNL A   1      44.039  29.805  28.365  1.00  0.00    -0.248 NA
ATOM     37  C   UNL A   1      42.465  31.321  29.179  1.00  0.00     0.031 C 
ATOM     38  C   UNL A   1      40.928  26.595  28.365  1.00  0.00     0.029 A 
ATOM     39  N   UNL A   1      43.079  27.062  27.978  1.00  0.00    -0.354 N 
ATOM     40  C   UNL A   1      44.628  31.059  28.483  1.00  0.00     0.074 A 
ATOM     41  C   UNL A   1      43.595  31.966  28.933  1.00  0.00     0.031 C 
ATOM     42  C   UNL A   1      41.516  25.462  27.948  1.00  0.00     0.029 A 
ATOM     43  C   UNL A   1      42.923  25.731  27.663  1.00  0.00     0.049 A 
ATOM     44  H   UNL A   1      43.938  27.536  27.899  1.00  0.00     0.167 HD
ATOM     45  C   UNL A   1      45.914  31.419  28.258  1.00  0.00     0.037 A 
ATOM     46  C   UNL A   1      43.809  24.832  27.193  1.00  0.00     0.037 A 
ATOM     47  C   UNL A   1      46.949  30.507  27.840  1.00  0.00     0.049 A 
ATOM     48  C   UNL A   1      45.235  25.251  26.961  1.00  0.00     0.074 A 
ATOM     49  C   UNL A   1      48.295  30.765  27.645  1.00  0.00     0.029 A 
ATOM     50  N   UNL A   1      46.755  29.164  27.555  1.00  0.00    -0.354 N 
ATOM     51  N   UNL A   1      45.786  26.429  27.134  1.00  0.00    -0.248 NA
ATOM     52  C   UNL A   1      46.162  24.219  26.477  1.00  0.00     0.031 C 
ATOM     53  C   UNL A   1      48.908  29.585  27.206  1.00  0.00     0.029 A 
ATOM     54  C   UNL A   1      47.951  28.583  27.170  1.00  0.00     0.049 A 
ATOM     55  H   UNL A   1      45.893  28.692  27.618  1.00  0.00     0.167 HD
ATOM     56  C   UNL A   1      47.127  26.274  26.803  1.00  0.00     0.074 A 
ATOM     57  C   UNL A   1      47.308  24.886  26.431  1.00  0.00     0.031 C 
ATOM     58  C   UNL A   1      48.120  27.198  26.809  1.00  0.00     0.037 A 
BRANCH  45  59
ATOM     59  C   UNL A   1      46.281  32.863  28.466  1.00  0.00     0.058 A 
ATOM     60  C   UNL A   1      46.211  33.798  27.421  1.00  0.00     0.135 A 
ATOM     61  C   UNL A   1      46.675  33.324  29.732  1.00  0.00     0.135 A 
ATOM     62  F   UNL A   1      45.854  33.408  26.188  1.00  0.00    -0.206 F 
ATOM     63  C   UNL A   1      46.550  35.133  27.617  1.00  0.00     0.059 A 
ATOM     64  C   UNL A   1      46.993  34.661  29.957  1.00  0.00     0.059 A 
ATOM     65  F   UNL A   1      46.757  32.474  30.768  1.00  0.00    -0.206 F 
ATOM     66  C   UNL A   1      46.942  35.555  28.887  1.00  0.00     0.060 A 
BRANCH  66  67
ATOM     67  S   UNL A   1      47.380  37.291  29.126  1.00  0.00     0.124 S 
ATOM     68  O   UNL A   1      46.063  37.921  29.146  1.00  0.00    -0.237 OA
ATOM     69  O   UNL A   1      48.087  37.262  30.404  1.00  0.00    -0.237 OA
ATOM     70  O   UNL A   1      48.206  37.597  27.964  1.00  0.00    -0.744 OA
ENDBRANCH  66  67
ENDBRANCH  45  59
BRANCH  46  71
ATOM     71  C   UNL A   1      43.376  23.434  26.932  1.00  0.00     0.058 A 
ATOM     72  C   UNL A   1      43.178  22.972  25.621  1.00  0.00     0.135 A 
ATOM     73  C   UNL A   1      43.165  22.527  27.982  1.00  0.00     0.135 A 
ATOM     74  F   UNL A   1      43.358  23.804  24.584  1.00  0.00    -0.206 F 
ATOM     75  C   UNL A   1      42.776  21.666  25.361  1.00  0.00     0.059 A 
ATOM     76  C   UNL A   1      42.785  21.210  27.746  1.00  0.00     0.059 A 
ATOM     77  F   UNL A   1      43.356  22.915  29.252  1.00  0.00    -0.206 F 
ATOM     78  C   UNL A   1      42.585  20.791  26.432  1.00  0.00     0.060 A 
BRANCH  78  79
ATOM     79  S   UNL A   1      42.117  19.081  26.082  1.00  0.00     0.124 S 
ATOM     80  O   UNL A   1      40.678  19.205  25.882  1.00  0.00    -0.237 OA
ATOM     81  O   UNL A   1      42.905  18.784  24.889  1.00  0.00    -0.237 OA
ATOM     82  O   UNL A   1      42.529  18.369  27.288  1.00  0.00    -0.744 OA
ENDBRANCH  78  79
ENDBRANCH  46  71
BRANCH  58  83
ATOM     83  C   UNL A   1      49.498  26.735  26.431  1.00  0.00     0.058 A 
ATOM     84  C   UNL A   1      50.341  26.099  27.355  1.00  0.00     0.135 A 
ATOM     85  C   UNL A   1      49.961  26.883  25.112  1.00  0.00     0.135 A 
ATOM     86  F   UNL A   1      49.949  25.938  28.628  1.00  0.00    -0.206 F 
ATOM     87  C   UNL A   1      51.605  25.644  26.990  1.00  0.00     0.059 A 
ATOM     88  C   UNL A   1      51.211  26.413  24.720  1.00  0.00     0.059 A 
ATOM     89  F   UNL A   1      49.189  27.476  24.187  1.00  0.00    -0.206 F 
ATOM     90  C   UNL A   1      52.031  25.805  25.671  1.00  0.00     0.060 A 
BRANCH  90  91
ATOM     91  S   UNL A   1      53.658  25.179  25.201  1.00  0.00     0.124 S 
ATOM     92  O   UNL A   1      54.515  25.818  26.193  1.00  0.00    -0.237 OA
ATOM     93  O   UNL A   1      53.493  23.735  25.343  1.00  0.00    -0.237 OA
ATOM     94  O   UNL A   1      53.821  25.653  23.830  1.00  0.00    -0.744 OA
ENDBRANCH  90  91
ENDBRANCH  58  83
ENDBRANCH  32  33
ENDBRANCH  24  27
ENDBRANCH  22  23
ENDBRANCH  21  22
ENDBRANCH   1  21
TORSDOF 17
ENDMDL
MODEL 3
REMARK VINA RESULT:      -9.3      4.497     12.271
REMARK SMILES C[N@@H+](CC(=O)NCCCNC(=O)c1ccc(-c2c3nc(c(-c4c(F)cc(S(=O)(=O)[O-])cc4F)c4ccc([nH]4)c(-c4c(F)cc(S(=O)(=O)[O-])cc4F)c4nc(c(-c5c(F)cc(S(=O)(=O)[O-])cc5F)c5ccc2[nH]5)C=C4)C=C3)cc1)Cc1nc(-c2ccsc2)no1
REMARK SMILES IDX 7 1 6 2 4 3 5 4 3 6 2 7 1 8 79 10 80 11 81 12 89 13 82 14
REMARK SMILES IDX 88 15 83 16 84 17 87 18 85 19 86 20 8 21 9 22 10 23 11 24
REMARK SMILES IDX 12 26 13 27 14 28 78 29 15 30 77 31 16 32 17 33 18 34 71 35
REMARK SMILES IDX 19 36 76 37 70 38 72 39 20 40 75 41 69 42 68 43 21 45 55 46
REMARK SMILES IDX 34 47 54 48 35 49 38 50 53 51 73 52 36 53 37 54 52 56 74 57
REMARK SMILES IDX 39 58 22 59 23 60 32 61 24 62 25 63 31 64 33 65 26 66 27 67
REMARK SMILES IDX 28 68 29 69 30 70 56 71 57 72 66 73 58 74 59 75 65 76 67 77
REMARK SMILES IDX 60 78 61 79 62 80 63 81 64 82 40 83 41 84 50 85 42 86 43 87
REMARK SMILES IDX 49 88 51 89 44 90 45 91 46 92 47 93 48 94
REMARK H PARENT 6 5 2 9 10 25 72 44 38 55
REMARK Flexibility Score: inf
ROOT
ATOM      1  C   UNL A   1      42.318  21.182  25.829  1.00  0.00     0.118 C 
ENDROOT
BRANCH   1   2
ATOM      2  N   UNL A   1      42.120  19.747  25.772  1.00  0.00    -0.351 N 
ATOM      3  C   UNL A   1      43.018  18.726  25.742  1.00  0.00     0.275 C 
ATOM      4  O   UNL A   1      42.577  17.576  25.834  1.00  0.00    -0.269 OA
ATOM      5  H   UNL A   1      41.177  19.463  25.752  1.00  0.00     0.163 HD
BRANCH   3   6
ATOM      6  C   UNL A   1      44.521  18.978  25.640  1.00  0.00     0.363 C 
BRANCH   6   7
ATOM      7  N   UNL A   1      44.983  19.725  24.465  1.00  0.00    -0.322 N 
ATOM      8  C   UNL A   1      44.920  19.058  23.185  1.00  0.00     0.333 C 
ATOM      9  H   UNL A   1      44.192  20.367  24.409  1.00  0.00     0.348 HD
BRANCH   7  10
ATOM     10  C   UNL A   1      46.080  20.686  24.631  1.00  0.00     0.364 C 
BRANCH  10  11
ATOM     11  C   UNL A   1      45.738  22.091  25.005  1.00  0.00     0.282 A 
ATOM     12  N   UNL A   1      46.054  22.751  26.098  1.00  0.00    -0.186 NA
ATOM     13  O   UNL A   1      44.975  22.821  24.139  1.00  0.00    -0.333 OA
ATOM     14  C   UNL A   1      45.490  23.978  25.871  1.00  0.00     0.203 A 
ATOM     15  N   UNL A   1      44.818  24.087  24.716  1.00  0.00    -0.057 NA
BRANCH  14  16
ATOM     16  C   UNL A   1      45.644  25.043  26.863  1.00  0.00     0.033 A 
ATOM     17  C   UNL A   1      46.011  26.383  26.532  1.00  0.00     0.024 A 
ATOM     18  C   UNL A   1      45.444  24.885  28.219  1.00  0.00     0.077 A 
ATOM     19  C   UNL A   1      46.058  27.196  27.646  1.00  0.00     0.065 A 
ATOM     20  S   UNL A   1      45.688  26.342  29.083  1.00  0.00    -0.152 S 
ENDBRANCH  14  16
ENDBRANCH  10  11
ENDBRANCH   7  10
ENDBRANCH   6   7
ENDBRANCH   3   6
ENDBRANCH   1   2
BRANCH   1  21
ATOM     21  C   UNL A   1      42.618  21.690  27.237  1.00  0.00     0.042 C 
BRANCH  21  22
ATOM     22  C   UNL A   1      42.178  23.120  27.521  1.00  0.00     0.118 C 
BRANCH  22  23
ATOM     23  N   UNL A   1      42.000  23.901  26.309  1.00  0.00    -0.352 N 
ATOM     24  C   UNL A   1      41.586  25.202  26.146  1.00  0.00     0.251 C 
ATOM     25  H   UNL A   1      42.209  23.425  25.473  1.00  0.00     0.163 HD
ATOM     26  O   UNL A   1      41.325  25.602  25.012  1.00  0.00    -0.269 OA
BRANCH  24  27
ATOM     27  C   UNL A   1      41.425  26.116  27.304  1.00  0.00     0.039 A 
ATOM     28  C   UNL A   1      42.337  27.167  27.459  1.00  0.00     0.014 A 
ATOM     29  C   UNL A   1      40.427  25.927  28.265  1.00  0.00     0.014 A 
ATOM     30  C   UNL A   1      42.216  28.050  28.537  1.00  0.00     0.010 A 
ATOM     31  C   UNL A   1      40.260  26.854  29.296  1.00  0.00     0.010 A 
ATOM     32  C   UNL A   1      41.159  27.920  29.451  1.00  0.00    -0.014 A 
BRANCH  32  33
ATOM     33  C   UNL A   1      40.996  28.873  30.583  1.00  0.00     0.031 A 
ATOM     34  C   UNL A   1      41.883  28.771  31.797  1.00  0.00     0.074 A 
ATOM     35  C   UNL A   1      40.020  29.802  30.543  1.00  0.00     0.049 A 
ATOM     36  N   UNL A   1      41.857  29.472  32.902  1.00  0.00    -0.248 NA
ATOM     37  C   UNL A   1      42.922  27.729  31.776  1.00  0.00     0.031 C 
ATOM     38  C   UNL A   1      39.065  29.980  29.448  1.00  0.00     0.029 A 
ATOM     39  N   UNL A   1      39.663  30.768  31.452  1.00  0.00    -0.354 N 
ATOM     40  C   UNL A   1      42.859  28.947  33.711  1.00  0.00     0.074 A 
ATOM     41  C   UNL A   1      43.443  27.838  32.989  1.00  0.00     0.031 C 
ATOM     42  C   UNL A   1      38.245  31.004  29.739  1.00  0.00     0.029 A 
ATOM     43  C   UNL A   1      38.592  31.535  31.054  1.00  0.00     0.049 A 
ATOM     44  H   UNL A   1      40.131  30.900  32.308  1.00  0.00     0.167 HD
ATOM     45  C   UNL A   1      43.269  29.362  34.933  1.00  0.00     0.037 A 
ATOM     46  C   UNL A   1      37.956  32.545  31.679  1.00  0.00     0.037 A 
ATOM     47  C   UNL A   1      42.709  30.487  35.637  1.00  0.00     0.049 A 
ATOM     48  C   UNL A   1      38.437  32.997  33.031  1.00  0.00     0.074 A 
ATOM     49  C   UNL A   1      43.098  31.022  36.853  1.00  0.00     0.029 A 
ATOM     50  N   UNL A   1      41.641  31.250  35.189  1.00  0.00    -0.354 N 
ATOM     51  N   UNL A   1      39.423  32.523  33.755  1.00  0.00    -0.248 NA
ATOM     52  C   UNL A   1      37.724  34.122  33.650  1.00  0.00     0.031 C 
ATOM     53  C   UNL A   1      42.242  32.086  37.158  1.00  0.00     0.029 A 
ATOM     54  C   UNL A   1      41.347  32.241  36.111  1.00  0.00     0.049 A 
ATOM     55  H   UNL A   1      41.162  31.109  34.340  1.00  0.00     0.167 HD
ATOM     56  C   UNL A   1      39.464  33.309  34.901  1.00  0.00     0.074 A 
ATOM     57  C   UNL A   1      38.412  34.294  34.771  1.00  0.00     0.031 C 
ATOM     58  C   UNL A   1      40.300  33.221  35.966  1.00  0.00     0.037 A 
BRANCH  45  59
ATOM     59  C   UNL A   1      44.389  28.600  35.588  1.00  0.00     0.058 A 
ATOM     60  C   UNL A   1      45.733  28.955  35.394  1.00  0.00     0.135 A 
ATOM     61  C   UNL A   1      44.114  27.522  36.445  1.00  0.00     0.135 A 
ATOM     62  F   UNL A   1      46.053  29.969  34.574  1.00  0.00    -0.206 F 
ATOM     63  C   UNL A   1      46.767  28.249  36.001  1.00  0.00     0.059 A 
ATOM     64  C   UNL A   1      45.131  26.818  37.085  1.00  0.00     0.059 A 
ATOM     65  F   UNL A   1      42.846  27.140  36.669  1.00  0.00    -0.206 F 
ATOM     66  C   UNL A   1      46.457  27.180  36.843  1.00  0.00     0.060 A 
BRANCH  66  67
ATOM     67  S   UNL A   1      47.809  26.273  37.623  1.00  0.00     0.124 S 
ATOM     68  O   UNL A   1      47.252  24.924  37.689  1.00  0.00    -0.237 OA
ATOM     69  O   UNL A   1      48.901  26.460  36.672  1.00  0.00    -0.237 OA
ATOM     70  O   UNL A   1      47.976  26.947  38.905  1.00  0.00    -0.744 OA
ENDBRANCH  66  67
ENDBRANCH  45  59
BRANCH  46  71
ATOM     71  C   UNL A   1      36.805  33.216  31.018  1.00  0.00     0.058 A 
ATOM     72  C   UNL A   1      37.005  34.110  29.955  1.00  0.00     0.135 A 
ATOM     73  C   UNL A   1      35.485  32.967  31.423  1.00  0.00     0.135 A 
ATOM     74  F   UNL A   1      38.250  34.387  29.538  1.00  0.00    -0.206 F 
ATOM     75  C   UNL A   1      35.939  34.744  29.325  1.00  0.00     0.059 A 
ATOM     76  C   UNL A   1      34.401  33.571  30.794  1.00  0.00     0.059 A 
ATOM     77  F   UNL A   1      35.240  32.108  32.424  1.00  0.00    -0.206 F 
ATOM     78  C   UNL A   1      34.639  34.465  29.751  1.00  0.00     0.060 A 
BRANCH  78  79
ATOM     79  S   UNL A   1      33.257  35.248  28.890  1.00  0.00     0.124 S 
ATOM     80  O   UNL A   1      32.443  35.715  30.005  1.00  0.00    -0.237 OA
ATOM     81  O   UNL A   1      33.928  36.284  28.110  1.00  0.00    -0.237 OA
ATOM     82  O   UNL A   1      32.690  34.155  28.106  1.00  0.00    -0.744 OA
ENDBRANCH  78  79
ENDBRANCH  46  71
BRANCH  58  83
ATOM     83  C   UNL A   1      40.133  34.236  37.062  1.00  0.00     0.058 A 
ATOM     84  C   UNL A   1      40.844  35.446  37.060  1.00  0.00     0.135 A 
ATOM     85  C   UNL A   1      39.211  34.016  38.099  1.00  0.00     0.135 A 
ATOM     86  F   UNL A   1      41.740  35.702  36.095  1.00  0.00    -0.206 F 
ATOM     87  C   UNL A   1      40.661  36.396  38.061  1.00  0.00     0.059 A 
ATOM     88  C   UNL A   1      38.996  34.963  39.096  1.00  0.00     0.059 A 
ATOM     89  F   UNL A   1      38.499  32.879  38.142  1.00  0.00    -0.206 F 
ATOM     90  C   UNL A   1      39.735  36.145  39.074  1.00  0.00     0.060 A 
BRANCH  90  91
ATOM     91  S   UNL A   1      39.482  37.400  40.348  1.00  0.00     0.124 S 
ATOM     92  O   UNL A   1      39.543  36.599  41.565  1.00  0.00    -0.237 OA
ATOM     93  O   UNL A   1      40.607  38.304  40.127  1.00  0.00    -0.237 OA
ATOM     94  O   UNL A   1      38.170  37.953  40.024  1.00  0.00    -0.744 OA
ENDBRANCH  90  91
ENDBRANCH  58  83
ENDBRANCH  32  33
ENDBRANCH  24  27
ENDBRANCH  22  23
ENDBRANCH  21  22
ENDBRANCH   1  21
TORSDOF 17
ENDMDL
