MODEL 1
REMARK VINA RESULT:     -13.0      0.000      0.000
REMARK SMILES NS(=O)(=O)c1ccc(-n2nc(NC(=O)NCCCC(=O)NCCCNC(=O)c3ccc(-c4c5nc(c(-c6c(F)cc(S(=O)(=O)[O-])cc6F)c6ccc([nH]6)c(-c6c(F)cc(S(=O)(=O)[O-])cc6F)c6nc(c(-c7c(F)cc(S(=O)(=O)[O-])cc7F)c7ccc4[nH]7)C=C6)C=C5)cc3)cc2-c2ccccc2)cc1
REMARK SMILES IDX 19 1 20 2 21 3 18 5 17 6 16 7 15 8 12 9 13 10 14 12 11 14
REMARK SMILES IDX 9 15 10 16 95 17 94 18 8 19 5 20 6 21 103 22 7 23 102 24
REMARK SMILES IDX 2 25 3 26 4 27 1 28 96 31 97 32 101 33 98 34 100 35 99 36
REMARK SMILES IDX 22 37 23 38 24 39 25 40 26 41 27 43 28 44 29 45 93 46 30 47
REMARK SMILES IDX 92 48 31 49 32 50 33 51 86 52 34 53 91 54 85 55 87 56 35 57
REMARK SMILES IDX 90 58 84 59 83 60 36 62 70 63 49 64 69 65 50 66 53 67 68 68
REMARK SMILES IDX 88 69 51 70 52 71 67 73 89 74 54 75 37 76 38 77 47 78 39 79
REMARK SMILES IDX 40 80 46 81 48 82 41 83 42 84 43 85 44 86 45 87 71 88 72 89
REMARK SMILES IDX 81 90 73 91 74 92 80 93 82 94 75 95 76 96 77 97 78 98 79 99
REMARK SMILES IDX 55 100 56 101 65 102 57 103 58 104 64 105 66 106 59 107
REMARK SMILES IDX 60 108 61 109 62 110 63 111
REMARK H PARENT 21 4 12 11 15 13 1 29 1 30 25 42 87 61 53 72
REMARK Flexibility Score: inf
ROOT
ATOM      1  C   UNL A   1      32.777  28.709  23.764  1.00  0.00     0.220 C 
ATOM      2  O   UNL A   1      33.347  29.132  22.757  1.00  0.00    -0.275 OA
ATOM      3  N   UNL A   1      32.520  29.584  24.777  1.00  0.00    -0.356 N 
ATOM      4  H   UNL A   1      32.745  30.521  24.576  1.00  0.00     0.163 HD
ENDROOT
BRANCH   1   5
ATOM      5  C   UNL A   1      32.346  27.257  23.852  1.00  0.00     0.102 C 
BRANCH   5   6
ATOM      6  C   UNL A   1      30.950  26.978  23.296  1.00  0.00     0.031 C 
BRANCH   6   7
ATOM      7  C   UNL A   1      30.262  25.751  23.875  1.00  0.00     0.118 C 
BRANCH   7   8
ATOM      8  N   UNL A   1      29.510  25.979  25.099  1.00  0.00    -0.338 N 
ATOM      9  N   UNL A   1      29.974  24.037  26.411  1.00  0.00    -0.291 N 
ATOM     10  C   UNL A   1      29.378  25.233  26.221  1.00  0.00     0.320 C 
ATOM     11  H   UNL A   1      29.547  23.474  27.097  1.00  0.00     0.173 HD
ATOM     12  O   UNL A   1      28.574  25.634  27.071  1.00  0.00    -0.248 OA
ATOM     13  H   UNL A   1      29.006  26.824  25.113  1.00  0.00     0.165 HD
BRANCH   9  14
ATOM     14  C   UNL A   1      31.072  23.469  25.813  1.00  0.00     0.157 A 
ATOM     15  N   UNL A   1      32.333  21.964  25.025  1.00  0.00    -0.231 N 
ATOM     16  N   UNL A   1      31.047  22.349  25.101  1.00  0.00    -0.149 NA
ATOM     17  C   UNL A   1      33.184  23.032  25.277  1.00  0.00     0.076 A 
ATOM     18  C   UNL A   1      32.369  24.024  25.795  1.00  0.00     0.078 A 
BRANCH  15  19
ATOM     19  C   UNL A   1      32.641  20.592  24.830  1.00  0.00     0.065 A 
ATOM     20  C   UNL A   1      33.332  17.926  24.426  1.00  0.00     0.082 A 
ATOM     21  C   UNL A   1      33.449  18.487  25.702  1.00  0.00     0.024 A 
ATOM     22  C   UNL A   1      32.823  18.674  23.361  1.00  0.00     0.024 A 
ATOM     23  C   UNL A   1      33.114  19.824  25.903  1.00  0.00     0.030 A 
ATOM     24  C   UNL A   1      32.451  20.007  23.570  1.00  0.00     0.030 A 
BRANCH  20  25
ATOM     25  S   UNL A   1      33.853  16.246  24.225  1.00  0.00     0.238 S 
ATOM     26  O   UNL A   1      34.313  16.089  22.868  1.00  0.00    -0.207 OA
ATOM     27  O   UNL A   1      32.828  15.407  24.807  1.00  0.00    -0.207 OA
BRANCH  25  28
ATOM     28  N   UNL A   1      35.209  16.094  25.198  1.00  0.00    -0.225 NA
ATOM     29  H   UNL A   1      34.920  15.872  26.151  1.00  0.00     0.137 HD
ATOM     30  H   UNL A   1      35.728  16.972  25.197  1.00  0.00     0.137 HD
ENDBRANCH  25  28
ENDBRANCH  20  25
ENDBRANCH  15  19
BRANCH  17  31
ATOM     31  C   UNL A   1      34.618  22.996  25.009  1.00  0.00     0.000 A 
ATOM     32  C   UNL A   1      35.523  23.329  26.028  1.00  0.00     0.010 A 
ATOM     33  C   UNL A   1      35.101  22.720  23.727  1.00  0.00     0.010 A 
ATOM     34  C   UNL A   1      36.884  23.443  25.758  1.00  0.00     0.001 A 
ATOM     35  C   UNL A   1      36.468  22.824  23.461  1.00  0.00     0.001 A 
ATOM     36  C   UNL A   1      37.355  23.196  24.472  1.00  0.00     0.000 A 
ENDBRANCH  17  31
ENDBRANCH   9  14
ENDBRANCH   7   8
ENDBRANCH   6   7
ENDBRANCH   5   6
ENDBRANCH   1   5
BRANCH   3  37
ATOM     37  C   UNL A   1      31.970  29.365  26.111  1.00  0.00     0.117 C 
BRANCH  37  38
ATOM     38  C   UNL A   1      33.061  29.107  27.151  1.00  0.00     0.042 C 
BRANCH  38  39
ATOM     39  C   UNL A   1      34.320  29.923  26.966  1.00  0.00     0.118 C 
BRANCH  39  40
ATOM     40  N   UNL A   1      34.246  31.242  27.585  1.00  0.00    -0.352 N 
ATOM     41  C   UNL A   1      34.923  31.682  28.709  1.00  0.00     0.251 C 
ATOM     42  H   UNL A   1      33.645  31.893  27.154  1.00  0.00     0.163 HD
ATOM     43  O   UNL A   1      34.484  32.619  29.366  1.00  0.00    -0.269 OA
BRANCH  41  44
ATOM     44  C   UNL A   1      36.173  31.000  29.106  1.00  0.00     0.039 A 
ATOM     45  C   UNL A   1      36.193  29.649  29.457  1.00  0.00     0.014 A 
ATOM     46  C   UNL A   1      37.354  31.740  29.112  1.00  0.00     0.014 A 
ATOM     47  C   UNL A   1      37.419  29.054  29.750  1.00  0.00     0.010 A 
ATOM     48  C   UNL A   1      38.567  31.111  29.181  1.00  0.00     0.010 A 
ATOM     49  C   UNL A   1      38.609  29.790  29.588  1.00  0.00    -0.014 A 
BRANCH  49  50
ATOM     50  C   UNL A   1      39.919  29.154  29.688  1.00  0.00     0.031 A 
ATOM     51  C   UNL A   1      40.333  28.976  31.101  1.00  0.00     0.074 A 
ATOM     52  C   UNL A   1      40.574  28.589  28.646  1.00  0.00     0.049 A 
ATOM     53  N   UNL A   1      41.142  29.722  31.776  1.00  0.00    -0.248 NA
ATOM     54  C   UNL A   1      39.576  28.026  31.937  1.00  0.00     0.031 C 
ATOM     55  C   UNL A   1      40.080  28.393  27.275  1.00  0.00     0.029 A 
ATOM     56  N   UNL A   1      41.798  27.980  28.602  1.00  0.00    -0.354 N 
ATOM     57  C   UNL A   1      41.253  29.097  33.015  1.00  0.00     0.074 A 
ATOM     58  C   UNL A   1      40.076  28.289  33.148  1.00  0.00     0.031 C 
ATOM     59  C   UNL A   1      40.880  27.529  26.611  1.00  0.00     0.029 A 
ATOM     60  C   UNL A   1      42.046  27.254  27.431  1.00  0.00     0.049 A 
ATOM     61  H   UNL A   1      42.453  28.048  29.334  1.00  0.00     0.167 HD
ATOM     62  C   UNL A   1      42.478  28.993  33.605  1.00  0.00     0.037 A 
ATOM     63  C   UNL A   1      43.144  26.504  27.145  1.00  0.00     0.037 A 
ATOM     64  C   UNL A   1      43.414  29.864  32.932  1.00  0.00     0.049 A 
ATOM     65  C   UNL A   1      44.233  26.996  28.019  1.00  0.00     0.074 A 
ATOM     66  C   UNL A   1      43.654  31.219  32.856  1.00  0.00     0.029 A 
ATOM     67  N   UNL A   1      44.003  29.284  31.838  1.00  0.00    -0.354 N 
ATOM     68  N   UNL A   1      44.745  28.192  27.917  1.00  0.00    -0.248 NA
ATOM     69  C   UNL A   1      44.510  26.299  29.270  1.00  0.00     0.031 C 
ATOM     70  C   UNL A   1      44.301  31.442  31.604  1.00  0.00     0.029 A 
ATOM     71  C   UNL A   1      44.503  30.218  30.974  1.00  0.00     0.049 A 
ATOM     72  H   UNL A   1      44.057  28.311  31.692  1.00  0.00     0.167 HD
ATOM     73  C   UNL A   1      45.026  28.553  29.218  1.00  0.00     0.074 A 
ATOM     74  C   UNL A   1      45.024  27.308  29.977  1.00  0.00     0.031 C 
ATOM     75  C   UNL A   1      44.884  29.846  29.628  1.00  0.00     0.037 A 
BRANCH  62  76
ATOM     76  C   UNL A   1      42.983  27.785  34.382  1.00  0.00     0.058 A 
ATOM     77  C   UNL A   1      43.276  27.943  35.756  1.00  0.00     0.135 A 
ATOM     78  C   UNL A   1      43.456  26.582  33.810  1.00  0.00     0.135 A 
ATOM     79  F   UNL A   1      42.876  29.039  36.420  1.00  0.00    -0.206 F 
ATOM     80  C   UNL A   1      44.040  27.023  36.479  1.00  0.00     0.059 A 
ATOM     81  C   UNL A   1      44.184  25.633  34.521  1.00  0.00     0.059 A 
ATOM     82  F   UNL A   1      43.314  26.288  32.515  1.00  0.00    -0.206 F 
ATOM     83  C   UNL A   1      44.498  25.873  35.845  1.00  0.00     0.060 A 
BRANCH  83  84
ATOM     84  S   UNL A   1      45.521  24.704  36.755  1.00  0.00     0.124 S 
ATOM     85  O   UNL A   1      46.738  25.479  36.963  1.00  0.00    -0.237 OA
ATOM     86  O   UNL A   1      44.706  24.453  37.939  1.00  0.00    -0.237 OA
ATOM     87  O   UNL A   1      45.637  23.576  35.833  1.00  0.00    -0.744 OA
ENDBRANCH  83  84
ENDBRANCH  62  76
BRANCH  63  88
ATOM     88  C   UNL A   1      43.296  25.261  26.341  1.00  0.00     0.058 A 
ATOM     89  C   UNL A   1      44.285  25.146  25.343  1.00  0.00     0.135 A 
ATOM     90  C   UNL A   1      42.696  24.058  26.757  1.00  0.00     0.135 A 
ATOM     91  F   UNL A   1      44.917  26.240  24.891  1.00  0.00    -0.206 F 
ATOM     92  C   UNL A   1      44.705  23.908  24.840  1.00  0.00     0.059 A 
ATOM     93  C   UNL A   1      43.096  22.812  26.266  1.00  0.00     0.059 A 
ATOM     94  F   UNL A   1      41.772  24.054  27.731  1.00  0.00    -0.206 F 
ATOM     95  C   UNL A   1      44.121  22.741  25.329  1.00  0.00     0.060 A 
BRANCH  95  96
ATOM     96  S   UNL A   1      44.791  21.133  24.831  1.00  0.00     0.124 S 
ATOM     97  O   UNL A   1      43.920  20.207  25.548  1.00  0.00    -0.237 OA
ATOM     98  O   UNL A   1      44.632  21.165  23.381  1.00  0.00    -0.237 OA
ATOM     99  O   UNL A   1      46.172  21.183  25.305  1.00  0.00    -0.744 OA
ENDBRANCH  95  96
ENDBRANCH  63  88
BRANCH  75 100
ATOM    100  C   UNL A   1      45.029  30.930  28.604  1.00  0.00     0.058 A 
ATOM    101  C   UNL A   1      46.235  31.344  28.013  1.00  0.00     0.135 A 
ATOM    102  C   UNL A   1      43.845  31.521  28.140  1.00  0.00     0.135 A 
ATOM    103  F   UNL A   1      47.402  30.778  28.355  1.00  0.00    -0.206 F 
ATOM    104  C   UNL A   1      46.256  32.324  27.016  1.00  0.00     0.059 A 
ATOM    105  C   UNL A   1      43.841  32.472  27.129  1.00  0.00     0.059 A 
ATOM    106  F   UNL A   1      42.660  31.138  28.644  1.00  0.00    -0.206 F 
ATOM    107  C   UNL A   1      45.052  32.879  26.579  1.00  0.00     0.060 A 
BRANCH 107 108
ATOM    108  S   UNL A   1      45.064  34.098  25.247  1.00  0.00     0.124 S 
ATOM    109  O   UNL A   1      46.479  34.446  25.161  1.00  0.00    -0.237 OA
ATOM    110  O   UNL A   1      44.525  33.341  24.121  1.00  0.00    -0.237 OA
ATOM    111  O   UNL A   1      44.191  35.159  25.747  1.00  0.00    -0.744 OA
ENDBRANCH 107 108
ENDBRANCH  75 100
ENDBRANCH  49  50
ENDBRANCH  41  44
ENDBRANCH  39  40
ENDBRANCH  38  39
ENDBRANCH  37  38
ENDBRANCH   3  37
TORSDOF 21
ENDMDL
MODEL 2
REMARK VINA RESULT:     -12.0      2.184      3.218
REMARK SMILES NS(=O)(=O)c1ccc(-n2nc(NC(=O)NCCCC(=O)NCCCNC(=O)c3ccc(-c4c5nc(c(-c6c(F)cc(S(=O)(=O)[O-])cc6F)c6ccc([nH]6)c(-c6c(F)cc(S(=O)(=O)[O-])cc6F)c6nc(c(-c7c(F)cc(S(=O)(=O)[O-])cc7F)c7ccc4[nH]7)C=C6)C=C5)cc3)cc2-c2ccccc2)cc1
REMARK SMILES IDX 19 1 20 2 21 3 18 5 17 6 16 7 15 8 12 9 13 10 14 12 11 14
REMARK SMILES IDX 9 15 10 16 95 17 94 18 8 19 5 20 6 21 103 22 7 23 102 24
REMARK SMILES IDX 2 25 3 26 4 27 1 28 96 31 97 32 101 33 98 34 100 35 99 36
REMARK SMILES IDX 22 37 23 38 24 39 25 40 26 41 27 43 28 44 29 45 93 46 30 47
REMARK SMILES IDX 92 48 31 49 32 50 33 51 86 52 34 53 91 54 85 55 87 56 35 57
REMARK SMILES IDX 90 58 84 59 83 60 36 62 70 63 49 64 69 65 50 66 53 67 68 68
REMARK SMILES IDX 88 69 51 70 52 71 67 73 89 74 54 75 37 76 38 77 47 78 39 79
REMARK SMILES IDX 40 80 46 81 48 82 41 83 42 84 43 85 44 86 45 87 71 88 72 89
REMARK SMILES IDX 81 90 73 91 74 92 80 93 82 94 75 95 76 96 77 97 78 98 79 99
REMARK SMILES IDX 55 100 56 101 65 102 57 103 58 104 64 105 66 106 59 107
REMARK SMILES IDX 60 108 61 109 62 110 63 111
REMARK H PARENT 21 4 12 11 15 13 1 29 1 30 25 42 87 61 53 72
REMARK Flexibility Score: inf
ROOT
ATOM      1  C   UNL A   1      33.518  28.293  24.970  1.00  0.00     0.220 C 
ATOM      2  O   UNL A   1      33.844  28.032  23.811  1.00  0.00    -0.275 OA
ATOM      3  N   UNL A   1      33.565  29.592  25.379  1.00  0.00    -0.356 N 
ATOM      4  H   UNL A   1      33.784  30.237  24.668  1.00  0.00     0.163 HD
ENDROOT
BRANCH   1   5
ATOM      5  C   UNL A   1      33.043  27.193  25.902  1.00  0.00     0.102 C 
BRANCH   5   6
ATOM      6  C   UNL A   1      31.547  26.894  25.816  1.00  0.00     0.031 C 
BRANCH   6   7
ATOM      7  C   UNL A   1      31.162  25.838  24.791  1.00  0.00     0.118 C 
BRANCH   7   8
ATOM      8  N   UNL A   1      31.058  26.310  23.419  1.00  0.00    -0.338 N 
ATOM      9  N   UNL A   1      32.907  25.265  22.324  1.00  0.00    -0.291 N 
ATOM     10  C   UNL A   1      31.817  26.063  22.326  1.00  0.00     0.320 C 
ATOM     11  H   UNL A   1      33.530  25.430  21.581  1.00  0.00     0.173 HD
ATOM     12  O   UNL A   1      31.548  26.697  21.299  1.00  0.00    -0.248 OA
ATOM     13  H   UNL A   1      30.301  26.918  23.257  1.00  0.00     0.165 HD
BRANCH   9  14
ATOM     14  C   UNL A   1      33.294  24.264  23.180  1.00  0.00     0.157 A 
ATOM     15  N   UNL A   1      34.573  23.068  24.369  1.00  0.00    -0.231 N 
ATOM     16  N   UNL A   1      34.328  24.340  24.010  1.00  0.00    -0.149 NA
ATOM     17  C   UNL A   1      33.460  22.268  24.146  1.00  0.00     0.076 A 
ATOM     18  C   UNL A   1      32.616  23.041  23.366  1.00  0.00     0.078 A 
BRANCH  15  19
ATOM     19  C   UNL A   1      35.879  22.699  24.788  1.00  0.00     0.065 A 
ATOM     20  C   UNL A   1      38.402  21.945  25.686  1.00  0.00     0.082 A 
ATOM     21  C   UNL A   1      37.636  21.046  24.939  1.00  0.00     0.024 A 
ATOM     22  C   UNL A   1      37.937  23.237  25.945  1.00  0.00     0.024 A 
ATOM     23  C   UNL A   1      36.368  21.418  24.497  1.00  0.00     0.030 A 
ATOM     24  C   UNL A   1      36.680  23.626  25.470  1.00  0.00     0.030 A 
BRANCH  20  25
ATOM     25  S   UNL A   1      39.969  21.378  26.285  1.00  0.00     0.238 S 
ATOM     26  O   UNL A   1      40.025  21.655  27.698  1.00  0.00    -0.207 OA
ATOM     27  O   UNL A   1      40.976  21.840  25.355  1.00  0.00    -0.207 OA
BRANCH  25  28
ATOM     28  N   UNL A   1      39.909  19.709  26.139  1.00  0.00    -0.225 NA
ATOM     29  H   UNL A   1      40.492  19.284  26.859  1.00  0.00     0.137 HD
ATOM     30  H   UNL A   1      40.253  19.436  25.217  1.00  0.00     0.137 HD
ENDBRANCH  25  28
ENDBRANCH  20  25
ENDBRANCH  15  19
BRANCH  17  31
ATOM     31  C   UNL A   1      33.325  20.915  24.674  1.00  0.00     0.000 A 
ATOM     32  C   UNL A   1      33.068  19.850  23.798  1.00  0.00     0.010 A 
ATOM     33  C   UNL A   1      33.360  20.676  26.051  1.00  0.00     0.010 A 
ATOM     34  C   UNL A   1      32.792  18.578  24.290  1.00  0.00     0.001 A 
ATOM     35  C   UNL A   1      33.093  19.397  26.542  1.00  0.00     0.001 A 
ATOM     36  C   UNL A   1      32.799  18.353  25.664  1.00  0.00     0.000 A 
ENDBRANCH  17  31
ENDBRANCH   9  14
ENDBRANCH   7   8
ENDBRANCH   6   7
ENDBRANCH   5   6
ENDBRANCH   1   5
BRANCH   3  37
ATOM     37  C   UNL A   1      33.348  30.188  26.693  1.00  0.00     0.117 C 
BRANCH  37  38
ATOM     38  C   UNL A   1      34.564  30.031  27.607  1.00  0.00     0.042 C 
BRANCH  38  39
ATOM     39  C   UNL A   1      35.374  31.292  27.809  1.00  0.00     0.118 C 
BRANCH  39  40
ATOM     40  N   UNL A   1      34.988  32.037  29.003  1.00  0.00    -0.352 N 
ATOM     41  C   UNL A   1      35.451  31.852  30.294  1.00  0.00     0.251 C 
ATOM     42  H   UNL A   1      34.323  32.752  28.876  1.00  0.00     0.163 HD
ATOM     43  O   UNL A   1      34.777  32.222  31.250  1.00  0.00    -0.269 OA
BRANCH  41  44
ATOM     44  C   UNL A   1      36.758  31.195  30.501  1.00  0.00     0.039 A 
ATOM     45  C   UNL A   1      36.857  29.841  30.826  1.00  0.00     0.014 A 
ATOM     46  C   UNL A   1      37.912  31.962  30.349  1.00  0.00     0.014 A 
ATOM     47  C   UNL A   1      38.125  29.271  30.934  1.00  0.00     0.010 A 
ATOM     48  C   UNL A   1      39.136  31.360  30.237  1.00  0.00     0.010 A 
ATOM     49  C   UNL A   1      39.263  30.037  30.616  1.00  0.00    -0.014 A 
BRANCH  49  50
ATOM     50  C   UNL A   1      40.588  29.431  30.520  1.00  0.00     0.031 A 
ATOM     51  C   UNL A   1      41.204  29.251  31.857  1.00  0.00     0.074 A 
ATOM     52  C   UNL A   1      41.099  28.888  29.389  1.00  0.00     0.049 A 
ATOM     53  N   UNL A   1      42.085  30.011  32.417  1.00  0.00    -0.248 NA
ATOM     54  C   UNL A   1      40.596  28.277  32.783  1.00  0.00     0.031 C 
ATOM     55  C   UNL A   1      40.418  28.692  28.101  1.00  0.00     0.029 A 
ATOM     56  N   UNL A   1      42.317  28.308  29.163  1.00  0.00    -0.354 N 
ATOM     57  C   UNL A   1      42.386  29.379  33.621  1.00  0.00     0.074 A 
ATOM     58  C   UNL A   1      41.259  28.543  33.912  1.00  0.00     0.031 C 
ATOM     59  C   UNL A   1      41.133  27.851  27.319  1.00  0.00     0.029 A 
ATOM     60  C   UNL A   1      42.410  27.597  27.961  1.00  0.00     0.049 A 
ATOM     61  H   UNL A   1      43.068  28.386  29.795  1.00  0.00     0.167 HD
ATOM     62  C   UNL A   1      43.686  29.300  34.028  1.00  0.00     0.037 A 
ATOM     63  C   UNL A   1      43.472  26.875  27.513  1.00  0.00     0.037 A 
ATOM     64  C   UNL A   1      44.496  30.197  33.237  1.00  0.00     0.049 A 
ATOM     65  C   UNL A   1      44.664  27.385  28.227  1.00  0.00     0.074 A 
ATOM     66  C   UNL A   1      44.693  31.557  33.142  1.00  0.00     0.029 A 
ATOM     67  N   UNL A   1      44.935  29.638  32.064  1.00  0.00    -0.354 N 
ATOM     68  N   UNL A   1      45.130  28.593  28.066  1.00  0.00    -0.248 NA
ATOM     69  C   UNL A   1      45.133  26.686  29.418  1.00  0.00     0.031 C 
ATOM     70  C   UNL A   1      45.149  31.805  31.812  1.00  0.00     0.029 A 
ATOM     71  C   UNL A   1      45.285  30.590  31.147  1.00  0.00     0.049 A 
ATOM     72  H   UNL A   1      44.989  28.668  31.902  1.00  0.00     0.167 HD
ATOM     73  C   UNL A   1      45.586  28.952  29.317  1.00  0.00     0.074 A 
ATOM     74  C   UNL A   1      45.721  27.701  30.055  1.00  0.00     0.031 C 
ATOM     75  C   UNL A   1      45.476  30.238  29.757  1.00  0.00     0.037 A 
BRANCH  62  76
ATOM     76  C   UNL A   1      44.323  28.097  34.711  1.00  0.00     0.058 A 
ATOM     77  C   UNL A   1      44.326  26.858  34.029  1.00  0.00     0.135 A 
ATOM     78  C   UNL A   1      44.667  28.020  36.080  1.00  0.00     0.135 A 
ATOM     79  F   UNL A   1      44.023  26.796  32.722  1.00  0.00    -0.206 F 
ATOM     80  C   UNL A   1      44.574  25.642  34.669  1.00  0.00     0.059 A 
ATOM     81  C   UNL A   1      44.958  26.824  36.728  1.00  0.00     0.059 A 
ATOM     82  F   UNL A   1      44.667  29.082  36.891  1.00  0.00    -0.206 F 
ATOM     83  C   UNL A   1      44.879  25.636  36.025  1.00  0.00     0.060 A 
BRANCH  83  84
ATOM     84  S   UNL A   1      45.156  24.070  36.869  1.00  0.00     0.124 S 
ATOM     85  O   UNL A   1      46.594  23.899  36.706  1.00  0.00    -0.237 OA
ATOM     86  O   UNL A   1      44.692  24.373  38.220  1.00  0.00    -0.237 OA
ATOM     87  O   UNL A   1      44.317  23.137  36.122  1.00  0.00    -0.744 OA
ENDBRANCH  83  84
ENDBRANCH  62  76
BRANCH  63  88
ATOM     88  C   UNL A   1      43.534  25.642  26.682  1.00  0.00     0.058 A 
ATOM     89  C   UNL A   1      44.280  25.596  25.487  1.00  0.00     0.135 A 
ATOM     90  C   UNL A   1      43.136  24.399  27.209  1.00  0.00     0.135 A 
ATOM     91  F   UNL A   1      44.709  26.733  24.917  1.00  0.00    -0.206 F 
ATOM     92  C   UNL A   1      44.670  24.391  24.889  1.00  0.00     0.059 A 
ATOM     93  C   UNL A   1      43.509  23.185  26.628  1.00  0.00     0.059 A 
ATOM     94  F   UNL A   1      42.457  24.331  28.364  1.00  0.00    -0.206 F 
ATOM     95  C   UNL A   1      44.301  23.186  25.484  1.00  0.00     0.060 A 
BRANCH  95  96
ATOM     96  S   UNL A   1      44.963  21.631  24.832  1.00  0.00     0.124 S 
ATOM     97  O   UNL A   1      44.598  21.713  23.421  1.00  0.00    -0.237 OA
ATOM     98  O   UNL A   1      46.386  21.749  25.130  1.00  0.00    -0.237 OA
ATOM     99  O   UNL A   1      44.250  20.614  25.601  1.00  0.00    -0.744 OA
ENDBRANCH  95  96
ENDBRANCH  63  88
BRANCH  75 100
ATOM    100  C   UNL A   1      45.450  31.332  28.734  1.00  0.00     0.058 A 
ATOM    101  C   UNL A   1      44.295  31.940  28.213  1.00  0.00     0.135 A 
ATOM    102  C   UNL A   1      46.690  31.845  28.328  1.00  0.00     0.135 A 
ATOM    103  F   UNL A   1      43.072  31.551  28.604  1.00  0.00    -0.206 F 
ATOM    104  C   UNL A   1      44.379  33.002  27.306  1.00  0.00     0.059 A 
ATOM    105  C   UNL A   1      46.796  32.918  27.454  1.00  0.00     0.059 A 
ATOM    106  F   UNL A   1      47.826  31.326  28.821  1.00  0.00    -0.206 F 
ATOM    107  C   UNL A   1      45.635  33.485  26.937  1.00  0.00     0.060 A 
BRANCH 107 108
ATOM    108  S   UNL A   1      45.752  34.897  25.817  1.00  0.00     0.124 S 
ATOM    109  O   UNL A   1      44.701  35.776  26.319  1.00  0.00    -0.237 OA
ATOM    110  O   UNL A   1      47.122  35.356  26.029  1.00  0.00    -0.237 OA
ATOM    111  O   UNL A   1      45.499  34.311  24.501  1.00  0.00    -0.744 OA
ENDBRANCH 107 108
ENDBRANCH  75 100
ENDBRANCH  49  50
ENDBRANCH  41  44
ENDBRANCH  39  40
ENDBRANCH  38  39
ENDBRANCH  37  38
ENDBRANCH   3  37
TORSDOF 21
ENDMDL
MODEL 3
REMARK VINA RESULT:     -11.7      4.239      7.560
REMARK SMILES NS(=O)(=O)c1ccc(-n2nc(NC(=O)NCCCC(=O)NCCCNC(=O)c3ccc(-c4c5nc(c(-c6c(F)cc(S(=O)(=O)[O-])cc6F)c6ccc([nH]6)c(-c6c(F)cc(S(=O)(=O)[O-])cc6F)c6nc(c(-c7c(F)cc(S(=O)(=O)[O-])cc7F)c7ccc4[nH]7)C=C6)C=C5)cc3)cc2-c2ccccc2)cc1
REMARK SMILES IDX 19 1 20 2 21 3 18 5 17 6 16 7 15 8 12 9 13 10 14 12 11 14
REMARK SMILES IDX 9 15 10 16 95 17 94 18 8 19 5 20 6 21 103 22 7 23 102 24
REMARK SMILES IDX 2 25 3 26 4 27 1 28 96 31 97 32 101 33 98 34 100 35 99 36
REMARK SMILES IDX 22 37 23 38 24 39 25 40 26 41 27 43 28 44 29 45 93 46 30 47
REMARK SMILES IDX 92 48 31 49 32 50 33 51 86 52 34 53 91 54 85 55 87 56 35 57
REMARK SMILES IDX 90 58 84 59 83 60 36 62 70 63 49 64 69 65 50 66 53 67 68 68
REMARK SMILES IDX 88 69 51 70 52 71 67 73 89 74 54 75 37 76 38 77 47 78 39 79
REMARK SMILES IDX 40 80 46 81 48 82 41 83 42 84 43 85 44 86 45 87 71 88 72 89
REMARK SMILES IDX 81 90 73 91 74 92 80 93 82 94 75 95 76 96 77 97 78 98 79 99
REMARK SMILES IDX 55 100 56 101 65 102 57 103 58 104 64 105 66 106 59 107
REMARK SMILES IDX 60 108 61 109 62 110 63 111
REMARK H PARENT 21 4 12 11 15 13 1 29 1 30 25 42 87 61 53 72
REMARK Flexibility Score: inf
ROOT
ATOM      1  C   UNL A   1      35.380  34.046  33.345  1.00  0.00     0.220 C 
ATOM      2  O   UNL A   1      34.800  33.174  33.994  1.00  0.00    -0.275 OA
ATOM      3  N   UNL A   1      36.621  33.770  32.855  1.00  0.00    -0.356 N 
ATOM      4  H   UNL A   1      36.920  32.842  32.996  1.00  0.00     0.163 HD
ENDROOT
BRANCH   1   5
ATOM      5  C   UNL A   1      34.709  35.380  33.074  1.00  0.00     0.102 C 
BRANCH   5   6
ATOM      6  C   UNL A   1      33.318  35.271  32.450  1.00  0.00     0.031 C 
BRANCH   6   7
ATOM      7  C   UNL A   1      33.306  34.991  30.955  1.00  0.00     0.118 C 
BRANCH   7   8
ATOM      8  N   UNL A   1      32.946  36.120  30.112  1.00  0.00    -0.338 N 
ATOM      9  N   UNL A   1      34.371  35.876  28.209  1.00  0.00    -0.291 N 
ATOM     10  C   UNL A   1      33.406  36.517  28.902  1.00  0.00     0.320 C 
ATOM     11  H   UNL A   1      34.824  36.431  27.534  1.00  0.00     0.173 HD
ATOM     12  O   UNL A   1      32.983  37.594  28.466  1.00  0.00    -0.248 OA
ATOM     13  H   UNL A   1      32.244  36.698  30.488  1.00  0.00     0.165 HD
BRANCH   9  14
ATOM     14  C   UNL A   1      34.830  34.584  28.284  1.00  0.00     0.157 A 
ATOM     15  N   UNL A   1      34.879  32.487  28.004  1.00  0.00    -0.231 N 
ATOM     16  N   UNL A   1      34.578  33.641  27.384  1.00  0.00    -0.149 NA
ATOM     17  C   UNL A   1      35.722  32.712  29.085  1.00  0.00     0.076 A 
ATOM     18  C   UNL A   1      35.696  34.083  29.278  1.00  0.00     0.078 A 
BRANCH  15  19
ATOM     19  C   UNL A   1      34.250  31.284  27.587  1.00  0.00     0.065 A 
ATOM     20  C   UNL A   1      33.012  28.902  26.855  1.00  0.00     0.082 A 
ATOM     21  C   UNL A   1      32.238  30.046  27.076  1.00  0.00     0.024 A 
ATOM     22  C   UNL A   1      34.405  28.953  26.947  1.00  0.00     0.024 A 
ATOM     23  C   UNL A   1      32.855  31.236  27.453  1.00  0.00     0.030 A 
ATOM     24  C   UNL A   1      35.030  30.158  27.289  1.00  0.00     0.030 A 
BRANCH  20  25
ATOM     25  S   UNL A   1      32.155  27.404  26.459  1.00  0.00     0.238 S 
ATOM     26  O   UNL A   1      31.014  27.307  27.335  1.00  0.00    -0.207 OA
ATOM     27  O   UNL A   1      33.149  26.359  26.349  1.00  0.00    -0.207 OA
BRANCH  25  28
ATOM     28  N   UNL A   1      31.543  27.650  24.919  1.00  0.00    -0.225 NA
ATOM     29  H   UNL A   1      31.475  28.651  24.736  1.00  0.00     0.137 HD
ATOM     30  H   UNL A   1      30.616  27.229  24.850  1.00  0.00     0.137 HD
ENDBRANCH  25  28
ENDBRANCH  20  25
ENDBRANCH  15  19
BRANCH  17  31
ATOM     31  C   UNL A   1      36.430  31.646  29.786  1.00  0.00     0.000 A 
ATOM     32  C   UNL A   1      37.615  31.126  29.243  1.00  0.00     0.010 A 
ATOM     33  C   UNL A   1      35.900  31.075  30.946  1.00  0.00     0.010 A 
ATOM     34  C   UNL A   1      38.229  30.016  29.814  1.00  0.00     0.001 A 
ATOM     35  C   UNL A   1      36.523  29.967  31.524  1.00  0.00     0.001 A 
ATOM     36  C   UNL A   1      37.679  29.433  30.952  1.00  0.00     0.000 A 
ENDBRANCH  17  31
ENDBRANCH   9  14
ENDBRANCH   7   8
ENDBRANCH   6   7
ENDBRANCH   5   6
ENDBRANCH   1   5
BRANCH   3  37
ATOM     37  C   UNL A   1      37.584  34.617  32.158  1.00  0.00     0.117 C 
BRANCH  37  38
ATOM     38  C   UNL A   1      38.766  33.818  31.608  1.00  0.00     0.042 C 
BRANCH  38  39
ATOM     39  C   UNL A   1      40.099  34.136  32.245  1.00  0.00     0.118 C 
BRANCH  39  40
ATOM     40  N   UNL A   1      40.026  34.259  33.697  1.00  0.00    -0.352 N 
ATOM     41  C   UNL A   1      39.996  33.233  34.626  1.00  0.00     0.251 C 
ATOM     42  H   UNL A   1      39.995  35.175  34.058  1.00  0.00     0.163 HD
ATOM     43  O   UNL A   1      39.521  33.424  35.741  1.00  0.00    -0.269 OA
BRANCH  41  44
ATOM     44  C   UNL A   1      40.533  31.909  34.251  1.00  0.00     0.039 A 
ATOM     45  C   UNL A   1      39.698  30.862  33.858  1.00  0.00     0.014 A 
ATOM     46  C   UNL A   1      41.914  31.725  34.284  1.00  0.00     0.014 A 
ATOM     47  C   UNL A   1      40.279  29.663  33.447  1.00  0.00     0.010 A 
ATOM     48  C   UNL A   1      42.485  30.639  33.678  1.00  0.00     0.010 A 
ATOM     49  C   UNL A   1      41.680  29.567  33.339  1.00  0.00    -0.014 A 
BRANCH  49  50
ATOM     50  C   UNL A   1      42.321  28.408  32.726  1.00  0.00     0.031 A 
ATOM     51  C   UNL A   1      42.986  27.552  33.739  1.00  0.00     0.074 A 
ATOM     52  C   UNL A   1      42.142  28.029  31.438  1.00  0.00     0.049 A 
ATOM     53  N   UNL A   1      44.242  27.528  34.034  1.00  0.00    -0.248 NA
ATOM     54  C   UNL A   1      42.141  26.834  34.712  1.00  0.00     0.031 C 
ATOM     55  C   UNL A   1      41.214  28.605  30.454  1.00  0.00     0.029 A 
ATOM     56  N   UNL A   1      42.687  26.984  30.744  1.00  0.00    -0.354 N 
ATOM     57  C   UNL A   1      44.366  26.519  34.985  1.00  0.00     0.074 A 
ATOM     58  C   UNL A   1      43.061  26.368  35.562  1.00  0.00     0.031 C 
ATOM     59  C   UNL A   1      41.093  27.780  29.390  1.00  0.00     0.029 A 
ATOM     60  C   UNL A   1      42.069  26.714  29.517  1.00  0.00     0.049 A 
ATOM     61  H   UNL A   1      43.453  26.465  31.079  1.00  0.00     0.167 HD
ATOM     62  C   UNL A   1      45.412  25.647  34.904  1.00  0.00     0.037 A 
ATOM     63  C   UNL A   1      42.360  25.703  28.655  1.00  0.00     0.037 A 
ATOM     64  C   UNL A   1      46.397  26.158  33.979  1.00  0.00     0.049 A 
ATOM     65  C   UNL A   1      43.743  25.270  28.960  1.00  0.00     0.074 A 
ATOM     66  C   UNL A   1      47.338  27.165  33.964  1.00  0.00     0.029 A 
ATOM     67  N   UNL A   1      46.143  25.818  32.676  1.00  0.00    -0.354 N 
ATOM     68  N   UNL A   1      44.786  26.031  28.773  1.00  0.00    -0.248 NA
ATOM     69  C   UNL A   1      43.952  24.121  29.833  1.00  0.00     0.031 C 
ATOM     70  C   UNL A   1      47.543  27.502  32.593  1.00  0.00     0.029 A 
ATOM     71  C   UNL A   1      46.777  26.653  31.799  1.00  0.00     0.049 A 
ATOM     72  H   UNL A   1      45.571  25.063  32.404  1.00  0.00     0.167 HD
ATOM     73  C   UNL A   1      45.629  25.714  29.818  1.00  0.00     0.074 A 
ATOM     74  C   UNL A   1      45.152  24.434  30.328  1.00  0.00     0.031 C 
ATOM     75  C   UNL A   1      46.407  26.670  30.400  1.00  0.00     0.037 A 
BRANCH  62  76
ATOM     76  C   UNL A   1      45.339  24.154  35.194  1.00  0.00     0.058 A 
ATOM     77  C   UNL A   1      46.299  23.590  36.066  1.00  0.00     0.135 A 
ATOM     78  C   UNL A   1      44.579  23.213  34.463  1.00  0.00     0.135 A 
ATOM     79  F   UNL A   1      47.082  24.376  36.823  1.00  0.00    -0.206 F 
ATOM     80  C   UNL A   1      46.535  22.216  36.147  1.00  0.00     0.059 A 
ATOM     81  C   UNL A   1      44.769  21.838  34.558  1.00  0.00     0.059 A 
ATOM     82  F   UNL A   1      43.663  23.565  33.557  1.00  0.00    -0.206 F 
ATOM     83  C   UNL A   1      45.769  21.348  35.377  1.00  0.00     0.060 A 
BRANCH  83  84
ATOM     84  S   UNL A   1      46.095  19.579  35.440  1.00  0.00     0.124 S 
ATOM     85  O   UNL A   1      47.125  19.434  34.418  1.00  0.00    -0.237 OA
ATOM     86  O   UNL A   1      46.531  19.404  36.822  1.00  0.00    -0.237 OA
ATOM     87  O   UNL A   1      44.798  18.989  35.121  1.00  0.00    -0.744 OA
ENDBRANCH  83  84
ENDBRANCH  62  76
BRANCH  63  88
ATOM     88  C   UNL A   1      41.490  24.927  27.731  1.00  0.00     0.058 A 
ATOM     89  C   UNL A   1      41.074  23.615  28.038  1.00  0.00     0.135 A 
ATOM     90  C   UNL A   1      40.787  25.570  26.694  1.00  0.00     0.135 A 
ATOM     91  F   UNL A   1      41.681  22.928  29.018  1.00  0.00    -0.206 F 
ATOM     92  C   UNL A   1      39.983  23.005  27.406  1.00  0.00     0.059 A 
ATOM     93  C   UNL A   1      39.699  24.979  26.047  1.00  0.00     0.059 A 
ATOM     94  F   UNL A   1      41.079  26.834  26.352  1.00  0.00    -0.206 F 
ATOM     95  C   UNL A   1      39.283  23.707  26.428  1.00  0.00     0.060 A 
BRANCH  95  96
ATOM     96  S   UNL A   1      37.757  23.006  25.747  1.00  0.00     0.124 S 
ATOM     97  O   UNL A   1      38.082  21.586  25.674  1.00  0.00    -0.237 OA
ATOM     98  O   UNL A   1      36.767  23.382  26.752  1.00  0.00    -0.237 OA
ATOM     99  O   UNL A   1      37.622  23.683  24.459  1.00  0.00    -0.744 OA
ENDBRANCH  95  96
ENDBRANCH  63  88
BRANCH  75 100
ATOM    100  C   UNL A   1      46.812  27.851  29.570  1.00  0.00     0.058 A 
ATOM    101  C   UNL A   1      47.808  27.854  28.579  1.00  0.00     0.135 A 
ATOM    102  C   UNL A   1      46.072  29.028  29.748  1.00  0.00     0.135 A 
ATOM    103  F   UNL A   1      48.513  26.746  28.304  1.00  0.00    -0.206 F 
ATOM    104  C   UNL A   1      48.066  28.995  27.813  1.00  0.00     0.059 A 
ATOM    105  C   UNL A   1      46.291  30.162  28.977  1.00  0.00     0.059 A 
ATOM    106  F   UNL A   1      45.084  29.071  30.656  1.00  0.00    -0.206 F 
ATOM    107  C   UNL A   1      47.298  30.143  28.018  1.00  0.00     0.060 A 
BRANCH 107 108
ATOM    108  S   UNL A   1      47.583  31.600  26.990  1.00  0.00     0.124 S 
ATOM    109  O   UNL A   1      46.666  31.376  25.878  1.00  0.00    -0.237 OA
ATOM    110  O   UNL A   1      47.234  32.695  27.891  1.00  0.00    -0.237 OA
ATOM    111  O   UNL A   1      49.003  31.510  26.656  1.00  0.00    -0.744 OA
ENDBRANCH 107 108
ENDBRANCH  75 100
ENDBRANCH  49  50
ENDBRANCH  41  44
ENDBRANCH  39  40
ENDBRANCH  38  39
ENDBRANCH  37  38
ENDBRANCH   3  37
TORSDOF 21
ENDMDL
