MODEL 1
REMARK VINA RESULT:     -12.1      0.000      0.000
REMARK SMILES O=C(NCCCNC(=O)[C@H]1CC[C@H](CN2C(=O)c3cccnc3C2=O)O1)c1ccc(-c2c3nc(c(-c4c(F)cc(S(=O)(=O)[O-])cc4F)c4ccc([nH]4)c(-c4c(F)cc(S(=O)(=O)[O-])cc4F)c4nc(c(-c5c(F)cc(S(=O)(=O)[O-])cc5F)c5ccc2[nH]5)C=C4)C=C3)cc1
REMARK SMILES IDX 4 1 3 2 1 3 2 4 27 6 28 7 92 8 29 9 91 10 30 11 31 12 32 13
REMARK SMILES IDX 85 14 33 15 90 16 84 17 86 18 34 19 89 20 83 21 82 22 35 24
REMARK SMILES IDX 69 25 48 26 68 27 49 28 52 29 67 30 87 31 50 32 51 33 66 35
REMARK SMILES IDX 88 36 53 37 36 38 37 39 46 40 38 41 39 42 45 43 47 44 40 45
REMARK SMILES IDX 41 46 42 47 43 48 44 49 70 50 71 51 80 52 72 53 73 54 79 55
REMARK SMILES IDX 81 56 74 57 75 58 76 59 77 60 78 61 54 62 55 63 64 64 56 65
REMARK SMILES IDX 57 66 63 67 65 68 58 69 59 70 60 71 61 72 62 73 5 74 6 75
REMARK SMILES IDX 7 76 8 77 9 79 10 80 11 81 26 82 12 83 13 84 14 85 15 86
REMARK SMILES IDX 16 87 24 88 17 89 18 90 23 91 25 92 19 93 22 94 20 95 21 96
REMARK H PARENT 3 5 86 23 52 34 7 78
REMARK Flexibility Score: inf
ROOT
ATOM      1  C   UNL A   1      33.682  28.334  27.035  1.00  0.00     0.118 C 
ENDROOT
BRANCH   1   2
ATOM      2  N   UNL A   1      33.578  29.703  27.531  1.00  0.00    -0.352 N 
ATOM      3  O   UNL A   1      34.134  31.569  28.660  1.00  0.00    -0.269 OA
ATOM      4  C   UNL A   1      34.491  30.490  28.195  1.00  0.00     0.251 C 
ATOM      5  H   UNL A   1      32.710  30.136  27.362  1.00  0.00     0.163 HD
BRANCH   4   6
ATOM      6  C   UNL A   1      35.885  30.027  28.377  1.00  0.00     0.039 A 
ATOM      7  C   UNL A   1      36.312  29.524  29.604  1.00  0.00     0.014 A 
ATOM      8  C   UNL A   1      36.780  30.097  27.305  1.00  0.00     0.014 A 
ATOM      9  C   UNL A   1      37.664  29.296  29.823  1.00  0.00     0.010 A 
ATOM     10  C   UNL A   1      38.121  29.747  27.495  1.00  0.00     0.010 A 
ATOM     11  C   UNL A   1      38.587  29.392  28.768  1.00  0.00    -0.014 A 
BRANCH  11  12
ATOM     12  C   UNL A   1      40.016  29.071  29.031  1.00  0.00     0.031 A 
ATOM     13  C   UNL A   1      40.606  27.744  28.633  1.00  0.00     0.074 A 
ATOM     14  C   UNL A   1      40.797  30.016  29.593  1.00  0.00     0.049 A 
ATOM     15  N   UNL A   1      41.844  27.329  28.739  1.00  0.00    -0.248 NA
ATOM     16  C   UNL A   1      39.693  26.750  28.049  1.00  0.00     0.031 C 
ATOM     17  C   UNL A   1      40.336  31.338  30.030  1.00  0.00     0.029 A 
ATOM     18  N   UNL A   1      42.140  30.030  29.868  1.00  0.00    -0.354 N 
ATOM     19  C   UNL A   1      41.855  26.023  28.261  1.00  0.00     0.074 A 
ATOM     20  C   UNL A   1      40.493  25.702  27.892  1.00  0.00     0.031 C 
ATOM     21  C   UNL A   1      41.386  32.054  30.454  1.00  0.00     0.029 A 
ATOM     22  C   UNL A   1      42.581  31.221  30.393  1.00  0.00     0.049 A 
ATOM     23  H   UNL A   1      42.733  29.260  29.704  1.00  0.00     0.167 HD
ATOM     24  C   UNL A   1      42.905  25.174  28.138  1.00  0.00     0.037 A 
ATOM     25  C   UNL A   1      43.808  31.603  30.797  1.00  0.00     0.037 A 
ATOM     26  C   UNL A   1      44.261  25.510  28.497  1.00  0.00     0.049 A 
ATOM     27  C   UNL A   1      44.946  30.632  30.674  1.00  0.00     0.074 A 
ATOM     28  C   UNL A   1      45.402  24.738  28.367  1.00  0.00     0.029 A 
ATOM     29  N   UNL A   1      44.659  26.713  29.067  1.00  0.00    -0.354 N 
ATOM     30  N   UNL A   1      44.945  29.417  30.181  1.00  0.00    -0.248 NA
ATOM     31  C   UNL A   1      46.254  31.084  31.163  1.00  0.00     0.031 C 
ATOM     32  C   UNL A   1      46.477  25.445  28.916  1.00  0.00     0.029 A 
ATOM     33  C   UNL A   1      46.022  26.689  29.324  1.00  0.00     0.049 A 
ATOM     34  H   UNL A   1      44.063  27.471  29.259  1.00  0.00     0.167 HD
ATOM     35  C   UNL A   1      46.257  28.970  30.272  1.00  0.00     0.074 A 
ATOM     36  C   UNL A   1      47.025  30.052  30.854  1.00  0.00     0.031 C 
ATOM     37  C   UNL A   1      46.778  27.773  29.903  1.00  0.00     0.037 A 
BRANCH  24  38
ATOM     38  C   UNL A   1      42.632  23.782  27.623  1.00  0.00     0.058 A 
ATOM     39  C   UNL A   1      42.560  23.492  26.251  1.00  0.00     0.135 A 
ATOM     40  C   UNL A   1      42.477  22.713  28.522  1.00  0.00     0.135 A 
ATOM     41  F   UNL A   1      42.688  24.473  25.344  1.00  0.00    -0.206 F 
ATOM     42  C   UNL A   1      42.312  22.201  25.791  1.00  0.00     0.059 A 
ATOM     43  C   UNL A   1      42.260  21.409  28.084  1.00  0.00     0.059 A 
ATOM     44  F   UNL A   1      42.539  22.928  29.845  1.00  0.00    -0.206 F 
ATOM     45  C   UNL A   1      42.162  21.167  26.716  1.00  0.00     0.060 A 
BRANCH  45  46
ATOM     46  S   UNL A   1      41.833  19.500  26.102  1.00  0.00     0.124 S 
ATOM     47  O   UNL A   1      42.174  18.688  27.267  1.00  0.00    -0.237 OA
ATOM     48  O   UNL A   1      40.414  19.565  25.769  1.00  0.00    -0.237 OA
ATOM     49  O   UNL A   1      42.737  19.371  24.963  1.00  0.00    -0.744 OA
ENDBRANCH  45  46
ENDBRANCH  24  38
BRANCH  25  50
ATOM     50  C   UNL A   1      44.015  32.969  31.347  1.00  0.00     0.058 A 
ATOM     51  C   UNL A   1      44.266  34.059  30.501  1.00  0.00     0.135 A 
ATOM     52  C   UNL A   1      43.947  33.216  32.729  1.00  0.00     0.135 A 
ATOM     53  F   UNL A   1      44.344  33.874  29.174  1.00  0.00    -0.206 F 
ATOM     54  C   UNL A   1      44.462  35.341  31.004  1.00  0.00     0.059 A 
ATOM     55  C   UNL A   1      44.106  34.494  33.252  1.00  0.00     0.059 A 
ATOM     56  F   UNL A   1      43.690  32.210  33.580  1.00  0.00    -0.206 F 
ATOM     57  C   UNL A   1      44.375  35.548  32.381  1.00  0.00     0.060 A 
BRANCH  57  58
ATOM     58  S   UNL A   1      44.589  37.224  33.018  1.00  0.00     0.124 S 
ATOM     59  O   UNL A   1      43.904  37.138  34.303  1.00  0.00    -0.237 OA
ATOM     60  O   UNL A   1      46.042  37.346  33.075  1.00  0.00    -0.237 OA
ATOM     61  O   UNL A   1      43.936  38.053  32.009  1.00  0.00    -0.744 OA
ENDBRANCH  57  58
ENDBRANCH  25  50
BRANCH  37  62
ATOM     62  C   UNL A   1      48.262  27.587  30.073  1.00  0.00     0.058 A 
ATOM     63  C   UNL A   1      48.816  27.038  31.241  1.00  0.00     0.135 A 
ATOM     64  C   UNL A   1      49.143  27.946  29.039  1.00  0.00     0.135 A 
ATOM     65  F   UNL A   1      48.022  26.685  32.265  1.00  0.00    -0.206 F 
ATOM     66  C   UNL A   1      50.190  26.885  31.392  1.00  0.00     0.059 A 
ATOM     67  C   UNL A   1      50.518  27.769  29.155  1.00  0.00     0.059 A 
ATOM     68  F   UNL A   1      48.669  28.465  27.896  1.00  0.00    -0.206 F 
ATOM     69  C   UNL A   1      51.034  27.254  30.342  1.00  0.00     0.060 A 
BRANCH  69  70
ATOM     70  S   UNL A   1      52.814  27.035  30.545  1.00  0.00     0.124 S 
ATOM     71  O   UNL A   1      53.220  28.354  31.019  1.00  0.00    -0.237 OA
ATOM     72  O   UNL A   1      52.887  25.957  31.526  1.00  0.00    -0.237 OA
ATOM     73  O   UNL A   1      53.269  26.685  29.202  1.00  0.00    -0.744 OA
ENDBRANCH  69  70
ENDBRANCH  37  62
ENDBRANCH  11  12
ENDBRANCH   4   6
ENDBRANCH   1   2
BRANCH   1  74
ATOM     74  C   UNL A   1      34.038  28.256  25.557  1.00  0.00     0.042 C 
BRANCH  74  75
ATOM     75  C   UNL A   1      32.921  27.704  24.686  1.00  0.00     0.117 C 
BRANCH  75  76
ATOM     76  N   UNL A   1      33.381  27.298  23.370  1.00  0.00    -0.354 N 
ATOM     77  C   UNL A   1      33.346  26.051  22.805  1.00  0.00     0.249 C 
ATOM     78  H   UNL A   1      33.769  28.011  22.812  1.00  0.00     0.163 HD
ATOM     79  O   UNL A   1      33.746  25.916  21.648  1.00  0.00    -0.272 OA
BRANCH  77  80
ATOM     80  C   UNL A   1      32.797  24.885  23.645  1.00  0.00     0.207 C 
ATOM     81  C   UNL A   1      32.689  23.579  22.885  1.00  0.00     0.045 C 
ATOM     82  O   UNL A   1      33.674  24.642  24.755  1.00  0.00    -0.363 OA
ATOM     83  C   UNL A   1      34.037  22.949  23.114  1.00  0.00     0.037 C 
ATOM     84  C   UNL A   1      34.432  23.438  24.504  1.00  0.00     0.139 C 
BRANCH  84  85
ATOM     85  C   UNL A   1      34.146  22.458  25.655  1.00  0.00     0.161 C 
BRANCH  85  86
ATOM     86  N   UNL A   1      33.962  21.086  25.225  1.00  0.00    -0.270 N 
ATOM     87  C   UNL A   1      34.992  20.228  24.958  1.00  0.00     0.263 C 
ATOM     88  C   UNL A   1      32.742  20.468  25.118  1.00  0.00     0.280 C 
ATOM     89  O   UNL A   1      36.191  20.420  25.004  1.00  0.00    -0.269 OA
ATOM     90  C   UNL A   1      34.392  18.941  24.645  1.00  0.00     0.071 A 
ATOM     91  C   UNL A   1      33.029  19.077  24.739  1.00  0.00     0.141 A 
ATOM     92  O   UNL A   1      31.644  20.944  25.338  1.00  0.00    -0.267 OA
ATOM     93  C   UNL A   1      34.951  17.713  24.362  1.00  0.00     0.018 A 
ATOM     94  N   UNL A   1      32.132  18.087  24.586  1.00  0.00    -0.250 NA
ATOM     95  C   UNL A   1      34.062  16.651  24.186  1.00  0.00     0.021 A 
ATOM     96  C   UNL A   1      32.685  16.881  24.305  1.00  0.00     0.112 A 
ENDBRANCH  85  86
ENDBRANCH  84  85
ENDBRANCH  77  80
ENDBRANCH  75  76
ENDBRANCH  74  75
ENDBRANCH   1  74
TORSDOF 15
ENDMDL
MODEL 2
REMARK VINA RESULT:     -12.1      0.605      8.303
REMARK SMILES O=C(NCCCNC(=O)[C@H]1CC[C@H](CN2C(=O)c3cccnc3C2=O)O1)c1ccc(-c2c3nc(c(-c4c(F)cc(S(=O)(=O)[O-])cc4F)c4ccc([nH]4)c(-c4c(F)cc(S(=O)(=O)[O-])cc4F)c4nc(c(-c5c(F)cc(S(=O)(=O)[O-])cc5F)c5ccc2[nH]5)C=C4)C=C3)cc1
REMARK SMILES IDX 4 1 3 2 1 3 2 4 27 6 28 7 92 8 29 9 91 10 30 11 31 12 32 13
REMARK SMILES IDX 85 14 33 15 90 16 84 17 86 18 34 19 89 20 83 21 82 22 35 24
REMARK SMILES IDX 69 25 48 26 68 27 49 28 52 29 67 30 87 31 50 32 51 33 66 35
REMARK SMILES IDX 88 36 53 37 36 38 37 39 46 40 38 41 39 42 45 43 47 44 40 45
REMARK SMILES IDX 41 46 42 47 43 48 44 49 70 50 71 51 80 52 72 53 73 54 79 55
REMARK SMILES IDX 81 56 74 57 75 58 76 59 77 60 78 61 54 62 55 63 64 64 56 65
REMARK SMILES IDX 57 66 63 67 65 68 58 69 59 70 60 71 61 72 62 73 5 74 6 75
REMARK SMILES IDX 7 76 8 77 9 79 10 80 11 81 26 82 12 83 13 84 14 85 15 86
REMARK SMILES IDX 16 87 24 88 17 89 18 90 23 91 25 92 19 93 22 94 20 95 21 96
REMARK H PARENT 3 5 86 23 52 34 7 78
REMARK Flexibility Score: inf
ROOT
ATOM      1  C   UNL A   1      33.603  28.247  27.045  1.00  0.00     0.118 C 
ENDROOT
BRANCH   1   2
ATOM      2  N   UNL A   1      33.507  29.641  27.470  1.00  0.00    -0.352 N 
ATOM      3  O   UNL A   1      34.081  31.564  28.488  1.00  0.00    -0.269 OA
ATOM      4  C   UNL A   1      34.431  30.461  28.075  1.00  0.00     0.251 C 
ATOM      5  H   UNL A   1      32.635  30.065  27.294  1.00  0.00     0.163 HD
BRANCH   4   6
ATOM      6  C   UNL A   1      35.827  30.008  28.257  1.00  0.00     0.039 A 
ATOM      7  C   UNL A   1      36.252  29.486  29.476  1.00  0.00     0.014 A 
ATOM      8  C   UNL A   1      36.728  30.109  27.192  1.00  0.00     0.014 A 
ATOM      9  C   UNL A   1      37.605  29.267  29.699  1.00  0.00     0.010 A 
ATOM     10  C   UNL A   1      38.072  29.768  27.383  1.00  0.00     0.010 A 
ATOM     11  C   UNL A   1      38.534  29.392  28.652  1.00  0.00    -0.014 A 
BRANCH  11  12
ATOM     12  C   UNL A   1      39.964  29.081  28.918  1.00  0.00     0.031 A 
ATOM     13  C   UNL A   1      40.868  30.074  29.600  1.00  0.00     0.074 A 
ATOM     14  C   UNL A   1      40.433  27.863  28.579  1.00  0.00     0.049 A 
ATOM     15  N   UNL A   1      42.121  29.936  29.955  1.00  0.00    -0.248 NA
ATOM     16  C   UNL A   1      40.300  31.392  29.919  1.00  0.00     0.031 C 
ATOM     17  C   UNL A   1      39.654  26.820  27.904  1.00  0.00     0.029 A 
ATOM     18  N   UNL A   1      41.659  27.281  28.776  1.00  0.00    -0.354 N 
ATOM     19  C   UNL A   1      42.499  31.152  30.514  1.00  0.00     0.074 A 
ATOM     20  C   UNL A   1      41.350  32.028  30.424  1.00  0.00     0.031 C 
ATOM     21  C   UNL A   1      40.397  25.709  27.804  1.00  0.00     0.029 A 
ATOM     22  C   UNL A   1      41.727  25.981  28.335  1.00  0.00     0.049 A 
ATOM     23  H   UNL A   1      42.418  27.749  29.194  1.00  0.00     0.167 HD
ATOM     24  C   UNL A   1      43.691  31.503  31.056  1.00  0.00     0.037 A 
ATOM     25  C   UNL A   1      42.748  25.103  28.342  1.00  0.00     0.037 A 
ATOM     26  C   UNL A   1      44.826  30.616  31.152  1.00  0.00     0.049 A 
ATOM     27  C   UNL A   1      44.065  25.528  28.924  1.00  0.00     0.074 A 
ATOM     28  C   UNL A   1      46.062  30.860  31.725  1.00  0.00     0.029 A 
ATOM     29  N   UNL A   1      44.868  29.320  30.655  1.00  0.00    -0.354 N 
ATOM     30  N   UNL A   1      44.390  26.668  29.485  1.00  0.00    -0.248 NA
ATOM     31  C   UNL A   1      45.156  24.547  28.872  1.00  0.00     0.031 C 
ATOM     32  C   UNL A   1      46.871  29.739  31.517  1.00  0.00     0.029 A 
ATOM     33  C   UNL A   1      46.120  28.766  30.878  1.00  0.00     0.049 A 
ATOM     34  H   UNL A   1      44.120  28.862  30.209  1.00  0.00     0.167 HD
ATOM     35  C   UNL A   1      45.714  26.530  29.883  1.00  0.00     0.074 A 
ATOM     36  C   UNL A   1      46.123  25.191  29.509  1.00  0.00     0.031 C 
ATOM     37  C   UNL A   1      46.517  27.431  30.504  1.00  0.00     0.037 A 
BRANCH  24  38
ATOM     38  C   UNL A   1      43.850  32.916  31.560  1.00  0.00     0.058 A 
ATOM     39  C   UNL A   1      43.521  33.284  32.875  1.00  0.00     0.135 A 
ATOM     40  C   UNL A   1      44.380  33.912  30.720  1.00  0.00     0.135 A 
ATOM     41  F   UNL A   1      43.001  32.380  33.720  1.00  0.00    -0.206 F 
ATOM     42  C   UNL A   1      43.678  34.591  33.328  1.00  0.00     0.059 A 
ATOM     43  C   UNL A   1      44.575  35.218  31.161  1.00  0.00     0.059 A 
ATOM     44  F   UNL A   1      44.716  33.619  29.455  1.00  0.00    -0.206 F 
ATOM     45  C   UNL A   1      44.205  35.551  32.462  1.00  0.00     0.060 A 
BRANCH  45  46
ATOM     46  S   UNL A   1      44.395  37.245  33.063  1.00  0.00     0.124 S 
ATOM     47  O   UNL A   1      44.443  37.994  31.811  1.00  0.00    -0.237 OA
ATOM     48  O   UNL A   1      43.189  37.428  33.864  1.00  0.00    -0.237 OA
ATOM     49  O   UNL A   1      45.645  37.202  33.815  1.00  0.00    -0.744 OA
ENDBRANCH  45  46
ENDBRANCH  24  38
BRANCH  25  50
ATOM     50  C   UNL A   1      42.555  23.737  27.784  1.00  0.00     0.058 A 
ATOM     51  C   UNL A   1      42.584  23.511  26.402  1.00  0.00     0.135 A 
ATOM     52  C   UNL A   1      42.355  22.629  28.624  1.00  0.00     0.135 A 
ATOM     53  F   UNL A   1      42.768  24.538  25.557  1.00  0.00    -0.206 F 
ATOM     54  C   UNL A   1      42.405  22.239  25.868  1.00  0.00     0.059 A 
ATOM     55  C   UNL A   1      42.208  21.343  28.116  1.00  0.00     0.059 A 
ATOM     56  F   UNL A   1      42.338  22.789  29.957  1.00  0.00    -0.206 F 
ATOM     57  C   UNL A   1      42.221  21.161  26.735  1.00  0.00     0.060 A 
BRANCH  57  58
ATOM     58  S   UNL A   1      42.032  19.508  26.032  1.00  0.00     0.124 S 
ATOM     59  O   UNL A   1      40.589  19.436  25.838  1.00  0.00    -0.237 OA
ATOM     60  O   UNL A   1      42.837  19.600  24.819  1.00  0.00    -0.237 OA
ATOM     61  O   UNL A   1      42.574  18.638  27.071  1.00  0.00    -0.744 OA
ENDBRANCH  57  58
ENDBRANCH  25  50
BRANCH  37  62
ATOM     62  C   UNL A   1      47.907  26.979  30.863  1.00  0.00     0.058 A 
ATOM     63  C   UNL A   1      48.986  27.109  29.974  1.00  0.00     0.135 A 
ATOM     64  C   UNL A   1      48.166  26.428  32.128  1.00  0.00     0.135 A 
ATOM     65  F   UNL A   1      48.795  27.622  28.748  1.00  0.00    -0.206 F 
ATOM     66  C   UNL A   1      50.264  26.676  30.313  1.00  0.00     0.059 A 
ATOM     67  C   UNL A   1      49.443  26.019  32.501  1.00  0.00     0.059 A 
ATOM     68  F   UNL A   1      47.175  26.290  33.023  1.00  0.00    -0.206 F 
ATOM     69  C   UNL A   1      50.482  26.131  31.580  1.00  0.00     0.060 A 
BRANCH  69  70
ATOM     70  S   UNL A   1      52.148  25.587  32.013  1.00  0.00     0.124 S 
ATOM     71  O   UNL A   1      51.945  24.157  32.219  1.00  0.00    -0.237 OA
ATOM     72  O   UNL A   1      52.915  25.955  30.828  1.00  0.00    -0.237 OA
ATOM     73  O   UNL A   1      52.455  26.355  33.216  1.00  0.00    -0.744 OA
ENDBRANCH  69  70
ENDBRANCH  37  62
ENDBRANCH  11  12
ENDBRANCH   4   6
ENDBRANCH   1   2
BRANCH   1  74
ATOM     74  C   UNL A   1      34.059  28.089  25.602  1.00  0.00     0.042 C 
BRANCH  74  75
ATOM     75  C   UNL A   1      32.926  27.816  24.627  1.00  0.00     0.117 C 
BRANCH  75  76
ATOM     76  N   UNL A   1      33.396  27.375  23.326  1.00  0.00    -0.354 N 
ATOM     77  C   UNL A   1      33.357  26.116  22.791  1.00  0.00     0.249 C 
ATOM     78  H   UNL A   1      33.795  28.072  22.755  1.00  0.00     0.163 HD
ATOM     79  O   UNL A   1      33.767  25.950  21.641  1.00  0.00    -0.272 OA
BRANCH  77  80
ATOM     80  C   UNL A   1      32.791  24.975  23.652  1.00  0.00     0.207 C 
ATOM     81  C   UNL A   1      32.589  23.677  22.895  1.00  0.00     0.045 C 
ATOM     82  O   UNL A   1      33.703  24.687  24.722  1.00  0.00    -0.363 OA
ATOM     83  C   UNL A   1      33.914  22.984  23.065  1.00  0.00     0.037 C 
ATOM     84  C   UNL A   1      34.392  23.449  24.437  1.00  0.00     0.139 C 
BRANCH  84  85
ATOM     85  C   UNL A   1      34.110  22.480  25.598  1.00  0.00     0.161 C 
BRANCH  85  86
ATOM     86  N   UNL A   1      33.945  21.101  25.184  1.00  0.00    -0.270 N 
ATOM     87  C   UNL A   1      34.987  20.253  24.932  1.00  0.00     0.263 C 
ATOM     88  C   UNL A   1      32.733  20.467  25.079  1.00  0.00     0.280 C 
ATOM     89  O   UNL A   1      36.183  20.459  24.981  1.00  0.00    -0.269 OA
ATOM     90  C   UNL A   1      34.403  18.954  24.632  1.00  0.00     0.071 A 
ATOM     91  C   UNL A   1      33.038  19.075  24.718  1.00  0.00     0.141 A 
ATOM     92  O   UNL A   1      31.628  20.932  25.288  1.00  0.00    -0.267 OA
ATOM     93  C   UNL A   1      34.979  17.730  24.366  1.00  0.00     0.018 A 
ATOM     94  N   UNL A   1      32.155  18.073  24.573  1.00  0.00    -0.250 NA
ATOM     95  C   UNL A   1      34.104  16.655  24.199  1.00  0.00     0.021 A 
ATOM     96  C   UNL A   1      32.723  16.870  24.309  1.00  0.00     0.112 A 
ENDBRANCH  85  86
ENDBRANCH  84  85
ENDBRANCH  77  80
ENDBRANCH  75  76
ENDBRANCH  74  75
ENDBRANCH   1  74
TORSDOF 15
ENDMDL
MODEL 3
REMARK VINA RESULT:     -11.9      5.125     10.079
REMARK SMILES O=C(NCCCNC(=O)[C@H]1CC[C@H](CN2C(=O)c3cccnc3C2=O)O1)c1ccc(-c2c3nc(c(-c4c(F)cc(S(=O)(=O)[O-])cc4F)c4ccc([nH]4)c(-c4c(F)cc(S(=O)(=O)[O-])cc4F)c4nc(c(-c5c(F)cc(S(=O)(=O)[O-])cc5F)c5ccc2[nH]5)C=C4)C=C3)cc1
REMARK SMILES IDX 4 1 3 2 1 3 2 4 27 6 28 7 92 8 29 9 91 10 30 11 31 12 32 13
REMARK SMILES IDX 85 14 33 15 90 16 84 17 86 18 34 19 89 20 83 21 82 22 35 24
REMARK SMILES IDX 69 25 48 26 68 27 49 28 52 29 67 30 87 31 50 32 51 33 66 35
REMARK SMILES IDX 88 36 53 37 36 38 37 39 46 40 38 41 39 42 45 43 47 44 40 45
REMARK SMILES IDX 41 46 42 47 43 48 44 49 70 50 71 51 80 52 72 53 73 54 79 55
REMARK SMILES IDX 81 56 74 57 75 58 76 59 77 60 78 61 54 62 55 63 64 64 56 65
REMARK SMILES IDX 57 66 63 67 65 68 58 69 59 70 60 71 61 72 62 73 5 74 6 75
REMARK SMILES IDX 7 76 8 77 9 79 10 80 11 81 26 82 12 83 13 84 14 85 15 86
REMARK SMILES IDX 16 87 24 88 17 89 18 90 23 91 25 92 19 93 22 94 20 95 21 96
REMARK H PARENT 3 5 86 23 52 34 7 78
REMARK Flexibility Score: inf
ROOT
ATOM      1  C   UNL A   1      39.254  23.522  26.871  1.00  0.00     0.118 C 
ENDROOT
BRANCH   1   2
ATOM      2  N   UNL A   1      40.425  24.004  26.145  1.00  0.00    -0.352 N 
ATOM      3  O   UNL A   1      42.005  25.442  25.437  1.00  0.00    -0.269 OA
ATOM      4  C   UNL A   1      41.139  25.174  26.265  1.00  0.00     0.251 C 
ATOM      5  H   UNL A   1      40.761  23.388  25.453  1.00  0.00     0.163 HD
BRANCH   4   6
ATOM      6  C   UNL A   1      40.845  26.119  27.365  1.00  0.00     0.039 A 
ATOM      7  C   UNL A   1      41.474  27.360  27.424  1.00  0.00     0.014 A 
ATOM      8  C   UNL A   1      39.926  25.758  28.356  1.00  0.00     0.014 A 
ATOM      9  C   UNL A   1      41.354  28.142  28.565  1.00  0.00     0.010 A 
ATOM     10  C   UNL A   1      39.711  26.607  29.448  1.00  0.00     0.010 A 
ATOM     11  C   UNL A   1      40.461  27.784  29.588  1.00  0.00    -0.014 A 
BRANCH  11  12
ATOM     12  C   UNL A   1      40.311  28.686  30.762  1.00  0.00     0.031 A 
ATOM     13  C   UNL A   1      41.218  28.570  31.959  1.00  0.00     0.074 A 
ATOM     14  C   UNL A   1      39.373  29.653  30.717  1.00  0.00     0.049 A 
ATOM     15  N   UNL A   1      41.257  29.313  33.036  1.00  0.00    -0.248 NA
ATOM     16  C   UNL A   1      42.203  27.477  31.954  1.00  0.00     0.031 C 
ATOM     17  C   UNL A   1      38.429  29.858  29.614  1.00  0.00     0.029 A 
ATOM     18  N   UNL A   1      39.072  30.660  31.597  1.00  0.00    -0.354 N 
ATOM     19  C   UNL A   1      42.246  28.767  33.846  1.00  0.00     0.074 A 
ATOM     20  C   UNL A   1      42.765  27.610  33.148  1.00  0.00     0.031 C 
ATOM     21  C   UNL A   1      37.703  30.959  29.852  1.00  0.00     0.029 A 
ATOM     22  C   UNL A   1      38.073  31.495  31.157  1.00  0.00     0.049 A 
ATOM     23  H   UNL A   1      39.528  30.775  32.463  1.00  0.00     0.167 HD
ATOM     24  C   UNL A   1      42.685  29.196  35.056  1.00  0.00     0.037 A 
ATOM     25  C   UNL A   1      37.503  32.566  31.739  1.00  0.00     0.037 A 
ATOM     26  C   UNL A   1      42.169  30.360  35.735  1.00  0.00     0.049 A 
ATOM     27  C   UNL A   1      37.989  33.001  33.091  1.00  0.00     0.074 A 
ATOM     28  C   UNL A   1      42.578  30.903  36.940  1.00  0.00     0.029 A 
ATOM     29  N   UNL A   1      41.127  31.154  35.275  1.00  0.00    -0.354 N 
ATOM     30  N   UNL A   1      38.955  32.497  33.822  1.00  0.00    -0.248 NA
ATOM     31  C   UNL A   1      37.309  34.151  33.699  1.00  0.00     0.031 C 
ATOM     32  C   UNL A   1      41.742  31.983  37.241  1.00  0.00     0.029 A 
ATOM     33  C   UNL A   1      40.858  32.161  36.189  1.00  0.00     0.049 A 
ATOM     34  H   UNL A   1      40.649  31.022  34.425  1.00  0.00     0.167 HD
ATOM     35  C   UNL A   1      39.018  33.288  34.963  1.00  0.00     0.074 A 
ATOM     36  C   UNL A   1      38.003  34.311  34.816  1.00  0.00     0.031 C 
ATOM     37  C   UNL A   1      39.845  33.177  36.033  1.00  0.00     0.037 A 
BRANCH  24  38
ATOM     38  C   UNL A   1      43.754  28.386  35.747  1.00  0.00     0.058 A 
ATOM     39  C   UNL A   1      45.123  28.643  35.564  1.00  0.00     0.135 A 
ATOM     40  C   UNL A   1      43.399  27.360  36.639  1.00  0.00     0.135 A 
ATOM     41  F   UNL A   1      45.524  29.603  34.716  1.00  0.00    -0.206 F 
ATOM     42  C   UNL A   1      46.099  27.890  36.213  1.00  0.00     0.059 A 
ATOM     43  C   UNL A   1      44.358  26.616  37.323  1.00  0.00     0.059 A 
ATOM     44  F   UNL A   1      42.107  27.071  36.858  1.00  0.00    -0.206 F 
ATOM     45  C   UNL A   1      45.706  26.878  37.090  1.00  0.00     0.060 A 
BRANCH  45  46
ATOM     46  S   UNL A   1      46.984  25.907  37.917  1.00  0.00     0.124 S 
ATOM     47  O   UNL A   1      46.696  26.182  39.321  1.00  0.00    -0.237 OA
ATOM     48  O   UNL A   1      46.688  24.552  37.463  1.00  0.00    -0.237 OA
ATOM     49  O   UNL A   1      48.228  26.478  37.410  1.00  0.00    -0.744 OA
ENDBRANCH  45  46
ENDBRANCH  24  38
BRANCH  25  50
ATOM     50  C   UNL A   1      36.414  33.299  31.039  1.00  0.00     0.058 A 
ATOM     51  C   UNL A   1      36.688  34.116  29.934  1.00  0.00     0.135 A 
ATOM     52  C   UNL A   1      35.075  33.182  31.450  1.00  0.00     0.135 A 
ATOM     53  F   UNL A   1      37.951  34.264  29.504  1.00  0.00    -0.206 F 
ATOM     54  C   UNL A   1      35.679  34.807  29.270  1.00  0.00     0.059 A 
ATOM     55  C   UNL A   1      34.046  33.835  30.782  1.00  0.00     0.059 A 
ATOM     56  F   UNL A   1      34.758  32.397  32.491  1.00  0.00    -0.206 F 
ATOM     57  C   UNL A   1      34.360  34.656  29.701  1.00  0.00     0.060 A 
BRANCH  57  58
ATOM     58  S   UNL A   1      33.053  35.523  28.806  1.00  0.00     0.124 S 
ATOM     59  O   UNL A   1      33.820  36.502  28.044  1.00  0.00    -0.237 OA
ATOM     60  O   UNL A   1      32.446  34.445  28.033  1.00  0.00    -0.237 OA
ATOM     61  O   UNL A   1      32.219  36.067  29.873  1.00  0.00    -0.744 OA
ENDBRANCH  57  58
ENDBRANCH  25  50
BRANCH  37  62
ATOM     62  C   UNL A   1      39.719  34.221  37.110  1.00  0.00     0.058 A 
ATOM     63  C   UNL A   1      39.024  33.979  38.306  1.00  0.00     0.135 A 
ATOM     64  C   UNL A   1      40.324  35.479  36.950  1.00  0.00     0.135 A 
ATOM     65  F   UNL A   1      38.419  32.798  38.509  1.00  0.00    -0.206 F 
ATOM     66  C   UNL A   1      38.903  34.957  39.288  1.00  0.00     0.059 A 
ATOM     67  C   UNL A   1      40.246  36.459  37.933  1.00  0.00     0.059 A 
ATOM     68  F   UNL A   1      41.011  35.762  35.832  1.00  0.00    -0.206 F 
ATOM     69  C   UNL A   1      39.517  36.195  39.092  1.00  0.00     0.060 A 
BRANCH  69  70
ATOM     70  S   UNL A   1      39.366  37.450  40.380  1.00  0.00     0.124 S 
ATOM     71  O   UNL A   1      38.874  36.660  41.504  1.00  0.00    -0.237 OA
ATOM     72  O   UNL A   1      40.735  37.941  40.500  1.00  0.00    -0.237 OA
ATOM     73  O   UNL A   1      38.411  38.402  39.819  1.00  0.00    -0.744 OA
ENDBRANCH  69  70
ENDBRANCH  37  62
ENDBRANCH  11  12
ENDBRANCH   4   6
ENDBRANCH   1   2
BRANCH   1  74
ATOM     74  C   UNL A   1      37.945  23.774  26.137  1.00  0.00     0.042 C 
BRANCH  74  75
ATOM     75  C   UNL A   1      37.406  22.553  25.410  1.00  0.00     0.117 C 
BRANCH  75  76
ATOM     76  N   UNL A   1      36.365  21.867  26.156  1.00  0.00    -0.354 N 
ATOM     77  C   UNL A   1      35.010  22.043  26.079  1.00  0.00     0.249 C 
ATOM     78  H   UNL A   1      36.675  21.189  26.800  1.00  0.00     0.163 HD
ATOM     79  O   UNL A   1      34.282  21.325  26.767  1.00  0.00    -0.272 OA
BRANCH  77  80
ATOM     80  C   UNL A   1      34.467  23.121  25.127  1.00  0.00     0.207 C 
ATOM     81  C   UNL A   1      34.247  22.634  23.709  1.00  0.00     0.045 C 
ATOM     82  O   UNL A   1      33.194  23.582  25.604  1.00  0.00    -0.363 OA
ATOM     83  C   UNL A   1      32.830  22.128  23.748  1.00  0.00     0.037 C 
ATOM     84  C   UNL A   1      32.149  23.037  24.766  1.00  0.00     0.139 C 
BRANCH  84  85
ATOM     85  C   UNL A   1      31.362  24.219  24.174  1.00  0.00     0.161 C 
BRANCH  85  86
ATOM     86  N   UNL A   1      31.683  25.498  24.775  1.00  0.00    -0.270 N 
ATOM     87  C   UNL A   1      31.102  25.968  25.919  1.00  0.00     0.263 C 
ATOM     88  C   UNL A   1      32.663  26.341  24.316  1.00  0.00     0.280 C 
ATOM     89  O   UNL A   1      30.244  25.463  26.616  1.00  0.00    -0.269 OA
ATOM     90  C   UNL A   1      31.755  27.230  26.230  1.00  0.00     0.071 A 
ATOM     91  C   UNL A   1      32.702  27.464  25.264  1.00  0.00     0.141 A 
ATOM     92  O   UNL A   1      33.392  26.183  23.355  1.00  0.00    -0.267 OA
ATOM     93  C   UNL A   1      31.613  28.099  27.290  1.00  0.00     0.018 A 
ATOM     94  N   UNL A   1      33.558  28.501  25.243  1.00  0.00    -0.250 NA
ATOM     95  C   UNL A   1      32.474  29.198  27.314  1.00  0.00     0.021 A 
ATOM     96  C   UNL A   1      33.414  29.355  26.286  1.00  0.00     0.112 A 
ENDBRANCH  85  86
ENDBRANCH  84  85
ENDBRANCH  77  80
ENDBRANCH  75  76
ENDBRANCH  74  75
ENDBRANCH   1  74
TORSDOF 15
ENDMDL
