MODEL 1
REMARK VINA RESULT:     -12.0      0.000      0.000
REMARK SMILES CC(C)(C)OC(=O)N1CCC[C@H]1C(=O)N[C@@H](Cc1ccccc1)C(=O)NCCCNC(=O)c1ccc(-c2c3nc(c(-c4c(F)cc(S(=O)(=O)[O-])cc4F)c4ccc([nH]4)c(-c4c(F)cc(S(=O)(=O)[O-])cc4F)c4nc(c(-c5c(F)cc(S(=O)(=O)[O-])cc5F)c5ccc2[nH]5)C=C4)C=C3)cc1
REMARK SMILES IDX 27 1 26 2 24 3 25 4 16 6 15 7 13 8 14 9 12 11 8 12 9 13
REMARK SMILES IDX 10 14 11 15 6 16 7 17 5 18 2 19 1 20 3 21 4 22 17 23 18 24
REMARK SMILES IDX 19 25 23 26 20 27 22 28 21 29 28 30 29 31 30 32 31 33 32 35
REMARK SMILES IDX 33 36 34 37 98 38 35 39 97 40 36 41 37 42 38 43 91 44 39 45
REMARK SMILES IDX 96 46 90 47 92 48 40 49 95 50 89 51 88 52 41 54 75 55 54 56
REMARK SMILES IDX 74 57 55 58 58 59 73 60 93 61 56 62 57 63 72 65 94 66 59 67
REMARK SMILES IDX 42 68 43 69 52 70 44 71 45 72 51 73 53 74 46 75 47 76 48 77
REMARK SMILES IDX 49 78 50 79 76 80 77 81 86 82 78 83 79 84 85 85 87 86 80 87
REMARK SMILES IDX 81 88 82 89 83 90 84 91 60 92 61 93 70 94 62 95 63 96 69 97
REMARK SMILES IDX 71 98 64 99 65 100 66 101 67 102 68 103
REMARK H PARENT 26 5 15 10 30 34 92 53 58 64
REMARK Flexibility Score: inf
ROOT
ATOM      1  C   UNL A   1      31.863  28.241  25.658  1.00  0.00     0.117 C 
ENDROOT
BRANCH   1   2
ATOM      2  N   UNL A   1      33.062  28.314  24.843  1.00  0.00    -0.354 N 
ATOM      3  C   UNL A   1      33.178  28.457  23.493  1.00  0.00     0.242 C 
ATOM      4  O   UNL A   1      34.148  29.115  23.104  1.00  0.00    -0.273 OA
ATOM      5  H   UNL A   1      33.913  28.251  25.336  1.00  0.00     0.163 HD
BRANCH   3   6
ATOM      6  C   UNL A   1      32.109  27.970  22.492  1.00  0.00     0.175 C 
BRANCH   6   7
ATOM      7  N   UNL A   1      32.649  27.072  21.479  1.00  0.00    -0.342 N 
ATOM      8  C   UNL A   1      32.864  25.726  21.529  1.00  0.00     0.243 C 
ATOM      9  O   UNL A   1      33.090  25.193  20.436  1.00  0.00    -0.273 OA
ATOM     10  H   UNL A   1      32.897  27.503  20.629  1.00  0.00     0.164 HD
BRANCH   8  11
ATOM     11  C   UNL A   1      32.989  24.934  22.871  1.00  0.00     0.178 C 
ATOM     12  N   UNL A   1      32.218  23.689  22.958  1.00  0.00    -0.296 N 
ATOM     13  C   UNL A   1      33.083  22.546  22.740  1.00  0.00     0.124 C 
ATOM     14  C   UNL A   1      34.358  22.986  23.438  1.00  0.00     0.024 C 
ATOM     15  C   UNL A   1      34.450  24.472  23.095  1.00  0.00     0.037 C 
BRANCH  12  16
ATOM     16  C   UNL A   1      31.072  23.572  23.714  1.00  0.00     0.410 C 
ATOM     17  O   UNL A   1      30.020  24.132  23.423  1.00  0.00    -0.224 OA
BRANCH  16  18
ATOM     18  O   UNL A   1      31.250  22.738  24.764  1.00  0.00    -0.444 OA
BRANCH  18  19
ATOM     19  C   UNL A   1      31.237  23.176  26.152  1.00  0.00     0.106 C 
ATOM     20  C   UNL A   1      31.490  24.685  26.175  1.00  0.00     0.056 C 
ATOM     21  C   UNL A   1      32.429  22.456  26.802  1.00  0.00     0.056 C 
ATOM     22  C   UNL A   1      29.968  22.844  26.951  1.00  0.00     0.056 C 
ENDBRANCH  18  19
ENDBRANCH  16  18
ENDBRANCH  12  16
ENDBRANCH   8  11
ENDBRANCH   6   7
BRANCH   6  23
ATOM     23  C   UNL A   1      30.802  27.489  23.152  1.00  0.00     0.070 C 
BRANCH  23  24
ATOM     24  C   UNL A   1      29.627  28.435  23.160  1.00  0.00    -0.045 A 
ATOM     25  C   UNL A   1      29.817  29.823  23.166  1.00  0.00     0.004 A 
ATOM     26  C   UNL A   1      28.317  27.927  23.143  1.00  0.00     0.004 A 
ATOM     27  C   UNL A   1      28.718  30.683  23.119  1.00  0.00     0.000 A 
ATOM     28  C   UNL A   1      27.220  28.790  23.092  1.00  0.00     0.000 A 
ATOM     29  C   UNL A   1      27.422  30.168  23.071  1.00  0.00     0.000 A 
ENDBRANCH  23  24
ENDBRANCH   6  23
ENDBRANCH   3   6
ENDBRANCH   1   2
BRANCH   1  30
ATOM     30  C   UNL A   1      32.119  28.394  27.144  1.00  0.00     0.042 C 
BRANCH  30  31
ATOM     31  C   UNL A   1      33.542  28.825  27.474  1.00  0.00     0.118 C 
BRANCH  31  32
ATOM     32  N   UNL A   1      33.639  30.199  27.966  1.00  0.00    -0.352 N 
ATOM     33  C   UNL A   1      34.693  30.864  28.550  1.00  0.00     0.251 C 
ATOM     34  H   UNL A   1      32.819  30.734  27.862  1.00  0.00     0.163 HD
ATOM     35  O   UNL A   1      34.525  31.980  29.034  1.00  0.00    -0.269 OA
BRANCH  33  36
ATOM     36  C   UNL A   1      36.014  30.208  28.628  1.00  0.00     0.039 A 
ATOM     37  C   UNL A   1      36.836  30.180  27.499  1.00  0.00     0.014 A 
ATOM     38  C   UNL A   1      36.461  29.675  29.835  1.00  0.00     0.014 A 
ATOM     39  C   UNL A   1      38.153  29.727  27.619  1.00  0.00     0.010 A 
ATOM     40  C   UNL A   1      37.800  29.342  29.980  1.00  0.00     0.010 A 
ATOM     41  C   UNL A   1      38.665  29.367  28.875  1.00  0.00    -0.014 A 
BRANCH  41  42
ATOM     42  C   UNL A   1      40.093  29.010  29.081  1.00  0.00     0.031 A 
ATOM     43  C   UNL A   1      41.054  30.053  29.587  1.00  0.00     0.074 A 
ATOM     44  C   UNL A   1      40.548  27.798  28.702  1.00  0.00     0.049 A 
ATOM     45  N   UNL A   1      42.358  30.014  29.658  1.00  0.00    -0.248 NA
ATOM     46  C   UNL A   1      40.469  31.334  30.021  1.00  0.00     0.031 C 
ATOM     47  C   UNL A   1      39.730  26.719  28.137  1.00  0.00     0.029 A 
ATOM     48  N   UNL A   1      41.815  27.273  28.717  1.00  0.00    -0.354 N 
ATOM     49  C   UNL A   1      42.750  31.273  30.100  1.00  0.00     0.074 A 
ATOM     50  C   UNL A   1      41.550  32.070  30.225  1.00  0.00     0.031 C 
ATOM     51  C   UNL A   1      40.511  25.655  27.890  1.00  0.00     0.029 A 
ATOM     52  C   UNL A   1      41.890  25.987  28.234  1.00  0.00     0.049 A 
ATOM     53  H   UNL A   1      42.600  27.771  29.044  1.00  0.00     0.167 HD
ATOM     54  C   UNL A   1      43.994  31.716  30.400  1.00  0.00     0.037 A 
ATOM     55  C   UNL A   1      42.951  25.172  28.077  1.00  0.00     0.037 A 
ATOM     56  C   UNL A   1      45.173  30.897  30.337  1.00  0.00     0.049 A 
ATOM     57  C   UNL A   1      44.317  25.668  28.464  1.00  0.00     0.074 A 
ATOM     58  C   UNL A   1      46.470  31.222  30.693  1.00  0.00     0.029 A 
ATOM     59  N   UNL A   1      45.195  29.579  29.900  1.00  0.00    -0.354 N 
ATOM     60  N   UNL A   1      44.663  26.847  28.927  1.00  0.00    -0.248 NA
ATOM     61  C   UNL A   1      45.435  24.728  28.314  1.00  0.00     0.031 C 
ATOM     62  C   UNL A   1      47.280  30.107  30.451  1.00  0.00     0.029 A 
ATOM     63  C   UNL A   1      46.483  29.078  29.976  1.00  0.00     0.049 A 
ATOM     64  H   UNL A   1      44.410  29.075  29.585  1.00  0.00     0.167 HD
ATOM     65  C   UNL A   1      46.034  26.780  29.148  1.00  0.00     0.074 A 
ATOM     66  C   UNL A   1      46.451  25.444  28.775  1.00  0.00     0.031 C 
ATOM     67  C   UNL A   1      46.871  27.737  29.618  1.00  0.00     0.037 A 
BRANCH  54  68
ATOM     68  C   UNL A   1      44.129  33.148  30.841  1.00  0.00     0.058 A 
ATOM     69  C   UNL A   1      44.405  34.176  29.926  1.00  0.00     0.135 A 
ATOM     70  C   UNL A   1      43.984  33.497  32.193  1.00  0.00     0.135 A 
ATOM     71  F   UNL A   1      44.570  33.897  28.623  1.00  0.00    -0.206 F 
ATOM     72  C   UNL A   1      44.578  35.492  30.340  1.00  0.00     0.059 A 
ATOM     73  C   UNL A   1      44.122  34.813  32.626  1.00  0.00     0.059 A 
ATOM     74  F   UNL A   1      43.718  32.555  33.111  1.00  0.00    -0.206 F 
ATOM     75  C   UNL A   1      44.441  35.800  31.695  1.00  0.00     0.060 A 
BRANCH  75  76
ATOM     76  S   UNL A   1      44.686  37.509  32.222  1.00  0.00     0.124 S 
ATOM     77  O   UNL A   1      46.106  37.699  31.935  1.00  0.00    -0.237 OA
ATOM     78  O   UNL A   1      43.765  38.240  31.358  1.00  0.00    -0.237 OA
ATOM     79  O   UNL A   1      44.328  37.483  33.636  1.00  0.00    -0.744 OA
ENDBRANCH  75  76
ENDBRANCH  54  68
BRANCH  55  80
ATOM     80  C   UNL A   1      42.759  23.788  27.568  1.00  0.00     0.058 A 
ATOM     81  C   UNL A   1      42.600  22.716  28.459  1.00  0.00     0.135 A 
ATOM     82  C   UNL A   1      42.711  23.508  26.194  1.00  0.00     0.135 A 
ATOM     83  F   UNL A   1      42.642  22.934  29.783  1.00  0.00    -0.206 F 
ATOM     84  C   UNL A   1      42.416  21.413  28.009  1.00  0.00     0.059 A 
ATOM     85  C   UNL A   1      42.507  22.215  25.719  1.00  0.00     0.059 A 
ATOM     86  F   UNL A   1      42.840  24.500  25.300  1.00  0.00    -0.206 F 
ATOM     87  C   UNL A   1      42.368  21.173  26.636  1.00  0.00     0.060 A 
BRANCH  87  88
ATOM     88  S   UNL A   1      42.079  19.483  26.063  1.00  0.00     0.124 S 
ATOM     89  O   UNL A   1      42.487  18.705  27.226  1.00  0.00    -0.237 OA
ATOM     90  O   UNL A   1      40.648  19.498  25.774  1.00  0.00    -0.237 OA
ATOM     91  O   UNL A   1      42.945  19.375  24.892  1.00  0.00    -0.744 OA
ENDBRANCH  87  88
ENDBRANCH  55  80
BRANCH  67  92
ATOM     92  C   UNL A   1      48.314  27.365  29.798  1.00  0.00     0.058 A 
ATOM     93  C   UNL A   1      49.266  27.604  28.796  1.00  0.00     0.135 A 
ATOM     94  C   UNL A   1      48.759  26.824  31.015  1.00  0.00     0.135 A 
ATOM     95  F   UNL A   1      48.888  28.113  27.613  1.00  0.00    -0.206 F 
ATOM     96  C   UNL A   1      50.611  27.310  28.990  1.00  0.00     0.059 A 
ATOM     97  C   UNL A   1      50.101  26.542  31.239  1.00  0.00     0.059 A 
ATOM     98  F   UNL A   1      47.886  26.585  32.007  1.00  0.00    -0.206 F 
ATOM     99  C   UNL A   1      51.019  26.782  30.218  1.00  0.00     0.060 A 
BRANCH  99 100
ATOM    100  S   UNL A   1      52.775  26.450  30.477  1.00  0.00     0.124 S 
ATOM    101  O   UNL A   1      52.729  25.382  31.469  1.00  0.00    -0.237 OA
ATOM    102  O   UNL A   1      53.221  26.059  29.143  1.00  0.00    -0.237 OA
ATOM    103  O   UNL A   1      53.294  27.729  30.954  1.00  0.00    -0.744 OA
ENDBRANCH  99 100
ENDBRANCH  67  92
ENDBRANCH  41  42
ENDBRANCH  33  36
ENDBRANCH  31  32
ENDBRANCH  30  31
ENDBRANCH   1  30
TORSDOF 20
ENDMDL
MODEL 2
REMARK VINA RESULT:     -11.8      2.037      3.983
REMARK SMILES CC(C)(C)OC(=O)N1CCC[C@H]1C(=O)N[C@@H](Cc1ccccc1)C(=O)NCCCNC(=O)c1ccc(-c2c3nc(c(-c4c(F)cc(S(=O)(=O)[O-])cc4F)c4ccc([nH]4)c(-c4c(F)cc(S(=O)(=O)[O-])cc4F)c4nc(c(-c5c(F)cc(S(=O)(=O)[O-])cc5F)c5ccc2[nH]5)C=C4)C=C3)cc1
REMARK SMILES IDX 27 1 26 2 24 3 25 4 16 6 15 7 13 8 14 9 12 11 8 12 9 13
REMARK SMILES IDX 10 14 11 15 6 16 7 17 5 18 2 19 1 20 3 21 4 22 17 23 18 24
REMARK SMILES IDX 19 25 23 26 20 27 22 28 21 29 28 30 29 31 30 32 31 33 32 35
REMARK SMILES IDX 33 36 34 37 98 38 35 39 97 40 36 41 37 42 38 43 91 44 39 45
REMARK SMILES IDX 96 46 90 47 92 48 40 49 95 50 89 51 88 52 41 54 75 55 54 56
REMARK SMILES IDX 74 57 55 58 58 59 73 60 93 61 56 62 57 63 72 65 94 66 59 67
REMARK SMILES IDX 42 68 43 69 52 70 44 71 45 72 51 73 53 74 46 75 47 76 48 77
REMARK SMILES IDX 49 78 50 79 76 80 77 81 86 82 78 83 79 84 85 85 87 86 80 87
REMARK SMILES IDX 81 88 82 89 83 90 84 91 60 92 61 93 70 94 62 95 63 96 69 97
REMARK SMILES IDX 71 98 64 99 65 100 66 101 67 102 68 103
REMARK H PARENT 26 5 15 10 30 34 92 53 58 64
REMARK Flexibility Score: inf
ROOT
ATOM      1  C   UNL A   1      34.098  27.694  25.058  1.00  0.00     0.117 C 
ENDROOT
BRANCH   1   2
ATOM      2  N   UNL A   1      33.670  26.969  23.877  1.00  0.00    -0.354 N 
ATOM      3  C   UNL A   1      33.384  25.644  23.737  1.00  0.00     0.242 C 
ATOM      4  O   UNL A   1      32.482  25.371  22.938  1.00  0.00    -0.273 OA
ATOM      5  H   UNL A   1      33.573  27.511  23.060  1.00  0.00     0.163 HD
BRANCH   3   6
ATOM      6  C   UNL A   1      34.020  24.540  24.609  1.00  0.00     0.175 C 
BRANCH   6   7
ATOM      7  N   UNL A   1      33.030  23.749  25.330  1.00  0.00    -0.342 N 
ATOM      8  C   UNL A   1      32.824  22.401  25.334  1.00  0.00     0.243 C 
ATOM      9  O   UNL A   1      32.084  21.990  26.236  1.00  0.00    -0.273 OA
ATOM     10  H   UNL A   1      32.419  24.267  25.902  1.00  0.00     0.164 HD
BRANCH   8  11
ATOM     11  C   UNL A   1      33.334  21.459  24.196  1.00  0.00     0.178 C 
ATOM     12  N   UNL A   1      33.076  20.026  24.381  1.00  0.00    -0.296 N 
ATOM     13  C   UNL A   1      31.940  19.612  23.582  1.00  0.00     0.124 C 
ATOM     14  C   UNL A   1      32.130  20.442  22.324  1.00  0.00     0.024 C 
ATOM     15  C   UNL A   1      32.622  21.785  22.860  1.00  0.00     0.037 C 
BRANCH  12  16
ATOM     16  C   UNL A   1      34.065  19.128  24.722  1.00  0.00     0.410 C 
ATOM     17  O   UNL A   1      35.261  19.393  24.651  1.00  0.00    -0.224 OA
BRANCH  16  18
ATOM     18  O   UNL A   1      33.546  17.966  25.180  1.00  0.00    -0.444 OA
BRANCH  18  19
ATOM     19  C   UNL A   1      33.966  16.655  24.709  1.00  0.00     0.106 C 
ATOM     20  C   UNL A   1      34.034  16.700  23.181  1.00  0.00     0.056 C 
ATOM     21  C   UNL A   1      32.836  15.704  25.134  1.00  0.00     0.056 C 
ATOM     22  C   UNL A   1      35.292  16.128  25.278  1.00  0.00     0.056 C 
ENDBRANCH  18  19
ENDBRANCH  16  18
ENDBRANCH  12  16
ENDBRANCH   8  11
ENDBRANCH   6   7
BRANCH   6  23
ATOM     23  C   UNL A   1      35.106  23.719  23.890  1.00  0.00     0.070 C 
BRANCH  23  24
ATOM     24  C   UNL A   1      36.308  23.286  24.691  1.00  0.00    -0.045 A 
ATOM     25  C   UNL A   1      36.998  22.107  24.378  1.00  0.00     0.004 A 
ATOM     26  C   UNL A   1      36.764  24.078  25.758  1.00  0.00     0.004 A 
ATOM     27  C   UNL A   1      38.141  21.749  25.096  1.00  0.00     0.000 A 
ATOM     28  C   UNL A   1      37.910  23.720  26.471  1.00  0.00     0.000 A 
ATOM     29  C   UNL A   1      38.602  22.559  26.134  1.00  0.00     0.000 A 
ENDBRANCH  23  24
ENDBRANCH   6  23
ENDBRANCH   3   6
ENDBRANCH   1   2
BRANCH   1  30
ATOM     30  C   UNL A   1      32.966  28.354  25.819  1.00  0.00     0.042 C 
BRANCH  30  31
ATOM     31  C   UNL A   1      33.282  28.596  27.289  1.00  0.00     0.118 C 
BRANCH  31  32
ATOM     32  N   UNL A   1      33.359  30.011  27.647  1.00  0.00    -0.352 N 
ATOM     33  C   UNL A   1      34.396  30.741  28.183  1.00  0.00     0.251 C 
ATOM     34  H   UNL A   1      32.537  30.526  27.477  1.00  0.00     0.163 HD
ATOM     35  O   UNL A   1      34.211  31.896  28.553  1.00  0.00    -0.269 OA
BRANCH  33  36
ATOM     36  C   UNL A   1      35.721  30.108  28.348  1.00  0.00     0.039 A 
ATOM     37  C   UNL A   1      36.605  30.071  27.267  1.00  0.00     0.014 A 
ATOM     38  C   UNL A   1      36.108  29.606  29.589  1.00  0.00     0.014 A 
ATOM     39  C   UNL A   1      37.920  29.642  27.470  1.00  0.00     0.010 A 
ATOM     40  C   UNL A   1      37.441  29.298  29.815  1.00  0.00     0.010 A 
ATOM     41  C   UNL A   1      38.366  29.315  28.760  1.00  0.00    -0.014 A 
BRANCH  41  42
ATOM     42  C   UNL A   1      39.786  28.986  29.052  1.00  0.00     0.031 A 
ATOM     43  C   UNL A   1      40.688  30.041  29.636  1.00  0.00     0.074 A 
ATOM     44  C   UNL A   1      40.291  27.791  28.685  1.00  0.00     0.049 A 
ATOM     45  N   UNL A   1      41.986  30.029  29.791  1.00  0.00    -0.248 NA
ATOM     46  C   UNL A   1      40.048  31.302  30.050  1.00  0.00     0.031 C 
ATOM     47  C   UNL A   1      39.537  26.705  28.052  1.00  0.00     0.029 A 
ATOM     48  N   UNL A   1      41.567  27.294  28.774  1.00  0.00    -0.354 N 
ATOM     49  C   UNL A   1      42.320  31.289  30.276  1.00  0.00     0.074 A 
ATOM     50  C   UNL A   1      41.096  32.058  30.336  1.00  0.00     0.031 C 
ATOM     51  C   UNL A   1      40.356  25.662  27.840  1.00  0.00     0.029 A 
ATOM     52  C   UNL A   1      41.702  26.018  28.277  1.00  0.00     0.049 A 
ATOM     53  H   UNL A   1      42.318  27.803  29.159  1.00  0.00     0.167 HD
ATOM     54  C   UNL A   1      43.531  31.754  30.663  1.00  0.00     0.037 A 
ATOM     55  C   UNL A   1      42.789  25.229  28.178  1.00  0.00     0.037 A 
ATOM     56  C   UNL A   1      44.730  30.962  30.664  1.00  0.00     0.049 A 
ATOM     57  C   UNL A   1      44.116  25.748  28.660  1.00  0.00     0.074 A 
ATOM     58  C   UNL A   1      45.993  31.309  31.109  1.00  0.00     0.029 A 
ATOM     59  N   UNL A   1      44.810  29.653  30.210  1.00  0.00    -0.354 N 
ATOM     60  N   UNL A   1      44.404  26.926  29.162  1.00  0.00    -0.248 NA
ATOM     61  C   UNL A   1      45.262  24.835  28.568  1.00  0.00     0.031 C 
ATOM     62  C   UNL A   1      46.843  30.216  30.903  1.00  0.00     0.029 A 
ATOM     63  C   UNL A   1      46.101  29.178  30.361  1.00  0.00     0.049 A 
ATOM     64  H   UNL A   1      44.059  29.137  29.837  1.00  0.00     0.167 HD
ATOM     65  C   UNL A   1      45.759  26.885  29.471  1.00  0.00     0.074 A 
ATOM     66  C   UNL A   1      46.230  25.565  29.105  1.00  0.00     0.031 C 
ATOM     67  C   UNL A   1      46.543  27.852  30.008  1.00  0.00     0.037 A 
BRANCH  54  68
ATOM     68  C   UNL A   1      43.605  33.181  31.134  1.00  0.00     0.058 A 
ATOM     69  C   UNL A   1      43.886  34.234  30.248  1.00  0.00     0.135 A 
ATOM     70  C   UNL A   1      43.395  33.501  32.484  1.00  0.00     0.135 A 
ATOM     71  F   UNL A   1      44.112  33.983  28.949  1.00  0.00    -0.206 F 
ATOM     72  C   UNL A   1      44.003  35.547  30.692  1.00  0.00     0.059 A 
ATOM     73  C   UNL A   1      43.475  34.812  32.945  1.00  0.00     0.059 A 
ATOM     74  F   UNL A   1      43.120  32.534  33.375  1.00  0.00    -0.206 F 
ATOM     75  C   UNL A   1      43.802  35.825  32.045  1.00  0.00     0.060 A 
BRANCH  75  76
ATOM     76  S   UNL A   1      43.973  37.531  32.610  1.00  0.00     0.124 S 
ATOM     77  O   UNL A   1      42.944  37.597  33.644  1.00  0.00    -0.237 OA
ATOM     78  O   UNL A   1      45.351  37.567  33.089  1.00  0.00    -0.237 OA
ATOM     79  O   UNL A   1      43.709  38.315  31.409  1.00  0.00    -0.744 OA
ENDBRANCH  75  76
ENDBRANCH  54  68
BRANCH  55  80
ATOM     80  C   UNL A   1      42.662  23.850  27.636  1.00  0.00     0.058 A 
ATOM     81  C   UNL A   1      42.507  22.756  28.501  1.00  0.00     0.135 A 
ATOM     82  C   UNL A   1      42.673  23.595  26.257  1.00  0.00     0.135 A 
ATOM     83  F   UNL A   1      42.495  22.948  29.829  1.00  0.00    -0.206 F 
ATOM     84  C   UNL A   1      42.383  21.456  28.020  1.00  0.00     0.059 A 
ATOM     85  C   UNL A   1      42.529  22.306  25.750  1.00  0.00     0.059 A 
ATOM     86  F   UNL A   1      42.800  24.609  25.386  1.00  0.00    -0.206 F 
ATOM     87  C   UNL A   1      42.393  21.242  26.642  1.00  0.00     0.060 A 
BRANCH  87  88
ATOM     88  S   UNL A   1      42.181  19.556  26.027  1.00  0.00     0.124 S 
ATOM     89  O   UNL A   1      43.103  19.537  24.898  1.00  0.00    -0.237 OA
ATOM     90  O   UNL A   1      42.571  18.756  27.184  1.00  0.00    -0.237 OA
ATOM     91  O   UNL A   1      40.762  19.501  25.686  1.00  0.00    -0.744 OA
ENDBRANCH  87  88
ENDBRANCH  55  80
BRANCH  67  92
ATOM     92  C   UNL A   1      47.979  27.508  30.276  1.00  0.00     0.058 A 
ATOM     93  C   UNL A   1      48.352  26.705  31.364  1.00  0.00     0.135 A 
ATOM     94  C   UNL A   1      48.985  27.934  29.394  1.00  0.00     0.135 A 
ATOM     95  F   UNL A   1      47.427  26.279  32.238  1.00  0.00    -0.206 F 
ATOM     96  C   UNL A   1      49.678  26.343  31.574  1.00  0.00     0.059 A 
ATOM     97  C   UNL A   1      50.314  27.567  29.574  1.00  0.00     0.059 A 
ATOM     98  F   UNL A   1      48.675  28.699  28.335  1.00  0.00    -0.206 F 
ATOM     99  C   UNL A   1      50.651  26.776  30.671  1.00  0.00     0.060 A 
BRANCH  99 100
ATOM    100  S   UNL A   1      52.362  26.259  30.926  1.00  0.00     0.124 S 
ATOM    101  O   UNL A   1      52.774  25.925  29.567  1.00  0.00    -0.237 OA
ATOM    102  O   UNL A   1      52.970  27.457  31.498  1.00  0.00    -0.237 OA
ATOM    103  O   UNL A   1      52.241  25.128  31.842  1.00  0.00    -0.744 OA
ENDBRANCH  99 100
ENDBRANCH  67  92
ENDBRANCH  41  42
ENDBRANCH  33  36
ENDBRANCH  31  32
ENDBRANCH  30  31
ENDBRANCH   1  30
TORSDOF 20
ENDMDL
MODEL 3
REMARK VINA RESULT:     -11.7      1.220      2.004
REMARK SMILES CC(C)(C)OC(=O)N1CCC[C@H]1C(=O)N[C@@H](Cc1ccccc1)C(=O)NCCCNC(=O)c1ccc(-c2c3nc(c(-c4c(F)cc(S(=O)(=O)[O-])cc4F)c4ccc([nH]4)c(-c4c(F)cc(S(=O)(=O)[O-])cc4F)c4nc(c(-c5c(F)cc(S(=O)(=O)[O-])cc5F)c5ccc2[nH]5)C=C4)C=C3)cc1
REMARK SMILES IDX 27 1 26 2 24 3 25 4 16 6 15 7 13 8 14 9 12 11 8 12 9 13
REMARK SMILES IDX 10 14 11 15 6 16 7 17 5 18 2 19 1 20 3 21 4 22 17 23 18 24
REMARK SMILES IDX 19 25 23 26 20 27 22 28 21 29 28 30 29 31 30 32 31 33 32 35
REMARK SMILES IDX 33 36 34 37 98 38 35 39 97 40 36 41 37 42 38 43 91 44 39 45
REMARK SMILES IDX 96 46 90 47 92 48 40 49 95 50 89 51 88 52 41 54 75 55 54 56
REMARK SMILES IDX 74 57 55 58 58 59 73 60 93 61 56 62 57 63 72 65 94 66 59 67
REMARK SMILES IDX 42 68 43 69 52 70 44 71 45 72 51 73 53 74 46 75 47 76 48 77
REMARK SMILES IDX 49 78 50 79 76 80 77 81 86 82 78 83 79 84 85 85 87 86 80 87
REMARK SMILES IDX 81 88 82 89 83 90 84 91 60 92 61 93 70 94 62 95 63 96 69 97
REMARK SMILES IDX 71 98 64 99 65 100 66 101 67 102 68 103
REMARK H PARENT 26 5 15 10 30 34 92 53 58 64
REMARK Flexibility Score: inf
ROOT
ATOM      1  C   UNL A   1      32.118  27.628  25.539  1.00  0.00     0.117 C 
ENDROOT
BRANCH   1   2
ATOM      2  N   UNL A   1      30.982  27.035  26.220  1.00  0.00    -0.354 N 
ATOM      3  C   UNL A   1      30.091  26.110  25.763  1.00  0.00     0.242 C 
ATOM      4  O   UNL A   1      29.668  25.311  26.605  1.00  0.00    -0.273 OA
ATOM      5  H   UNL A   1      30.833  27.346  27.143  1.00  0.00     0.163 HD
BRANCH   3   6
ATOM      6  C   UNL A   1      29.725  25.946  24.273  1.00  0.00     0.175 C 
BRANCH   6   7
ATOM      7  N   UNL A   1      29.837  24.567  23.811  1.00  0.00    -0.342 N 
ATOM      8  C   UNL A   1      30.946  23.840  23.492  1.00  0.00     0.243 C 
ATOM      9  O   UNL A   1      30.757  22.623  23.380  1.00  0.00    -0.273 OA
ATOM     10  H   UNL A   1      28.982  24.088  23.717  1.00  0.00     0.164 HD
BRANCH   8  11
ATOM     11  C   UNL A   1      32.317  24.496  23.123  1.00  0.00     0.178 C 
ATOM     12  N   UNL A   1      33.269  23.640  22.406  1.00  0.00    -0.296 N 
ATOM     13  C   UNL A   1      33.263  23.957  20.992  1.00  0.00     0.124 C 
ATOM     14  C   UNL A   1      33.092  25.466  21.015  1.00  0.00     0.024 C 
ATOM     15  C   UNL A   1      32.107  25.690  22.160  1.00  0.00     0.037 C 
BRANCH  12  16
ATOM     16  C   UNL A   1      34.389  23.105  23.006  1.00  0.00     0.410 C 
ATOM     17  O   UNL A   1      35.518  23.235  22.547  1.00  0.00    -0.224 OA
BRANCH  16  18
ATOM     18  O   UNL A   1      34.082  22.477  24.164  1.00  0.00    -0.444 OA
BRANCH  18  19
ATOM     19  C   UNL A   1      34.556  22.914  25.468  1.00  0.00     0.106 C 
ATOM     20  C   UNL A   1      35.489  24.109  25.256  1.00  0.00     0.056 C 
ATOM     21  C   UNL A   1      35.372  21.729  26.008  1.00  0.00     0.056 C 
ATOM     22  C   UNL A   1      33.471  23.272  26.495  1.00  0.00     0.056 C 
ENDBRANCH  18  19
ENDBRANCH  16  18
ENDBRANCH  12  16
ENDBRANCH   8  11
ENDBRANCH   6   7
BRANCH   6  23
ATOM     23  C   UNL A   1      28.426  26.663  23.862  1.00  0.00     0.070 C 
BRANCH  23  24
ATOM     24  C   UNL A   1      28.544  28.013  23.200  1.00  0.00    -0.045 A 
ATOM     25  C   UNL A   1      27.432  28.857  23.079  1.00  0.00     0.004 A 
ATOM     26  C   UNL A   1      29.786  28.449  22.710  1.00  0.00     0.004 A 
ATOM     27  C   UNL A   1      27.571  30.126  22.512  1.00  0.00     0.000 A 
ATOM     28  C   UNL A   1      29.923  29.719  22.148  1.00  0.00     0.000 A 
ATOM     29  C   UNL A   1      28.816  30.561  22.057  1.00  0.00     0.000 A 
ENDBRANCH  23  24
ENDBRANCH   6  23
ENDBRANCH   3   6
ENDBRANCH   1   2
BRANCH   1  30
ATOM     30  C   UNL A   1      33.440  26.953  25.844  1.00  0.00     0.042 C 
BRANCH  30  31
ATOM     31  C   UNL A   1      34.427  27.854  26.574  1.00  0.00     0.118 C 
BRANCH  31  32
ATOM     32  N   UNL A   1      33.868  29.150  26.954  1.00  0.00    -0.352 N 
ATOM     33  C   UNL A   1      34.404  30.164  27.715  1.00  0.00     0.251 C 
ATOM     34  H   UNL A   1      32.963  29.327  26.610  1.00  0.00     0.163 HD
ATOM     35  O   UNL A   1      33.709  31.120  28.046  1.00  0.00    -0.269 OA
BRANCH  33  36
ATOM     36  C   UNL A   1      35.808  30.070  28.166  1.00  0.00     0.039 A 
ATOM     37  C   UNL A   1      36.089  29.592  29.447  1.00  0.00     0.014 A 
ATOM     38  C   UNL A   1      36.846  30.399  27.295  1.00  0.00     0.014 A 
ATOM     39  C   UNL A   1      37.414  29.329  29.808  1.00  0.00     0.010 A 
ATOM     40  C   UNL A   1      38.144  30.023  27.609  1.00  0.00     0.010 A 
ATOM     41  C   UNL A   1      38.445  29.479  28.867  1.00  0.00    -0.014 A 
BRANCH  41  42
ATOM     42  C   UNL A   1      39.849  29.084  29.154  1.00  0.00     0.031 A 
ATOM     43  C   UNL A   1      40.801  30.096  29.736  1.00  0.00     0.074 A 
ATOM     44  C   UNL A   1      40.297  27.868  28.783  1.00  0.00     0.049 A 
ATOM     45  N   UNL A   1      42.097  30.023  29.887  1.00  0.00    -0.248 NA
ATOM     46  C   UNL A   1      40.221  31.383  30.155  1.00  0.00     0.031 C 
ATOM     47  C   UNL A   1      39.491  26.819  28.151  1.00  0.00     0.029 A 
ATOM     48  N   UNL A   1      41.549  27.312  28.867  1.00  0.00    -0.354 N 
ATOM     49  C   UNL A   1      42.491  31.265  30.373  1.00  0.00     0.074 A 
ATOM     50  C   UNL A   1      41.304  32.090  30.438  1.00  0.00     0.031 C 
ATOM     51  C   UNL A   1      40.261  25.740  27.934  1.00  0.00     0.029 A 
ATOM     52  C   UNL A   1      41.623  26.032  28.367  1.00  0.00     0.049 A 
ATOM     53  H   UNL A   1      42.324  27.785  29.250  1.00  0.00     0.167 HD
ATOM     54  C   UNL A   1      43.723  31.673  30.757  1.00  0.00     0.037 A 
ATOM     55  C   UNL A   1      42.672  25.194  28.262  1.00  0.00     0.037 A 
ATOM     56  C   UNL A   1      44.885  30.826  30.751  1.00  0.00     0.049 A 
ATOM     57  C   UNL A   1      44.023  25.651  28.740  1.00  0.00     0.074 A 
ATOM     58  C   UNL A   1      46.164  31.114  31.192  1.00  0.00     0.029 A 
ATOM     59  N   UNL A   1      44.902  29.516  30.295  1.00  0.00    -0.354 N 
ATOM     60  N   UNL A   1      44.367  26.813  29.243  1.00  0.00    -0.248 NA
ATOM     61  C   UNL A   1      45.126  24.685  28.642  1.00  0.00     0.031 C 
ATOM     62  C   UNL A   1      46.962  29.983  30.981  1.00  0.00     0.029 A 
ATOM     63  C   UNL A   1      46.171  28.982  30.440  1.00  0.00     0.049 A 
ATOM     64  H   UNL A   1      44.127  29.036  29.923  1.00  0.00     0.167 HD
ATOM     65  C   UNL A   1      45.720  26.709  29.547  1.00  0.00     0.074 A 
ATOM     66  C   UNL A   1      46.129  25.369  29.178  1.00  0.00     0.031 C 
ATOM     67  C   UNL A   1      46.550  27.637  30.083  1.00  0.00     0.037 A 
BRANCH  54  68
ATOM     68  C   UNL A   1      43.865  33.094  31.229  1.00  0.00     0.058 A 
ATOM     69  C   UNL A   1      44.168  34.138  30.341  1.00  0.00     0.135 A 
ATOM     70  C   UNL A   1      43.699  33.417  32.585  1.00  0.00     0.135 A 
ATOM     71  F   UNL A   1      44.354  33.884  29.036  1.00  0.00    -0.206 F 
ATOM     72  C   UNL A   1      44.346  35.444  30.786  1.00  0.00     0.059 A 
ATOM     73  C   UNL A   1      43.842  34.723  33.048  1.00  0.00     0.059 A 
ATOM     74  F   UNL A   1      43.406  32.459  33.479  1.00  0.00    -0.206 F 
ATOM     75  C   UNL A   1      44.188  35.725  32.143  1.00  0.00     0.060 A 
BRANCH  75  76
ATOM     76  S   UNL A   1      44.440  37.420  32.710  1.00  0.00     0.124 S 
ATOM     77  O   UNL A   1      45.738  37.314  33.370  1.00  0.00    -0.237 OA
ATOM     78  O   UNL A   1      44.427  38.175  31.461  1.00  0.00    -0.237 OA
ATOM     79  O   UNL A   1      43.303  37.655  33.593  1.00  0.00    -0.744 OA
ENDBRANCH  75  76
ENDBRANCH  54  68
BRANCH  55  80
ATOM     80  C   UNL A   1      42.480  23.823  27.718  1.00  0.00     0.058 A 
ATOM     81  C   UNL A   1      42.379  22.722  28.581  1.00  0.00     0.135 A 
ATOM     82  C   UNL A   1      42.374  23.585  26.340  1.00  0.00     0.135 A 
ATOM     83  F   UNL A   1      42.479  22.899  29.908  1.00  0.00    -0.206 F 
ATOM     84  C   UNL A   1      42.196  21.430  28.099  1.00  0.00     0.059 A 
ATOM     85  C   UNL A   1      42.168  22.304  25.834  1.00  0.00     0.059 A 
ATOM     86  F   UNL A   1      42.444  24.607  25.473  1.00  0.00    -0.206 F 
ATOM     87  C   UNL A   1      42.090  21.232  26.722  1.00  0.00     0.060 A 
BRANCH  87  88
ATOM     88  S   UNL A   1      41.802  19.556  26.110  1.00  0.00     0.124 S 
ATOM     89  O   UNL A   1      42.658  19.524  24.930  1.00  0.00    -0.237 OA
ATOM     90  O   UNL A   1      42.237  18.738  27.237  1.00  0.00    -0.237 OA
ATOM     91  O   UNL A   1      40.365  19.538  25.850  1.00  0.00    -0.744 OA
ENDBRANCH  87  88
ENDBRANCH  55  80
BRANCH  67  92
ATOM     92  C   UNL A   1      47.970  27.227  30.346  1.00  0.00     0.058 A 
ATOM     93  C   UNL A   1      48.979  27.421  29.391  1.00  0.00     0.135 A 
ATOM     94  C   UNL A   1      48.334  26.697  31.594  1.00  0.00     0.135 A 
ATOM     95  F   UNL A   1      48.678  27.918  28.181  1.00  0.00    -0.206 F 
ATOM     96  C   UNL A   1      50.302  27.092  29.661  1.00  0.00     0.059 A 
ATOM     97  C   UNL A   1      49.654  26.380  31.892  1.00  0.00     0.059 A 
ATOM     98  F   UNL A   1      47.404  26.500  32.542  1.00  0.00    -0.206 F 
ATOM     99  C   UNL A   1      50.631  26.575  30.916  1.00  0.00     0.060 A 
BRANCH  99 100
ATOM    100  S   UNL A   1      52.359  26.198  31.273  1.00  0.00     0.124 S 
ATOM    101  O   UNL A   1      52.719  27.288  32.173  1.00  0.00    -0.237 OA
ATOM    102  O   UNL A   1      52.273  24.874  31.883  1.00  0.00    -0.237 OA
ATOM    103  O   UNL A   1      52.992  26.233  29.958  1.00  0.00    -0.744 OA
ENDBRANCH  99 100
ENDBRANCH  67  92
ENDBRANCH  41  42
ENDBRANCH  33  36
ENDBRANCH  31  32
ENDBRANCH  30  31
ENDBRANCH   1  30
TORSDOF 20
ENDMDL
