MODEL 1
REMARK VINA RESULT:     -13.5      0.000      0.000
REMARK SMILES O=C(NCCCNC(=O)[C@H]1[C@H]2CC[C@H](C2)[C@@H]1C(=O)N1CC[NH+](C2CCCCC2)CC1)c1ccc(-c2c3nc(c(-c4c(F)cc(S(=O)(=O)[O-])cc4F)c4ccc([nH]4)c(-c4c(F)cc(S(=O)(=O)[O-])cc4F)c4nc(c(-c5c(F)cc(S(=O)(=O)[O-])cc5F)c5ccc2[nH]5)C=C4)C=C3)cc1
REMARK SMILES IDX 4 1 3 2 1 3 2 4 31 6 32 7 96 8 33 9 95 10 34 11 35 12 36 13
REMARK SMILES IDX 89 14 37 15 94 16 88 17 90 18 38 19 93 20 87 21 86 22 39 24
REMARK SMILES IDX 73 25 52 26 72 27 53 28 56 29 71 30 91 31 54 32 55 33 70 35
REMARK SMILES IDX 92 36 57 37 40 38 41 39 50 40 42 41 43 42 49 43 51 44 44 45
REMARK SMILES IDX 45 46 46 47 47 48 48 49 74 50 75 51 84 52 76 53 77 54 83 55
REMARK SMILES IDX 85 56 78 57 79 58 80 59 81 60 82 61 58 62 59 63 68 64 60 65
REMARK SMILES IDX 61 66 67 67 69 68 62 69 63 70 64 71 65 72 66 73 5 74 6 75
REMARK SMILES IDX 7 76 8 77 9 79 10 80 11 81 16 82 12 83 15 84 14 85 13 86
REMARK SMILES IDX 17 87 18 88 19 89 20 90 30 91 21 92 29 93 22 94 23 96 24 97
REMARK SMILES IDX 28 98 25 99 27 100 26 101
REMARK H PARENT 3 5 90 23 56 34 7 78 22 95
REMARK Flexibility Score: inf
ROOT
ATOM      1  C   UNL A   1      39.729  23.409  26.946  1.00  0.00     0.118 C 
ENDROOT
BRANCH   1   2
ATOM      2  N   UNL A   1      40.794  23.963  26.123  1.00  0.00    -0.352 N 
ATOM      3  O   UNL A   1      42.192  25.512  25.286  1.00  0.00    -0.269 OA
ATOM      4  C   UNL A   1      41.412  25.193  26.175  1.00  0.00     0.251 C 
ATOM      5  H   UNL A   1      41.127  23.363  25.416  1.00  0.00     0.163 HD
BRANCH   4   6
ATOM      6  C   UNL A   1      41.115  26.138  27.279  1.00  0.00     0.039 A 
ATOM      7  C   UNL A   1      41.790  27.353  27.393  1.00  0.00     0.014 A 
ATOM      8  C   UNL A   1      40.128  25.805  28.214  1.00  0.00     0.014 A 
ATOM      9  C   UNL A   1      41.617  28.138  28.528  1.00  0.00     0.010 A 
ATOM     10  C   UNL A   1      39.878  26.651  29.301  1.00  0.00     0.010 A 
ATOM     11  C   UNL A   1      40.654  27.803  29.494  1.00  0.00    -0.014 A 
BRANCH  11  12
ATOM     12  C   UNL A   1      40.467  28.695  30.670  1.00  0.00     0.031 A 
ATOM     13  C   UNL A   1      41.371  28.607  31.870  1.00  0.00     0.074 A 
ATOM     14  C   UNL A   1      39.496  29.630  30.626  1.00  0.00     0.049 A 
ATOM     15  N   UNL A   1      41.378  29.344  32.952  1.00  0.00    -0.248 NA
ATOM     16  C   UNL A   1      42.394  27.549  31.865  1.00  0.00     0.031 C 
ATOM     17  C   UNL A   1      38.542  29.803  29.525  1.00  0.00     0.029 A 
ATOM     18  N   UNL A   1      39.165  30.629  31.506  1.00  0.00    -0.354 N 
ATOM     19  C   UNL A   1      42.379  28.826  33.766  1.00  0.00     0.074 A 
ATOM     20  C   UNL A   1      42.945  27.695  33.063  1.00  0.00     0.031 C 
ATOM     21  C   UNL A   1      37.782  30.881  29.764  1.00  0.00     0.029 A 
ATOM     22  C   UNL A   1      38.149  31.441  31.060  1.00  0.00     0.049 A 
ATOM     23  H   UNL A   1      39.614  30.753  32.374  1.00  0.00     0.167 HD
ATOM     24  C   UNL A   1      42.793  29.258  34.983  1.00  0.00     0.037 A 
ATOM     25  C   UNL A   1      37.571  32.515  31.629  1.00  0.00     0.037 A 
ATOM     26  C   UNL A   1      42.248  30.407  35.662  1.00  0.00     0.049 A 
ATOM     27  C   UNL A   1      38.060  32.982  32.969  1.00  0.00     0.074 A 
ATOM     28  C   UNL A   1      42.630  30.950  36.877  1.00  0.00     0.029 A 
ATOM     29  N   UNL A   1      41.207  31.192  35.186  1.00  0.00    -0.354 N 
ATOM     30  N   UNL A   1      39.027  32.494  33.709  1.00  0.00    -0.248 NA
ATOM     31  C   UNL A   1      37.379  34.144  33.553  1.00  0.00     0.031 C 
ATOM     32  C   UNL A   1      41.795  32.041  37.152  1.00  0.00     0.029 A 
ATOM     33  C   UNL A   1      40.922  32.203  36.089  1.00  0.00     0.049 A 
ATOM     34  H   UNL A   1      40.739  31.049  34.331  1.00  0.00     0.167 HD
ATOM     35  C   UNL A   1      39.084  33.302  34.837  1.00  0.00     0.074 A 
ATOM     36  C   UNL A   1      38.065  34.320  34.675  1.00  0.00     0.031 C 
ATOM     37  C   UNL A   1      39.906  33.210  35.912  1.00  0.00     0.037 A 
BRANCH  24  38
ATOM     38  C   UNL A   1      43.878  28.475  35.673  1.00  0.00     0.058 A 
ATOM     39  C   UNL A   1      45.239  28.768  35.487  1.00  0.00     0.135 A 
ATOM     40  C   UNL A   1      43.549  27.441  36.565  1.00  0.00     0.135 A 
ATOM     41  F   UNL A   1      45.610  29.738  34.638  1.00  0.00    -0.206 F 
ATOM     42  C   UNL A   1      46.234  28.046  36.138  1.00  0.00     0.059 A 
ATOM     43  C   UNL A   1      44.528  26.720  37.244  1.00  0.00     0.059 A 
ATOM     44  F   UNL A   1      42.264  27.120  36.783  1.00  0.00    -0.206 F 
ATOM     45  C   UNL A   1      45.870  27.020  37.012  1.00  0.00     0.060 A 
BRANCH  45  46
ATOM     46  S   UNL A   1      47.171  26.087  37.847  1.00  0.00     0.124 S 
ATOM     47  O   UNL A   1      46.509  24.807  38.079  1.00  0.00    -0.237 OA
ATOM     48  O   UNL A   1      48.238  26.075  36.850  1.00  0.00    -0.237 OA
ATOM     49  O   UNL A   1      47.445  26.879  39.042  1.00  0.00    -0.744 OA
ENDBRANCH  45  46
ENDBRANCH  24  38
BRANCH  25  50
ATOM     50  C   UNL A   1      36.475  33.226  30.920  1.00  0.00     0.058 A 
ATOM     51  C   UNL A   1      35.146  33.123  31.357  1.00  0.00     0.135 A 
ATOM     52  C   UNL A   1      36.738  34.044  29.811  1.00  0.00     0.135 A 
ATOM     53  F   UNL A   1      34.845  32.349  32.411  1.00  0.00    -0.206 F 
ATOM     54  C   UNL A   1      34.115  33.797  30.713  1.00  0.00     0.059 A 
ATOM     55  C   UNL A   1      35.728  34.749  29.167  1.00  0.00     0.059 A 
ATOM     56  F   UNL A   1      37.997  34.190  29.367  1.00  0.00    -0.206 F 
ATOM     57  C   UNL A   1      34.417  34.611  29.618  1.00  0.00     0.060 A 
BRANCH  57  58
ATOM     58  S   UNL A   1      33.080  35.525  28.821  1.00  0.00     0.124 S 
ATOM     59  O   UNL A   1      33.821  36.529  28.067  1.00  0.00    -0.237 OA
ATOM     60  O   UNL A   1      32.424  34.488  28.031  1.00  0.00    -0.237 OA
ATOM     61  O   UNL A   1      32.301  36.029  29.950  1.00  0.00    -0.744 OA
ENDBRANCH  57  58
ENDBRANCH  25  50
BRANCH  37  62
ATOM     62  C   UNL A   1      39.757  34.259  36.977  1.00  0.00     0.058 A 
ATOM     63  C   UNL A   1      38.975  34.041  38.122  1.00  0.00     0.135 A 
ATOM     64  C   UNL A   1      40.421  35.490  36.859  1.00  0.00     0.135 A 
ATOM     65  F   UNL A   1      38.315  32.884  38.279  1.00  0.00    -0.206 F 
ATOM     66  C   UNL A   1      38.832  35.021  39.099  1.00  0.00     0.059 A 
ATOM     67  C   UNL A   1      40.312  36.474  37.836  1.00  0.00     0.059 A 
ATOM     68  F   UNL A   1      41.189  35.744  35.787  1.00  0.00    -0.206 F 
ATOM     69  C   UNL A   1      39.501  36.236  38.945  1.00  0.00     0.060 A 
BRANCH  69  70
ATOM     70  S   UNL A   1      39.318  37.498  40.223  1.00  0.00     0.124 S 
ATOM     71  O   UNL A   1      40.676  38.023  40.313  1.00  0.00    -0.237 OA
ATOM     72  O   UNL A   1      38.327  38.397  39.639  1.00  0.00    -0.237 OA
ATOM     73  O   UNL A   1      38.858  36.740  41.383  1.00  0.00    -0.744 OA
ENDBRANCH  69  70
ENDBRANCH  37  62
ENDBRANCH  11  12
ENDBRANCH   4   6
ENDBRANCH   1   2
BRANCH   1  74
ATOM     74  C   UNL A   1      38.750  22.545  26.166  1.00  0.00     0.042 C 
BRANCH  74  75
ATOM     75  C   UNL A   1      37.504  23.278  25.695  1.00  0.00     0.117 C 
BRANCH  75  76
ATOM     76  N   UNL A   1      36.378  23.064  26.577  1.00  0.00    -0.356 N 
ATOM     77  C   UNL A   1      35.043  23.153  26.350  1.00  0.00     0.224 C 
ATOM     78  H   UNL A   1      36.621  22.811  27.498  1.00  0.00     0.163 HD
ATOM     79  O   UNL A   1      34.314  22.744  27.255  1.00  0.00    -0.275 OA
BRANCH  77  80
ATOM     80  C   UNL A   1      34.493  23.629  25.004  1.00  0.00     0.094 C 
ATOM     81  C   UNL A   1      34.444  22.458  23.972  1.00  0.00     0.002 C 
ATOM     82  C   UNL A   1      33.029  24.141  24.971  1.00  0.00     0.094 C 
ATOM     83  C   UNL A   1      33.496  21.311  24.392  1.00  0.00     0.005 C 
ATOM     84  C   UNL A   1      33.616  23.088  22.864  1.00  0.00     0.009 C 
ATOM     85  C   UNL A   1      32.416  23.360  23.783  1.00  0.00     0.002 C 
ATOM     86  C   UNL A   1      32.101  21.934  24.262  1.00  0.00     0.005 C 
BRANCH  82  87
ATOM     87  C   UNL A   1      32.873  25.670  24.880  1.00  0.00     0.227 C 
ATOM     88  O   UNL A   1      33.784  26.404  25.268  1.00  0.00    -0.275 OA
ATOM     89  N   UNL A   1      31.778  26.205  24.227  1.00  0.00    -0.331 N 
ATOM     90  C   UNL A   1      32.010  27.386  23.391  1.00  0.00     0.181 C 
ATOM     91  C   UNL A   1      30.473  26.241  24.882  1.00  0.00     0.181 C 
ATOM     92  C   UNL A   1      30.848  27.637  22.400  1.00  0.00     0.284 C 
ATOM     93  C   UNL A   1      29.358  26.398  23.840  1.00  0.00     0.284 C 
ATOM     94  N   UNL A   1      29.488  27.586  22.978  1.00  0.00    -0.330 N 
ATOM     95  H   UNL A   1      28.812  27.449  22.228  1.00  0.00     0.348 HD
BRANCH  94  96
ATOM     96  C   UNL A   1      28.981  28.877  23.498  1.00  0.00     0.184 C 
ATOM     97  C   UNL A   1      30.074  29.970  23.517  1.00  0.00     0.065 C 
ATOM     98  C   UNL A   1      27.669  29.409  22.879  1.00  0.00     0.065 C 
ATOM     99  C   UNL A   1      29.586  31.289  24.107  1.00  0.00     0.006 C 
ATOM    100  C   UNL A   1      27.239  30.763  23.438  1.00  0.00     0.006 C 
ATOM    101  C   UNL A   1      28.360  31.788  23.357  1.00  0.00     0.000 C 
ENDBRANCH  94  96
ENDBRANCH  82  87
ENDBRANCH  77  80
ENDBRANCH  75  76
ENDBRANCH  74  75
ENDBRANCH   1  74
TORSDOF 15
ENDMDL
MODEL 2
REMARK VINA RESULT:     -13.5      6.496     12.247
REMARK SMILES O=C(NCCCNC(=O)[C@H]1[C@H]2CC[C@H](C2)[C@@H]1C(=O)N1CC[NH+](C2CCCCC2)CC1)c1ccc(-c2c3nc(c(-c4c(F)cc(S(=O)(=O)[O-])cc4F)c4ccc([nH]4)c(-c4c(F)cc(S(=O)(=O)[O-])cc4F)c4nc(c(-c5c(F)cc(S(=O)(=O)[O-])cc5F)c5ccc2[nH]5)C=C4)C=C3)cc1
REMARK SMILES IDX 4 1 3 2 1 3 2 4 31 6 32 7 96 8 33 9 95 10 34 11 35 12 36 13
REMARK SMILES IDX 89 14 37 15 94 16 88 17 90 18 38 19 93 20 87 21 86 22 39 24
REMARK SMILES IDX 73 25 52 26 72 27 53 28 56 29 71 30 91 31 54 32 55 33 70 35
REMARK SMILES IDX 92 36 57 37 40 38 41 39 50 40 42 41 43 42 49 43 51 44 44 45
REMARK SMILES IDX 45 46 46 47 47 48 48 49 74 50 75 51 84 52 76 53 77 54 83 55
REMARK SMILES IDX 85 56 78 57 79 58 80 59 81 60 82 61 58 62 59 63 68 64 60 65
REMARK SMILES IDX 61 66 67 67 69 68 62 69 63 70 64 71 65 72 66 73 5 74 6 75
REMARK SMILES IDX 7 76 8 77 9 79 10 80 11 81 16 82 12 83 15 84 14 85 13 86
REMARK SMILES IDX 17 87 18 88 19 89 20 90 30 91 21 92 29 93 22 94 23 96 24 97
REMARK SMILES IDX 28 98 25 99 27 100 26 101
REMARK H PARENT 3 5 90 23 56 34 7 78 22 95
REMARK Flexibility Score: inf
ROOT
ATOM      1  C   UNL A   1      35.489  31.125  28.207  1.00  0.00     0.118 C 
ENDROOT
BRANCH   1   2
ATOM      2  N   UNL A   1      35.440  30.916  29.646  1.00  0.00    -0.352 N 
ATOM      3  O   UNL A   1      36.028  30.095  31.654  1.00  0.00    -0.269 OA
ATOM      4  C   UNL A   1      36.336  30.290  30.485  1.00  0.00     0.251 C 
ATOM      5  H   UNL A   1      34.641  31.279  30.092  1.00  0.00     0.163 HD
BRANCH   4   6
ATOM      6  C   UNL A   1      37.649  29.827  29.974  1.00  0.00     0.039 A 
ATOM      7  C   UNL A   1      38.642  29.372  30.840  1.00  0.00     0.014 A 
ATOM      8  C   UNL A   1      37.886  29.839  28.595  1.00  0.00     0.014 A 
ATOM      9  C   UNL A   1      39.919  29.109  30.354  1.00  0.00     0.010 A 
ATOM     10  C   UNL A   1      39.141  29.470  28.096  1.00  0.00     0.010 A 
ATOM     11  C   UNL A   1      40.184  29.147  28.976  1.00  0.00    -0.014 A 
BRANCH  11  12
ATOM     12  C   UNL A   1      41.551  28.813  28.492  1.00  0.00     0.031 A 
ATOM     13  C   UNL A   1      42.654  29.837  28.497  1.00  0.00     0.074 A 
ATOM     14  C   UNL A   1      41.806  27.551  28.091  1.00  0.00     0.049 A 
ATOM     15  N   UNL A   1      43.912  29.695  28.160  1.00  0.00    -0.248 NA
ATOM     16  C   UNL A   1      42.304  31.201  28.922  1.00  0.00     0.031 C 
ATOM     17  C   UNL A   1      40.815  26.472  28.022  1.00  0.00     0.029 A 
ATOM     18  N   UNL A   1      42.974  26.948  27.696  1.00  0.00    -0.354 N 
ATOM     19  C   UNL A   1      44.495  30.949  28.304  1.00  0.00     0.074 A 
ATOM     20  C   UNL A   1      43.447  31.848  28.738  1.00  0.00     0.031 C 
ATOM     21  C   UNL A   1      41.427  25.331  27.676  1.00  0.00     0.029 A 
ATOM     22  C   UNL A   1      42.839  25.604  27.438  1.00  0.00     0.049 A 
ATOM     23  H   UNL A   1      43.827  27.433  27.606  1.00  0.00     0.167 HD
ATOM     24  C   UNL A   1      45.785  31.315  28.101  1.00  0.00     0.037 A 
ATOM     25  C   UNL A   1      43.749  24.691  27.049  1.00  0.00     0.037 A 
ATOM     26  C   UNL A   1      46.830  30.406  27.703  1.00  0.00     0.049 A 
ATOM     27  C   UNL A   1      45.173  25.119  26.849  1.00  0.00     0.074 A 
ATOM     28  C   UNL A   1      48.177  30.672  27.515  1.00  0.00     0.029 A 
ATOM     29  N   UNL A   1      46.650  29.056  27.434  1.00  0.00    -0.354 N 
ATOM     30  N   UNL A   1      45.708  26.305  27.018  1.00  0.00    -0.248 NA
ATOM     31  C   UNL A   1      46.118  24.087  26.403  1.00  0.00     0.031 C 
ATOM     32  C   UNL A   1      48.802  29.491  27.096  1.00  0.00     0.029 A 
ATOM     33  C   UNL A   1      47.855  28.480  27.066  1.00  0.00     0.049 A 
ATOM     34  H   UNL A   1      45.791  28.579  27.496  1.00  0.00     0.167 HD
ATOM     35  C   UNL A   1      47.057  26.157  26.719  1.00  0.00     0.074 A 
ATOM     36  C   UNL A   1      47.258  24.764  26.373  1.00  0.00     0.031 C 
ATOM     37  C   UNL A   1      48.039  27.091  26.727  1.00  0.00     0.037 A 
BRANCH  24  38
ATOM     38  C   UNL A   1      46.139  32.766  28.288  1.00  0.00     0.058 A 
ATOM     39  C   UNL A   1      46.607  33.265  29.514  1.00  0.00     0.135 A 
ATOM     40  C   UNL A   1      46.047  33.663  27.211  1.00  0.00     0.135 A 
ATOM     41  F   UNL A   1      46.705  32.455  30.580  1.00  0.00    -0.206 F 
ATOM     42  C   UNL A   1      46.943  34.606  29.673  1.00  0.00     0.059 A 
ATOM     43  C   UNL A   1      46.399  35.004  27.342  1.00  0.00     0.059 A 
ATOM     44  F   UNL A   1      45.609  33.240  26.015  1.00  0.00    -0.206 F 
ATOM     45  C   UNL A   1      46.832  35.470  28.582  1.00  0.00     0.060 A 
BRANCH  45  46
ATOM     46  S   UNL A   1      47.266  37.209  28.803  1.00  0.00     0.124 S 
ATOM     47  O   UNL A   1      46.116  37.875  28.200  1.00  0.00    -0.237 OA
ATOM     48  O   UNL A   1      47.374  37.324  30.255  1.00  0.00    -0.237 OA
ATOM     49  O   UNL A   1      48.523  37.341  28.073  1.00  0.00    -0.744 OA
ENDBRANCH  45  46
ENDBRANCH  24  38
BRANCH  25  50
ATOM     50  C   UNL A   1      43.333  23.279  26.841  1.00  0.00     0.058 A 
ATOM     51  C   UNL A   1      43.229  22.740  25.550  1.00  0.00     0.135 A 
ATOM     52  C   UNL A   1      43.063  22.433  27.927  1.00  0.00     0.135 A 
ATOM     53  F   UNL A   1      43.475  23.511  24.480  1.00  0.00    -0.206 F 
ATOM     54  C   UNL A   1      42.859  21.417  25.343  1.00  0.00     0.059 A 
ATOM     55  C   UNL A   1      42.717  21.099  27.746  1.00  0.00     0.059 A 
ATOM     56  F   UNL A   1      43.168  22.897  29.183  1.00  0.00    -0.206 F 
ATOM     57  C   UNL A   1      42.607  20.602  26.449  1.00  0.00     0.060 A 
BRANCH  57  58
ATOM     58  S   UNL A   1      42.180  18.870  26.173  1.00  0.00     0.124 S 
ATOM     59  O   UNL A   1      42.451  18.289  27.483  1.00  0.00    -0.237 OA
ATOM     60  O   UNL A   1      40.774  18.955  25.790  1.00  0.00    -0.237 OA
ATOM     61  O   UNL A   1      43.089  18.469  25.103  1.00  0.00    -0.744 OA
ENDBRANCH  57  58
ENDBRANCH  25  50
BRANCH  37  62
ATOM     62  C   UNL A   1      49.427  26.625  26.387  1.00  0.00     0.058 A 
ATOM     63  C   UNL A   1      50.221  25.935  27.317  1.00  0.00     0.135 A 
ATOM     64  C   UNL A   1      49.960  26.854  25.110  1.00  0.00     0.135 A 
ATOM     65  F   UNL A   1      49.760  25.697  28.555  1.00  0.00    -0.206 F 
ATOM     66  C   UNL A   1      51.509  25.516  27.000  1.00  0.00     0.059 A 
ATOM     67  C   UNL A   1      51.236  26.422  24.763  1.00  0.00     0.059 A 
ATOM     68  F   UNL A   1      49.237  27.501  24.181  1.00  0.00    -0.206 F 
ATOM     69  C   UNL A   1      52.010  25.769  25.722  1.00  0.00     0.060 A 
BRANCH  69  70
ATOM     70  S   UNL A   1      53.678  25.212  25.317  1.00  0.00     0.124 S 
ATOM     71  O   UNL A   1      54.473  25.907  26.324  1.00  0.00    -0.237 OA
ATOM     72  O   UNL A   1      53.576  23.764  25.477  1.00  0.00    -0.237 OA
ATOM     73  O   UNL A   1      53.864  25.671  23.943  1.00  0.00    -0.744 OA
ENDBRANCH  69  70
ENDBRANCH  37  62
ENDBRANCH  11  12
ENDBRANCH   4   6
ENDBRANCH   1   2
BRANCH   1  74
ATOM     74  C   UNL A   1      34.244  30.635  27.483  1.00  0.00     0.042 C 
BRANCH  74  75
ATOM     75  C   UNL A   1      34.300  29.178  27.054  1.00  0.00     0.117 C 
BRANCH  75  76
ATOM     76  N   UNL A   1      34.418  29.036  25.619  1.00  0.00    -0.356 N 
ATOM     77  C   UNL A   1      33.809  28.182  24.759  1.00  0.00     0.224 C 
ATOM     78  H   UNL A   1      35.047  29.665  25.195  1.00  0.00     0.163 HD
ATOM     79  O   UNL A   1      33.980  28.410  23.560  1.00  0.00    -0.275 OA
BRANCH  77  80
ATOM     80  C   UNL A   1      32.877  27.076  25.258  1.00  0.00     0.094 C 
ATOM     81  C   UNL A   1      31.410  27.596  25.392  1.00  0.00     0.002 C 
ATOM     82  C   UNL A   1      32.692  25.833  24.349  1.00  0.00     0.094 C 
ATOM     83  C   UNL A   1      30.793  28.039  24.046  1.00  0.00     0.005 C 
ATOM     84  C   UNL A   1      30.663  26.288  25.603  1.00  0.00     0.009 C 
ATOM     85  C   UNL A   1      31.152  25.683  24.279  1.00  0.00     0.002 C 
ATOM     86  C   UNL A   1      30.617  26.722  23.280  1.00  0.00     0.005 C 
BRANCH  82  87
ATOM     87  C   UNL A   1      33.436  24.567  24.812  1.00  0.00     0.227 C 
ATOM     88  O   UNL A   1      34.397  24.666  25.577  1.00  0.00    -0.275 OA
ATOM     89  N   UNL A   1      32.932  23.322  24.486  1.00  0.00    -0.331 N 
ATOM     90  C   UNL A   1      33.002  22.281  25.516  1.00  0.00     0.181 C 
ATOM     91  C   UNL A   1      33.112  22.780  23.142  1.00  0.00     0.181 C 
ATOM     92  C   UNL A   1      32.056  21.096  25.214  1.00  0.00     0.284 C 
ATOM     93  C   UNL A   1      32.085  21.674  22.870  1.00  0.00     0.284 C 
ATOM     94  N   UNL A   1      32.113  20.562  23.837  1.00  0.00    -0.330 N 
ATOM     95  H   UNL A   1      31.267  20.024  23.652  1.00  0.00     0.348 HD
BRANCH  94  96
ATOM     96  C   UNL A   1      33.108  19.485  23.624  1.00  0.00     0.184 C 
ATOM     97  C   UNL A   1      34.133  19.400  24.778  1.00  0.00     0.065 C 
ATOM     98  C   UNL A   1      32.555  18.089  23.263  1.00  0.00     0.065 C 
ATOM     99  C   UNL A   1      35.202  18.338  24.546  1.00  0.00     0.006 C 
ATOM    100  C   UNL A   1      33.642  17.028  23.104  1.00  0.00     0.006 C 
ATOM    101  C   UNL A   1      34.561  16.977  24.314  1.00  0.00     0.000 C 
ENDBRANCH  94  96
ENDBRANCH  82  87
ENDBRANCH  77  80
ENDBRANCH  75  76
ENDBRANCH  74  75
ENDBRANCH   1  74
TORSDOF 15
ENDMDL
MODEL 3
REMARK VINA RESULT:     -13.2      6.523     12.218
REMARK SMILES O=C(NCCCNC(=O)[C@H]1[C@H]2CC[C@H](C2)[C@@H]1C(=O)N1CC[NH+](C2CCCCC2)CC1)c1ccc(-c2c3nc(c(-c4c(F)cc(S(=O)(=O)[O-])cc4F)c4ccc([nH]4)c(-c4c(F)cc(S(=O)(=O)[O-])cc4F)c4nc(c(-c5c(F)cc(S(=O)(=O)[O-])cc5F)c5ccc2[nH]5)C=C4)C=C3)cc1
REMARK SMILES IDX 4 1 3 2 1 3 2 4 31 6 32 7 96 8 33 9 95 10 34 11 35 12 36 13
REMARK SMILES IDX 89 14 37 15 94 16 88 17 90 18 38 19 93 20 87 21 86 22 39 24
REMARK SMILES IDX 73 25 52 26 72 27 53 28 56 29 71 30 91 31 54 32 55 33 70 35
REMARK SMILES IDX 92 36 57 37 40 38 41 39 50 40 42 41 43 42 49 43 51 44 44 45
REMARK SMILES IDX 45 46 46 47 47 48 48 49 74 50 75 51 84 52 76 53 77 54 83 55
REMARK SMILES IDX 85 56 78 57 79 58 80 59 81 60 82 61 58 62 59 63 68 64 60 65
REMARK SMILES IDX 61 66 67 67 69 68 62 69 63 70 64 71 65 72 66 73 5 74 6 75
REMARK SMILES IDX 7 76 8 77 9 79 10 80 11 81 16 82 12 83 15 84 14 85 13 86
REMARK SMILES IDX 17 87 18 88 19 89 20 90 30 91 21 92 29 93 22 94 23 96 24 97
REMARK SMILES IDX 28 98 25 99 27 100 26 101
REMARK H PARENT 3 5 90 23 56 34 7 78 22 95
REMARK Flexibility Score: inf
ROOT
ATOM      1  C   UNL A   1      35.572  30.747  28.073  1.00  0.00     0.118 C 
ENDROOT
BRANCH   1   2
ATOM      2  N   UNL A   1      35.504  30.513  29.507  1.00  0.00    -0.352 N 
ATOM      3  O   UNL A   1      36.149  29.786  31.534  1.00  0.00    -0.269 OA
ATOM      4  C   UNL A   1      36.464  30.051  30.380  1.00  0.00     0.251 C 
ATOM      5  H   UNL A   1      34.633  30.716  29.920  1.00  0.00     0.163 HD
BRANCH   4   6
ATOM      6  C   UNL A   1      37.860  29.846  29.923  1.00  0.00     0.039 A 
ATOM      7  C   UNL A   1      38.208  29.970  28.579  1.00  0.00     0.014 A 
ATOM      8  C   UNL A   1      38.846  29.534  30.867  1.00  0.00     0.014 A 
ATOM      9  C   UNL A   1      39.481  29.604  28.155  1.00  0.00     0.010 A 
ATOM     10  C   UNL A   1      40.156  29.271  30.450  1.00  0.00     0.010 A 
ATOM     11  C   UNL A   1      40.475  29.257  29.084  1.00  0.00    -0.014 A 
BRANCH  11  12
ATOM     12  C   UNL A   1      41.839  28.919  28.594  1.00  0.00     0.031 A 
ATOM     13  C   UNL A   1      42.949  29.936  28.610  1.00  0.00     0.074 A 
ATOM     14  C   UNL A   1      42.084  27.661  28.176  1.00  0.00     0.049 A 
ATOM     15  N   UNL A   1      44.205  29.788  28.270  1.00  0.00    -0.248 NA
ATOM     16  C   UNL A   1      42.609  31.296  29.054  1.00  0.00     0.031 C 
ATOM     17  C   UNL A   1      41.084  26.590  28.095  1.00  0.00     0.029 A 
ATOM     18  N   UNL A   1      43.247  27.055  27.772  1.00  0.00    -0.354 N 
ATOM     19  C   UNL A   1      44.797  31.037  28.429  1.00  0.00     0.074 A 
ATOM     20  C   UNL A   1      43.757  31.938  28.876  1.00  0.00     0.031 C 
ATOM     21  C   UNL A   1      41.688  25.449  27.734  1.00  0.00     0.029 A 
ATOM     22  C   UNL A   1      43.102  25.716  27.497  1.00  0.00     0.049 A 
ATOM     23  H   UNL A   1      44.103  27.535  27.687  1.00  0.00     0.167 HD
ATOM     24  C   UNL A   1      46.090  31.395  28.229  1.00  0.00     0.037 A 
ATOM     25  C   UNL A   1      44.004  24.801  27.095  1.00  0.00     0.037 A 
ATOM     26  C   UNL A   1      47.128  30.484  27.818  1.00  0.00     0.049 A 
ATOM     27  C   UNL A   1      45.431  25.221  26.898  1.00  0.00     0.074 A 
ATOM     28  C   UNL A   1      48.476  30.742  27.631  1.00  0.00     0.029 A 
ATOM     29  N   UNL A   1      46.938  29.139  27.532  1.00  0.00    -0.354 N 
ATOM     30  N   UNL A   1      45.975  26.400  27.081  1.00  0.00    -0.248 NA
ATOM     31  C   UNL A   1      46.367  24.188  26.437  1.00  0.00     0.031 C 
ATOM     32  C   UNL A   1      49.093  29.562  27.196  1.00  0.00     0.029 A 
ATOM     33  C   UNL A   1      48.138  28.559  27.154  1.00  0.00     0.049 A 
ATOM     34  H   UNL A   1      46.075  28.668  27.588  1.00  0.00     0.167 HD
ATOM     35  C   UNL A   1      47.322  26.247  26.778  1.00  0.00     0.074 A 
ATOM     36  C   UNL A   1      47.513  24.857  26.414  1.00  0.00     0.031 C 
ATOM     37  C   UNL A   1      48.312  27.173  26.798  1.00  0.00     0.037 A 
BRANCH  24  38
ATOM     38  C   UNL A   1      46.455  32.841  28.434  1.00  0.00     0.058 A 
ATOM     39  C   UNL A   1      46.888  33.330  29.677  1.00  0.00     0.135 A 
ATOM     40  C   UNL A   1      46.409  33.744  27.358  1.00  0.00     0.135 A 
ATOM     41  F   UNL A   1      46.939  32.515  30.742  1.00  0.00    -0.206 F 
ATOM     42  C   UNL A   1      47.233  34.666  29.854  1.00  0.00     0.059 A 
ATOM     43  C   UNL A   1      46.773  35.080  27.507  1.00  0.00     0.059 A 
ATOM     44  F   UNL A   1      46.007  33.331  26.146  1.00  0.00    -0.206 F 
ATOM     45  C   UNL A   1      47.170  35.535  28.763  1.00  0.00     0.060 A 
BRANCH  45  46
ATOM     46  S   UNL A   1      47.617  37.268  29.006  1.00  0.00     0.124 S 
ATOM     47  O   UNL A   1      46.440  37.778  29.704  1.00  0.00    -0.237 OA
ATOM     48  O   UNL A   1      48.833  37.169  29.808  1.00  0.00    -0.237 OA
ATOM     49  O   UNL A   1      47.806  37.765  27.647  1.00  0.00    -0.744 OA
ENDBRANCH  45  46
ENDBRANCH  24  38
BRANCH  25  50
ATOM     50  C   UNL A   1      43.578  23.395  26.869  1.00  0.00     0.058 A 
ATOM     51  C   UNL A   1      43.256  22.556  27.946  1.00  0.00     0.135 A 
ATOM     52  C   UNL A   1      43.454  22.872  25.573  1.00  0.00     0.135 A 
ATOM     53  F   UNL A   1      43.362  23.010  29.204  1.00  0.00    -0.206 F 
ATOM     54  C   UNL A   1      42.839  21.245  27.747  1.00  0.00     0.059 A 
ATOM     55  C   UNL A   1      43.013  21.573  25.347  1.00  0.00     0.059 A 
ATOM     56  F   UNL A   1      43.732  23.642  24.508  1.00  0.00    -0.206 F 
ATOM     57  C   UNL A   1      42.719  20.763  26.442  1.00  0.00     0.060 A 
BRANCH  57  58
ATOM     58  S   UNL A   1      42.124  19.077  26.190  1.00  0.00     0.124 S 
ATOM     59  O   UNL A   1      42.994  18.617  25.115  1.00  0.00    -0.237 OA
ATOM     60  O   UNL A   1      42.349  18.471  27.498  1.00  0.00    -0.237 OA
ATOM     61  O   UNL A   1      40.721  19.269  25.830  1.00  0.00    -0.744 OA
ENDBRANCH  57  58
ENDBRANCH  25  50
BRANCH  37  62
ATOM     62  C   UNL A   1      49.695  26.701  26.449  1.00  0.00     0.058 A 
ATOM     63  C   UNL A   1      50.535  26.111  27.407  1.00  0.00     0.135 A 
ATOM     64  C   UNL A   1      50.179  26.824  25.138  1.00  0.00     0.135 A 
ATOM     65  F   UNL A   1      50.122  25.977  28.677  1.00  0.00    -0.206 F 
ATOM     66  C   UNL A   1      51.819  25.687  27.081  1.00  0.00     0.059 A 
ATOM     67  C   UNL A   1      51.450  26.384  24.784  1.00  0.00     0.059 A 
ATOM     68  F   UNL A   1      49.411  27.373  24.183  1.00  0.00    -0.206 F 
ATOM     69  C   UNL A   1      52.269  25.832  25.768  1.00  0.00     0.060 A 
BRANCH  69  70
ATOM     70  S   UNL A   1      53.933  25.269  25.352  1.00  0.00     0.124 S 
ATOM     71  O   UNL A   1      53.657  23.991  24.704  1.00  0.00    -0.237 OA
ATOM     72  O   UNL A   1      54.418  26.333  24.478  1.00  0.00    -0.237 OA
ATOM     73  O   UNL A   1      54.597  25.185  26.651  1.00  0.00    -0.744 OA
ENDBRANCH  69  70
ENDBRANCH  37  62
ENDBRANCH  11  12
ENDBRANCH   4   6
ENDBRANCH   1   2
BRANCH   1  74
ATOM     74  C   UNL A   1      34.206  30.885  27.417  1.00  0.00     0.042 C 
BRANCH  74  75
ATOM     75  C   UNL A   1      33.633  29.583  26.881  1.00  0.00     0.117 C 
BRANCH  75  76
ATOM     76  N   UNL A   1      34.034  29.332  25.514  1.00  0.00    -0.356 N 
ATOM     77  C   UNL A   1      33.702  28.329  24.662  1.00  0.00     0.224 C 
ATOM     78  H   UNL A   1      34.652  30.001  25.139  1.00  0.00     0.163 HD
ATOM     79  O   UNL A   1      34.067  28.472  23.493  1.00  0.00    -0.275 OA
BRANCH  77  80
ATOM     80  C   UNL A   1      32.832  27.154  25.112  1.00  0.00     0.094 C 
ATOM     81  C   UNL A   1      31.342  27.591  25.278  1.00  0.00     0.002 C 
ATOM     82  C   UNL A   1      32.703  25.948  24.145  1.00  0.00     0.094 C 
ATOM     83  C   UNL A   1      30.693  28.067  23.958  1.00  0.00     0.005 C 
ATOM     84  C   UNL A   1      30.663  26.239  25.429  1.00  0.00     0.009 C 
ATOM     85  C   UNL A   1      31.173  25.724  24.075  1.00  0.00     0.002 C 
ATOM     86  C   UNL A   1      30.578  26.781  23.131  1.00  0.00     0.005 C 
BRANCH  82  87
ATOM     87  C   UNL A   1      33.515  24.702  24.542  1.00  0.00     0.227 C 
ATOM     88  O   UNL A   1      34.579  24.831  25.149  1.00  0.00    -0.275 OA
ATOM     89  N   UNL A   1      32.973  23.446  24.348  1.00  0.00    -0.331 N 
ATOM     90  C   UNL A   1      33.202  22.448  25.397  1.00  0.00     0.181 C 
ATOM     91  C   UNL A   1      32.952  22.848  23.015  1.00  0.00     0.181 C 
ATOM     92  C   UNL A   1      32.226  21.253  25.290  1.00  0.00     0.284 C 
ATOM     93  C   UNL A   1      31.901  21.734  22.946  1.00  0.00     0.284 C 
ATOM     94  N   UNL A   1      32.078  20.662  23.942  1.00  0.00    -0.330 N 
ATOM     95  H   UNL A   1      31.217  20.119  23.909  1.00  0.00     0.348 HD
BRANCH  94  96
ATOM     96  C   UNL A   1      33.035  19.576  23.628  1.00  0.00     0.184 C 
ATOM     97  C   UNL A   1      33.920  19.206  24.840  1.00  0.00     0.065 C 
ATOM     98  C   UNL A   1      32.456  18.314  22.952  1.00  0.00     0.065 C 
ATOM     99  C   UNL A   1      34.953  18.132  24.516  1.00  0.00     0.006 C 
ATOM    100  C   UNL A   1      33.499  17.226  22.701  1.00  0.00     0.006 C 
ATOM    101  C   UNL A   1      34.275  16.887  23.964  1.00  0.00     0.000 C 
ENDBRANCH  94  96
ENDBRANCH  82  87
ENDBRANCH  77  80
ENDBRANCH  75  76
ENDBRANCH  74  75
ENDBRANCH   1  74
TORSDOF 15
ENDMDL
