MODEL 1
REMARK VINA RESULT:     -12.7      0.000      0.000
REMARK SMILES CC[C@@H](C)[C@@H](NC(=O)Cn1ncc2ccccc2c1=O)C(=O)NCCCNC(=O)c1ccc(-c2c3nc(c(-c4c(F)cc(S(=O)(=O)[O-])cc4F)c4ccc([nH]4)c(-c4c(F)cc(S(=O)(=O)[O-])cc4F)c4nc(c(-c5c(F)cc(S(=O)(=O)[O-])cc5F)c5ccc2[nH]5)C=C4)C=C3)cc1
REMARK SMILES IDX 25 1 24 2 23 3 21 4 22 5 5 7 3 8 4 9 2 10 1 11 6 12 7 13
REMARK SMILES IDX 8 15 9 16 10 17 11 18 19 19 12 20 18 21 20 22 13 23 17 24
REMARK SMILES IDX 14 25 16 26 15 27 26 28 27 29 28 30 29 32 30 33 31 34 95 35
REMARK SMILES IDX 32 36 94 37 33 38 34 39 35 40 88 41 36 42 93 43 87 44 89 45
REMARK SMILES IDX 37 46 92 47 86 48 85 49 38 51 72 52 51 53 71 54 52 55 55 56
REMARK SMILES IDX 70 57 90 58 53 59 54 60 69 62 91 63 56 64 39 65 40 66 49 67
REMARK SMILES IDX 41 68 42 69 48 70 50 71 43 72 44 73 45 74 46 75 47 76 73 77
REMARK SMILES IDX 74 78 83 79 75 80 76 81 82 82 84 83 77 84 78 85 79 86 80 87
REMARK SMILES IDX 81 88 57 89 58 90 67 91 59 92 60 93 66 94 68 95 61 96 62 97
REMARK SMILES IDX 63 98 64 99 65 100
REMARK H PARENT 23 6 6 14 27 31 89 50 55 61
REMARK Flexibility Score: inf
ROOT
ATOM      1  C   UNL A   1      32.804  28.416  26.100  1.00  0.00     0.042 C 
ENDROOT
BRANCH   1   2
ATOM      2  C   UNL A   1      31.470  27.433  26.447  1.00  0.00     0.117 C 
BRANCH   2   3
ATOM      3  N   UNL A   1      31.308  25.384  26.663  1.00  0.00    -0.354 N 
ATOM      4  C   UNL A   1      31.955  24.110  26.560  1.00  0.00     0.242 C 
ATOM      5  O   UNL A   1      31.291  23.208  27.104  1.00  0.00    -0.273 OA
ATOM      6  H   UNL A   1      30.389  25.207  26.969  1.00  0.00     0.163 HD
BRANCH   4   7
ATOM      7  C   UNL A   1      33.286  23.672  25.772  1.00  0.00     0.174 C 
BRANCH   7   8
ATOM      8  C   UNL A   1      34.032  22.512  26.545  1.00  0.00     0.018 C 
ATOM      9  C   UNL A   1      35.525  22.826  26.727  1.00  0.00     0.010 C 
BRANCH   8  10
ATOM     10  C   UNL A   1      33.834  21.064  26.047  1.00  0.00     0.002 C 
ATOM     11  C   UNL A   1      34.967  20.656  25.094  1.00  0.00     0.004 C 
ENDBRANCH   8  10
ENDBRANCH   7   8
BRANCH   7  12
ATOM     12  N   UNL A   1      33.303  23.475  24.304  1.00  0.00    -0.342 N 
ATOM     13  C   UNL A   1      33.329  24.343  23.254  1.00  0.00     0.242 C 
ATOM     14  H   UNL A   1      33.294  22.528  24.033  1.00  0.00     0.164 HD
ATOM     15  O   UNL A   1      33.583  23.876  22.137  1.00  0.00    -0.273 OA
BRANCH  13  16
ATOM     16  C   UNL A   1      33.241  25.836  23.453  1.00  0.00     0.248 C 
BRANCH  16  17
ATOM     17  N   UNL A   1      31.951  26.357  23.083  1.00  0.00    -0.220 N 
ATOM     18  N   UNL A   1      30.418  25.413  23.535  1.00  0.00    -0.177 NA
ATOM     19  C   UNL A   1      31.859  28.088  22.635  1.00  0.00     0.275 A 
ATOM     20  C   UNL A   1      29.085  26.163  23.708  1.00  0.00     0.142 A 
ATOM     21  C   UNL A   1      30.115  28.899  22.655  1.00  0.00     0.050 A 
ATOM     22  O   UNL A   1      32.882  28.704  22.335  1.00  0.00    -0.267 OA
ATOM     23  C   UNL A   1      28.793  27.983  23.242  1.00  0.00     0.007 A 
ATOM     24  C   UNL A   1      29.898  30.167  22.179  1.00  0.00     0.014 A 
ATOM     25  C   UNL A   1      27.544  28.545  23.307  1.00  0.00     0.010 A 
ATOM     26  C   UNL A   1      28.561  30.608  22.246  1.00  0.00     0.001 A 
ATOM     27  C   UNL A   1      27.457  29.853  22.797  1.00  0.00     0.001 A 
ENDBRANCH  16  17
ENDBRANCH  13  16
ENDBRANCH   7  12
ENDBRANCH   4   7
ENDBRANCH   2   3
ENDBRANCH   1   2
BRANCH   1  28
ATOM     28  C   UNL A   1      33.631  28.690  27.332  1.00  0.00     0.118 C 
BRANCH  28  29
ATOM     29  N   UNL A   1      33.535  30.021  27.901  1.00  0.00    -0.352 N 
ATOM     30  C   UNL A   1      34.610  30.685  28.463  1.00  0.00     0.251 C 
ATOM     31  H   UNL A   1      32.661  30.474  27.884  1.00  0.00     0.163 HD
ATOM     32  O   UNL A   1      34.527  31.814  28.920  1.00  0.00    -0.269 OA
BRANCH  30  33
ATOM     33  C   UNL A   1      35.860  29.899  28.523  1.00  0.00     0.039 A 
ATOM     34  C   UNL A   1      36.308  29.482  29.778  1.00  0.00     0.014 A 
ATOM     35  C   UNL A   1      36.728  29.986  27.432  1.00  0.00     0.014 A 
ATOM     36  C   UNL A   1      37.675  29.329  29.977  1.00  0.00     0.010 A 
ATOM     37  C   UNL A   1      38.082  29.713  27.618  1.00  0.00     0.010 A 
ATOM     38  C   UNL A   1      38.576  29.422  28.899  1.00  0.00    -0.014 A 
BRANCH  38  39
ATOM     39  C   UNL A   1      40.023  29.143  29.094  1.00  0.00     0.031 A 
ATOM     40  C   UNL A   1      40.984  30.215  29.545  1.00  0.00     0.074 A 
ATOM     41  C   UNL A   1      40.472  27.904  28.810  1.00  0.00     0.049 A 
ATOM     42  N   UNL A   1      42.293  30.196  29.547  1.00  0.00    -0.248 NA
ATOM     43  C   UNL A   1      40.409  31.470  30.060  1.00  0.00     0.031 C 
ATOM     44  C   UNL A   1      39.633  26.773  28.400  1.00  0.00     0.029 A 
ATOM     45  N   UNL A   1      41.740  27.387  28.807  1.00  0.00    -0.354 N 
ATOM     46  C   UNL A   1      42.700  31.434  30.034  1.00  0.00     0.074 A 
ATOM     47  C   UNL A   1      41.497  32.189  30.312  1.00  0.00     0.031 C 
ATOM     48  C   UNL A   1      40.401  25.693  28.216  1.00  0.00     0.029 A 
ATOM     49  C   UNL A   1      41.792  26.082  28.378  1.00  0.00     0.049 A 
ATOM     50  H   UNL A   1      42.536  27.898  29.083  1.00  0.00     0.167 HD
ATOM     51  C   UNL A   1      43.963  31.889  30.226  1.00  0.00     0.037 A 
ATOM     52  C   UNL A   1      42.841  25.296  28.078  1.00  0.00     0.037 A 
ATOM     53  C   UNL A   1      45.149  31.112  29.950  1.00  0.00     0.049 A 
ATOM     54  C   UNL A   1      44.224  25.861  28.208  1.00  0.00     0.074 A 
ATOM     55  C   UNL A   1      46.476  31.485  30.094  1.00  0.00     0.029 A 
ATOM     56  N   UNL A   1      45.154  29.804  29.487  1.00  0.00    -0.354 N 
ATOM     57  N   UNL A   1      44.592  27.052  28.616  1.00  0.00    -0.248 NA
ATOM     58  C   UNL A   1      45.333  24.980  27.830  1.00  0.00     0.031 C 
ATOM     59  C   UNL A   1      47.281  30.421  29.679  1.00  0.00     0.029 A 
ATOM     60  C   UNL A   1      46.459  29.361  29.335  1.00  0.00     0.049 A 
ATOM     61  H   UNL A   1      44.351  29.270  29.295  1.00  0.00     0.167 HD
ATOM     62  C   UNL A   1      45.980  27.048  28.581  1.00  0.00     0.074 A 
ATOM     63  C   UNL A   1      46.382  25.734  28.122  1.00  0.00     0.031 C 
ATOM     64  C   UNL A   1      46.843  28.042  28.901  1.00  0.00     0.037 A 
BRANCH  51  65
ATOM     65  C   UNL A   1      44.163  33.285  30.759  1.00  0.00     0.058 A 
ATOM     66  C   UNL A   1      44.081  34.409  29.924  1.00  0.00     0.135 A 
ATOM     67  C   UNL A   1      44.294  33.509  32.142  1.00  0.00     0.135 A 
ATOM     68  F   UNL A   1      43.972  34.256  28.595  1.00  0.00    -0.206 F 
ATOM     69  C   UNL A   1      44.110  35.703  30.439  1.00  0.00     0.059 A 
ATOM     70  C   UNL A   1      44.302  34.794  32.681  1.00  0.00     0.059 A 
ATOM     71  F   UNL A   1      44.378  32.471  32.989  1.00  0.00    -0.206 F 
ATOM     72  C   UNL A   1      44.207  35.885  31.821  1.00  0.00     0.060 A 
BRANCH  72  73
ATOM     73  S   UNL A   1      44.179  37.571  32.468  1.00  0.00     0.124 S 
ATOM     74  O   UNL A   1      43.911  38.344  31.258  1.00  0.00    -0.237 OA
ATOM     75  O   UNL A   1      43.090  37.512  33.436  1.00  0.00    -0.237 OA
ATOM     76  O   UNL A   1      45.514  37.742  33.035  1.00  0.00    -0.744 OA
ENDBRANCH  72  73
ENDBRANCH  51  65
BRANCH  52  77
ATOM     77  C   UNL A   1      42.617  23.910  27.596  1.00  0.00     0.058 A 
ATOM     78  C   UNL A   1      42.627  22.833  28.493  1.00  0.00     0.135 A 
ATOM     79  C   UNL A   1      42.384  23.632  26.239  1.00  0.00     0.135 A 
ATOM     80  F   UNL A   1      42.841  23.051  29.799  1.00  0.00    -0.206 F 
ATOM     81  C   UNL A   1      42.445  21.526  28.060  1.00  0.00     0.059 A 
ATOM     82  C   UNL A   1      42.162  22.336  25.786  1.00  0.00     0.059 A 
ATOM     83  F   UNL A   1      42.340  24.630  25.343  1.00  0.00    -0.206 F 
ATOM     84  C   UNL A   1      42.214  21.288  26.703  1.00  0.00     0.060 A 
BRANCH  84  85
ATOM     85  S   UNL A   1      41.974  19.586  26.157  1.00  0.00     0.124 S 
ATOM     86  O   UNL A   1      42.848  19.530  24.990  1.00  0.00    -0.237 OA
ATOM     87  O   UNL A   1      42.414  18.828  27.323  1.00  0.00    -0.237 OA
ATOM     88  O   UNL A   1      40.542  19.522  25.878  1.00  0.00    -0.744 OA
ENDBRANCH  84  85
ENDBRANCH  52  77
BRANCH  64  89
ATOM     89  C   UNL A   1      48.310  27.723  28.839  1.00  0.00     0.058 A 
ATOM     90  C   UNL A   1      49.000  27.177  29.932  1.00  0.00     0.135 A 
ATOM     91  C   UNL A   1      49.027  27.941  27.651  1.00  0.00     0.135 A 
ATOM     92  F   UNL A   1      48.363  26.958  31.093  1.00  0.00    -0.206 F 
ATOM     93  C   UNL A   1      50.359  26.891  29.861  1.00  0.00     0.059 A 
ATOM     94  C   UNL A   1      50.379  27.630  27.547  1.00  0.00     0.059 A 
ATOM     95  F   UNL A   1      48.413  28.453  26.573  1.00  0.00    -0.206 F 
ATOM     96  C   UNL A   1      51.039  27.118  28.663  1.00  0.00     0.060 A 
BRANCH  96  97
ATOM     97  S   UNL A   1      52.798  26.723  28.582  1.00  0.00     0.124 S 
ATOM     98  O   UNL A   1      53.042  26.193  29.920  1.00  0.00    -0.237 OA
ATOM     99  O   UNL A   1      52.847  25.750  27.495  1.00  0.00    -0.237 OA
ATOM    100  O   UNL A   1      53.422  28.010  28.294  1.00  0.00    -0.744 OA
ENDBRANCH  96  97
ENDBRANCH  64  89
ENDBRANCH  38  39
ENDBRANCH  30  33
ENDBRANCH  28  29
ENDBRANCH   1  28
TORSDOF 18
ENDMDL
MODEL 2
REMARK VINA RESULT:     -12.1      1.160      4.082
REMARK SMILES CC[C@@H](C)[C@@H](NC(=O)Cn1ncc2ccccc2c1=O)C(=O)NCCCNC(=O)c1ccc(-c2c3nc(c(-c4c(F)cc(S(=O)(=O)[O-])cc4F)c4ccc([nH]4)c(-c4c(F)cc(S(=O)(=O)[O-])cc4F)c4nc(c(-c5c(F)cc(S(=O)(=O)[O-])cc5F)c5ccc2[nH]5)C=C4)C=C3)cc1
REMARK SMILES IDX 25 1 24 2 23 3 21 4 22 5 5 7 3 8 4 9 2 10 1 11 6 12 7 13
REMARK SMILES IDX 8 15 9 16 10 17 11 18 19 19 12 20 18 21 20 22 13 23 17 24
REMARK SMILES IDX 14 25 16 26 15 27 26 28 27 29 28 30 29 32 30 33 31 34 95 35
REMARK SMILES IDX 32 36 94 37 33 38 34 39 35 40 88 41 36 42 93 43 87 44 89 45
REMARK SMILES IDX 37 46 92 47 86 48 85 49 38 51 72 52 51 53 71 54 52 55 55 56
REMARK SMILES IDX 70 57 90 58 53 59 54 60 69 62 91 63 56 64 39 65 40 66 49 67
REMARK SMILES IDX 41 68 42 69 48 70 50 71 43 72 44 73 45 74 46 75 47 76 73 77
REMARK SMILES IDX 74 78 83 79 75 80 76 81 82 82 84 83 77 84 78 85 79 86 80 87
REMARK SMILES IDX 81 88 57 89 58 90 67 91 59 92 60 93 66 94 68 95 61 96 62 97
REMARK SMILES IDX 63 98 64 99 65 100
REMARK H PARENT 23 6 6 14 27 31 89 50 55 61
REMARK Flexibility Score: inf
ROOT
ATOM      1  C   UNL A   1      32.156  27.865  27.653  1.00  0.00     0.042 C 
ENDROOT
BRANCH   1   2
ATOM      2  C   UNL A   1      31.839  26.683  26.482  1.00  0.00     0.117 C 
BRANCH   2   3
ATOM      3  N   UNL A   1      30.331  26.529  25.077  1.00  0.00    -0.354 N 
ATOM      4  C   UNL A   1      29.946  26.687  23.705  1.00  0.00     0.242 C 
ATOM      5  O   UNL A   1      28.843  26.158  23.471  1.00  0.00    -0.273 OA
ATOM      6  H   UNL A   1      29.533  26.209  25.557  1.00  0.00     0.163 HD
BRANCH   4   7
ATOM      7  C   UNL A   1      30.634  27.516  22.513  1.00  0.00     0.174 C 
BRANCH   7   8
ATOM      8  C   UNL A   1      31.012  28.973  22.998  1.00  0.00     0.018 C 
ATOM      9  C   UNL A   1      32.390  29.000  23.678  1.00  0.00     0.010 C 
BRANCH   8  10
ATOM     10  C   UNL A   1      29.974  29.752  23.834  1.00  0.00     0.002 C 
ATOM     11  C   UNL A   1      29.128  30.667  22.936  1.00  0.00     0.004 C 
ENDBRANCH   8  10
ENDBRANCH   7   8
BRANCH   7  12
ATOM     12  N   UNL A   1      31.674  26.924  21.640  1.00  0.00    -0.342 N 
ATOM     13  C   UNL A   1      32.707  26.068  21.881  1.00  0.00     0.242 C 
ATOM     14  H   UNL A   1      31.606  27.206  20.699  1.00  0.00     0.164 HD
ATOM     15  O   UNL A   1      33.263  25.560  20.899  1.00  0.00    -0.273 OA
BRANCH  13  16
ATOM     16  C   UNL A   1      33.046  25.603  23.275  1.00  0.00     0.248 C 
BRANCH  16  17
ATOM     17  N   UNL A   1      33.545  24.252  23.289  1.00  0.00    -0.220 N 
ATOM     18  N   UNL A   1      35.334  23.941  23.672  1.00  0.00    -0.177 NA
ATOM     19  C   UNL A   1      32.342  22.931  23.407  1.00  0.00     0.275 A 
ATOM     20  C   UNL A   1      35.761  22.590  24.273  1.00  0.00     0.142 A 
ATOM     21  C   UNL A   1      32.999  21.206  23.948  1.00  0.00     0.050 A 
ATOM     22  O   UNL A   1      31.159  23.147  23.148  1.00  0.00    -0.267 OA
ATOM     23  C   UNL A   1      34.635  21.067  24.432  1.00  0.00     0.007 A 
ATOM     24  C   UNL A   1      32.207  20.086  23.918  1.00  0.00     0.014 A 
ATOM     25  C   UNL A   1      35.123  19.860  24.862  1.00  0.00     0.010 A 
ATOM     26  C   UNL A   1      32.842  18.896  24.328  1.00  0.00     0.001 A 
ATOM     27  C   UNL A   1      34.209  18.794  24.792  1.00  0.00     0.001 A 
ENDBRANCH  16  17
ENDBRANCH  13  16
ENDBRANCH   7  12
ENDBRANCH   4   7
ENDBRANCH   2   3
ENDBRANCH   1   2
BRANCH   1  28
ATOM     28  C   UNL A   1      33.353  28.707  27.285  1.00  0.00     0.118 C 
BRANCH  28  29
ATOM     29  N   UNL A   1      33.291  30.115  27.627  1.00  0.00    -0.352 N 
ATOM     30  C   UNL A   1      34.383  30.836  28.075  1.00  0.00     0.251 C 
ATOM     31  H   UNL A   1      32.428  30.581  27.535  1.00  0.00     0.163 HD
ATOM     32  O   UNL A   1      34.329  32.026  28.340  1.00  0.00    -0.269 OA
BRANCH  30  33
ATOM     33  C   UNL A   1      35.613  30.040  28.264  1.00  0.00     0.039 A 
ATOM     34  C   UNL A   1      35.969  29.690  29.568  1.00  0.00     0.014 A 
ATOM     35  C   UNL A   1      36.555  30.055  27.232  1.00  0.00     0.014 A 
ATOM     36  C   UNL A   1      37.317  29.532  29.869  1.00  0.00     0.010 A 
ATOM     37  C   UNL A   1      37.889  29.777  27.525  1.00  0.00     0.010 A 
ATOM     38  C   UNL A   1      38.291  29.554  28.852  1.00  0.00    -0.014 A 
BRANCH  38  39
ATOM     39  C   UNL A   1      39.716  29.269  29.161  1.00  0.00     0.031 A 
ATOM     40  C   UNL A   1      40.638  30.333  29.703  1.00  0.00     0.074 A 
ATOM     41  C   UNL A   1      40.186  28.034  28.899  1.00  0.00     0.049 A 
ATOM     42  N   UNL A   1      41.943  30.312  29.812  1.00  0.00    -0.248 NA
ATOM     43  C   UNL A   1      40.024  31.583  30.184  1.00  0.00     0.031 C 
ATOM     44  C   UNL A   1      39.382  26.909  28.407  1.00  0.00     0.029 A 
ATOM     45  N   UNL A   1      41.449  27.513  28.993  1.00  0.00    -0.354 N 
ATOM     46  C   UNL A   1      42.310  31.543  30.345  1.00  0.00     0.074 A 
ATOM     47  C   UNL A   1      41.089  32.297  30.534  1.00  0.00     0.031 C 
ATOM     48  C   UNL A   1      40.161  25.830  28.274  1.00  0.00     0.029 A 
ATOM     49  C   UNL A   1      41.535  26.214  28.553  1.00  0.00     0.049 A 
ATOM     50  H   UNL A   1      42.220  28.020  29.340  1.00  0.00     0.167 HD
ATOM     51  C   UNL A   1      43.553  31.993  30.647  1.00  0.00     0.037 A 
ATOM     52  C   UNL A   1      42.605  25.430  28.331  1.00  0.00     0.037 A 
ATOM     53  C   UNL A   1      44.757  31.217  30.459  1.00  0.00     0.049 A 
ATOM     54  C   UNL A   1      43.972  25.990  28.581  1.00  0.00     0.074 A 
ATOM     55  C   UNL A   1      46.068  31.586  30.716  1.00  0.00     0.029 A 
ATOM     56  N   UNL A   1      44.799  29.915  29.981  1.00  0.00    -0.354 N 
ATOM     57  N   UNL A   1      44.307  27.175  29.032  1.00  0.00    -0.248 NA
ATOM     58  C   UNL A   1      45.108  25.111  28.284  1.00  0.00     0.031 C 
ATOM     59  C   UNL A   1      46.903  30.526  30.354  1.00  0.00     0.029 A 
ATOM     60  C   UNL A   1      46.111  29.471  29.931  1.00  0.00     0.049 A 
ATOM     61  H   UNL A   1      44.013  29.385  29.717  1.00  0.00     0.167 HD
ATOM     62  C   UNL A   1      45.693  27.169  29.111  1.00  0.00     0.074 A 
ATOM     63  C   UNL A   1      46.130  25.860  28.669  1.00  0.00     0.031 C 
ATOM     64  C   UNL A   1      46.528  28.157  29.513  1.00  0.00     0.037 A 
BRANCH  51  65
ATOM     65  C   UNL A   1      43.710  33.381  31.212  1.00  0.00     0.058 A 
ATOM     66  C   UNL A   1      43.791  33.606  32.594  1.00  0.00     0.135 A 
ATOM     67  C   UNL A   1      43.926  34.479  30.360  1.00  0.00     0.135 A 
ATOM     68  F   UNL A   1      43.577  32.600  33.456  1.00  0.00    -0.206 F 
ATOM     69  C   UNL A   1      44.092  34.864  33.112  1.00  0.00     0.059 A 
ATOM     70  C   UNL A   1      44.252  35.741  30.854  1.00  0.00     0.059 A 
ATOM     71  F   UNL A   1      43.861  34.323  29.028  1.00  0.00    -0.206 F 
ATOM     72  C   UNL A   1      44.335  35.923  32.232  1.00  0.00     0.060 A 
BRANCH  72  73
ATOM     73  S   UNL A   1      44.784  37.529  32.926  1.00  0.00     0.124 S 
ATOM     74  O   UNL A   1      45.996  37.197  33.670  1.00  0.00    -0.237 OA
ATOM     75  O   UNL A   1      44.979  38.339  31.728  1.00  0.00    -0.237 OA
ATOM     76  O   UNL A   1      43.628  37.885  33.743  1.00  0.00    -0.744 OA
ENDBRANCH  72  73
ENDBRANCH  51  65
BRANCH  52  77
ATOM     77  C   UNL A   1      42.419  24.050  27.814  1.00  0.00     0.058 A 
ATOM     78  C   UNL A   1      42.439  22.954  28.687  1.00  0.00     0.135 A 
ATOM     79  C   UNL A   1      42.214  23.798  26.448  1.00  0.00     0.135 A 
ATOM     80  F   UNL A   1      42.628  23.147  30.001  1.00  0.00    -0.206 F 
ATOM     81  C   UNL A   1      42.294  21.654  28.222  1.00  0.00     0.059 A 
ATOM     82  C   UNL A   1      42.027  22.508  25.963  1.00  0.00     0.059 A 
ATOM     83  F   UNL A   1      42.161  24.815  25.573  1.00  0.00    -0.206 F 
ATOM     84  C   UNL A   1      42.090  21.441  26.857  1.00  0.00     0.060 A 
BRANCH  84  85
ATOM     85  S   UNL A   1      41.896  19.747  26.270  1.00  0.00     0.124 S 
ATOM     86  O   UNL A   1      40.469  19.705  25.970  1.00  0.00    -0.237 OA
ATOM     87  O   UNL A   1      42.792  19.721  25.119  1.00  0.00    -0.237 OA
ATOM     88  O   UNL A   1      42.326  18.944  27.411  1.00  0.00    -0.744 OA
ENDBRANCH  84  85
ENDBRANCH  52  77
BRANCH  64  89
ATOM     89  C   UNL A   1      47.995  27.835  29.567  1.00  0.00     0.058 A 
ATOM     90  C   UNL A   1      48.820  27.934  28.436  1.00  0.00     0.135 A 
ATOM     91  C   UNL A   1      48.587  27.451  30.782  1.00  0.00     0.135 A 
ATOM     92  F   UNL A   1      48.302  28.288  27.250  1.00  0.00    -0.206 F 
ATOM     93  C   UNL A   1      50.175  27.628  28.500  1.00  0.00     0.059 A 
ATOM     94  C   UNL A   1      49.946  27.174  30.876  1.00  0.00     0.059 A 
ATOM     95  F   UNL A   1      47.843  27.349  31.895  1.00  0.00    -0.206 F 
ATOM     96  C   UNL A   1      50.729  27.252  29.726  1.00  0.00     0.060 A 
BRANCH  96  97
ATOM     97  S   UNL A   1      52.493  26.877  29.795  1.00  0.00     0.124 S 
ATOM     98  O   UNL A   1      52.781  26.561  28.399  1.00  0.00    -0.237 OA
ATOM     99  O   UNL A   1      53.056  28.129  30.291  1.00  0.00    -0.237 OA
ATOM    100  O   UNL A   1      52.566  25.751  30.720  1.00  0.00    -0.744 OA
ENDBRANCH  96  97
ENDBRANCH  64  89
ENDBRANCH  38  39
ENDBRANCH  30  33
ENDBRANCH  28  29
ENDBRANCH   1  28
TORSDOF 18
ENDMDL
MODEL 3
REMARK VINA RESULT:     -12.1      1.949      4.205
REMARK SMILES CC[C@@H](C)[C@@H](NC(=O)Cn1ncc2ccccc2c1=O)C(=O)NCCCNC(=O)c1ccc(-c2c3nc(c(-c4c(F)cc(S(=O)(=O)[O-])cc4F)c4ccc([nH]4)c(-c4c(F)cc(S(=O)(=O)[O-])cc4F)c4nc(c(-c5c(F)cc(S(=O)(=O)[O-])cc5F)c5ccc2[nH]5)C=C4)C=C3)cc1
REMARK SMILES IDX 25 1 24 2 23 3 21 4 22 5 5 7 3 8 4 9 2 10 1 11 6 12 7 13
REMARK SMILES IDX 8 15 9 16 10 17 11 18 19 19 12 20 18 21 20 22 13 23 17 24
REMARK SMILES IDX 14 25 16 26 15 27 26 28 27 29 28 30 29 32 30 33 31 34 95 35
REMARK SMILES IDX 32 36 94 37 33 38 34 39 35 40 88 41 36 42 93 43 87 44 89 45
REMARK SMILES IDX 37 46 92 47 86 48 85 49 38 51 72 52 51 53 71 54 52 55 55 56
REMARK SMILES IDX 70 57 90 58 53 59 54 60 69 62 91 63 56 64 39 65 40 66 49 67
REMARK SMILES IDX 41 68 42 69 48 70 50 71 43 72 44 73 45 74 46 75 47 76 73 77
REMARK SMILES IDX 74 78 83 79 75 80 76 81 82 82 84 83 77 84 78 85 79 86 80 87
REMARK SMILES IDX 81 88 57 89 58 90 67 91 59 92 60 93 66 94 68 95 61 96 62 97
REMARK SMILES IDX 63 98 64 99 65 100
REMARK H PARENT 23 6 6 14 27 31 89 50 55 61
REMARK Flexibility Score: inf
ROOT
ATOM      1  C   UNL A   1      34.062  29.340  26.725  1.00  0.00     0.042 C 
ENDROOT
BRANCH   1   2
ATOM      2  C   UNL A   1      32.570  28.644  27.124  1.00  0.00     0.117 C 
BRANCH   2   3
ATOM      3  N   UNL A   1      31.198  27.613  25.974  1.00  0.00    -0.354 N 
ATOM      4  C   UNL A   1      30.721  27.307  24.657  1.00  0.00     0.242 C 
ATOM      5  O   UNL A   1      29.924  26.351  24.665  1.00  0.00    -0.273 OA
ATOM      6  H   UNL A   1      30.624  27.116  26.602  1.00  0.00     0.163 HD
BRANCH   4   7
ATOM      7  C   UNL A   1      30.954  28.063  23.258  1.00  0.00     0.174 C 
BRANCH   7   8
ATOM      8  C   UNL A   1      29.932  29.259  23.097  1.00  0.00     0.018 C 
ATOM      9  C   UNL A   1      29.959  29.835  21.673  1.00  0.00     0.010 C 
BRANCH   8  10
ATOM     10  C   UNL A   1      29.968  30.391  24.146  1.00  0.00     0.002 C 
ATOM     11  C   UNL A   1      28.984  31.510  23.773  1.00  0.00     0.004 C 
ENDBRANCH   8  10
ENDBRANCH   7   8
BRANCH   7  12
ATOM     12  N   UNL A   1      32.308  28.408  22.764  1.00  0.00    -0.342 N 
ATOM     13  C   UNL A   1      33.276  27.682  22.138  1.00  0.00     0.242 C 
ATOM     14  H   UNL A   1      32.557  29.347  22.921  1.00  0.00     0.164 HD
ATOM     15  O   UNL A   1      34.213  28.308  21.628  1.00  0.00    -0.273 OA
BRANCH  13  16
ATOM     16  C   UNL A   1      33.131  26.199  21.901  1.00  0.00     0.248 C 
BRANCH  16  17
ATOM     17  N   UNL A   1      33.656  25.422  22.993  1.00  0.00    -0.220 N 
ATOM     18  N   UNL A   1      33.982  26.242  24.626  1.00  0.00    -0.177 NA
ATOM     19  C   UNL A   1      33.522  23.640  22.877  1.00  0.00     0.275 A 
ATOM     20  C   UNL A   1      33.953  25.406  25.918  1.00  0.00     0.142 A 
ATOM     21  C   UNL A   1      33.725  22.646  24.510  1.00  0.00     0.050 A 
ATOM     22  O   UNL A   1      33.308  23.107  21.789  1.00  0.00    -0.267 OA
ATOM     23  C   UNL A   1      33.862  23.509  25.983  1.00  0.00     0.007 A 
ATOM     24  C   UNL A   1      33.803  21.277  24.521  1.00  0.00     0.014 A 
ATOM     25  C   UNL A   1      33.969  22.829  27.168  1.00  0.00     0.010 A 
ATOM     26  C   UNL A   1      33.971  20.699  25.796  1.00  0.00     0.001 A 
ATOM     27  C   UNL A   1      34.027  21.429  27.044  1.00  0.00     0.001 A 
ENDBRANCH  16  17
ENDBRANCH  13  16
ENDBRANCH   7  12
ENDBRANCH   4   7
ENDBRANCH   2   3
ENDBRANCH   1   2
BRANCH   1  28
ATOM     28  C   UNL A   1      35.038  29.264  27.874  1.00  0.00     0.118 C 
BRANCH  28  29
ATOM     29  N   UNL A   1      35.104  30.417  28.752  1.00  0.00    -0.352 N 
ATOM     30  C   UNL A   1      36.266  30.826  29.381  1.00  0.00     0.251 C 
ATOM     31  H   UNL A   1      34.281  30.934  28.906  1.00  0.00     0.163 HD
ATOM     32  O   UNL A   1      36.319  31.810  30.101  1.00  0.00    -0.269 OA
BRANCH  30  33
ATOM     33  C   UNL A   1      37.431  29.944  29.162  1.00  0.00     0.039 A 
ATOM     34  C   UNL A   1      38.150  29.523  30.282  1.00  0.00     0.014 A 
ATOM     35  C   UNL A   1      38.000  29.935  27.886  1.00  0.00     0.014 A 
ATOM     36  C   UNL A   1      39.509  29.266  30.141  1.00  0.00     0.010 A 
ATOM     37  C   UNL A   1      39.334  29.558  27.740  1.00  0.00     0.010 A 
ATOM     38  C   UNL A   1      40.114  29.260  28.869  1.00  0.00    -0.014 A 
BRANCH  38  39
ATOM     39  C   UNL A   1      41.539  28.871  28.709  1.00  0.00     0.031 A 
ATOM     40  C   UNL A   1      42.653  29.884  28.803  1.00  0.00     0.074 A 
ATOM     41  C   UNL A   1      41.815  27.582  28.428  1.00  0.00     0.049 A 
ATOM     42  N   UNL A   1      43.912  29.752  28.470  1.00  0.00    -0.248 NA
ATOM     43  C   UNL A   1      42.317  31.215  29.338  1.00  0.00     0.031 C 
ATOM     44  C   UNL A   1      40.824  26.503  28.346  1.00  0.00     0.029 A 
ATOM     45  N   UNL A   1      43.001  26.958  28.144  1.00  0.00    -0.354 N 
ATOM     46  C   UNL A   1      44.514  30.980  28.727  1.00  0.00     0.074 A 
ATOM     47  C   UNL A   1      43.479  31.853  29.239  1.00  0.00     0.031 C 
ATOM     48  C   UNL A   1      41.444  25.351  28.066  1.00  0.00     0.029 A 
ATOM     49  C   UNL A   1      42.852  25.628  27.830  1.00  0.00     0.049 A 
ATOM     50  H   UNL A   1      43.873  27.416  28.161  1.00  0.00     0.167 HD
ATOM     51  C   UNL A   1      45.810  31.337  28.548  1.00  0.00     0.037 A 
ATOM     52  C   UNL A   1      43.731  24.736  27.341  1.00  0.00     0.037 A 
ATOM     53  C   UNL A   1      46.828  30.443  28.045  1.00  0.00     0.049 A 
ATOM     54  C   UNL A   1      45.134  25.188  27.062  1.00  0.00     0.074 A 
ATOM     55  C   UNL A   1      48.167  30.710  27.811  1.00  0.00     0.029 A 
ATOM     56  N   UNL A   1      46.625  29.112  27.712  1.00  0.00    -0.354 N 
ATOM     57  N   UNL A   1      45.673  26.366  27.256  1.00  0.00    -0.248 NA
ATOM     58  C   UNL A   1      46.044  24.191  26.489  1.00  0.00     0.031 C 
ATOM     59  C   UNL A   1      48.763  29.555  27.296  1.00  0.00     0.029 A 
ATOM     60  C   UNL A   1      47.812  28.549  27.269  1.00  0.00     0.049 A 
ATOM     61  H   UNL A   1      45.766  28.638  27.779  1.00  0.00     0.167 HD
ATOM     62  C   UNL A   1      47.000  26.241  26.866  1.00  0.00     0.074 A 
ATOM     63  C   UNL A   1      47.180  24.869  26.435  1.00  0.00     0.031 C 
ATOM     64  C   UNL A   1      47.981  27.176  26.867  1.00  0.00     0.037 A 
BRANCH  51  65
ATOM     65  C   UNL A   1      46.235  32.742  28.889  1.00  0.00     0.058 A 
ATOM     66  C   UNL A   1      46.127  33.787  27.960  1.00  0.00     0.135 A 
ATOM     67  C   UNL A   1      46.616  33.074  30.202  1.00  0.00     0.135 A 
ATOM     68  F   UNL A   1      45.784  33.528  26.688  1.00  0.00    -0.206 F 
ATOM     69  C   UNL A   1      46.371  35.110  28.320  1.00  0.00     0.059 A 
ATOM     70  C   UNL A   1      46.842  34.393  30.590  1.00  0.00     0.059 A 
ATOM     71  F   UNL A   1      46.735  32.115  31.133  1.00  0.00    -0.206 F 
ATOM     72  C   UNL A   1      46.714  35.406  29.642  1.00  0.00     0.060 A 
BRANCH  72  73
ATOM     73  S   UNL A   1      46.964  37.135  30.098  1.00  0.00     0.124 S 
ATOM     74  O   UNL A   1      46.491  37.824  28.901  1.00  0.00    -0.237 OA
ATOM     75  O   UNL A   1      46.120  37.267  31.280  1.00  0.00    -0.237 OA
ATOM     76  O   UNL A   1      48.401  37.221  30.341  1.00  0.00    -0.744 OA
ENDBRANCH  72  73
ENDBRANCH  51  65
BRANCH  52  77
ATOM     77  C   UNL A   1      43.297  23.346  27.054  1.00  0.00     0.058 A 
ATOM     78  C   UNL A   1      43.112  22.428  28.097  1.00  0.00     0.135 A 
ATOM     79  C   UNL A   1      43.054  22.907  25.743  1.00  0.00     0.135 A 
ATOM     80  F   UNL A   1      43.329  22.804  29.367  1.00  0.00    -0.206 F 
ATOM     81  C   UNL A   1      42.732  21.116  27.850  1.00  0.00     0.059 A 
ATOM     82  C   UNL A   1      42.635  21.609  25.472  1.00  0.00     0.059 A 
ATOM     83  F   UNL A   1      43.192  23.753  24.710  1.00  0.00    -0.206 F 
ATOM     84  C   UNL A   1      42.497  20.715  26.533  1.00  0.00     0.060 A 
BRANCH  84  85
ATOM     85  S   UNL A   1      41.997  19.009  26.229  1.00  0.00     0.124 S 
ATOM     86  O   UNL A   1      42.259  18.394  27.525  1.00  0.00    -0.237 OA
ATOM     87  O   UNL A   1      40.593  19.164  25.866  1.00  0.00    -0.237 OA
ATOM     88  O   UNL A   1      42.877  18.590  25.142  1.00  0.00    -0.744 OA
ENDBRANCH  84  85
ENDBRANCH  52  77
BRANCH  64  89
ATOM     89  C   UNL A   1      49.355  26.728  26.457  1.00  0.00     0.058 A 
ATOM     90  C   UNL A   1      50.225  26.083  27.350  1.00  0.00     0.135 A 
ATOM     91  C   UNL A   1      49.794  26.923  25.137  1.00  0.00     0.135 A 
ATOM     92  F   UNL A   1      49.856  25.881  28.625  1.00  0.00    -0.206 F 
ATOM     93  C   UNL A   1      51.496  25.678  26.959  1.00  0.00     0.059 A 
ATOM     94  C   UNL A   1      51.048  26.495  24.714  1.00  0.00     0.059 A 
ATOM     95  F   UNL A   1      48.998  27.527  24.241  1.00  0.00    -0.206 F 
ATOM     96  C   UNL A   1      51.897  25.885  25.637  1.00  0.00     0.060 A 
BRANCH  96  97
ATOM     97  S   UNL A   1      53.543  25.337  25.140  1.00  0.00     0.124 S 
ATOM     98  O   UNL A   1      54.394  26.104  26.045  1.00  0.00    -0.237 OA
ATOM     99  O   UNL A   1      53.479  23.901  25.393  1.00  0.00    -0.237 OA
ATOM    100  O   UNL A   1      53.618  25.718  23.734  1.00  0.00    -0.744 OA
ENDBRANCH  96  97
ENDBRANCH  64  89
ENDBRANCH  38  39
ENDBRANCH  30  33
ENDBRANCH  28  29
ENDBRANCH   1  28
TORSDOF 18
ENDMDL
