MODEL 1
REMARK VINA RESULT:     -11.1      0.000      0.000
REMARK SMILES CC[C@H](C)[C@H]([NH3+])C(=O)N1CC[C@@H](C(=O)NCCCNC(=O)c2ccc(-c3c4nc(c(-c5c(F)cc(S(=O)(=O)[O-])cc5F)c5ccc([nH]5)c(-c5c(F)cc(S(=O)(=O)[O-])cc5F)c5nc(c(-c6c(F)cc(S(=O)(=O)[O-])cc6F)c6ccc3[nH]6)C=C5)C=C4)cc2)[C@@H]1C
REMARK SMILES IDX 16 1 15 2 13 3 14 4 12 6 9 7 10 8 88 9 11 10 89 11 7 12 8 13
REMARK SMILES IDX 5 14 3 15 4 16 2 17 1 18 6 19 17 23 18 24 19 25 20 26 21 28
REMARK SMILES IDX 22 29 23 30 87 31 24 32 86 33 25 34 26 35 27 36 80 37 28 38
REMARK SMILES IDX 85 39 79 40 81 41 29 42 84 43 78 44 77 45 30 47 64 48 43 49
REMARK SMILES IDX 63 50 44 51 47 52 62 53 82 54 45 55 46 56 61 58 83 59 48 60
REMARK SMILES IDX 31 61 32 62 41 63 33 64 34 65 40 66 42 67 35 68 36 69 37 70
REMARK SMILES IDX 38 71 39 72 65 73 66 74 75 75 67 76 68 77 74 78 76 79 69 80
REMARK SMILES IDX 70 81 71 82 72 83 73 84 49 85 50 86 59 87 51 88 52 89 58 90
REMARK SMILES IDX 60 91 53 92 54 93 55 94 56 95 57 96
REMARK H PARENT 15 5 6 20 6 21 6 22 19 27 81 46 47 57
REMARK Flexibility Score: inf
ROOT
ATOM      1  C   UNL A   1      32.338  29.055  27.015  1.00  0.00     0.117 C 
ENDROOT
BRANCH   1   2
ATOM      2  N   UNL A   1      31.429  27.930  27.115  1.00  0.00    -0.356 N 
ATOM      3  C   UNL A   1      31.249  26.855  26.306  1.00  0.00     0.225 C 
ATOM      4  O   UNL A   1      30.353  26.064  26.623  1.00  0.00    -0.275 OA
ATOM      5  H   UNL A   1      30.841  27.948  27.905  1.00  0.00     0.163 HD
BRANCH   3   6
ATOM      6  C   UNL A   1      32.097  26.568  25.075  1.00  0.00     0.102 C 
ATOM      7  N   UNL A   1      32.724  24.767  23.634  1.00  0.00    -0.334 N 
ATOM      8  C   UNL A   1      32.250  25.863  22.807  1.00  0.00     0.121 C 
ATOM      9  C   UNL A   1      32.800  25.192  25.043  1.00  0.00     0.094 C 
ATOM     10  C   UNL A   1      31.377  26.691  23.736  1.00  0.00     0.037 C 
ATOM     11  C   UNL A   1      34.256  25.381  25.492  1.00  0.00     0.032 C 
BRANCH   7  12
ATOM     12  C   UNL A   1      33.082  23.576  23.024  1.00  0.00     0.281 C 
ATOM     13  O   UNL A   1      33.945  23.589  22.132  1.00  0.00    -0.268 OA
BRANCH  12  14
ATOM     14  C   UNL A   1      32.330  22.230  23.280  1.00  0.00     0.273 C 
BRANCH  14  15
ATOM     15  C   UNL A   1      33.228  21.270  24.131  1.00  0.00     0.054 C 
ATOM     16  C   UNL A   1      33.293  21.700  25.605  1.00  0.00     0.014 C 
BRANCH  15  17
ATOM     17  C   UNL A   1      32.844  19.791  23.933  1.00  0.00     0.006 C 
ATOM     18  C   UNL A   1      32.742  18.926  25.177  1.00  0.00     0.004 C 
ENDBRANCH  15  17
ENDBRANCH  14  15
BRANCH  14  19
ATOM     19  N   UNL A   1      31.781  21.592  22.067  1.00  0.00    -0.347 N 
ATOM     20  H   UNL A   1      32.080  20.617  22.030  1.00  0.00     0.345 HD
ATOM     21  H   UNL A   1      32.122  22.083  21.241  1.00  0.00     0.345 HD
ATOM     22  H   UNL A   1      30.762  21.634  22.091  1.00  0.00     0.345 HD
ENDBRANCH  14  19
ENDBRANCH  12  14
ENDBRANCH   7  12
ENDBRANCH   3   6
ENDBRANCH   1   2
BRANCH   1  23
ATOM     23  C   UNL A   1      33.764  28.662  27.400  1.00  0.00     0.042 C 
BRANCH  23  24
ATOM     24  C   UNL A   1      34.773  29.802  27.329  1.00  0.00     0.118 C 
BRANCH  24  25
ATOM     25  N   UNL A   1      35.003  30.454  28.613  1.00  0.00    -0.352 N 
ATOM     26  C   UNL A   1      36.058  30.498  29.489  1.00  0.00     0.251 C 
ATOM     27  H   UNL A   1      34.228  30.979  28.919  1.00  0.00     0.163 HD
ATOM     28  O   UNL A   1      35.861  31.044  30.576  1.00  0.00    -0.269 OA
BRANCH  26  29
ATOM     29  C   UNL A   1      37.398  29.925  29.202  1.00  0.00     0.039 A 
ATOM     30  C   UNL A   1      38.155  29.439  30.280  1.00  0.00     0.014 A 
ATOM     31  C   UNL A   1      37.979  29.944  27.936  1.00  0.00     0.014 A 
ATOM     32  C   UNL A   1      39.460  28.969  30.086  1.00  0.00     0.010 A 
ATOM     33  C   UNL A   1      39.235  29.375  27.723  1.00  0.00     0.010 A 
ATOM     34  C   UNL A   1      40.010  28.920  28.799  1.00  0.00    -0.014 A 
BRANCH  34  35
ATOM     35  C   UNL A   1      41.419  28.513  28.545  1.00  0.00     0.031 A 
ATOM     36  C   UNL A   1      42.507  29.561  28.576  1.00  0.00     0.074 A 
ATOM     37  C   UNL A   1      41.722  27.243  28.215  1.00  0.00     0.049 A 
ATOM     38  N   UNL A   1      43.756  29.477  28.194  1.00  0.00    -0.248 NA
ATOM     39  C   UNL A   1      42.120  30.898  29.059  1.00  0.00     0.031 C 
ATOM     40  C   UNL A   1      40.768  26.137  28.122  1.00  0.00     0.029 A 
ATOM     41  N   UNL A   1      42.924  26.673  27.876  1.00  0.00    -0.354 N 
ATOM     42  C   UNL A   1      44.283  30.757  28.337  1.00  0.00     0.074 A 
ATOM     43  C   UNL A   1      43.208  31.607  28.800  1.00  0.00     0.031 C 
ATOM     44  C   UNL A   1      41.424  25.019  27.764  1.00  0.00     0.029 A 
ATOM     45  C   UNL A   1      42.834  25.337  27.563  1.00  0.00     0.049 A 
ATOM     46  H   UNL A   1      43.771  27.175  27.858  1.00  0.00     0.167 HD
ATOM     47  C   UNL A   1      45.551  31.184  28.124  1.00  0.00     0.037 A 
ATOM     48  C   UNL A   1      43.781  24.472  27.153  1.00  0.00     0.037 A 
ATOM     49  C   UNL A   1      46.636  30.320  27.739  1.00  0.00     0.049 A 
ATOM     50  C   UNL A   1      45.198  24.951  26.992  1.00  0.00     0.074 A 
ATOM     51  C   UNL A   1      47.969  30.639  27.549  1.00  0.00     0.029 A 
ATOM     52  N   UNL A   1      46.515  28.957  27.513  1.00  0.00    -0.354 N 
ATOM     53  N   UNL A   1      45.681  26.162  27.135  1.00  0.00    -0.248 NA
ATOM     54  C   UNL A   1      46.203  23.943  26.627  1.00  0.00     0.031 C 
ATOM     55  C   UNL A   1      48.652  29.469  27.194  1.00  0.00     0.029 A 
ATOM     56  C   UNL A   1      47.750  28.418  27.197  1.00  0.00     0.049 A 
ATOM     57  H   UNL A   1      45.673  28.447  27.569  1.00  0.00     0.167 HD
ATOM     58  C   UNL A   1      47.049  26.055  26.913  1.00  0.00     0.074 A 
ATOM     59  C   UNL A   1      47.318  24.660  26.631  1.00  0.00     0.031 C 
ATOM     60  C   UNL A   1      48.000  27.022  26.942  1.00  0.00     0.037 A 
BRANCH  47  61
ATOM     61  C   UNL A   1      45.832  32.650  28.314  1.00  0.00     0.058 A 
ATOM     62  C   UNL A   1      45.700  33.571  27.262  1.00  0.00     0.135 A 
ATOM     63  C   UNL A   1      46.233  33.145  29.567  1.00  0.00     0.135 A 
ATOM     64  F   UNL A   1      45.336  33.153  26.040  1.00  0.00    -0.206 F 
ATOM     65  C   UNL A   1      45.994  34.920  27.433  1.00  0.00     0.059 A 
ATOM     66  C   UNL A   1      46.504  34.495  29.769  1.00  0.00     0.059 A 
ATOM     67  F   UNL A   1      46.375  32.310  30.609  1.00  0.00    -0.206 F 
ATOM     68  C   UNL A   1      46.401  35.371  28.689  1.00  0.00     0.060 A 
BRANCH  68  69
ATOM     69  S   UNL A   1      46.791  37.122  28.895  1.00  0.00     0.124 S 
ATOM     70  O   UNL A   1      47.560  37.391  27.683  1.00  0.00    -0.237 OA
ATOM     71  O   UNL A   1      45.469  37.735  28.954  1.00  0.00    -0.237 OA
ATOM     72  O   UNL A   1      47.550  37.156  30.141  1.00  0.00    -0.744 OA
ENDBRANCH  68  69
ENDBRANCH  47  61
BRANCH  48  73
ATOM     73  C   UNL A   1      43.426  23.049  26.902  1.00  0.00     0.058 A 
ATOM     74  C   UNL A   1      43.409  22.536  25.596  1.00  0.00     0.135 A 
ATOM     75  C   UNL A   1      43.111  22.176  27.953  1.00  0.00     0.135 A 
ATOM     76  F   UNL A   1      43.699  23.335  24.559  1.00  0.00    -0.206 F 
ATOM     77  C   UNL A   1      43.077  21.211  25.338  1.00  0.00     0.059 A 
ATOM     78  C   UNL A   1      42.797  20.840  27.721  1.00  0.00     0.059 A 
ATOM     79  F   UNL A   1      43.132  22.614  29.221  1.00  0.00    -0.206 F 
ATOM     80  C   UNL A   1      42.772  20.370  26.409  1.00  0.00     0.060 A 
BRANCH  80  81
ATOM     81  S   UNL A   1      42.388  18.638  26.068  1.00  0.00     0.124 S 
ATOM     82  O   UNL A   1      40.978  18.712  25.718  1.00  0.00    -0.237 OA
ATOM     83  O   UNL A   1      43.306  18.329  24.974  1.00  0.00    -0.237 OA
ATOM     84  O   UNL A   1      42.694  17.975  27.335  1.00  0.00    -0.744 OA
ENDBRANCH  80  81
ENDBRANCH  48  73
BRANCH  60  85
ATOM     85  C   UNL A   1      49.423  26.593  26.728  1.00  0.00     0.058 A 
ATOM     86  C   UNL A   1      50.237  26.170  27.788  1.00  0.00     0.135 A 
ATOM     87  C   UNL A   1      49.969  26.583  25.433  1.00  0.00     0.135 A 
ATOM     88  F   UNL A   1      49.763  26.163  29.043  1.00  0.00    -0.206 F 
ATOM     89  C   UNL A   1      51.557  25.782  27.579  1.00  0.00     0.059 A 
ATOM     90  C   UNL A   1      51.278  26.178  25.197  1.00  0.00     0.059 A 
ATOM     91  F   UNL A   1      49.227  26.968  24.383  1.00  0.00    -0.206 F 
ATOM     92  C   UNL A   1      52.070  25.795  26.279  1.00  0.00     0.060 A 
BRANCH  92  93
ATOM     93  S   UNL A   1      53.782  25.286  26.014  1.00  0.00     0.124 S 
ATOM     94  O   UNL A   1      53.613  23.901  25.587  1.00  0.00    -0.237 OA
ATOM     95  O   UNL A   1      54.232  26.216  24.983  1.00  0.00    -0.237 OA
ATOM     96  O   UNL A   1      54.395  25.470  27.326  1.00  0.00    -0.744 OA
ENDBRANCH  92  93
ENDBRANCH  60  85
ENDBRANCH  34  35
ENDBRANCH  26  29
ENDBRANCH  24  25
ENDBRANCH  23  24
ENDBRANCH   1  23
TORSDOF 18
ENDMDL
MODEL 2
REMARK VINA RESULT:     -11.0      4.508      6.963
REMARK SMILES CC[C@H](C)[C@H]([NH3+])C(=O)N1CC[C@@H](C(=O)NCCCNC(=O)c2ccc(-c3c4nc(c(-c5c(F)cc(S(=O)(=O)[O-])cc5F)c5ccc([nH]5)c(-c5c(F)cc(S(=O)(=O)[O-])cc5F)c5nc(c(-c6c(F)cc(S(=O)(=O)[O-])cc6F)c6ccc3[nH]6)C=C5)C=C4)cc2)[C@@H]1C
REMARK SMILES IDX 16 1 15 2 13 3 14 4 12 6 9 7 10 8 88 9 11 10 89 11 7 12 8 13
REMARK SMILES IDX 5 14 3 15 4 16 2 17 1 18 6 19 17 23 18 24 19 25 20 26 21 28
REMARK SMILES IDX 22 29 23 30 87 31 24 32 86 33 25 34 26 35 27 36 80 37 28 38
REMARK SMILES IDX 85 39 79 40 81 41 29 42 84 43 78 44 77 45 30 47 64 48 43 49
REMARK SMILES IDX 63 50 44 51 47 52 62 53 82 54 45 55 46 56 61 58 83 59 48 60
REMARK SMILES IDX 31 61 32 62 41 63 33 64 34 65 40 66 42 67 35 68 36 69 37 70
REMARK SMILES IDX 38 71 39 72 65 73 66 74 75 75 67 76 68 77 74 78 76 79 69 80
REMARK SMILES IDX 70 81 71 82 72 83 73 84 49 85 50 86 59 87 51 88 52 89 58 90
REMARK SMILES IDX 60 91 53 92 54 93 55 94 56 95 57 96
REMARK H PARENT 15 5 6 20 6 21 6 22 19 27 81 46 47 57
REMARK Flexibility Score: inf
ROOT
ATOM      1  C   UNL A   1      33.216  34.525  29.186  1.00  0.00     0.117 C 
ENDROOT
BRANCH   1   2
ATOM      2  N   UNL A   1      33.494  35.322  30.364  1.00  0.00    -0.356 N 
ATOM      3  C   UNL A   1      34.335  35.108  31.407  1.00  0.00     0.225 C 
ATOM      4  O   UNL A   1      34.331  35.955  32.309  1.00  0.00    -0.275 OA
ATOM      5  H   UNL A   1      32.985  36.164  30.418  1.00  0.00     0.163 HD
BRANCH   3   6
ATOM      6  C   UNL A   1      35.284  33.922  31.501  1.00  0.00     0.102 C 
ATOM      7  N   UNL A   1      36.643  32.755  33.084  1.00  0.00    -0.334 N 
ATOM      8  C   UNL A   1      35.811  31.782  32.399  1.00  0.00     0.121 C 
ATOM      9  C   UNL A   1      36.477  34.085  32.470  1.00  0.00     0.094 C 
ATOM     10  C   UNL A   1      34.639  32.589  31.868  1.00  0.00     0.037 C 
ATOM     11  C   UNL A   1      37.716  34.480  31.652  1.00  0.00     0.032 C 
BRANCH   7  12
ATOM     12  C   UNL A   1      37.474  32.324  34.106  1.00  0.00     0.281 C 
ATOM     13  O   UNL A   1      37.114  32.481  35.283  1.00  0.00    -0.268 OA
BRANCH  12  14
ATOM     14  C   UNL A   1      38.927  31.804  33.859  1.00  0.00     0.273 C 
BRANCH  14  15
ATOM     15  C   UNL A   1      39.036  30.302  34.289  1.00  0.00     0.054 C 
ATOM     16  C   UNL A   1      38.480  29.355  33.215  1.00  0.00     0.014 C 
BRANCH  15  17
ATOM     17  C   UNL A   1      40.456  29.938  34.762  1.00  0.00     0.006 C 
ATOM     18  C   UNL A   1      41.413  29.379  33.723  1.00  0.00     0.004 C 
ENDBRANCH  15  17
ENDBRANCH  14  15
BRANCH  14  19
ATOM     19  N   UNL A   1      39.990  32.653  34.432  1.00  0.00    -0.347 N 
ATOM     20  H   UNL A   1      40.839  32.556  33.877  1.00  0.00     0.345 HD
ATOM     21  H   UNL A   1      40.176  32.362  35.392  1.00  0.00     0.345 HD
ATOM     22  H   UNL A   1      39.688  33.627  34.425  1.00  0.00     0.345 HD
ENDBRANCH  14  19
ENDBRANCH  12  14
ENDBRANCH   7  12
ENDBRANCH   3   6
ENDBRANCH   1   2
BRANCH   1  23
ATOM     23  C   UNL A   1      34.322  34.661  28.140  1.00  0.00     0.042 C 
BRANCH  23  24
ATOM     24  C   UNL A   1      35.144  33.396  27.922  1.00  0.00     0.118 C 
BRANCH  24  25
ATOM     25  N   UNL A   1      34.332  32.193  27.787  1.00  0.00    -0.352 N 
ATOM     26  C   UNL A   1      34.607  30.849  27.780  1.00  0.00     0.251 C 
ATOM     27  H   UNL A   1      33.373  32.389  27.675  1.00  0.00     0.163 HD
ATOM     28  O   UNL A   1      33.679  30.088  27.496  1.00  0.00    -0.269 OA
BRANCH  26  29
ATOM     29  C   UNL A   1      35.943  30.274  28.083  1.00  0.00     0.039 A 
ATOM     30  C   UNL A   1      36.152  29.720  29.357  1.00  0.00     0.014 A 
ATOM     31  C   UNL A   1      37.023  30.355  27.208  1.00  0.00     0.014 A 
ATOM     32  C   UNL A   1      37.415  29.244  29.733  1.00  0.00     0.010 A 
ATOM     33  C   UNL A   1      38.251  29.782  27.539  1.00  0.00     0.010 A 
ATOM     34  C   UNL A   1      38.477  29.259  28.820  1.00  0.00    -0.014 A 
BRANCH  34  35
ATOM     35  C   UNL A   1      39.858  28.847  29.192  1.00  0.00     0.031 A 
ATOM     36  C   UNL A   1      40.758  29.836  29.895  1.00  0.00     0.074 A 
ATOM     37  C   UNL A   1      40.335  27.638  28.843  1.00  0.00     0.049 A 
ATOM     38  N   UNL A   1      42.043  29.770  30.134  1.00  0.00    -0.248 NA
ATOM     39  C   UNL A   1      40.132  31.090  30.349  1.00  0.00     0.031 C 
ATOM     40  C   UNL A   1      39.585  26.596  28.139  1.00  0.00     0.029 A 
ATOM     41  N   UNL A   1      41.581  27.087  29.019  1.00  0.00    -0.354 N 
ATOM     42  C   UNL A   1      42.385  30.990  30.709  1.00  0.00     0.074 A 
ATOM     43  C   UNL A   1      41.182  31.792  30.746  1.00  0.00     0.031 C 
ATOM     44  C   UNL A   1      40.381  25.529  27.955  1.00  0.00     0.029 A 
ATOM     45  C   UNL A   1      41.707  25.824  28.491  1.00  0.00     0.049 A 
ATOM     46  H   UNL A   1      42.316  27.554  29.479  1.00  0.00     0.167 HD
ATOM     47  C   UNL A   1      43.586  31.399  31.185  1.00  0.00     0.037 A 
ATOM     48  C   UNL A   1      42.773  25.002  28.437  1.00  0.00     0.037 A 
ATOM     49  C   UNL A   1      44.763  30.571  31.218  1.00  0.00     0.049 A 
ATOM     50  C   UNL A   1      44.079  25.450  29.036  1.00  0.00     0.074 A 
ATOM     51  C   UNL A   1      46.014  30.867  31.727  1.00  0.00     0.029 A 
ATOM     52  N   UNL A   1      44.821  29.267  30.747  1.00  0.00    -0.354 N 
ATOM     53  N   UNL A   1      44.384  26.604  29.581  1.00  0.00    -0.248 NA
ATOM     54  C   UNL A   1      45.181  24.478  29.027  1.00  0.00     0.031 C 
ATOM     55  C   UNL A   1      46.835  29.747  31.550  1.00  0.00     0.029 A 
ATOM     56  C   UNL A   1      46.084  28.743  30.963  1.00  0.00     0.049 A 
ATOM     57  H   UNL A   1      44.074  28.786  30.321  1.00  0.00     0.167 HD
ATOM     58  C   UNL A   1      45.702  26.484  30.010  1.00  0.00     0.074 A 
ATOM     59  C   UNL A   1      46.133  25.145  29.666  1.00  0.00     0.031 C 
ATOM     60  C   UNL A   1      46.485  27.399  30.634  1.00  0.00     0.037 A 
BRANCH  47  61
ATOM     61  C   UNL A   1      43.681  32.804  31.717  1.00  0.00     0.058 A 
ATOM     62  C   UNL A   1      43.480  33.096  33.076  1.00  0.00     0.135 A 
ATOM     63  C   UNL A   1      43.983  33.874  30.858  1.00  0.00     0.135 A 
ATOM     64  F   UNL A   1      43.172  32.115  33.940  1.00  0.00    -0.206 F 
ATOM     65  C   UNL A   1      43.535  34.400  33.558  1.00  0.00     0.059 A 
ATOM     66  C   UNL A   1      44.072  35.183  31.323  1.00  0.00     0.059 A 
ATOM     67  F   UNL A   1      44.186  33.654  29.550  1.00  0.00    -0.206 F 
ATOM     68  C   UNL A   1      43.826  35.438  32.672  1.00  0.00     0.060 A 
BRANCH  68  69
ATOM     69  S   UNL A   1      43.882  37.127  33.306  1.00  0.00     0.124 S 
ATOM     70  O   UNL A   1      43.886  37.901  32.068  1.00  0.00    -0.237 OA
ATOM     71  O   UNL A   1      42.659  37.207  34.098  1.00  0.00    -0.237 OA
ATOM     72  O   UNL A   1      45.124  37.160  34.072  1.00  0.00    -0.744 OA
ENDBRANCH  68  69
ENDBRANCH  47  61
BRANCH  48  73
ATOM     73  C   UNL A   1      42.640  23.653  27.825  1.00  0.00     0.058 A 
ATOM     74  C   UNL A   1      42.407  22.525  28.626  1.00  0.00     0.135 A 
ATOM     75  C   UNL A   1      42.729  23.465  26.439  1.00  0.00     0.135 A 
ATOM     76  F   UNL A   1      42.320  22.656  29.958  1.00  0.00    -0.206 F 
ATOM     77  C   UNL A   1      42.284  21.254  28.076  1.00  0.00     0.059 A 
ATOM     78  C   UNL A   1      42.587  22.206  25.863  1.00  0.00     0.059 A 
ATOM     79  F   UNL A   1      42.931  24.516  25.628  1.00  0.00    -0.206 F 
ATOM     80  C   UNL A   1      42.375  21.105  26.692  1.00  0.00     0.060 A 
BRANCH  80  81
ATOM     81  S   UNL A   1      42.165  19.457  25.982  1.00  0.00     0.124 S 
ATOM     82  O   UNL A   1      40.731  19.420  25.741  1.00  0.00    -0.237 OA
ATOM     83  O   UNL A   1      43.015  19.523  24.795  1.00  0.00    -0.237 OA
ATOM     84  O   UNL A   1      42.655  18.575  27.040  1.00  0.00    -0.744 OA
ENDBRANCH  80  81
ENDBRANCH  48  73
BRANCH  60  85
ATOM     85  C   UNL A   1      47.862  26.959  31.044  1.00  0.00     0.058 A 
ATOM     86  C   UNL A   1      48.964  27.077  30.185  1.00  0.00     0.135 A 
ATOM     87  C   UNL A   1      48.081  26.436  32.329  1.00  0.00     0.135 A 
ATOM     88  F   UNL A   1      48.805  27.570  28.947  1.00  0.00    -0.206 F 
ATOM     89  C   UNL A   1      50.233  26.660  30.573  1.00  0.00     0.059 A 
ATOM     90  C   UNL A   1      49.345  26.034  32.747  1.00  0.00     0.059 A 
ATOM     91  F   UNL A   1      47.061  26.314  33.193  1.00  0.00    -0.206 F 
ATOM     92  C   UNL A   1      50.412  26.133  31.855  1.00  0.00     0.060 A 
BRANCH  92  93
ATOM     93  S   UNL A   1      52.063  25.598  32.352  1.00  0.00     0.124 S 
ATOM     94  O   UNL A   1      52.076  25.963  33.765  1.00  0.00    -0.237 OA
ATOM     95  O   UNL A   1      52.030  24.167  32.068  1.00  0.00    -0.237 OA
ATOM     96  O   UNL A   1      52.945  26.381  31.492  1.00  0.00    -0.744 OA
ENDBRANCH  92  93
ENDBRANCH  60  85
ENDBRANCH  34  35
ENDBRANCH  26  29
ENDBRANCH  24  25
ENDBRANCH  23  24
ENDBRANCH   1  23
TORSDOF 18
ENDMDL
MODEL 3
REMARK VINA RESULT:     -10.9      6.442     11.860
REMARK SMILES CC[C@H](C)[C@H]([NH3+])C(=O)N1CC[C@@H](C(=O)NCCCNC(=O)c2ccc(-c3c4nc(c(-c5c(F)cc(S(=O)(=O)[O-])cc5F)c5ccc([nH]5)c(-c5c(F)cc(S(=O)(=O)[O-])cc5F)c5nc(c(-c6c(F)cc(S(=O)(=O)[O-])cc6F)c6ccc3[nH]6)C=C5)C=C4)cc2)[C@@H]1C
REMARK SMILES IDX 16 1 15 2 13 3 14 4 12 6 9 7 10 8 88 9 11 10 89 11 7 12 8 13
REMARK SMILES IDX 5 14 3 15 4 16 2 17 1 18 6 19 17 23 18 24 19 25 20 26 21 28
REMARK SMILES IDX 22 29 23 30 87 31 24 32 86 33 25 34 26 35 27 36 80 37 28 38
REMARK SMILES IDX 85 39 79 40 81 41 29 42 84 43 78 44 77 45 30 47 64 48 43 49
REMARK SMILES IDX 63 50 44 51 47 52 62 53 82 54 45 55 46 56 61 58 83 59 48 60
REMARK SMILES IDX 31 61 32 62 41 63 33 64 34 65 40 66 42 67 35 68 36 69 37 70
REMARK SMILES IDX 38 71 39 72 65 73 66 74 75 75 67 76 68 77 74 78 76 79 69 80
REMARK SMILES IDX 70 81 71 82 72 83 73 84 49 85 50 86 59 87 51 88 52 89 58 90
REMARK SMILES IDX 60 91 53 92 54 93 55 94 56 95 57 96
REMARK H PARENT 15 5 6 20 6 21 6 22 19 27 81 46 47 57
REMARK Flexibility Score: inf
ROOT
ATOM      1  C   UNL A   1      37.441  21.884  25.770  1.00  0.00     0.117 C 
ENDROOT
BRANCH   1   2
ATOM      2  N   UNL A   1      36.970  22.525  24.558  1.00  0.00    -0.356 N 
ATOM      3  C   UNL A   1      35.718  22.663  24.052  1.00  0.00     0.225 C 
ATOM      4  O   UNL A   1      35.621  23.230  22.956  1.00  0.00    -0.275 OA
ATOM      5  H   UNL A   1      37.679  22.931  24.008  1.00  0.00     0.163 HD
BRANCH   3   6
ATOM      6  C   UNL A   1      34.459  22.194  24.764  1.00  0.00     0.102 C 
ATOM      7  N   UNL A   1      32.461  23.051  25.758  1.00  0.00    -0.334 N 
ATOM      8  C   UNL A   1      32.087  22.001  24.828  1.00  0.00     0.121 C 
ATOM      9  C   UNL A   1      33.928  23.119  25.883  1.00  0.00     0.094 C 
ATOM     10  C   UNL A   1      33.259  21.910  23.865  1.00  0.00     0.037 C 
ATOM     11  C   UNL A   1      34.400  22.566  27.235  1.00  0.00     0.032 C 
BRANCH   7  12
ATOM     12  C   UNL A   1      31.461  23.753  26.411  1.00  0.00     0.281 C 
ATOM     13  O   UNL A   1      31.181  23.456  27.584  1.00  0.00    -0.268 OA
BRANCH  12  14
ATOM     14  C   UNL A   1      30.539  24.791  25.691  1.00  0.00     0.273 C 
BRANCH  14  15
ATOM     15  C   UNL A   1      31.384  26.031  25.242  1.00  0.00     0.054 C 
ATOM     16  C   UNL A   1      32.314  26.528  26.358  1.00  0.00     0.014 C 
BRANCH  15  17
ATOM     17  C   UNL A   1      32.101  25.785  23.900  1.00  0.00     0.006 C 
ATOM     18  C   UNL A   1      33.580  26.127  23.830  1.00  0.00     0.004 C 
ENDBRANCH  15  17
ENDBRANCH  14  15
BRANCH  14  19
ATOM     19  N   UNL A   1      29.321  25.155  26.440  1.00  0.00    -0.347 N 
ATOM     20  H   UNL A   1      29.378  24.781  27.387  1.00  0.00     0.345 HD
ATOM     21  H   UNL A   1      28.504  24.766  25.970  1.00  0.00     0.345 HD
ATOM     22  H   UNL A   1      29.237  26.171  26.480  1.00  0.00     0.345 HD
ENDBRANCH  14  19
ENDBRANCH  12  14
ENDBRANCH   7  12
ENDBRANCH   3   6
ENDBRANCH   1   2
BRANCH   1  23
ATOM     23  C   UNL A   1      38.959  21.711  25.762  1.00  0.00     0.042 C 
BRANCH  23  24
ATOM     24  C   UNL A   1      39.713  22.710  26.631  1.00  0.00     0.118 C 
BRANCH  24  25
ATOM     25  N   UNL A   1      40.954  23.183  26.028  1.00  0.00    -0.352 N 
ATOM     26  C   UNL A   1      41.697  24.330  26.145  1.00  0.00     0.251 C 
ATOM     27  H   UNL A   1      41.344  22.535  25.398  1.00  0.00     0.163 HD
ATOM     28  O   UNL A   1      42.643  24.466  25.366  1.00  0.00    -0.269 OA
BRANCH  26  29
ATOM     29  C   UNL A   1      41.420  25.400  27.137  1.00  0.00     0.039 A 
ATOM     30  C   UNL A   1      42.181  26.580  27.069  1.00  0.00     0.014 A 
ATOM     31  C   UNL A   1      40.523  25.248  28.191  1.00  0.00     0.014 A 
ATOM     32  C   UNL A   1      42.028  27.588  28.030  1.00  0.00     0.010 A 
ATOM     33  C   UNL A   1      40.291  26.295  29.083  1.00  0.00     0.010 A 
ATOM     34  C   UNL A   1      41.070  27.460  29.043  1.00  0.00    -0.014 A 
BRANCH  34  35
ATOM     35  C   UNL A   1      40.925  28.457  30.138  1.00  0.00     0.031 A 
ATOM     36  C   UNL A   1      41.820  28.357  31.351  1.00  0.00     0.074 A 
ATOM     37  C   UNL A   1      39.959  29.395  30.095  1.00  0.00     0.049 A 
ATOM     38  N   UNL A   1      41.743  28.980  32.498  1.00  0.00    -0.248 NA
ATOM     39  C   UNL A   1      42.926  27.385  31.274  1.00  0.00     0.031 C 
ATOM     40  C   UNL A   1      39.009  29.589  28.999  1.00  0.00     0.029 A 
ATOM     41  N   UNL A   1      39.606  30.353  31.013  1.00  0.00    -0.354 N 
ATOM     42  C   UNL A   1      42.747  28.437  33.294  1.00  0.00     0.074 A 
ATOM     43  C   UNL A   1      43.393  27.406  32.513  1.00  0.00     0.031 C 
ATOM     44  C   UNL A   1      38.190  30.611  29.302  1.00  0.00     0.029 A 
ATOM     45  C   UNL A   1      38.531  31.118  30.628  1.00  0.00     0.049 A 
ATOM     46  H   UNL A   1      40.079  30.480  31.867  1.00  0.00     0.167 HD
ATOM     47  C   UNL A   1      43.115  28.781  34.552  1.00  0.00     0.037 A 
ATOM     48  C   UNL A   1      37.888  32.109  31.275  1.00  0.00     0.037 A 
ATOM     49  C   UNL A   1      42.522  29.860  35.297  1.00  0.00     0.049 A 
ATOM     50  C   UNL A   1      38.359  32.522  32.644  1.00  0.00     0.074 A 
ATOM     51  C   UNL A   1      42.854  30.326  36.556  1.00  0.00     0.029 A 
ATOM     52  N   UNL A   1      41.489  30.662  34.834  1.00  0.00    -0.354 N 
ATOM     53  N   UNL A   1      39.313  32.002  33.380  1.00  0.00    -0.248 NA
ATOM     54  C   UNL A   1      37.676  33.665  33.264  1.00  0.00     0.031 C 
ATOM     55  C   UNL A   1      42.012  31.402  36.861  1.00  0.00     0.029 A 
ATOM     56  C   UNL A   1      41.180  31.627  35.777  1.00  0.00     0.049 A 
ATOM     57  H   UNL A   1      41.041  30.560  33.962  1.00  0.00     0.167 HD
ATOM     58  C   UNL A   1      39.367  32.777  34.533  1.00  0.00     0.074 A 
ATOM     59  C   UNL A   1      38.354  33.803  34.395  1.00  0.00     0.031 C 
ATOM     60  C   UNL A   1      40.183  32.653  35.609  1.00  0.00     0.037 A 
BRANCH  47  61
ATOM     61  C   UNL A   1      44.218  27.984  35.196  1.00  0.00     0.058 A 
ATOM     62  C   UNL A   1      45.568  28.349  35.065  1.00  0.00     0.135 A 
ATOM     63  C   UNL A   1      43.922  26.843  35.960  1.00  0.00     0.135 A 
ATOM     64  F   UNL A   1      45.910  29.420  34.332  1.00  0.00    -0.206 F 
ATOM     65  C   UNL A   1      46.586  27.590  35.633  1.00  0.00     0.059 A 
ATOM     66  C   UNL A   1      44.923  26.085  36.562  1.00  0.00     0.059 A 
ATOM     67  F   UNL A   1      42.649  26.448  36.120  1.00  0.00    -0.206 F 
ATOM     68  C   UNL A   1      46.254  26.456  36.375  1.00  0.00     0.060 A 
BRANCH  68  69
ATOM     69  S   UNL A   1      47.585  25.473  37.097  1.00  0.00     0.124 S 
ATOM     70  O   UNL A   1      48.710  25.837  36.239  1.00  0.00    -0.237 OA
ATOM     71  O   UNL A   1      47.644  25.978  38.464  1.00  0.00    -0.237 OA
ATOM     72  O   UNL A   1      47.106  24.101  36.958  1.00  0.00    -0.744 OA
ENDBRANCH  68  69
ENDBRANCH  47  61
BRANCH  48  73
ATOM     73  C   UNL A   1      36.751  32.807  30.620  1.00  0.00     0.058 A 
ATOM     74  C   UNL A   1      35.427  32.508  30.976  1.00  0.00     0.135 A 
ATOM     75  C   UNL A   1      36.959  33.789  29.641  1.00  0.00     0.135 A 
ATOM     76  F   UNL A   1      35.178  31.572  31.904  1.00  0.00    -0.206 F 
ATOM     77  C   UNL A   1      34.348  33.146  30.374  1.00  0.00     0.059 A 
ATOM     78  C   UNL A   1      35.896  34.457  29.039  1.00  0.00     0.059 A 
ATOM     79  F   UNL A   1      38.208  34.125  29.279  1.00  0.00    -0.206 F 
ATOM     80  C   UNL A   1      34.594  34.120  29.405  1.00  0.00     0.060 A 
BRANCH  80  81
ATOM     81  S   UNL A   1      33.188  34.977  28.662  1.00  0.00     0.124 S 
ATOM     82  O   UNL A   1      32.613  33.933  27.829  1.00  0.00    -0.237 OA
ATOM     83  O   UNL A   1      32.409  35.364  29.836  1.00  0.00    -0.237 OA
ATOM     84  O   UNL A   1      33.816  36.087  27.947  1.00  0.00    -0.744 OA
ENDBRANCH  80  81
ENDBRANCH  48  73
BRANCH  60  85
ATOM     85  C   UNL A   1      40.058  33.690  36.689  1.00  0.00     0.058 A 
ATOM     86  C   UNL A   1      39.125  33.569  37.729  1.00  0.00     0.135 A 
ATOM     87  C   UNL A   1      40.907  34.809  36.693  1.00  0.00     0.135 A 
ATOM     88  F   UNL A   1      38.290  32.519  37.768  1.00  0.00    -0.206 F 
ATOM     89  C   UNL A   1      39.013  34.540  38.719  1.00  0.00     0.059 A 
ATOM     90  C   UNL A   1      40.829  35.780  37.686  1.00  0.00     0.059 A 
ATOM     91  F   UNL A   1      41.826  34.965  35.727  1.00  0.00    -0.206 F 
ATOM     92  C   UNL A   1      39.866  35.645  38.686  1.00  0.00     0.060 A 
BRANCH  92  93
ATOM     93  S   UNL A   1      39.719  36.898  39.977  1.00  0.00     0.124 S 
ATOM     94  O   UNL A   1      39.163  36.119  41.079  1.00  0.00    -0.237 OA
ATOM     95  O   UNL A   1      41.099  37.341  40.147  1.00  0.00    -0.237 OA
ATOM     96  O   UNL A   1      38.819  37.885  39.388  1.00  0.00    -0.744 OA
ENDBRANCH  92  93
ENDBRANCH  60  85
ENDBRANCH  34  35
ENDBRANCH  26  29
ENDBRANCH  24  25
ENDBRANCH  23  24
ENDBRANCH   1  23
TORSDOF 18
ENDMDL
