MODEL 1
REMARK VINA RESULT:     -11.4      0.000      0.000
REMARK SMILES CC(C)c1nc(OCC(=O)NCCCNC(=O)c2ccc(-c3c4nc(c(-c5c(F)cc(S(=O)(=O)[O-])cc5F)c5ccc([nH]5)c(-c5c(F)cc(S(=O)(=O)[O-])cc5F)c5nc(c(-c6c(F)cc(S(=O)(=O)[O-])cc6F)c6ccc3[nH]6)C=C5)C=C4)cc2)cc(-c2ccccn2)n1
REMARK SMILES IDX 13 1 12 2 11 3 9 4 10 5 8 7 7 8 6 9 4 10 5 11 92 12 85 13
REMARK SMILES IDX 84 14 2 15 1 16 3 17 86 18 87 19 91 20 88 21 90 22 89 23
REMARK SMILES IDX 14 24 15 25 16 26 17 28 18 29 19 30 83 31 20 32 82 33 21 34
REMARK SMILES IDX 22 35 23 36 76 37 24 38 81 39 75 40 77 41 25 42 80 43 74 44
REMARK SMILES IDX 73 45 26 47 60 48 39 49 59 50 40 51 43 52 58 53 78 54 41 55
REMARK SMILES IDX 42 56 57 58 79 59 44 60 27 61 28 62 37 63 29 64 30 65 36 66
REMARK SMILES IDX 38 67 31 68 32 69 33 70 34 71 35 72 61 73 62 74 71 75 63 76
REMARK SMILES IDX 64 77 70 78 72 79 65 80 66 81 67 82 68 83 69 84 45 85 46 86
REMARK SMILES IDX 55 87 47 88 48 89 54 90 56 91 49 92 50 93 51 94 52 95 53 96
REMARK H PARENT 11 6 15 27 77 46 43 57
REMARK Flexibility Score: inf
ROOT
ATOM      1  C   UNL A   1      33.465  27.941  25.475  1.00  0.00     0.042 C 
ENDROOT
BRANCH   1   2
ATOM      2  C   UNL A   1      32.964  26.550  25.105  1.00  0.00     0.117 C 
BRANCH   2   3
ATOM      3  N   UNL A   1      32.259  25.902  26.197  1.00  0.00    -0.353 N 
ATOM      4  C   UNL A   1      31.546  24.742  26.173  1.00  0.00     0.258 C 
ATOM      5  O   UNL A   1      31.015  24.348  27.213  1.00  0.00    -0.271 OA
ATOM      6  H   UNL A   1      32.303  26.361  27.067  1.00  0.00     0.163 HD
BRANCH   4   7
ATOM      7  C   UNL A   1      31.433  23.945  24.867  1.00  0.00     0.331 C 
BRANCH   7   8
ATOM      8  O   UNL A   1      31.411  22.535  24.988  1.00  0.00    -0.467 OA
BRANCH   8   9
ATOM      9  C   UNL A   1      32.604  21.870  24.955  1.00  0.00     0.217 A 
ATOM     10  C   UNL A   1      33.571  19.811  24.636  1.00  0.00     0.135 A 
ATOM     11  N   UNL A   1      32.462  20.573  24.648  1.00  0.00    -0.198 NA
ATOM     12  N   UNL A   1      34.802  20.265  24.928  1.00  0.00    -0.231 NA
ATOM     13  C   UNL A   1      34.914  21.577  25.221  1.00  0.00     0.096 A 
ATOM     14  C   UNL A   1      33.828  22.429  25.219  1.00  0.00     0.099 A 
BRANCH  10  15
ATOM     15  C   UNL A   1      33.451  18.366  24.201  1.00  0.00     0.051 C 
ATOM     16  C   UNL A   1      34.788  17.624  24.270  1.00  0.00     0.016 C 
ATOM     17  C   UNL A   1      32.394  17.653  25.046  1.00  0.00     0.016 C 
ENDBRANCH  10  15
BRANCH  13  18
ATOM     18  C   UNL A   1      36.241  22.085  25.597  1.00  0.00     0.089 A 
ATOM     19  C   UNL A   1      36.414  23.414  25.994  1.00  0.00     0.030 A 
ATOM     20  N   UNL A   1      37.290  21.236  25.440  1.00  0.00    -0.255 NA
ATOM     21  C   UNL A   1      37.698  23.888  26.238  1.00  0.00     0.004 A 
ATOM     22  C   UNL A   1      38.523  21.722  25.699  1.00  0.00     0.112 A 
ATOM     23  C   UNL A   1      38.777  23.028  26.089  1.00  0.00     0.020 A 
ENDBRANCH  13  18
ENDBRANCH   8   9
ENDBRANCH   7   8
ENDBRANCH   4   7
ENDBRANCH   2   3
ENDBRANCH   1   2
BRANCH   1  24
ATOM     24  C   UNL A   1      33.664  28.167  26.971  1.00  0.00     0.118 C 
BRANCH  24  25
ATOM     25  N   UNL A   1      33.554  29.569  27.358  1.00  0.00    -0.352 N 
ATOM     26  C   UNL A   1      34.454  30.389  27.990  1.00  0.00     0.251 C 
ATOM     27  H   UNL A   1      32.696  29.995  27.129  1.00  0.00     0.163 HD
ATOM     28  O   UNL A   1      34.086  31.502  28.368  1.00  0.00    -0.269 OA
BRANCH  26  29
ATOM     29  C   UNL A   1      35.843  29.947  28.239  1.00  0.00     0.039 A 
ATOM     30  C   UNL A   1      36.773  30.026  27.199  1.00  0.00     0.014 A 
ATOM     31  C   UNL A   1      36.228  29.435  29.480  1.00  0.00     0.014 A 
ATOM     32  C   UNL A   1      38.102  29.656  27.425  1.00  0.00     0.010 A 
ATOM     33  C   UNL A   1      37.568  29.145  29.728  1.00  0.00     0.010 A 
ATOM     34  C   UNL A   1      38.520  29.249  28.702  1.00  0.00    -0.014 A 
BRANCH  34  35
ATOM     35  C   UNL A   1      39.944  28.928  28.986  1.00  0.00     0.031 A 
ATOM     36  C   UNL A   1      40.845  29.959  29.612  1.00  0.00     0.074 A 
ATOM     37  C   UNL A   1      40.443  27.729  28.625  1.00  0.00     0.049 A 
ATOM     38  N   UNL A   1      42.123  29.884  29.885  1.00  0.00    -0.248 NA
ATOM     39  C   UNL A   1      40.235  31.252  29.951  1.00  0.00     0.031 C 
ATOM     40  C   UNL A   1      39.683  26.658  27.978  1.00  0.00     0.029 A 
ATOM     41  N   UNL A   1      41.707  27.211  28.746  1.00  0.00    -0.354 N 
ATOM     42  C   UNL A   1      42.470  31.121  30.418  1.00  0.00     0.074 A 
ATOM     43  C   UNL A   1      41.284  31.947  30.366  1.00  0.00     0.031 C 
ATOM     44  C   UNL A   1      40.486  25.598  27.794  1.00  0.00     0.029 A 
ATOM     45  C   UNL A   1      41.827  25.928  28.266  1.00  0.00     0.049 A 
ATOM     46  H   UNL A   1      42.459  27.710  29.141  1.00  0.00     0.167 HD
ATOM     47  C   UNL A   1      43.660  31.524  30.928  1.00  0.00     0.037 A 
ATOM     48  C   UNL A   1      42.896  25.109  28.210  1.00  0.00     0.037 A 
ATOM     49  C   UNL A   1      44.837  30.695  30.978  1.00  0.00     0.049 A 
ATOM     50  C   UNL A   1      44.217  25.589  28.746  1.00  0.00     0.074 A 
ATOM     51  C   UNL A   1      46.080  30.994  31.507  1.00  0.00     0.029 A 
ATOM     52  N   UNL A   1      44.921  29.406  30.469  1.00  0.00    -0.354 N 
ATOM     53  N   UNL A   1      44.516  26.742  29.297  1.00  0.00    -0.248 NA
ATOM     54  C   UNL A   1      45.347  24.654  28.657  1.00  0.00     0.031 C 
ATOM     55  C   UNL A   1      46.929  29.907  31.272  1.00  0.00     0.029 A 
ATOM     56  C   UNL A   1      46.200  28.904  30.652  1.00  0.00     0.049 A 
ATOM     57  H   UNL A   1      44.180  28.918  30.044  1.00  0.00     0.167 HD
ATOM     58  C   UNL A   1      45.858  26.659  29.651  1.00  0.00     0.074 A 
ATOM     59  C   UNL A   1      46.311  25.340  29.256  1.00  0.00     0.031 C 
ATOM     60  C   UNL A   1      46.640  27.588  30.256  1.00  0.00     0.037 A 
BRANCH  47  61
ATOM     61  C   UNL A   1      43.738  32.933  31.460  1.00  0.00     0.058 A 
ATOM     62  C   UNL A   1      44.148  34.007  30.652  1.00  0.00     0.135 A 
ATOM     63  C   UNL A   1      43.414  33.213  32.797  1.00  0.00     0.135 A 
ATOM     64  F   UNL A   1      44.481  33.798  29.367  1.00  0.00    -0.206 F 
ATOM     65  C   UNL A   1      44.292  35.292  31.163  1.00  0.00     0.059 A 
ATOM     66  C   UNL A   1      43.516  34.499  33.321  1.00  0.00     0.059 A 
ATOM     67  F   UNL A   1      43.007  32.230  33.616  1.00  0.00    -0.206 F 
ATOM     68  C   UNL A   1      43.982  35.526  32.503  1.00  0.00     0.060 A 
BRANCH  68  69
ATOM     69  S   UNL A   1      44.220  37.188  33.165  1.00  0.00     0.124 S 
ATOM     70  O   UNL A   1      42.971  37.391  33.894  1.00  0.00    -0.237 OA
ATOM     71  O   UNL A   1      45.415  37.031  33.987  1.00  0.00    -0.237 OA
ATOM     72  O   UNL A   1      44.388  38.010  31.970  1.00  0.00    -0.744 OA
ENDBRANCH  68  69
ENDBRANCH  47  61
BRANCH  48  73
ATOM     73  C   UNL A   1      42.743  23.732  27.670  1.00  0.00     0.058 A 
ATOM     74  C   UNL A   1      42.509  22.649  28.529  1.00  0.00     0.135 A 
ATOM     75  C   UNL A   1      42.785  23.474  26.290  1.00  0.00     0.135 A 
ATOM     76  F   UNL A   1      42.468  22.844  29.857  1.00  0.00    -0.206 F 
ATOM     77  C   UNL A   1      42.325  21.359  28.045  1.00  0.00     0.059 A 
ATOM     78  C   UNL A   1      42.578  22.196  25.779  1.00  0.00     0.059 A 
ATOM     79  F   UNL A   1      42.992  24.478  25.424  1.00  0.00    -0.206 F 
ATOM     80  C   UNL A   1      42.353  21.144  26.666  1.00  0.00     0.060 A 
BRANCH  80  81
ATOM     81  S   UNL A   1      42.038  19.477  26.048  1.00  0.00     0.124 S 
ATOM     82  O   UNL A   1      42.844  19.455  24.833  1.00  0.00    -0.237 OA
ATOM     83  O   UNL A   1      42.519  18.649  27.149  1.00  0.00    -0.237 OA
ATOM     84  O   UNL A   1      40.592  19.460  25.846  1.00  0.00    -0.744 OA
ENDBRANCH  80  81
ENDBRANCH  48  73
BRANCH  60  85
ATOM     85  C   UNL A   1      48.062  27.201  30.567  1.00  0.00     0.058 A 
ATOM     86  C   UNL A   1      49.106  27.402  29.650  1.00  0.00     0.135 A 
ATOM     87  C   UNL A   1      48.390  26.664  31.823  1.00  0.00     0.135 A 
ATOM     88  F   UNL A   1      48.848  27.904  28.432  1.00  0.00    -0.206 F 
ATOM     89  C   UNL A   1      50.419  27.060  29.956  1.00  0.00     0.059 A 
ATOM     90  C   UNL A   1      49.701  26.345  32.163  1.00  0.00     0.059 A 
ATOM     91  F   UNL A   1      47.433  26.461  32.742  1.00  0.00    -0.206 F 
ATOM     92  C   UNL A   1      50.708  26.536  31.218  1.00  0.00     0.060 A 
BRANCH  92  93
ATOM     93  S   UNL A   1      52.421  26.128  31.615  1.00  0.00     0.124 S 
ATOM     94  O   UNL A   1      52.732  27.123  32.637  1.00  0.00    -0.237 OA
ATOM     95  O   UNL A   1      52.313  24.750  32.085  1.00  0.00    -0.237 OA
ATOM     96  O   UNL A   1      53.116  26.297  30.343  1.00  0.00    -0.744 OA
ENDBRANCH  92  93
ENDBRANCH  60  85
ENDBRANCH  34  35
ENDBRANCH  26  29
ENDBRANCH  24  25
ENDBRANCH   1  24
TORSDOF 17
ENDMDL
MODEL 2
REMARK VINA RESULT:     -11.2      2.643      3.478
REMARK SMILES CC(C)c1nc(OCC(=O)NCCCNC(=O)c2ccc(-c3c4nc(c(-c5c(F)cc(S(=O)(=O)[O-])cc5F)c5ccc([nH]5)c(-c5c(F)cc(S(=O)(=O)[O-])cc5F)c5nc(c(-c6c(F)cc(S(=O)(=O)[O-])cc6F)c6ccc3[nH]6)C=C5)C=C4)cc2)cc(-c2ccccn2)n1
REMARK SMILES IDX 13 1 12 2 11 3 9 4 10 5 8 7 7 8 6 9 4 10 5 11 92 12 85 13
REMARK SMILES IDX 84 14 2 15 1 16 3 17 86 18 87 19 91 20 88 21 90 22 89 23
REMARK SMILES IDX 14 24 15 25 16 26 17 28 18 29 19 30 83 31 20 32 82 33 21 34
REMARK SMILES IDX 22 35 23 36 76 37 24 38 81 39 75 40 77 41 25 42 80 43 74 44
REMARK SMILES IDX 73 45 26 47 60 48 39 49 59 50 40 51 43 52 58 53 78 54 41 55
REMARK SMILES IDX 42 56 57 58 79 59 44 60 27 61 28 62 37 63 29 64 30 65 36 66
REMARK SMILES IDX 38 67 31 68 32 69 33 70 34 71 35 72 61 73 62 74 71 75 63 76
REMARK SMILES IDX 64 77 70 78 72 79 65 80 66 81 67 82 68 83 69 84 45 85 46 86
REMARK SMILES IDX 55 87 47 88 48 89 54 90 56 91 49 92 50 93 51 94 52 95 53 96
REMARK H PARENT 11 6 15 27 77 46 43 57
REMARK Flexibility Score: inf
ROOT
ATOM      1  C   UNL A   1      33.517  27.498  26.193  1.00  0.00     0.042 C 
ENDROOT
BRANCH   1   2
ATOM      2  C   UNL A   1      33.325  26.378  25.177  1.00  0.00     0.117 C 
BRANCH   2   3
ATOM      3  N   UNL A   1      33.615  26.802  23.819  1.00  0.00    -0.353 N 
ATOM      4  C   UNL A   1      33.506  26.082  22.667  1.00  0.00     0.258 C 
ATOM      5  O   UNL A   1      33.801  26.620  21.598  1.00  0.00    -0.271 OA
ATOM      6  H   UNL A   1      33.931  27.728  23.717  1.00  0.00     0.163 HD
BRANCH   4   7
ATOM      7  C   UNL A   1      33.006  24.632  22.720  1.00  0.00     0.331 C 
BRANCH   7   8
ATOM      8  O   UNL A   1      33.900  23.639  22.253  1.00  0.00    -0.467 OA
BRANCH   8   9
ATOM      9  C   UNL A   1      34.510  22.839  23.176  1.00  0.00     0.217 A 
ATOM     10  C   UNL A   1      34.293  20.888  24.371  1.00  0.00     0.135 A 
ATOM     11  N   UNL A   1      33.807  21.727  23.437  1.00  0.00    -0.198 NA
ATOM     12  N   UNL A   1      35.423  21.106  25.065  1.00  0.00    -0.231 NA
ATOM     13  C   UNL A   1      36.113  22.227  24.772  1.00  0.00     0.096 A 
ATOM     14  C   UNL A   1      35.698  23.117  23.802  1.00  0.00     0.099 A 
BRANCH  10  15
ATOM     15  C   UNL A   1      33.569  19.582  24.617  1.00  0.00     0.051 C 
ATOM     16  C   UNL A   1      32.415  19.361  23.637  1.00  0.00     0.016 C 
ATOM     17  C   UNL A   1      34.559  18.418  24.556  1.00  0.00     0.016 C 
ENDBRANCH  10  15
BRANCH  13  18
ATOM     18  C   UNL A   1      37.322  22.513  25.557  1.00  0.00     0.089 A 
ATOM     19  C   UNL A   1      37.524  23.773  26.128  1.00  0.00     0.030 A 
ATOM     20  N   UNL A   1      38.266  21.538  25.607  1.00  0.00    -0.255 NA
ATOM     21  C   UNL A   1      38.727  24.042  26.772  1.00  0.00     0.004 A 
ATOM     22  C   UNL A   1      39.418  21.825  26.253  1.00  0.00     0.112 A 
ATOM     23  C   UNL A   1      39.695  23.050  26.837  1.00  0.00     0.020 A 
ENDBRANCH  13  18
ENDBRANCH   8   9
ENDBRANCH   7   8
ENDBRANCH   4   7
ENDBRANCH   2   3
ENDBRANCH   1   2
BRANCH   1  24
ATOM     24  C   UNL A   1      34.271  28.714  25.662  1.00  0.00     0.118 C 
BRANCH  24  25
ATOM     25  N   UNL A   1      33.877  29.960  26.309  1.00  0.00    -0.352 N 
ATOM     26  C   UNL A   1      34.417  30.610  27.391  1.00  0.00     0.251 C 
ATOM     27  H   UNL A   1      33.098  30.407  25.904  1.00  0.00     0.163 HD
ATOM     28  O   UNL A   1      33.818  31.573  27.871  1.00  0.00    -0.269 OA
BRANCH  26  29
ATOM     29  C   UNL A   1      35.689  30.157  27.994  1.00  0.00     0.039 A 
ATOM     30  C   UNL A   1      36.890  30.477  27.356  1.00  0.00     0.014 A 
ATOM     31  C   UNL A   1      35.705  29.400  29.167  1.00  0.00     0.014 A 
ATOM     32  C   UNL A   1      38.107  30.098  27.931  1.00  0.00     0.010 A 
ATOM     33  C   UNL A   1      36.917  29.095  29.783  1.00  0.00     0.010 A 
ATOM     34  C   UNL A   1      38.132  29.437  29.170  1.00  0.00    -0.014 A 
BRANCH  34  35
ATOM     35  C   UNL A   1      39.414  29.096  29.840  1.00  0.00     0.031 A 
ATOM     36  C   UNL A   1      39.856  29.850  31.066  1.00  0.00     0.074 A 
ATOM     37  C   UNL A   1      40.212  28.147  29.311  1.00  0.00     0.049 A 
ATOM     38  N   UNL A   1      40.963  29.735  31.755  1.00  0.00    -0.248 NA
ATOM     39  C   UNL A   1      38.945  30.891  31.566  1.00  0.00     0.031 C 
ATOM     40  C   UNL A   1      39.915  27.369  28.108  1.00  0.00     0.029 A 
ATOM     41  N   UNL A   1      41.436  27.678  29.715  1.00  0.00    -0.354 N 
ATOM     42  C   UNL A   1      40.885  30.691  32.761  1.00  0.00     0.074 A 
ATOM     43  C   UNL A   1      39.654  31.421  32.551  1.00  0.00     0.031 C 
ATOM     44  C   UNL A   1      40.911  26.494  27.892  1.00  0.00     0.029 A 
ATOM     45  C   UNL A   1      41.937  26.679  28.913  1.00  0.00     0.049 A 
ATOM     46  H   UNL A   1      41.912  28.022  30.505  1.00  0.00     0.167 HD
ATOM     47  C   UNL A   1      41.745  30.922  33.783  1.00  0.00     0.037 A 
ATOM     48  C   UNL A   1      43.094  25.991  28.989  1.00  0.00     0.037 A 
ATOM     49  C   UNL A   1      42.968  30.189  33.988  1.00  0.00     0.049 A 
ATOM     50  C   UNL A   1      44.053  26.289  30.108  1.00  0.00     0.074 A 
ATOM     51  C   UNL A   1      43.891  30.320  35.011  1.00  0.00     0.029 A 
ATOM     52  N   UNL A   1      43.447  29.194  33.146  1.00  0.00    -0.354 N 
ATOM     53  N   UNL A   1      43.940  27.159  31.084  1.00  0.00    -0.248 NA
ATOM     54  C   UNL A   1      45.298  25.509  30.139  1.00  0.00     0.031 C 
ATOM     55  C   UNL A   1      44.951  29.441  34.760  1.00  0.00     0.029 A 
ATOM     56  C   UNL A   1      44.662  28.718  33.614  1.00  0.00     0.049 A 
ATOM     57  H   UNL A   1      42.989  28.872  32.336  1.00  0.00     0.167 HD
ATOM     58  C   UNL A   1      45.081  27.007  31.865  1.00  0.00     0.074 A 
ATOM     59  C   UNL A   1      45.869  25.958  31.249  1.00  0.00     0.031 C 
ATOM     60  C   UNL A   1      45.438  27.671  32.993  1.00  0.00     0.037 A 
BRANCH  47  61
ATOM     61  C   UNL A   1      41.388  32.026  34.747  1.00  0.00     0.058 A 
ATOM     62  C   UNL A   1      40.633  31.778  35.906  1.00  0.00     0.135 A 
ATOM     63  C   UNL A   1      41.791  33.348  34.504  1.00  0.00     0.135 A 
ATOM     64  F   UNL A   1      40.211  30.534  36.186  1.00  0.00    -0.206 F 
ATOM     65  C   UNL A   1      40.240  32.808  36.755  1.00  0.00     0.059 A 
ATOM     66  C   UNL A   1      41.440  34.389  35.359  1.00  0.00     0.059 A 
ATOM     67  F   UNL A   1      42.522  33.645  33.417  1.00  0.00    -0.206 F 
ATOM     68  C   UNL A   1      40.641  34.113  36.467  1.00  0.00     0.060 A 
BRANCH  68  69
ATOM     69  S   UNL A   1      40.084  35.444  37.550  1.00  0.00     0.124 S 
ATOM     70  O   UNL A   1      41.205  35.549  38.481  1.00  0.00    -0.237 OA
ATOM     71  O   UNL A   1      39.925  36.559  36.622  1.00  0.00    -0.237 OA
ATOM     72  O   UNL A   1      38.844  34.925  38.119  1.00  0.00    -0.744 OA
ENDBRANCH  68  69
ENDBRANCH  47  61
BRANCH  48  73
ATOM     73  C   UNL A   1      43.378  24.916  28.001  1.00  0.00     0.058 A 
ATOM     74  C   UNL A   1      44.056  25.205  26.808  1.00  0.00     0.135 A 
ATOM     75  C   UNL A   1      43.019  23.581  28.242  1.00  0.00     0.135 A 
ATOM     76  F   UNL A   1      44.413  26.469  26.528  1.00  0.00    -0.206 F 
ATOM     77  C   UNL A   1      44.366  24.211  25.886  1.00  0.00     0.059 A 
ATOM     78  C   UNL A   1      43.341  22.565  27.347  1.00  0.00     0.059 A 
ATOM     79  F   UNL A   1      42.382  23.249  29.376  1.00  0.00    -0.206 F 
ATOM     80  C   UNL A   1      44.012  22.892  26.170  1.00  0.00     0.060 A 
BRANCH  80  81
ATOM     81  S   UNL A   1      44.487  21.602  24.998  1.00  0.00     0.124 S 
ATOM     82  O   UNL A   1      44.312  22.283  23.721  1.00  0.00    -0.237 OA
ATOM     83  O   UNL A   1      45.865  21.327  25.392  1.00  0.00    -0.237 OA
ATOM     84  O   UNL A   1      43.537  20.528  25.276  1.00  0.00    -0.744 OA
ENDBRANCH  80  81
ENDBRANCH  48  73
BRANCH  60  85
ATOM     85  C   UNL A   1      46.721  27.259  33.663  1.00  0.00     0.058 A 
ATOM     86  C   UNL A   1      46.765  26.233  34.620  1.00  0.00     0.135 A 
ATOM     87  C   UNL A   1      47.934  27.871  33.306  1.00  0.00     0.135 A 
ATOM     88  F   UNL A   1      45.635  25.618  35.005  1.00  0.00    -0.206 F 
ATOM     89  C   UNL A   1      47.961  25.845  35.217  1.00  0.00     0.059 A 
ATOM     90  C   UNL A   1      49.146  27.478  33.866  1.00  0.00     0.059 A 
ATOM     91  F   UNL A   1      47.952  28.851  32.389  1.00  0.00    -0.206 F 
ATOM     92  C   UNL A   1      49.148  26.472  34.831  1.00  0.00     0.060 A 
BRANCH  92  93
ATOM     93  S   UNL A   1      50.696  25.937  35.588  1.00  0.00     0.124 S 
ATOM     94  O   UNL A   1      50.284  24.714  36.270  1.00  0.00    -0.237 OA
ATOM     95  O   UNL A   1      51.563  25.754  34.428  1.00  0.00    -0.237 OA
ATOM     96  O   UNL A   1      51.053  27.052  36.460  1.00  0.00    -0.744 OA
ENDBRANCH  92  93
ENDBRANCH  60  85
ENDBRANCH  34  35
ENDBRANCH  26  29
ENDBRANCH  24  25
ENDBRANCH   1  24
TORSDOF 17
ENDMDL
MODEL 3
REMARK VINA RESULT:     -11.1      2.637      3.970
REMARK SMILES CC(C)c1nc(OCC(=O)NCCCNC(=O)c2ccc(-c3c4nc(c(-c5c(F)cc(S(=O)(=O)[O-])cc5F)c5ccc([nH]5)c(-c5c(F)cc(S(=O)(=O)[O-])cc5F)c5nc(c(-c6c(F)cc(S(=O)(=O)[O-])cc6F)c6ccc3[nH]6)C=C5)C=C4)cc2)cc(-c2ccccn2)n1
REMARK SMILES IDX 13 1 12 2 11 3 9 4 10 5 8 7 7 8 6 9 4 10 5 11 92 12 85 13
REMARK SMILES IDX 84 14 2 15 1 16 3 17 86 18 87 19 91 20 88 21 90 22 89 23
REMARK SMILES IDX 14 24 15 25 16 26 17 28 18 29 19 30 83 31 20 32 82 33 21 34
REMARK SMILES IDX 22 35 23 36 76 37 24 38 81 39 75 40 77 41 25 42 80 43 74 44
REMARK SMILES IDX 73 45 26 47 60 48 39 49 59 50 40 51 43 52 58 53 78 54 41 55
REMARK SMILES IDX 42 56 57 58 79 59 44 60 27 61 28 62 37 63 29 64 30 65 36 66
REMARK SMILES IDX 38 67 31 68 32 69 33 70 34 71 35 72 61 73 62 74 71 75 63 76
REMARK SMILES IDX 64 77 70 78 72 79 65 80 66 81 67 82 68 83 69 84 45 85 46 86
REMARK SMILES IDX 55 87 47 88 48 89 54 90 56 91 49 92 50 93 51 94 52 95 53 96
REMARK H PARENT 11 6 15 27 77 46 43 57
REMARK Flexibility Score: inf
ROOT
ATOM      1  C   UNL A   1      33.105  27.674  26.465  1.00  0.00     0.042 C 
ENDROOT
BRANCH   1   2
ATOM      2  C   UNL A   1      32.393  26.800  25.439  1.00  0.00     0.117 C 
BRANCH   2   3
ATOM      3  N   UNL A   1      31.091  26.349  25.899  1.00  0.00    -0.353 N 
ATOM      4  C   UNL A   1      30.724  25.101  26.303  1.00  0.00     0.258 C 
ATOM      5  O   UNL A   1      29.560  24.910  26.662  1.00  0.00    -0.271 OA
ATOM      6  H   UNL A   1      30.384  27.032  25.920  1.00  0.00     0.163 HD
BRANCH   4   7
ATOM      7  C   UNL A   1      31.760  23.970  26.319  1.00  0.00     0.331 C 
BRANCH   7   8
ATOM      8  O   UNL A   1      31.653  23.001  25.293  1.00  0.00    -0.467 OA
BRANCH   8   9
ATOM      9  C   UNL A   1      32.660  22.087  25.166  1.00  0.00     0.217 A 
ATOM     10  C   UNL A   1      34.910  21.852  24.766  1.00  0.00     0.135 A 
ATOM     11  N   UNL A   1      33.853  22.663  24.955  1.00  0.00    -0.198 NA
ATOM     12  N   UNL A   1      34.840  20.509  24.760  1.00  0.00    -0.231 NA
ATOM     13  C   UNL A   1      33.628  19.961  24.986  1.00  0.00     0.096 A 
ATOM     14  C   UNL A   1      32.504  20.726  25.224  1.00  0.00     0.099 A 
BRANCH  10  15
ATOM     15  C   UNL A   1      36.282  22.474  24.619  1.00  0.00     0.051 C 
ATOM     16  C   UNL A   1      37.403  21.520  25.039  1.00  0.00     0.016 C 
ATOM     17  C   UNL A   1      36.488  22.950  23.181  1.00  0.00     0.016 C 
ENDBRANCH  10  15
BRANCH  13  18
ATOM     18  C   UNL A   1      33.517  18.497  24.928  1.00  0.00     0.089 A 
ATOM     19  C   UNL A   1      34.272  17.756  24.013  1.00  0.00     0.030 A 
ATOM     20  N   UNL A   1      32.579  17.921  25.724  1.00  0.00    -0.255 NA
ATOM     21  C   UNL A   1      34.062  16.386  23.912  1.00  0.00     0.004 A 
ATOM     22  C   UNL A   1      32.410  16.585  25.613  1.00  0.00     0.112 A 
ATOM     23  C   UNL A   1      33.112  15.784  24.727  1.00  0.00     0.020 A 
ENDBRANCH  13  18
ENDBRANCH   8   9
ENDBRANCH   7   8
ENDBRANCH   4   7
ENDBRANCH   2   3
ENDBRANCH   1   2
BRANCH   1  24
ATOM     24  C   UNL A   1      34.036  28.725  25.866  1.00  0.00     0.118 C 
BRANCH  24  25
ATOM     25  N   UNL A   1      33.777  30.071  26.367  1.00  0.00    -0.352 N 
ATOM     26  C   UNL A   1      34.405  30.787  27.354  1.00  0.00     0.251 C 
ATOM     27  H   UNL A   1      33.033  30.540  25.924  1.00  0.00     0.163 HD
ATOM     28  O   UNL A   1      33.912  31.852  27.726  1.00  0.00    -0.269 OA
BRANCH  26  29
ATOM     29  C   UNL A   1      35.645  30.287  27.986  1.00  0.00     0.039 A 
ATOM     30  C   UNL A   1      36.858  30.444  27.310  1.00  0.00     0.014 A 
ATOM     31  C   UNL A   1      35.618  29.646  29.227  1.00  0.00     0.014 A 
ATOM     32  C   UNL A   1      38.048  30.020  27.908  1.00  0.00     0.010 A 
ATOM     33  C   UNL A   1      36.811  29.299  29.857  1.00  0.00     0.010 A 
ATOM     34  C   UNL A   1      38.040  29.478  29.204  1.00  0.00    -0.014 A 
BRANCH  34  35
ATOM     35  C   UNL A   1      39.301  29.096  29.892  1.00  0.00     0.031 A 
ATOM     36  C   UNL A   1      39.744  29.828  31.131  1.00  0.00     0.074 A 
ATOM     37  C   UNL A   1      40.079  28.128  29.369  1.00  0.00     0.049 A 
ATOM     38  N   UNL A   1      40.835  29.675  31.837  1.00  0.00    -0.248 NA
ATOM     39  C   UNL A   1      38.855  30.890  31.624  1.00  0.00     0.031 C 
ATOM     40  C   UNL A   1      39.780  27.368  28.154  1.00  0.00     0.029 A 
ATOM     41  N   UNL A   1      41.283  27.620  29.788  1.00  0.00    -0.354 N 
ATOM     42  C   UNL A   1      40.769  30.625  32.850  1.00  0.00     0.074 A 
ATOM     43  C   UNL A   1      39.563  31.392  32.625  1.00  0.00     0.031 C 
ATOM     44  C   UNL A   1      40.754  26.466  27.948  1.00  0.00     0.029 A 
ATOM     45  C   UNL A   1      41.768  26.614  28.987  1.00  0.00     0.049 A 
ATOM     46  H   UNL A   1      41.755  27.945  30.589  1.00  0.00     0.167 HD
ATOM     47  C   UNL A   1      41.618  30.824  33.887  1.00  0.00     0.037 A 
ATOM     48  C   UNL A   1      42.902  25.892  29.076  1.00  0.00     0.037 A 
ATOM     49  C   UNL A   1      42.816  30.054  34.106  1.00  0.00     0.049 A 
ATOM     50  C   UNL A   1      43.851  26.154  30.213  1.00  0.00     0.074 A 
ATOM     51  C   UNL A   1      43.725  30.150  35.145  1.00  0.00     0.029 A 
ATOM     52  N   UNL A   1      43.279  29.052  33.264  1.00  0.00    -0.354 N 
ATOM     53  N   UNL A   1      43.747  27.019  31.194  1.00  0.00    -0.248 NA
ATOM     54  C   UNL A   1      45.073  25.338  30.258  1.00  0.00     0.031 C 
ATOM     55  C   UNL A   1      44.763  29.243  34.904  1.00  0.00     0.029 A 
ATOM     56  C   UNL A   1      44.472  28.537  33.747  1.00  0.00     0.049 A 
ATOM     57  H   UNL A   1      42.826  28.749  32.444  1.00  0.00     0.167 HD
ATOM     58  C   UNL A   1      44.870  26.829  31.992  1.00  0.00     0.074 A 
ATOM     59  C   UNL A   1      45.638  25.761  31.380  1.00  0.00     0.031 C 
ATOM     60  C   UNL A   1      45.228  27.473  33.131  1.00  0.00     0.037 A 
BRANCH  47  61
ATOM     61  C   UNL A   1      41.277  31.929  34.854  1.00  0.00     0.058 A 
ATOM     62  C   UNL A   1      40.408  31.721  35.938  1.00  0.00     0.135 A 
ATOM     63  C   UNL A   1      41.813  33.217  34.689  1.00  0.00     0.135 A 
ATOM     64  F   UNL A   1      39.856  30.513  36.141  1.00  0.00    -0.206 F 
ATOM     65  C   UNL A   1      40.034  32.760  36.785  1.00  0.00     0.059 A 
ATOM     66  C   UNL A   1      41.482  34.263  35.546  1.00  0.00     0.059 A 
ATOM     67  F   UNL A   1      42.656  33.475  33.677  1.00  0.00    -0.206 F 
ATOM     68  C   UNL A   1      40.570  34.030  36.574  1.00  0.00     0.060 A 
BRANCH  68  69
ATOM     69  S   UNL A   1      40.040  35.378  37.651  1.00  0.00     0.124 S 
ATOM     70  O   UNL A   1      41.181  35.492  38.555  1.00  0.00    -0.237 OA
ATOM     71  O   UNL A   1      39.864  36.481  36.711  1.00  0.00    -0.237 OA
ATOM     72  O   UNL A   1      38.811  34.871  38.254  1.00  0.00    -0.744 OA
ENDBRANCH  68  69
ENDBRANCH  47  61
BRANCH  48  73
ATOM     73  C   UNL A   1      43.172  24.817  28.084  1.00  0.00     0.058 A 
ATOM     74  C   UNL A   1      43.812  25.109  26.871  1.00  0.00     0.135 A 
ATOM     75  C   UNL A   1      42.837  23.478  28.340  1.00  0.00     0.135 A 
ATOM     76  F   UNL A   1      44.144  26.376  26.577  1.00  0.00    -0.206 F 
ATOM     77  C   UNL A   1      44.108  24.116  25.944  1.00  0.00     0.059 A 
ATOM     78  C   UNL A   1      43.146  22.463  27.440  1.00  0.00     0.059 A 
ATOM     79  F   UNL A   1      42.237  23.143  29.493  1.00  0.00    -0.206 F 
ATOM     80  C   UNL A   1      43.779  22.794  26.242  1.00  0.00     0.060 A 
BRANCH  80  81
ATOM     81  S   UNL A   1      44.237  21.505  25.062  1.00  0.00     0.124 S 
ATOM     82  O   UNL A   1      43.271  20.459  25.378  1.00  0.00    -0.237 OA
ATOM     83  O   UNL A   1      44.049  22.183  23.784  1.00  0.00    -0.237 OA
ATOM     84  O   UNL A   1      45.624  21.209  25.409  1.00  0.00    -0.744 OA
ENDBRANCH  80  81
ENDBRANCH  48  73
BRANCH  60  85
ATOM     85  C   UNL A   1      46.488  27.019  33.819  1.00  0.00     0.058 A 
ATOM     86  C   UNL A   1      47.735  27.605  33.552  1.00  0.00     0.135 A 
ATOM     87  C   UNL A   1      46.436  26.010  34.795  1.00  0.00     0.135 A 
ATOM     88  F   UNL A   1      47.844  28.568  32.623  1.00  0.00    -0.206 F 
ATOM     89  C   UNL A   1      48.889  27.191  34.210  1.00  0.00     0.059 A 
ATOM     90  C   UNL A   1      47.571  25.603  35.488  1.00  0.00     0.059 A 
ATOM     91  F   UNL A   1      45.268  25.421  35.098  1.00  0.00    -0.206 F 
ATOM     92  C   UNL A   1      48.797  26.191  35.180  1.00  0.00     0.060 A 
BRANCH  92  93
ATOM     93  S   UNL A   1      50.296  25.687  36.050  1.00  0.00     0.124 S 
ATOM     94  O   UNL A   1      51.143  25.246  34.946  1.00  0.00    -0.237 OA
ATOM     95  O   UNL A   1      50.704  26.925  36.708  1.00  0.00    -0.237 OA
ATOM     96  O   UNL A   1      49.832  24.632  36.945  1.00  0.00    -0.744 OA
ENDBRANCH  92  93
ENDBRANCH  60  85
ENDBRANCH  34  35
ENDBRANCH  26  29
ENDBRANCH  24  25
ENDBRANCH   1  24
TORSDOF 17
ENDMDL
