MODEL 1
REMARK VINA RESULT:     -14.0      0.000      0.000
REMARK SMILES Cc1ccc(NC(=O)c2csc(Br)c2)c(C(=O)NCCCNC(=O)c2ccc(-c3c4nc(c(-c5c(F)cc(S(=O)(=O)[O-])cc5F)c5ccc([nH]5)c(-c5c(F)cc(S(=O)(=O)[O-])cc5F)c5nc(c(-c6c(F)cc(S(=O)(=O)[O-])cc6F)c6ccc3[nH]6)C=C5)C=C4)cc2)c1
REMARK SMILES IDX 20 1 19 2 18 3 16 4 17 5 15 7 1 8 2 9 3 10 91 11 4 12 5 13
REMARK SMILES IDX 6 14 7 15 8 17 9 18 10 19 14 20 11 21 12 22 13 23 21 24
REMARK SMILES IDX 22 25 23 26 24 28 25 29 26 30 90 31 27 32 89 33 28 34 29 35
REMARK SMILES IDX 30 36 83 37 31 38 88 39 82 40 84 41 32 42 87 43 81 44 80 45
REMARK SMILES IDX 33 47 67 48 46 49 66 50 47 51 50 52 65 53 85 54 48 55 49 56
REMARK SMILES IDX 64 58 86 59 51 60 34 61 35 62 44 63 36 64 37 65 43 66 45 67
REMARK SMILES IDX 38 68 39 69 40 70 41 71 42 72 68 73 69 74 78 75 70 76 71 77
REMARK SMILES IDX 77 78 79 79 72 80 73 81 74 82 75 83 76 84 52 85 53 86 62 87
REMARK SMILES IDX 54 88 55 89 61 90 63 91 56 92 57 93 58 94 59 95 60 96
REMARK H PARENT 18 6 6 16 22 27 84 46 50 57
REMARK Flexibility Score: inf
ROOT
ATOM      1  C   UNL A   1      33.071  30.093  27.117  1.00  0.00     0.042 C 
ENDROOT
BRANCH   1   2
ATOM      2  C   UNL A   1      32.185  28.944  27.603  1.00  0.00     0.118 C 
BRANCH   2   3
ATOM      3  N   UNL A   1      32.706  27.625  27.260  1.00  0.00    -0.352 N 
ATOM      4  C   UNL A   1      32.478  26.713  26.256  1.00  0.00     0.253 C 
ATOM      5  O   UNL A   1      33.244  25.743  26.238  1.00  0.00    -0.269 OA
ATOM      6  H   UNL A   1      33.384  27.312  27.901  1.00  0.00     0.163 HD
BRANCH   4   7
ATOM      7  C   UNL A   1      31.365  26.762  25.236  1.00  0.00     0.063 A 
ATOM      8  C   UNL A   1      30.444  28.637  22.027  1.00  0.00     0.044 C 
ATOM      9  C   UNL A   1      30.331  27.751  23.234  1.00  0.00    -0.050 A 
ATOM     10  C   UNL A   1      29.147  27.083  23.507  1.00  0.00     0.005 A 
ATOM     11  C   UNL A   1      31.423  27.578  24.096  1.00  0.00     0.019 A 
ATOM     12  C   UNL A   1      29.072  26.228  24.605  1.00  0.00     0.027 A 
ATOM     13  C   UNL A   1      30.179  25.995  25.435  1.00  0.00     0.054 A 
BRANCH  13  14
ATOM     14  N   UNL A   1      30.113  25.036  26.479  1.00  0.00    -0.321 N 
ATOM     15  C   UNL A   1      30.483  23.714  26.578  1.00  0.00     0.256 C 
ATOM     16  H   UNL A   1      29.719  25.392  27.309  1.00  0.00     0.170 HD
ATOM     17  O   UNL A   1      30.072  23.034  27.518  1.00  0.00    -0.269 OA
BRANCH  15  18
ATOM     18  C   UNL A   1      31.399  23.127  25.603  1.00  0.00     0.052 A 
ATOM     19  C   UNL A   1      31.130  23.143  24.243  1.00  0.00     0.080 A 
ATOM     20  C   UNL A   1      32.630  22.427  25.865  1.00  0.00     0.041 A 
ATOM     21  S   UNL A   1      32.393  22.461  23.311  1.00  0.00    -0.136 S 
ATOM     22  C   UNL A   1      33.268  22.068  24.705  1.00  0.00     0.071 A 
ATOM     23  Br  UNL A   1      34.950  21.245  24.660  1.00  0.00    -0.039 Br
ENDBRANCH  15  18
ENDBRANCH  13  14
ENDBRANCH   4   7
ENDBRANCH   2   3
ENDBRANCH   1   2
BRANCH   1  24
ATOM     24  C   UNL A   1      34.558  29.821  27.292  1.00  0.00     0.118 C 
BRANCH  24  25
ATOM     25  N   UNL A   1      35.324  31.033  27.560  1.00  0.00    -0.352 N 
ATOM     26  C   UNL A   1      36.538  31.126  28.218  1.00  0.00     0.251 C 
ATOM     27  H   UNL A   1      34.935  31.877  27.236  1.00  0.00     0.163 HD
ATOM     28  O   UNL A   1      36.986  32.178  28.643  1.00  0.00    -0.269 OA
BRANCH  26  29
ATOM     29  C   UNL A   1      37.347  29.894  28.239  1.00  0.00     0.039 A 
ATOM     30  C   UNL A   1      37.422  29.219  29.464  1.00  0.00     0.014 A 
ATOM     31  C   UNL A   1      38.252  29.649  27.212  1.00  0.00     0.014 A 
ATOM     32  C   UNL A   1      38.523  28.413  29.729  1.00  0.00     0.010 A 
ATOM     33  C   UNL A   1      39.383  28.915  27.509  1.00  0.00     0.010 A 
ATOM     34  C   UNL A   1      39.540  28.338  28.781  1.00  0.00    -0.014 A 
BRANCH  34  35
ATOM     35  C   UNL A   1      40.834  27.717  29.034  1.00  0.00     0.031 A 
ATOM     36  C   UNL A   1      41.055  26.310  28.632  1.00  0.00     0.074 A 
ATOM     37  C   UNL A   1      41.854  28.464  29.509  1.00  0.00     0.049 A 
ATOM     38  N   UNL A   1      42.052  25.583  29.006  1.00  0.00    -0.248 NA
ATOM     39  C   UNL A   1      40.108  25.590  27.791  1.00  0.00     0.031 C 
ATOM     40  C   UNL A   1      43.278  28.145  29.452  1.00  0.00     0.029 A 
ATOM     41  N   UNL A   1      41.781  29.588  30.337  1.00  0.00    -0.354 N 
ATOM     42  C   UNL A   1      42.034  24.423  28.260  1.00  0.00     0.074 A 
ATOM     43  C   UNL A   1      40.773  24.457  27.556  1.00  0.00     0.031 C 
ATOM     44  C   UNL A   1      43.923  28.868  30.378  1.00  0.00     0.029 A 
ATOM     45  C   UNL A   1      42.914  29.544  31.175  1.00  0.00     0.049 A 
ATOM     46  H   UNL A   1      41.076  30.276  30.335  1.00  0.00     0.167 HD
ATOM     47  C   UNL A   1      43.146  23.631  28.227  1.00  0.00     0.037 A 
ATOM     48  C   UNL A   1      42.790  29.415  32.530  1.00  0.00     0.037 A 
ATOM     49  C   UNL A   1      44.155  24.113  29.169  1.00  0.00     0.049 A 
ATOM     50  C   UNL A   1      43.432  28.166  33.088  1.00  0.00     0.074 A 
ATOM     51  C   UNL A   1      45.266  24.928  29.019  1.00  0.00     0.029 A 
ATOM     52  N   UNL A   1      43.912  24.028  30.536  1.00  0.00    -0.354 N 
ATOM     53  N   UNL A   1      43.752  27.126  32.369  1.00  0.00    -0.248 NA
ATOM     54  C   UNL A   1      43.768  27.989  34.500  1.00  0.00     0.031 C 
ATOM     55  C   UNL A   1      45.642  25.400  30.302  1.00  0.00     0.029 A 
ATOM     56  C   UNL A   1      44.779  24.849  31.234  1.00  0.00     0.049 A 
ATOM     57  H   UNL A   1      43.220  23.463  30.950  1.00  0.00     0.167 HD
ATOM     58  C   UNL A   1      44.303  26.160  33.172  1.00  0.00     0.074 A 
ATOM     59  C   UNL A   1      44.309  26.756  34.495  1.00  0.00     0.031 C 
ATOM     60  C   UNL A   1      44.706  24.948  32.684  1.00  0.00     0.037 A 
BRANCH  47  61
ATOM     61  C   UNL A   1      43.422  22.624  27.125  1.00  0.00     0.058 A 
ATOM     62  C   UNL A   1      42.672  21.430  27.033  1.00  0.00     0.135 A 
ATOM     63  C   UNL A   1      44.460  22.731  26.178  1.00  0.00     0.135 A 
ATOM     64  F   UNL A   1      41.584  21.227  27.789  1.00  0.00    -0.206 F 
ATOM     65  C   UNL A   1      43.006  20.381  26.173  1.00  0.00     0.059 A 
ATOM     66  C   UNL A   1      44.853  21.674  25.350  1.00  0.00     0.059 A 
ATOM     67  F   UNL A   1      45.101  23.890  25.979  1.00  0.00    -0.206 F 
ATOM     68  C   UNL A   1      44.127  20.493  25.364  1.00  0.00     0.060 A 
BRANCH  68  69
ATOM     69  S   UNL A   1      44.607  19.092  24.335  1.00  0.00     0.124 S 
ATOM     70  O   UNL A   1      43.652  18.066  24.746  1.00  0.00    -0.237 OA
ATOM     71  O   UNL A   1      44.427  19.627  22.990  1.00  0.00    -0.237 OA
ATOM     72  O   UNL A   1      45.991  18.840  24.729  1.00  0.00    -0.744 OA
ENDBRANCH  68  69
ENDBRANCH  47  61
BRANCH  48  73
ATOM     73  C   UNL A   1      41.583  30.100  33.070  1.00  0.00     0.058 A 
ATOM     74  C   UNL A   1      41.634  31.504  33.179  1.00  0.00     0.135 A 
ATOM     75  C   UNL A   1      40.317  29.502  33.017  1.00  0.00     0.135 A 
ATOM     76  F   UNL A   1      42.821  32.129  33.254  1.00  0.00    -0.206 F 
ATOM     77  C   UNL A   1      40.494  32.291  33.052  1.00  0.00     0.059 A 
ATOM     78  C   UNL A   1      39.157  30.273  32.899  1.00  0.00     0.059 A 
ATOM     79  F   UNL A   1      40.204  28.169  32.925  1.00  0.00    -0.206 F 
ATOM     80  C   UNL A   1      39.270  31.663  32.837  1.00  0.00     0.060 A 
BRANCH  80  81
ATOM     81  S   UNL A   1      37.887  32.694  32.287  1.00  0.00     0.124 S 
ATOM     82  O   UNL A   1      37.521  33.393  33.513  1.00  0.00    -0.237 OA
ATOM     83  O   UNL A   1      38.519  33.521  31.259  1.00  0.00    -0.237 OA
ATOM     84  O   UNL A   1      36.916  31.722  31.800  1.00  0.00    -0.744 OA
ENDBRANCH  80  81
ENDBRANCH  48  73
BRANCH  60  85
ATOM     85  C   UNL A   1      45.148  23.766  33.511  1.00  0.00     0.058 A 
ATOM     86  C   UNL A   1      46.430  23.637  34.069  1.00  0.00     0.135 A 
ATOM     87  C   UNL A   1      44.211  22.775  33.895  1.00  0.00     0.135 A 
ATOM     88  F   UNL A   1      47.376  24.565  33.863  1.00  0.00    -0.206 F 
ATOM     89  C   UNL A   1      46.779  22.573  34.906  1.00  0.00     0.059 A 
ATOM     90  C   UNL A   1      44.521  21.737  34.770  1.00  0.00     0.059 A 
ATOM     91  F   UNL A   1      42.950  22.792  33.440  1.00  0.00    -0.206 F 
ATOM     92  C   UNL A   1      45.817  21.630  35.255  1.00  0.00     0.060 A 
BRANCH  92  93
ATOM     93  S   UNL A   1      46.229  20.297  36.397  1.00  0.00     0.124 S 
ATOM     94  O   UNL A   1      45.463  19.188  35.838  1.00  0.00    -0.237 OA
ATOM     95  O   UNL A   1      47.680  20.190  36.264  1.00  0.00    -0.237 OA
ATOM     96  O   UNL A   1      45.762  20.808  37.681  1.00  0.00    -0.744 OA
ENDBRANCH  92  93
ENDBRANCH  60  85
ENDBRANCH  34  35
ENDBRANCH  26  29
ENDBRANCH  24  25
ENDBRANCH   1  24
TORSDOF 15
ENDMDL
MODEL 2
REMARK VINA RESULT:     -13.7      4.898     11.384
REMARK SMILES Cc1ccc(NC(=O)c2csc(Br)c2)c(C(=O)NCCCNC(=O)c2ccc(-c3c4nc(c(-c5c(F)cc(S(=O)(=O)[O-])cc5F)c5ccc([nH]5)c(-c5c(F)cc(S(=O)(=O)[O-])cc5F)c5nc(c(-c6c(F)cc(S(=O)(=O)[O-])cc6F)c6ccc3[nH]6)C=C5)C=C4)cc2)c1
REMARK SMILES IDX 20 1 19 2 18 3 16 4 17 5 15 7 1 8 2 9 3 10 91 11 4 12 5 13
REMARK SMILES IDX 6 14 7 15 8 17 9 18 10 19 14 20 11 21 12 22 13 23 21 24
REMARK SMILES IDX 22 25 23 26 24 28 25 29 26 30 90 31 27 32 89 33 28 34 29 35
REMARK SMILES IDX 30 36 83 37 31 38 88 39 82 40 84 41 32 42 87 43 81 44 80 45
REMARK SMILES IDX 33 47 67 48 46 49 66 50 47 51 50 52 65 53 85 54 48 55 49 56
REMARK SMILES IDX 64 58 86 59 51 60 34 61 35 62 44 63 36 64 37 65 43 66 45 67
REMARK SMILES IDX 38 68 39 69 40 70 41 71 42 72 68 73 69 74 78 75 70 76 71 77
REMARK SMILES IDX 77 78 79 79 72 80 73 81 74 82 75 83 76 84 52 85 53 86 62 87
REMARK SMILES IDX 54 88 55 89 61 90 63 91 56 92 57 93 58 94 59 95 60 96
REMARK H PARENT 18 6 6 16 22 27 84 46 50 57
REMARK Flexibility Score: inf
ROOT
ATOM      1  C   UNL A   1      37.340  22.320  25.692  1.00  0.00     0.042 C 
ENDROOT
BRANCH   1   2
ATOM      2  C   UNL A   1      35.882  22.670  25.390  1.00  0.00     0.118 C 
BRANCH   2   3
ATOM      3  N   UNL A   1      35.596  24.099  25.489  1.00  0.00    -0.352 N 
ATOM      4  C   UNL A   1      34.458  24.870  25.506  1.00  0.00     0.253 C 
ATOM      5  O   UNL A   1      34.635  26.068  25.751  1.00  0.00    -0.269 OA
ATOM      6  H   UNL A   1      36.416  24.640  25.562  1.00  0.00     0.163 HD
BRANCH   4   7
ATOM      7  C   UNL A   1      33.054  24.403  25.200  1.00  0.00     0.063 A 
ATOM      8  C   UNL A   1      30.149  22.602  26.924  1.00  0.00     0.044 C 
ATOM      9  C   UNL A   1      30.993  23.228  25.853  1.00  0.00    -0.050 A 
ATOM     10  C   UNL A   1      30.555  23.252  24.538  1.00  0.00     0.005 A 
ATOM     11  C   UNL A   1      32.231  23.808  26.167  1.00  0.00     0.019 A 
ATOM     12  C   UNL A   1      31.328  23.877  23.561  1.00  0.00     0.027 A 
ATOM     13  C   UNL A   1      32.536  24.520  23.877  1.00  0.00     0.054 A 
BRANCH  13  14
ATOM     14  N   UNL A   1      33.249  25.247  22.888  1.00  0.00    -0.321 N 
ATOM     15  C   UNL A   1      33.031  26.448  22.251  1.00  0.00     0.256 C 
ATOM     16  H   UNL A   1      34.075  24.798  22.597  1.00  0.00     0.170 HD
ATOM     17  O   UNL A   1      33.671  26.726  21.237  1.00  0.00    -0.269 OA
BRANCH  15  18
ATOM     18  C   UNL A   1      32.081  27.414  22.799  1.00  0.00     0.052 A 
ATOM     19  C   UNL A   1      32.410  28.245  23.859  1.00  0.00     0.080 A 
ATOM     20  C   UNL A   1      30.712  27.622  22.401  1.00  0.00     0.041 A 
ATOM     21  S   UNL A   1      31.152  29.333  24.261  1.00  0.00    -0.136 S 
ATOM     22  C   UNL A   1      30.136  28.660  23.088  1.00  0.00     0.071 A 
ATOM     23  Br  UNL A   1      28.404  29.289  22.753  1.00  0.00    -0.039 Br
ENDBRANCH  15  18
ENDBRANCH  13  14
ENDBRANCH   4   7
ENDBRANCH   2   3
ENDBRANCH   1   2
BRANCH   1  24
ATOM     24  C   UNL A   1      38.172  23.521  26.118  1.00  0.00     0.118 C 
BRANCH  24  25
ATOM     25  N   UNL A   1      39.313  23.150  26.948  1.00  0.00    -0.352 N 
ATOM     26  C   UNL A   1      40.229  24.002  27.539  1.00  0.00     0.251 C 
ATOM     27  H   UNL A   1      39.445  22.187  27.104  1.00  0.00     0.163 HD
ATOM     28  O   UNL A   1      41.298  23.623  27.985  1.00  0.00    -0.269 OA
BRANCH  26  29
ATOM     29  C   UNL A   1      39.767  25.387  27.746  1.00  0.00     0.039 A 
ATOM     30  C   UNL A   1      40.315  26.359  26.899  1.00  0.00     0.014 A 
ATOM     31  C   UNL A   1      39.127  25.727  28.932  1.00  0.00     0.014 A 
ATOM     32  C   UNL A   1      40.376  27.678  27.330  1.00  0.00     0.010 A 
ATOM     33  C   UNL A   1      39.263  27.022  29.392  1.00  0.00     0.010 A 
ATOM     34  C   UNL A   1      39.928  27.985  28.612  1.00  0.00    -0.014 A 
BRANCH  34  35
ATOM     35  C   UNL A   1      40.146  29.273  29.257  1.00  0.00     0.031 A 
ATOM     36  C   UNL A   1      39.077  30.295  29.218  1.00  0.00     0.074 A 
ATOM     37  C   UNL A   1      41.262  29.474  29.992  1.00  0.00     0.049 A 
ATOM     38  N   UNL A   1      39.229  31.536  29.536  1.00  0.00    -0.248 NA
ATOM     39  C   UNL A   1      37.730  29.985  28.757  1.00  0.00     0.031 C 
ATOM     40  C   UNL A   1      41.473  30.502  31.006  1.00  0.00     0.029 A 
ATOM     41  N   UNL A   1      42.523  28.898  29.811  1.00  0.00    -0.354 N 
ATOM     42  C   UNL A   1      37.978  32.116  29.588  1.00  0.00     0.074 A 
ATOM     43  C   UNL A   1      37.087  31.119  29.044  1.00  0.00     0.031 C 
ATOM     44  C   UNL A   1      42.791  30.668  31.190  1.00  0.00     0.029 A 
ATOM     45  C   UNL A   1      43.469  29.877  30.179  1.00  0.00     0.049 A 
ATOM     46  H   UNL A   1      42.713  27.986  29.490  1.00  0.00     0.167 HD
ATOM     47  C   UNL A   1      37.827  33.324  30.205  1.00  0.00     0.037 A 
ATOM     48  C   UNL A   1      44.353  30.385  29.269  1.00  0.00     0.037 A 
ATOM     49  C   UNL A   1      39.126  33.881  30.582  1.00  0.00     0.049 A 
ATOM     50  C   UNL A   1      44.218  31.875  29.050  1.00  0.00     0.074 A 
ATOM     51  C   UNL A   1      39.849  33.861  31.764  1.00  0.00     0.029 A 
ATOM     52  N   UNL A   1      40.008  34.294  29.589  1.00  0.00    -0.354 N 
ATOM     53  N   UNL A   1      43.165  32.569  29.381  1.00  0.00    -0.248 NA
ATOM     54  C   UNL A   1      45.259  32.703  28.442  1.00  0.00     0.031 C 
ATOM     55  C   UNL A   1      41.195  34.185  31.462  1.00  0.00     0.029 A 
ATOM     56  C   UNL A   1      41.284  34.432  30.103  1.00  0.00     0.049 A 
ATOM     57  H   UNL A   1      39.760  34.464  28.651  1.00  0.00     0.167 HD
ATOM     58  C   UNL A   1      43.351  33.885  29.039  1.00  0.00     0.074 A 
ATOM     59  C   UNL A   1      44.687  33.920  28.473  1.00  0.00     0.031 C 
ATOM     60  C   UNL A   1      42.392  34.835  29.248  1.00  0.00     0.037 A 
BRANCH  47  61
ATOM     61  C   UNL A   1      36.497  33.832  30.733  1.00  0.00     0.058 A 
ATOM     62  C   UNL A   1      35.466  34.211  29.845  1.00  0.00     0.135 A 
ATOM     63  C   UNL A   1      36.200  34.047  32.093  1.00  0.00     0.135 A 
ATOM     64  F   UNL A   1      35.549  33.969  28.529  1.00  0.00    -0.206 F 
ATOM     65  C   UNL A   1      34.304  34.868  30.258  1.00  0.00     0.059 A 
ATOM     66  C   UNL A   1      35.075  34.757  32.529  1.00  0.00     0.059 A 
ATOM     67  F   UNL A   1      36.964  33.527  33.062  1.00  0.00    -0.206 F 
ATOM     68  C   UNL A   1      34.136  35.178  31.600  1.00  0.00     0.060 A 
BRANCH  68  69
ATOM     69  S   UNL A   1      32.682  36.117  32.105  1.00  0.00     0.124 S 
ATOM     70  O   UNL A   1      31.750  35.061  32.490  1.00  0.00    -0.237 OA
ATOM     71  O   UNL A   1      33.209  36.929  33.196  1.00  0.00    -0.237 OA
ATOM     72  O   UNL A   1      32.317  36.853  30.898  1.00  0.00    -0.744 OA
ENDBRANCH  68  69
ENDBRANCH  47  61
BRANCH  48  73
ATOM     73  C   UNL A   1      44.785  29.383  28.257  1.00  0.00     0.058 A 
ATOM     74  C   UNL A   1      45.742  28.431  28.661  1.00  0.00     0.135 A 
ATOM     75  C   UNL A   1      43.981  29.063  27.154  1.00  0.00     0.135 A 
ATOM     76  F   UNL A   1      46.554  28.694  29.699  1.00  0.00    -0.206 F 
ATOM     77  C   UNL A   1      45.775  27.150  28.120  1.00  0.00     0.059 A 
ATOM     78  C   UNL A   1      44.005  27.785  26.588  1.00  0.00     0.059 A 
ATOM     79  F   UNL A   1      43.060  29.933  26.715  1.00  0.00    -0.206 F 
ATOM     80  C   UNL A   1      44.850  26.817  27.135  1.00  0.00     0.060 A 
BRANCH  80  81
ATOM     81  S   UNL A   1      44.650  25.063  26.734  1.00  0.00     0.124 S 
ATOM     82  O   UNL A   1      43.440  25.071  25.920  1.00  0.00    -0.237 OA
ATOM     83  O   UNL A   1      45.890  24.777  26.010  1.00  0.00    -0.237 OA
ATOM     84  O   UNL A   1      44.528  24.430  28.042  1.00  0.00    -0.744 OA
ENDBRANCH  80  81
ENDBRANCH  48  73
BRANCH  60  85
ATOM     85  C   UNL A   1      42.432  36.258  28.744  1.00  0.00     0.058 A 
ATOM     86  C   UNL A   1      43.071  37.310  29.420  1.00  0.00     0.135 A 
ATOM     87  C   UNL A   1      41.940  36.569  27.453  1.00  0.00     0.135 A 
ATOM     88  F   UNL A   1      43.667  37.116  30.606  1.00  0.00    -0.206 F 
ATOM     89  C   UNL A   1      43.169  38.595  28.881  1.00  0.00     0.059 A 
ATOM     90  C   UNL A   1      42.075  37.829  26.874  1.00  0.00     0.059 A 
ATOM     91  F   UNL A   1      41.320  35.649  26.700  1.00  0.00    -0.206 F 
ATOM     92  C   UNL A   1      42.672  38.844  27.606  1.00  0.00     0.060 A 
BRANCH  92  93
ATOM     93  S   UNL A   1      42.862  40.477  26.864  1.00  0.00     0.124 S 
ATOM     94  O   UNL A   1      43.452  41.231  27.965  1.00  0.00    -0.237 OA
ATOM     95  O   UNL A   1      43.748  40.221  25.731  1.00  0.00    -0.237 OA
ATOM     96  O   UNL A   1      41.494  40.838  26.508  1.00  0.00    -0.744 OA
ENDBRANCH  92  93
ENDBRANCH  60  85
ENDBRANCH  34  35
ENDBRANCH  26  29
ENDBRANCH  24  25
ENDBRANCH   1  24
TORSDOF 15
ENDMDL
MODEL 3
REMARK VINA RESULT:     -13.6      5.087     11.363
REMARK SMILES Cc1ccc(NC(=O)c2csc(Br)c2)c(C(=O)NCCCNC(=O)c2ccc(-c3c4nc(c(-c5c(F)cc(S(=O)(=O)[O-])cc5F)c5ccc([nH]5)c(-c5c(F)cc(S(=O)(=O)[O-])cc5F)c5nc(c(-c6c(F)cc(S(=O)(=O)[O-])cc6F)c6ccc3[nH]6)C=C5)C=C4)cc2)c1
REMARK SMILES IDX 20 1 19 2 18 3 16 4 17 5 15 7 1 8 2 9 3 10 91 11 4 12 5 13
REMARK SMILES IDX 6 14 7 15 8 17 9 18 10 19 14 20 11 21 12 22 13 23 21 24
REMARK SMILES IDX 22 25 23 26 24 28 25 29 26 30 90 31 27 32 89 33 28 34 29 35
REMARK SMILES IDX 30 36 83 37 31 38 88 39 82 40 84 41 32 42 87 43 81 44 80 45
REMARK SMILES IDX 33 47 67 48 46 49 66 50 47 51 50 52 65 53 85 54 48 55 49 56
REMARK SMILES IDX 64 58 86 59 51 60 34 61 35 62 44 63 36 64 37 65 43 66 45 67
REMARK SMILES IDX 38 68 39 69 40 70 41 71 42 72 68 73 69 74 78 75 70 76 71 77
REMARK SMILES IDX 77 78 79 79 72 80 73 81 74 82 75 83 76 84 52 85 53 86 62 87
REMARK SMILES IDX 54 88 55 89 61 90 63 91 56 92 57 93 58 94 59 95 60 96
REMARK H PARENT 18 6 6 16 22 27 84 46 50 57
REMARK Flexibility Score: inf
ROOT
ATOM      1  C   UNL A   1      37.192  21.976  25.525  1.00  0.00     0.042 C 
ENDROOT
BRANCH   1   2
ATOM      2  C   UNL A   1      35.694  22.194  25.309  1.00  0.00     0.118 C 
BRANCH   2   3
ATOM      3  N   UNL A   1      35.341  22.468  23.919  1.00  0.00    -0.352 N 
ATOM      4  C   UNL A   1      34.338  23.159  23.282  1.00  0.00     0.253 C 
ATOM      5  O   UNL A   1      34.471  23.278  22.059  1.00  0.00    -0.269 OA
ATOM      6  H   UNL A   1      35.975  22.060  23.285  1.00  0.00     0.163 HD
BRANCH   4   7
ATOM      7  C   UNL A   1      33.089  23.719  23.921  1.00  0.00     0.063 A 
ATOM      8  C   UNL A   1      30.405  22.687  26.449  1.00  0.00     0.044 C 
ATOM      9  C   UNL A   1      31.132  23.465  25.391  1.00  0.00    -0.050 A 
ATOM     10  C   UNL A   1      30.589  24.634  24.881  1.00  0.00     0.005 A 
ATOM     11  C   UNL A   1      32.374  23.027  24.911  1.00  0.00     0.019 A 
ATOM     12  C   UNL A   1      31.296  25.370  23.932  1.00  0.00     0.027 A 
ATOM     13  C   UNL A   1      32.571  24.977  23.494  1.00  0.00     0.054 A 
BRANCH  13  14
ATOM     14  N   UNL A   1      33.320  25.800  22.613  1.00  0.00    -0.321 N 
ATOM     15  C   UNL A   1      33.496  27.161  22.506  1.00  0.00     0.256 C 
ATOM     16  H   UNL A   1      33.820  25.289  21.936  1.00  0.00     0.170 HD
ATOM     17  O   UNL A   1      33.992  27.633  21.482  1.00  0.00    -0.269 OA
BRANCH  15  18
ATOM     18  C   UNL A   1      33.145  28.042  23.617  1.00  0.00     0.052 A 
ATOM     19  C   UNL A   1      32.003  28.828  23.597  1.00  0.00     0.080 A 
ATOM     20  C   UNL A   1      33.899  28.280  24.821  1.00  0.00     0.041 A 
ATOM     21  S   UNL A   1      31.781  29.710  25.046  1.00  0.00    -0.136 S 
ATOM     22  C   UNL A   1      33.236  29.120  25.678  1.00  0.00     0.071 A 
ATOM     23  Br  UNL A   1      33.861  29.561  27.388  1.00  0.00    -0.039 Br
ENDBRANCH  15  18
ENDBRANCH  13  14
ENDBRANCH   4   7
ENDBRANCH   2   3
ENDBRANCH   1   2
BRANCH   1  24
ATOM     24  C   UNL A   1      37.893  23.180  26.139  1.00  0.00     0.118 C 
BRANCH  24  25
ATOM     25  N   UNL A   1      39.118  22.818  26.843  1.00  0.00    -0.352 N 
ATOM     26  C   UNL A   1      40.089  23.679  27.326  1.00  0.00     0.251 C 
ATOM     27  H   UNL A   1      39.270  21.857  26.992  1.00  0.00     0.163 HD
ATOM     28  O   UNL A   1      41.202  23.307  27.657  1.00  0.00    -0.269 OA
BRANCH  26  29
ATOM     29  C   UNL A   1      39.647  25.063  27.571  1.00  0.00     0.039 A 
ATOM     30  C   UNL A   1      40.163  26.043  26.713  1.00  0.00     0.014 A 
ATOM     31  C   UNL A   1      39.062  25.392  28.789  1.00  0.00     0.014 A 
ATOM     32  C   UNL A   1      40.253  27.356  27.157  1.00  0.00     0.010 A 
ATOM     33  C   UNL A   1      39.228  26.680  29.258  1.00  0.00     0.010 A 
ATOM     34  C   UNL A   1      39.864  27.649  28.462  1.00  0.00    -0.014 A 
BRANCH  34  35
ATOM     35  C   UNL A   1      40.120  28.927  29.113  1.00  0.00     0.031 A 
ATOM     36  C   UNL A   1      39.098  29.994  29.046  1.00  0.00     0.074 A 
ATOM     37  C   UNL A   1      41.223  29.081  29.877  1.00  0.00     0.049 A 
ATOM     38  N   UNL A   1      39.294  31.227  29.367  1.00  0.00    -0.248 NA
ATOM     39  C   UNL A   1      37.751  29.742  28.548  1.00  0.00     0.031 C 
ATOM     40  C   UNL A   1      41.451  30.100  30.897  1.00  0.00     0.029 A 
ATOM     41  N   UNL A   1      42.463  28.450  29.731  1.00  0.00    -0.354 N 
ATOM     42  C   UNL A   1      38.068  31.861  29.386  1.00  0.00     0.074 A 
ATOM     43  C   UNL A   1      37.150  30.902  28.818  1.00  0.00     0.031 C 
ATOM     44  C   UNL A   1      42.769  30.209  31.117  1.00  0.00     0.029 A 
ATOM     45  C   UNL A   1      43.440  29.389  30.124  1.00  0.00     0.049 A 
ATOM     46  H   UNL A   1      42.623  27.531  29.415  1.00  0.00     0.167 HD
ATOM     47  C   UNL A   1      37.953  33.075  29.999  1.00  0.00     0.037 A 
ATOM     48  C   UNL A   1      44.369  29.858  29.239  1.00  0.00     0.037 A 
ATOM     49  C   UNL A   1      39.263  33.576  30.410  1.00  0.00     0.049 A 
ATOM     50  C   UNL A   1      44.304  31.352  29.016  1.00  0.00     0.074 A 
ATOM     51  C   UNL A   1      39.953  33.526  31.612  1.00  0.00     0.029 A 
ATOM     52  N   UNL A   1      40.189  33.950  29.442  1.00  0.00    -0.354 N 
ATOM     53  N   UNL A   1      43.273  32.091  29.319  1.00  0.00    -0.248 NA
ATOM     54  C   UNL A   1      45.395  32.133  28.437  1.00  0.00     0.031 C 
ATOM     55  C   UNL A   1      41.319  33.792  31.347  1.00  0.00     0.029 A 
ATOM     56  C   UNL A   1      41.455  34.033  29.990  1.00  0.00     0.049 A 
ATOM     57  H   UNL A   1      39.974  34.129  28.498  1.00  0.00     0.167 HD
ATOM     58  C   UNL A   1      43.525  33.397  28.983  1.00  0.00     0.074 A 
ATOM     59  C   UNL A   1      44.876  33.374  28.453  1.00  0.00     0.031 C 
ATOM     60  C   UNL A   1      42.602  34.388  29.166  1.00  0.00     0.037 A 
BRANCH  47  61
ATOM     61  C   UNL A   1      36.632  33.640  30.490  1.00  0.00     0.058 A 
ATOM     62  C   UNL A   1      35.636  34.048  29.575  1.00  0.00     0.135 A 
ATOM     63  C   UNL A   1      36.313  33.882  31.841  1.00  0.00     0.135 A 
ATOM     64  F   UNL A   1      35.740  33.788  28.264  1.00  0.00    -0.206 F 
ATOM     65  C   UNL A   1      34.492  34.755  29.954  1.00  0.00     0.059 A 
ATOM     66  C   UNL A   1      35.207  34.640  32.243  1.00  0.00     0.059 A 
ATOM     67  F   UNL A   1      37.034  33.344  32.833  1.00  0.00    -0.206 F 
ATOM     68  C   UNL A   1      34.306  35.086  31.289  1.00  0.00     0.060 A 
BRANCH  68  69
ATOM     69  S   UNL A   1      32.879  36.087  31.751  1.00  0.00     0.124 S 
ATOM     70  O   UNL A   1      33.428  36.941  32.801  1.00  0.00    -0.237 OA
ATOM     71  O   UNL A   1      32.555  36.752  30.494  1.00  0.00    -0.237 OA
ATOM     72  O   UNL A   1      31.904  35.099  32.206  1.00  0.00    -0.744 OA
ENDBRANCH  68  69
ENDBRANCH  47  61
BRANCH  48  73
ATOM     73  C   UNL A   1      44.785  28.836  28.238  1.00  0.00     0.058 A 
ATOM     74  C   UNL A   1      44.253  28.953  26.939  1.00  0.00     0.135 A 
ATOM     75  C   UNL A   1      45.974  28.109  28.387  1.00  0.00     0.135 A 
ATOM     76  F   UNL A   1      43.105  29.622  26.741  1.00  0.00    -0.206 F 
ATOM     77  C   UNL A   1      44.960  28.533  25.817  1.00  0.00     0.059 A 
ATOM     78  C   UNL A   1      46.695  27.667  27.274  1.00  0.00     0.059 A 
ATOM     79  F   UNL A   1      46.522  27.953  29.601  1.00  0.00    -0.206 F 
ATOM     80  C   UNL A   1      46.215  27.958  25.995  1.00  0.00     0.060 A 
BRANCH  80  81
ATOM     81  S   UNL A   1      47.270  27.784  24.535  1.00  0.00     0.124 S 
ATOM     82  O   UNL A   1      48.574  28.184  25.051  1.00  0.00    -0.237 OA
ATOM     83  O   UNL A   1      47.128  26.359  24.230  1.00  0.00    -0.237 OA
ATOM     84  O   UNL A   1      46.664  28.694  23.571  1.00  0.00    -0.744 OA
ENDBRANCH  80  81
ENDBRANCH  48  73
BRANCH  60  85
ATOM     85  C   UNL A   1      42.718  35.806  28.663  1.00  0.00     0.058 A 
ATOM     86  C   UNL A   1      42.299  36.222  27.389  1.00  0.00     0.135 A 
ATOM     87  C   UNL A   1      43.130  36.841  29.540  1.00  0.00     0.135 A 
ATOM     88  F   UNL A   1      41.792  35.351  26.504  1.00  0.00    -0.206 F 
ATOM     89  C   UNL A   1      42.335  37.560  26.988  1.00  0.00     0.059 A 
ATOM     90  C   UNL A   1      43.123  38.186  29.180  1.00  0.00     0.059 A 
ATOM     91  F   UNL A   1      43.542  36.577  30.788  1.00  0.00    -0.206 F 
ATOM     92  C   UNL A   1      42.744  38.536  27.892  1.00  0.00     0.060 A 
BRANCH  92  93
ATOM     93  S   UNL A   1      42.721  40.276  27.417  1.00  0.00     0.124 S 
ATOM     94  O   UNL A   1      43.635  40.857  28.395  1.00  0.00    -0.237 OA
ATOM     95  O   UNL A   1      43.208  40.245  26.040  1.00  0.00    -0.237 OA
ATOM     96  O   UNL A   1      41.316  40.639  27.567  1.00  0.00    -0.744 OA
ENDBRANCH  92  93
ENDBRANCH  60  85
ENDBRANCH  34  35
ENDBRANCH  26  29
ENDBRANCH  24  25
ENDBRANCH   1  24
TORSDOF 15
ENDMDL
