MODEL 1
REMARK VINA RESULT:     -12.1      0.000      0.000
REMARK SMILES NC(=O)C[C@H](NC(=O)C1(c2ccccc2)CCN(C(=O)[C@@H]2CCC[NH2+]2)CC1)C(=O)NCCCNC(=O)c1ccc(-c2c3nc(c(-c4c(F)cc(S(=O)(=O)[O-])cc4F)c4ccc([nH]4)c(-c4c(F)cc(S(=O)(=O)[O-])cc4F)c4nc(c(-c5c(F)cc(S(=O)(=O)[O-])cc5F)c5ccc2[nH]5)C=C4)C=C3)cc1
REMARK SMILES IDX 32 1 31 2 30 3 28 4 29 5 5 7 4 8 2 9 1 10 3 13 6 14 7 15
REMARK SMILES IDX 8 17 9 18 16 19 27 20 17 21 26 22 18 23 19 24 20 25 10 26
REMARK SMILES IDX 11 27 15 28 12 29 14 30 13 31 21 32 22 33 25 34 23 35 24 36
REMARK SMILES IDX 33 39 34 40 35 41 36 43 37 44 38 45 102 46 39 47 101 48
REMARK SMILES IDX 40 49 41 50 42 51 95 52 43 53 100 54 94 55 96 56 44 57 99 58
REMARK SMILES IDX 93 59 92 60 45 62 79 63 58 64 78 65 59 66 62 67 77 68 97 69
REMARK SMILES IDX 60 70 61 71 76 73 98 74 63 75 46 76 47 77 56 78 48 79 49 80
REMARK SMILES IDX 55 81 57 82 50 83 51 84 52 85 53 86 54 87 80 88 81 89 90 90
REMARK SMILES IDX 82 91 83 92 89 93 91 94 84 95 85 96 86 97 87 98 88 99 64 100
REMARK SMILES IDX 65 101 74 102 66 103 67 104 73 105 75 106 68 107 69 108
REMARK SMILES IDX 70 109 71 110 72 111
REMARK H PARENT 30 6 1 11 1 12 6 16 25 37 25 38 34 42 96 61 62 72
REMARK Flexibility Score: inf
ROOT
ATOM      1  C   UNL A   1      32.314  27.725  26.402  1.00  0.00     0.042 C 
ENDROOT
BRANCH   1   2
ATOM      2  C   UNL A   1      32.177  27.983  24.907  1.00  0.00     0.117 C 
BRANCH   2   3
ATOM      3  N   UNL A   1      31.057  27.281  24.323  1.00  0.00    -0.354 N 
ATOM      4  C   UNL A   1      30.996  25.993  23.884  1.00  0.00     0.243 C 
ATOM      5  O   UNL A   1      29.881  25.531  23.619  1.00  0.00    -0.273 OA
ATOM      6  H   UNL A   1      30.227  27.803  24.230  1.00  0.00     0.163 HD
BRANCH   4   7
ATOM      7  C   UNL A   1      32.240  25.059  23.887  1.00  0.00     0.180 C 
BRANCH   7   8
ATOM      8  C   UNL A   1      32.448  24.600  22.447  1.00  0.00     0.134 C 
BRANCH   8   9
ATOM      9  C   UNL A   1      32.839  25.641  21.415  1.00  0.00     0.220 C 
ATOM     10  N   UNL A   1      32.164  25.708  20.242  1.00  0.00    -0.370 N 
ATOM     11  H   UNL A   1      32.412  26.381  19.568  1.00  0.00     0.159 HD
ATOM     12  H   UNL A   1      31.425  25.083  20.063  1.00  0.00     0.159 HD
ATOM     13  O   UNL A   1      33.779  26.413  21.603  1.00  0.00    -0.275 OA
ENDBRANCH   8   9
ENDBRANCH   7   8
BRANCH   7  14
ATOM     14  N   UNL A   1      32.251  24.159  25.072  1.00  0.00    -0.343 N 
ATOM     15  C   UNL A   1      32.708  23.009  25.618  1.00  0.00     0.231 C 
ATOM     16  H   UNL A   1      31.679  24.584  25.752  1.00  0.00     0.164 HD
ATOM     17  O   UNL A   1      32.116  22.733  26.674  1.00  0.00    -0.274 OA
BRANCH  15  18
ATOM     18  C   UNL A   1      33.843  22.063  25.116  1.00  0.00     0.077 C 
ATOM     19  C   UNL A   1      33.506  21.592  23.647  1.00  0.00     0.043 C 
ATOM     20  C   UNL A   1      33.881  20.789  25.966  1.00  0.00     0.043 C 
ATOM     21  C   UNL A   1      32.325  20.608  23.551  1.00  0.00     0.121 C 
ATOM     22  C   UNL A   1      32.597  19.984  25.878  1.00  0.00     0.121 C 
ATOM     23  N   UNL A   1      32.475  19.516  24.516  1.00  0.00    -0.337 N 
ATOM     24  C   UNL A   1      32.692  18.220  24.062  1.00  0.00     0.280 C 
ATOM     25  O   UNL A   1      32.703  17.968  22.851  1.00  0.00    -0.268 OA
BRANCH  18  26
ATOM     26  C   UNL A   1      35.199  22.810  25.093  1.00  0.00    -0.032 A 
ATOM     27  C   UNL A   1      36.015  22.864  23.948  1.00  0.00     0.005 A 
ATOM     28  C   UNL A   1      35.692  23.430  26.256  1.00  0.00     0.005 A 
ATOM     29  C   UNL A   1      37.305  23.402  23.993  1.00  0.00     0.000 A 
ATOM     30  C   UNL A   1      36.970  23.999  26.292  1.00  0.00     0.000 A 
ATOM     31  C   UNL A   1      37.789  23.957  25.170  1.00  0.00     0.000 A 
ENDBRANCH  18  26
BRANCH  24  32
ATOM     32  C   UNL A   1      32.900  17.048  25.053  1.00  0.00     0.272 C 
ATOM     33  C   UNL A   1      33.989  16.054  24.694  1.00  0.00     0.081 C 
ATOM     34  N   UNL A   1      31.674  16.263  25.323  1.00  0.00    -0.336 N 
ATOM     35  C   UNL A   1      33.596  14.810  25.467  1.00  0.00     0.068 C 
ATOM     36  C   UNL A   1      32.088  14.896  25.646  1.00  0.00     0.261 C 
ATOM     37  H   UNL A   1      31.074  16.259  24.498  1.00  0.00     0.346 HD
ATOM     38  H   UNL A   1      31.151  16.670  26.097  1.00  0.00     0.346 HD
ENDBRANCH  24  32
ENDBRANCH  15  18
ENDBRANCH   7  14
ENDBRANCH   4   7
ENDBRANCH   2   3
ENDBRANCH   1   2
BRANCH   1  39
ATOM     39  C   UNL A   1      33.621  28.250  26.977  1.00  0.00     0.118 C 
BRANCH  39  40
ATOM     40  N   UNL A   1      33.537  29.649  27.390  1.00  0.00    -0.352 N 
ATOM     41  C   UNL A   1      34.444  30.458  28.024  1.00  0.00     0.251 C 
ATOM     42  H   UNL A   1      32.680  30.086  27.176  1.00  0.00     0.163 HD
ATOM     43  O   UNL A   1      34.074  31.567  28.419  1.00  0.00    -0.269 OA
BRANCH  41  44
ATOM     44  C   UNL A   1      35.830  30.011  28.265  1.00  0.00     0.039 A 
ATOM     45  C   UNL A   1      36.762  30.100  27.225  1.00  0.00     0.014 A 
ATOM     46  C   UNL A   1      36.218  29.488  29.499  1.00  0.00     0.014 A 
ATOM     47  C   UNL A   1      38.088  29.720  27.445  1.00  0.00     0.010 A 
ATOM     48  C   UNL A   1      37.558  29.217  29.748  1.00  0.00     0.010 A 
ATOM     49  C   UNL A   1      38.505  29.309  28.721  1.00  0.00    -0.014 A 
BRANCH  49  50
ATOM     50  C   UNL A   1      39.916  28.943  29.000  1.00  0.00     0.031 A 
ATOM     51  C   UNL A   1      40.839  29.943  29.647  1.00  0.00     0.074 A 
ATOM     52  C   UNL A   1      40.384  27.741  28.611  1.00  0.00     0.049 A 
ATOM     53  N   UNL A   1      42.116  29.842  29.911  1.00  0.00    -0.248 NA
ATOM     54  C   UNL A   1      40.254  31.244  30.010  1.00  0.00     0.031 C 
ATOM     55  C   UNL A   1      39.601  26.708  27.929  1.00  0.00     0.029 A 
ATOM     56  N   UNL A   1      41.631  27.185  28.733  1.00  0.00    -0.354 N 
ATOM     57  C   UNL A   1      42.489  31.069  30.450  1.00  0.00     0.074 A 
ATOM     58  C   UNL A   1      41.322  31.921  30.403  1.00  0.00     0.031 C 
ATOM     59  C   UNL A   1      40.372  25.627  27.737  1.00  0.00     0.029 A 
ATOM     60  C   UNL A   1      41.712  25.903  28.243  1.00  0.00     0.049 A 
ATOM     61  H   UNL A   1      42.395  27.659  29.134  1.00  0.00     0.167 HD
ATOM     62  C   UNL A   1      43.684  31.443  30.968  1.00  0.00     0.037 A 
ATOM     63  C   UNL A   1      42.750  25.046  28.215  1.00  0.00     0.037 A 
ATOM     64  C   UNL A   1      44.834  30.579  31.030  1.00  0.00     0.049 A 
ATOM     65  C   UNL A   1      44.069  25.479  28.793  1.00  0.00     0.074 A 
ATOM     66  C   UNL A   1      46.081  30.836  31.573  1.00  0.00     0.029 A 
ATOM     67  N   UNL A   1      44.876  29.284  30.529  1.00  0.00    -0.354 N 
ATOM     68  N   UNL A   1      44.393  26.626  29.345  1.00  0.00    -0.248 NA
ATOM     69  C   UNL A   1      45.161  24.499  28.751  1.00  0.00     0.031 C 
ATOM     70  C   UNL A   1      46.889  29.712  31.363  1.00  0.00     0.029 A 
ATOM     71  C   UNL A   1      46.131  28.735  30.736  1.00  0.00     0.049 A 
ATOM     72  H   UNL A   1      44.125  28.824  30.091  1.00  0.00     0.167 HD
ATOM     73  C   UNL A   1      45.718  26.493  29.745  1.00  0.00     0.074 A 
ATOM     74  C   UNL A   1      46.128  25.151  29.382  1.00  0.00     0.031 C 
ATOM     75  C   UNL A   1      46.522  27.397  30.361  1.00  0.00     0.037 A 
BRANCH  62  76
ATOM     76  C   UNL A   1      43.791  32.848  31.503  1.00  0.00     0.058 A 
ATOM     77  C   UNL A   1      44.226  33.916  30.697  1.00  0.00     0.135 A 
ATOM     78  C   UNL A   1      43.483  33.131  32.843  1.00  0.00     0.135 A 
ATOM     79  F   UNL A   1      44.548  33.704  29.411  1.00  0.00    -0.206 F 
ATOM     80  C   UNL A   1      44.411  35.194  31.215  1.00  0.00     0.059 A 
ATOM     81  C   UNL A   1      43.627  34.411  33.374  1.00  0.00     0.059 A 
ATOM     82  F   UNL A   1      43.059  32.155  33.661  1.00  0.00    -0.206 F 
ATOM     83  C   UNL A   1      44.119  35.429  32.557  1.00  0.00     0.060 A 
BRANCH  83  84
ATOM     84  S   UNL A   1      44.409  37.080  33.227  1.00  0.00     0.124 S 
ATOM     85  O   UNL A   1      45.386  36.799  34.277  1.00  0.00    -0.237 OA
ATOM     86  O   UNL A   1      44.919  37.804  32.067  1.00  0.00    -0.237 OA
ATOM     87  O   UNL A   1      43.090  37.494  33.693  1.00  0.00    -0.744 OA
ENDBRANCH  83  84
ENDBRANCH  62  76
BRANCH  63  88
ATOM     88  C   UNL A   1      42.559  23.671  27.682  1.00  0.00     0.058 A 
ATOM     89  C   UNL A   1      42.579  23.435  26.299  1.00  0.00     0.135 A 
ATOM     90  C   UNL A   1      42.391  22.567  28.531  1.00  0.00     0.135 A 
ATOM     91  F   UNL A   1      42.731  24.461  25.447  1.00  0.00    -0.206 F 
ATOM     92  C   UNL A   1      42.430  22.157  25.774  1.00  0.00     0.059 A 
ATOM     93  C   UNL A   1      42.266  21.273  28.031  1.00  0.00     0.059 A 
ATOM     94  F   UNL A   1      42.382  22.736  29.862  1.00  0.00    -0.206 F 
ATOM     95  C   UNL A   1      42.280  21.080  26.649  1.00  0.00     0.060 A 
BRANCH  95  96
ATOM     96  S   UNL A   1      42.154  19.418  25.956  1.00  0.00     0.124 S 
ATOM     97  O   UNL A   1      42.662  18.601  27.053  1.00  0.00    -0.237 OA
ATOM     98  O   UNL A   1      40.724  19.308  25.686  1.00  0.00    -0.237 OA
ATOM     99  O   UNL A   1      43.005  19.482  24.771  1.00  0.00    -0.744 OA
ENDBRANCH  95  96
ENDBRANCH  63  88
BRANCH  75 100
ATOM    100  C   UNL A   1      47.914  26.944  30.709  1.00  0.00     0.058 A 
ATOM    101  C   UNL A   1      48.225  26.409  31.968  1.00  0.00     0.135 A 
ATOM    102  C   UNL A   1      48.949  27.044  29.766  1.00  0.00     0.135 A 
ATOM    103  F   UNL A   1      47.275  26.295  32.909  1.00  0.00    -0.206 F 
ATOM    104  C   UNL A   1      49.524  26.030  32.295  1.00  0.00     0.059 A 
ATOM    105  C   UNL A   1      50.247  26.642  30.059  1.00  0.00     0.059 A 
ATOM    106  F   UNL A   1      48.703  27.536  28.540  1.00  0.00    -0.206 F 
ATOM    107  C   UNL A   1      50.529  26.156  31.335  1.00  0.00     0.060 A 
BRANCH 107 108
ATOM    108  S   UNL A   1      52.211  25.666  31.771  1.00  0.00     0.124 S 
ATOM    109  O   UNL A   1      52.941  26.014  30.558  1.00  0.00    -0.237 OA
ATOM    110  O   UNL A   1      52.486  26.500  32.938  1.00  0.00    -0.237 OA
ATOM    111  O   UNL A   1      52.088  24.238  32.045  1.00  0.00    -0.744 OA
ENDBRANCH 107 108
ENDBRANCH  75 100
ENDBRANCH  49  50
ENDBRANCH  41  44
ENDBRANCH  39  40
ENDBRANCH   1  39
TORSDOF 19
ENDMDL
MODEL 2
REMARK VINA RESULT:     -11.8      4.549     10.687
REMARK SMILES NC(=O)C[C@H](NC(=O)C1(c2ccccc2)CCN(C(=O)[C@@H]2CCC[NH2+]2)CC1)C(=O)NCCCNC(=O)c1ccc(-c2c3nc(c(-c4c(F)cc(S(=O)(=O)[O-])cc4F)c4ccc([nH]4)c(-c4c(F)cc(S(=O)(=O)[O-])cc4F)c4nc(c(-c5c(F)cc(S(=O)(=O)[O-])cc5F)c5ccc2[nH]5)C=C4)C=C3)cc1
REMARK SMILES IDX 32 1 31 2 30 3 28 4 29 5 5 7 4 8 2 9 1 10 3 13 6 14 7 15
REMARK SMILES IDX 8 17 9 18 16 19 27 20 17 21 26 22 18 23 19 24 20 25 10 26
REMARK SMILES IDX 11 27 15 28 12 29 14 30 13 31 21 32 22 33 25 34 23 35 24 36
REMARK SMILES IDX 33 39 34 40 35 41 36 43 37 44 38 45 102 46 39 47 101 48
REMARK SMILES IDX 40 49 41 50 42 51 95 52 43 53 100 54 94 55 96 56 44 57 99 58
REMARK SMILES IDX 93 59 92 60 45 62 79 63 58 64 78 65 59 66 62 67 77 68 97 69
REMARK SMILES IDX 60 70 61 71 76 73 98 74 63 75 46 76 47 77 56 78 48 79 49 80
REMARK SMILES IDX 55 81 57 82 50 83 51 84 52 85 53 86 54 87 80 88 81 89 90 90
REMARK SMILES IDX 82 91 83 92 89 93 91 94 84 95 85 96 86 97 87 98 88 99 64 100
REMARK SMILES IDX 65 101 74 102 66 103 67 104 73 105 75 106 68 107 69 108
REMARK SMILES IDX 70 109 71 110 72 111
REMARK H PARENT 30 6 1 11 1 12 6 16 25 37 25 38 34 42 96 61 62 72
REMARK Flexibility Score: inf
ROOT
ATOM      1  C   UNL A   1      39.066  22.697  26.502  1.00  0.00     0.042 C 
ENDROOT
BRANCH   1   2
ATOM      2  C   UNL A   1      37.915  23.541  25.970  1.00  0.00     0.117 C 
BRANCH   2   3
ATOM      3  N   UNL A   1      37.605  23.248  24.589  1.00  0.00    -0.354 N 
ATOM      4  C   UNL A   1      36.392  23.259  23.970  1.00  0.00     0.243 C 
ATOM      5  O   UNL A   1      36.380  23.187  22.736  1.00  0.00    -0.273 OA
ATOM      6  H   UNL A   1      38.372  23.008  24.022  1.00  0.00     0.163 HD
BRANCH   4   7
ATOM      7  C   UNL A   1      35.072  23.541  24.742  1.00  0.00     0.180 C 
BRANCH   7   8
ATOM      8  C   UNL A   1      34.796  22.312  25.603  1.00  0.00     0.134 C 
BRANCH   8   9
ATOM      9  C   UNL A   1      34.562  20.987  24.902  1.00  0.00     0.220 C 
ATOM     10  N   UNL A   1      35.353  19.925  25.194  1.00  0.00    -0.370 N 
ATOM     11  H   UNL A   1      35.206  19.063  24.744  1.00  0.00     0.159 HD
ATOM     12  H   UNL A   1      36.074  20.017  25.858  1.00  0.00     0.159 HD
ATOM     13  O   UNL A   1      33.686  20.856  24.047  1.00  0.00    -0.275 OA
ENDBRANCH   8   9
ENDBRANCH   7   8
BRANCH   7  14
ATOM     14  N   UNL A   1      34.062  24.214  23.881  1.00  0.00    -0.343 N 
ATOM     15  C   UNL A   1      32.884  24.877  23.821  1.00  0.00     0.231 C 
ATOM     16  H   UNL A   1      34.394  24.150  22.956  1.00  0.00     0.164 HD
ATOM     17  O   UNL A   1      32.482  24.997  22.652  1.00  0.00    -0.274 OA
BRANCH  15  18
ATOM     18  C   UNL A   1      32.040  25.492  24.980  1.00  0.00     0.077 C 
ATOM     19  C   UNL A   1      31.158  26.669  24.405  1.00  0.00     0.043 C 
ATOM     20  C   UNL A   1      32.963  26.131  26.022  1.00  0.00     0.043 C 
ATOM     21  C   UNL A   1      31.957  27.925  24.009  1.00  0.00     0.121 C 
ATOM     22  C   UNL A   1      33.788  27.272  25.458  1.00  0.00     0.121 C 
ATOM     23  N   UNL A   1      32.870  28.323  25.083  1.00  0.00    -0.337 N 
ATOM     24  C   UNL A   1      32.657  29.518  25.762  1.00  0.00     0.280 C 
ATOM     25  O   UNL A   1      31.738  30.277  25.431  1.00  0.00    -0.268 OA
BRANCH  18  26
ATOM     26  C   UNL A   1      31.098  24.424  25.587  1.00  0.00    -0.032 A 
ATOM     27  C   UNL A   1      29.972  24.760  26.363  1.00  0.00     0.005 A 
ATOM     28  C   UNL A   1      31.369  23.053  25.421  1.00  0.00     0.005 A 
ATOM     29  C   UNL A   1      29.229  23.784  27.035  1.00  0.00     0.000 A 
ATOM     30  C   UNL A   1      30.605  22.075  26.066  1.00  0.00     0.000 A 
ATOM     31  C   UNL A   1      29.554  22.441  26.898  1.00  0.00     0.000 A 
ENDBRANCH  18  26
BRANCH  24  32
ATOM     32  C   UNL A   1      33.574  29.951  26.932  1.00  0.00     0.272 C 
ATOM     33  C   UNL A   1      33.340  31.342  27.486  1.00  0.00     0.081 C 
ATOM     34  N   UNL A   1      35.021  29.844  26.634  1.00  0.00    -0.336 N 
ATOM     35  C   UNL A   1      34.656  31.677  28.162  1.00  0.00     0.068 C 
ATOM     36  C   UNL A   1      35.711  30.858  27.435  1.00  0.00     0.261 C 
ATOM     37  H   UNL A   1      35.186  30.014  25.642  1.00  0.00     0.346 HD
ATOM     38  H   UNL A   1      35.366  28.913  26.862  1.00  0.00     0.346 HD
ENDBRANCH  24  32
ENDBRANCH  15  18
ENDBRANCH   7  14
ENDBRANCH   4   7
ENDBRANCH   2   3
ENDBRANCH   1   2
BRANCH   1  39
ATOM     39  C   UNL A   1      40.178  23.532  27.120  1.00  0.00     0.118 C 
BRANCH  39  40
ATOM     40  N   UNL A   1      40.961  24.259  26.123  1.00  0.00    -0.352 N 
ATOM     41  C   UNL A   1      41.342  25.574  26.060  1.00  0.00     0.251 C 
ATOM     42  H   UNL A   1      41.268  23.708  25.366  1.00  0.00     0.163 HD
ATOM     43  O   UNL A   1      41.865  25.991  25.022  1.00  0.00    -0.269 OA
BRANCH  41  44
ATOM     44  C   UNL A   1      41.109  26.493  27.191  1.00  0.00     0.039 A 
ATOM     45  C   UNL A   1      40.209  26.119  28.195  1.00  0.00     0.014 A 
ATOM     46  C   UNL A   1      41.752  27.729  27.264  1.00  0.00     0.014 A 
ATOM     47  C   UNL A   1      40.006  26.957  29.294  1.00  0.00     0.010 A 
ATOM     48  C   UNL A   1      41.633  28.509  28.408  1.00  0.00     0.010 A 
ATOM     49  C   UNL A   1      40.744  28.144  29.427  1.00  0.00    -0.014 A 
BRANCH  49  50
ATOM     50  C   UNL A   1      40.585  29.033  30.604  1.00  0.00     0.031 A 
ATOM     51  C   UNL A   1      41.488  28.869  31.799  1.00  0.00     0.074 A 
ATOM     52  C   UNL A   1      39.589  29.941  30.626  1.00  0.00     0.049 A 
ATOM     53  N   UNL A   1      41.467  29.497  32.947  1.00  0.00    -0.248 NA
ATOM     54  C   UNL A   1      42.528  27.832  31.704  1.00  0.00     0.031 C 
ATOM     55  C   UNL A   1      38.618  30.159  29.552  1.00  0.00     0.029 A 
ATOM     56  N   UNL A   1      39.228  30.848  31.588  1.00  0.00    -0.354 N 
ATOM     57  C   UNL A   1      42.474  28.919  33.713  1.00  0.00     0.074 A 
ATOM     58  C   UNL A   1      43.032  27.841  32.928  1.00  0.00     0.031 C 
ATOM     59  C   UNL A   1      37.804  31.169  29.893  1.00  0.00     0.029 A 
ATOM     60  C   UNL A   1      38.166  31.642  31.225  1.00  0.00     0.049 A 
ATOM     61  H   UNL A   1      39.686  30.924  32.456  1.00  0.00     0.167 HD
ATOM     62  C   UNL A   1      42.917  29.273  34.944  1.00  0.00     0.037 A 
ATOM     63  C   UNL A   1      37.560  32.644  31.889  1.00  0.00     0.037 A 
ATOM     64  C   UNL A   1      42.367  30.363  35.707  1.00  0.00     0.049 A 
ATOM     65  C   UNL A   1      38.065  33.022  33.255  1.00  0.00     0.074 A 
ATOM     66  C   UNL A   1      42.766  30.841  36.943  1.00  0.00     0.029 A 
ATOM     67  N   UNL A   1      41.296  31.149  35.303  1.00  0.00    -0.354 N 
ATOM     68  N   UNL A   1      39.050  32.498  33.946  1.00  0.00    -0.248 NA
ATOM     69  C   UNL A   1      37.379  34.132  33.926  1.00  0.00     0.031 C 
ATOM     70  C   UNL A   1      41.909  31.887  37.305  1.00  0.00     0.029 A 
ATOM     71  C   UNL A   1      41.009  32.097  36.271  1.00  0.00     0.049 A 
ATOM     72  H   UNL A   1      40.811  31.047  34.453  1.00  0.00     0.167 HD
ATOM     73  C   UNL A   1      39.123  33.237  35.122  1.00  0.00     0.074 A 
ATOM     74  C   UNL A   1      38.090  34.250  35.039  1.00  0.00     0.031 C 
ATOM     75  C   UNL A   1      39.970  33.095  36.173  1.00  0.00     0.037 A 
BRANCH  62  76
ATOM     76  C   UNL A   1      44.048  28.465  35.525  1.00  0.00     0.058 A 
ATOM     77  C   UNL A   1      45.392  28.756  35.232  1.00  0.00     0.135 A 
ATOM     78  C   UNL A   1      43.790  27.369  36.364  1.00  0.00     0.135 A 
ATOM     79  F   UNL A   1      45.701  29.784  34.425  1.00  0.00    -0.206 F 
ATOM     80  C   UNL A   1      46.431  27.954  35.696  1.00  0.00     0.059 A 
ATOM     81  C   UNL A   1      44.816  26.574  36.869  1.00  0.00     0.059 A 
ATOM     82  F   UNL A   1      42.527  27.044  36.685  1.00  0.00    -0.206 F 
ATOM     83  C   UNL A   1      46.132  26.859  36.505  1.00  0.00     0.060 A 
BRANCH  83  84
ATOM     84  S   UNL A   1      47.485  25.801  37.061  1.00  0.00     0.124 S 
ATOM     85  O   UNL A   1      48.175  25.530  35.803  1.00  0.00    -0.237 OA
ATOM     86  O   UNL A   1      48.195  26.667  37.997  1.00  0.00    -0.237 OA
ATOM     87  O   UNL A   1      46.801  24.661  37.660  1.00  0.00    -0.744 OA
ENDBRANCH  83  84
ENDBRANCH  62  76
BRANCH  63  88
ATOM     88  C   UNL A   1      36.458  33.402  31.240  1.00  0.00     0.058 A 
ATOM     89  C   UNL A   1      36.718  34.232  30.139  1.00  0.00     0.135 A 
ATOM     90  C   UNL A   1      35.129  33.290  31.674  1.00  0.00     0.135 A 
ATOM     91  F   UNL A   1      37.976  34.376  29.691  1.00  0.00    -0.206 F 
ATOM     92  C   UNL A   1      35.704  34.930  29.496  1.00  0.00     0.059 A 
ATOM     93  C   UNL A   1      34.091  33.959  31.031  1.00  0.00     0.059 A 
ATOM     94  F   UNL A   1      34.824  32.496  32.713  1.00  0.00    -0.206 F 
ATOM     95  C   UNL A   1      34.391  34.783  29.946  1.00  0.00     0.060 A 
BRANCH  95  96
ATOM     96  S   UNL A   1      33.075  35.645  29.059  1.00  0.00     0.124 S 
ATOM     97  O   UNL A   1      32.496  34.565  28.268  1.00  0.00    -0.237 OA
ATOM     98  O   UNL A   1      32.250  36.148  30.153  1.00  0.00    -0.237 OA
ATOM     99  O   UNL A   1      33.792  36.667  28.304  1.00  0.00    -0.744 OA
ENDBRANCH  95  96
ENDBRANCH  63  88
BRANCH  75 100
ATOM    100  C   UNL A   1      39.832  34.083  37.299  1.00  0.00     0.058 A 
ATOM    101  C   UNL A   1      38.990  33.843  38.396  1.00  0.00     0.135 A 
ATOM    102  C   UNL A   1      40.557  35.285  37.280  1.00  0.00     0.135 A 
ATOM    103  F   UNL A   1      38.270  32.712  38.461  1.00  0.00    -0.206 F 
ATOM    104  C   UNL A   1      38.838  34.780  39.413  1.00  0.00     0.059 A 
ATOM    105  C   UNL A   1      40.446  36.222  38.302  1.00  0.00     0.059 A 
ATOM    106  F   UNL A   1      41.389  35.558  36.262  1.00  0.00    -0.206 F 
ATOM    107  C   UNL A   1      39.566  35.970  39.354  1.00  0.00     0.060 A 
BRANCH 107 108
ATOM    108  S   UNL A   1      39.356  37.181  40.676  1.00  0.00     0.124 S 
ATOM    109  O   UNL A   1      38.958  36.331  41.791  1.00  0.00    -0.237 OA
ATOM    110  O   UNL A   1      40.688  37.771  40.772  1.00  0.00    -0.237 OA
ATOM    111  O   UNL A   1      38.320  38.070  40.160  1.00  0.00    -0.744 OA
ENDBRANCH 107 108
ENDBRANCH  75 100
ENDBRANCH  49  50
ENDBRANCH  41  44
ENDBRANCH  39  40
ENDBRANCH   1  39
TORSDOF 19
ENDMDL
MODEL 3
REMARK VINA RESULT:     -11.5      2.533      3.186
REMARK SMILES NC(=O)C[C@H](NC(=O)C1(c2ccccc2)CCN(C(=O)[C@@H]2CCC[NH2+]2)CC1)C(=O)NCCCNC(=O)c1ccc(-c2c3nc(c(-c4c(F)cc(S(=O)(=O)[O-])cc4F)c4ccc([nH]4)c(-c4c(F)cc(S(=O)(=O)[O-])cc4F)c4nc(c(-c5c(F)cc(S(=O)(=O)[O-])cc5F)c5ccc2[nH]5)C=C4)C=C3)cc1
REMARK SMILES IDX 32 1 31 2 30 3 28 4 29 5 5 7 4 8 2 9 1 10 3 13 6 14 7 15
REMARK SMILES IDX 8 17 9 18 16 19 27 20 17 21 26 22 18 23 19 24 20 25 10 26
REMARK SMILES IDX 11 27 15 28 12 29 14 30 13 31 21 32 22 33 25 34 23 35 24 36
REMARK SMILES IDX 33 39 34 40 35 41 36 43 37 44 38 45 102 46 39 47 101 48
REMARK SMILES IDX 40 49 41 50 42 51 95 52 43 53 100 54 94 55 96 56 44 57 99 58
REMARK SMILES IDX 93 59 92 60 45 62 79 63 58 64 78 65 59 66 62 67 77 68 97 69
REMARK SMILES IDX 60 70 61 71 76 73 98 74 63 75 46 76 47 77 56 78 48 79 49 80
REMARK SMILES IDX 55 81 57 82 50 83 51 84 52 85 53 86 54 87 80 88 81 89 90 90
REMARK SMILES IDX 82 91 83 92 89 93 91 94 84 95 85 96 86 97 87 98 88 99 64 100
REMARK SMILES IDX 65 101 74 102 66 103 67 104 73 105 75 106 68 107 69 108
REMARK SMILES IDX 70 109 71 110 72 111
REMARK H PARENT 30 6 1 11 1 12 6 16 25 37 25 38 34 42 96 61 62 72
REMARK Flexibility Score: inf
ROOT
ATOM      1  C   UNL A   1      33.636  29.066  27.037  1.00  0.00     0.042 C 
ENDROOT
BRANCH   1   2
ATOM      2  C   UNL A   1      33.535  28.082  25.879  1.00  0.00     0.117 C 
BRANCH   2   3
ATOM      3  N   UNL A   1      32.183  27.618  25.663  1.00  0.00    -0.354 N 
ATOM      4  C   UNL A   1      31.762  26.401  25.222  1.00  0.00     0.243 C 
ATOM      5  O   UNL A   1      30.556  26.144  25.314  1.00  0.00    -0.273 OA
ATOM      6  H   UNL A   1      31.472  28.270  25.861  1.00  0.00     0.163 HD
BRANCH   4   7
ATOM      7  C   UNL A   1      32.759  25.287  24.791  1.00  0.00     0.180 C 
BRANCH   7   8
ATOM      8  C   UNL A   1      32.493  25.007  23.315  1.00  0.00     0.134 C 
BRANCH   8   9
ATOM      9  C   UNL A   1      32.801  26.104  22.313  1.00  0.00     0.220 C 
ATOM     10  N   UNL A   1      31.794  26.657  21.594  1.00  0.00    -0.370 N 
ATOM     11  H   UNL A   1      31.986  27.369  20.944  1.00  0.00     0.159 HD
ATOM     12  H   UNL A   1      30.868  26.347  21.724  1.00  0.00     0.159 HD
ATOM     13  O   UNL A   1      33.953  26.488  22.112  1.00  0.00    -0.275 OA
ENDBRANCH   8   9
ENDBRANCH   7   8
BRANCH   7  14
ATOM     14  N   UNL A   1      32.903  24.240  25.838  1.00  0.00    -0.343 N 
ATOM     15  C   UNL A   1      33.351  23.003  26.150  1.00  0.00     0.231 C 
ATOM     16  H   UNL A   1      32.498  24.606  26.658  1.00  0.00     0.164 HD
ATOM     17  O   UNL A   1      32.933  22.627  27.257  1.00  0.00    -0.274 OA
BRANCH  15  18
ATOM     18  C   UNL A   1      34.295  22.063  25.337  1.00  0.00     0.077 C 
ATOM     19  C   UNL A   1      33.893  22.125  23.812  1.00  0.00     0.043 C 
ATOM     20  C   UNL A   1      34.087  20.608  25.767  1.00  0.00     0.043 C 
ATOM     21  C   UNL A   1      32.551  21.445  23.482  1.00  0.00     0.121 C 
ATOM     22  C   UNL A   1      32.677  20.112  25.503  1.00  0.00     0.121 C 
ATOM     23  N   UNL A   1      32.484  20.106  24.070  1.00  0.00    -0.337 N 
ATOM     24  C   UNL A   1      32.462  18.988  23.242  1.00  0.00     0.280 C 
ATOM     25  O   UNL A   1      32.439  19.116  22.011  1.00  0.00    -0.268 OA
BRANCH  18  26
ATOM     26  C   UNL A   1      35.767  22.524  25.476  1.00  0.00    -0.032 A 
ATOM     27  C   UNL A   1      36.854  21.642  25.335  1.00  0.00     0.005 A 
ATOM     28  C   UNL A   1      36.070  23.859  25.802  1.00  0.00     0.005 A 
ATOM     29  C   UNL A   1      38.163  22.041  25.622  1.00  0.00     0.000 A 
ATOM     30  C   UNL A   1      37.383  24.267  26.057  1.00  0.00     0.000 A 
ATOM     31  C   UNL A   1      38.426  23.351  25.998  1.00  0.00     0.000 A 
ENDBRANCH  18  26
BRANCH  24  32
ATOM     32  C   UNL A   1      32.438  17.555  23.828  1.00  0.00     0.272 C 
ATOM     33  C   UNL A   1      32.165  17.446  25.316  1.00  0.00     0.081 C 
ATOM     34  N   UNL A   1      33.665  16.773  23.557  1.00  0.00    -0.336 N 
ATOM     35  C   UNL A   1      32.738  16.090  25.678  1.00  0.00     0.068 C 
ATOM     36  C   UNL A   1      33.830  15.817  24.654  1.00  0.00     0.261 C 
ATOM     37  H   UNL A   1      34.472  17.395  23.513  1.00  0.00     0.346 HD
ATOM     38  H   UNL A   1      33.589  16.284  22.666  1.00  0.00     0.346 HD
ENDBRANCH  24  32
ENDBRANCH  15  18
ENDBRANCH   7  14
ENDBRANCH   4   7
ENDBRANCH   2   3
ENDBRANCH   1   2
BRANCH   1  39
ATOM     39  C   UNL A   1      35.072  29.326  27.470  1.00  0.00     0.118 C 
BRANCH  39  40
ATOM     40  N   UNL A   1      35.159  30.048  28.738  1.00  0.00    -0.352 N 
ATOM     41  C   UNL A   1      36.202  30.209  29.612  1.00  0.00     0.251 C 
ATOM     42  H   UNL A   1      34.326  30.495  29.011  1.00  0.00     0.163 HD
ATOM     43  O   UNL A   1      35.981  30.728  30.710  1.00  0.00    -0.269 OA
BRANCH  41  44
ATOM     44  C   UNL A   1      37.563  29.746  29.275  1.00  0.00     0.039 A 
ATOM     45  C   UNL A   1      37.990  29.808  27.944  1.00  0.00     0.014 A 
ATOM     46  C   UNL A   1      38.417  29.233  30.253  1.00  0.00     0.014 A 
ATOM     47  C   UNL A   1      39.288  29.413  27.611  1.00  0.00     0.010 A 
ATOM     48  C   UNL A   1      39.740  28.946  29.939  1.00  0.00     0.010 A 
ATOM     49  C   UNL A   1      40.186  29.012  28.613  1.00  0.00    -0.014 A 
BRANCH  49  50
ATOM     50  C   UNL A   1      41.585  28.630  28.299  1.00  0.00     0.031 A 
ATOM     51  C   UNL A   1      42.675  29.671  28.329  1.00  0.00     0.074 A 
ATOM     52  C   UNL A   1      41.864  27.367  27.922  1.00  0.00     0.049 A 
ATOM     53  N   UNL A   1      43.941  29.554  28.022  1.00  0.00    -0.248 NA
ATOM     54  C   UNL A   1      42.277  31.033  28.719  1.00  0.00     0.031 C 
ATOM     55  C   UNL A   1      40.887  26.283  27.804  1.00  0.00     0.029 A 
ATOM     56  N   UNL A   1      43.052  26.782  27.566  1.00  0.00    -0.354 N 
ATOM     57  C   UNL A   1      44.483  30.827  28.163  1.00  0.00     0.074 A 
ATOM     58  C   UNL A   1      43.393  31.712  28.507  1.00  0.00     0.031 C 
ATOM     59  C   UNL A   1      41.521  25.154  27.453  1.00  0.00     0.029 A 
ATOM     60  C   UNL A   1      42.941  25.442  27.279  1.00  0.00     0.049 A 
ATOM     61  H   UNL A   1      43.903  27.274  27.522  1.00  0.00     0.167 HD
ATOM     62  C   UNL A   1      45.775  31.220  28.048  1.00  0.00     0.037 A 
ATOM     63  C   UNL A   1      43.882  24.547  26.925  1.00  0.00     0.037 A 
ATOM     64  C   UNL A   1      46.856  30.326  27.726  1.00  0.00     0.049 A 
ATOM     65  C   UNL A   1      45.311  25.001  26.802  1.00  0.00     0.074 A 
ATOM     66  C   UNL A   1      48.208  30.603  27.629  1.00  0.00     0.029 A 
ATOM     67  N   UNL A   1      46.706  28.973  27.448  1.00  0.00    -0.354 N 
ATOM     68  N   UNL A   1      45.816  26.199  26.987  1.00  0.00    -0.248 NA
ATOM     69  C   UNL A   1      46.297  23.980  26.430  1.00  0.00     0.031 C 
ATOM     70  C   UNL A   1      48.869  29.428  27.251  1.00  0.00     0.029 A 
ATOM     71  C   UNL A   1      47.937  28.406  27.164  1.00  0.00     0.049 A 
ATOM     72  H   UNL A   1      45.849  28.488  27.452  1.00  0.00     0.167 HD
ATOM     73  C   UNL A   1      47.186  26.068  26.785  1.00  0.00     0.074 A 
ATOM     74  C   UNL A   1      47.427  24.672  26.476  1.00  0.00     0.031 C 
ATOM     75  C   UNL A   1      48.157  27.014  26.852  1.00  0.00     0.037 A 
BRANCH  62  76
ATOM     76  C   UNL A   1      46.072  32.680  28.276  1.00  0.00     0.058 A 
ATOM     77  C   UNL A   1      46.038  33.615  27.225  1.00  0.00     0.135 A 
ATOM     78  C   UNL A   1      46.422  33.151  29.551  1.00  0.00     0.135 A 
ATOM     79  F   UNL A   1      45.723  33.221  25.981  1.00  0.00    -0.206 F 
ATOM     80  C   UNL A   1      46.400  34.944  27.418  1.00  0.00     0.059 A 
ATOM     81  C   UNL A   1      46.753  34.485  29.774  1.00  0.00     0.059 A 
ATOM     82  F   UNL A   1      46.467  32.309  30.595  1.00  0.00    -0.206 F 
ATOM     83  C   UNL A   1      46.767  35.367  28.695  1.00  0.00     0.060 A 
BRANCH  83  84
ATOM     84  S   UNL A   1      47.280  37.083  28.921  1.00  0.00     0.124 S 
ATOM     85  O   UNL A   1      48.102  37.299  27.733  1.00  0.00    -0.237 OA
ATOM     86  O   UNL A   1      46.004  37.792  28.943  1.00  0.00    -0.237 OA
ATOM     87  O   UNL A   1      48.003  37.058  30.187  1.00  0.00    -0.744 OA
ENDBRANCH  83  84
ENDBRANCH  62  76
BRANCH  63  88
ATOM     88  C   UNL A   1      43.510  23.120  26.731  1.00  0.00     0.058 A 
ATOM     89  C   UNL A   1      43.511  22.553  25.448  1.00  0.00     0.135 A 
ATOM     90  C   UNL A   1      43.184  22.289  27.813  1.00  0.00     0.135 A 
ATOM     91  F   UNL A   1      43.811  23.310  24.381  1.00  0.00    -0.206 F 
ATOM     92  C   UNL A   1      43.194  21.216  25.241  1.00  0.00     0.059 A 
ATOM     93  C   UNL A   1      42.887  20.940  27.635  1.00  0.00     0.059 A 
ATOM     94  F   UNL A   1      43.184  22.778  29.063  1.00  0.00    -0.206 F 
ATOM     95  C   UNL A   1      42.889  20.415  26.343  1.00  0.00     0.060 A 
BRANCH  95  96
ATOM     96  S   UNL A   1      42.543  18.664  26.065  1.00  0.00     0.124 S 
ATOM     97  O   UNL A   1      42.872  18.089  27.365  1.00  0.00    -0.237 OA
ATOM     98  O   UNL A   1      41.126  18.685  25.716  1.00  0.00    -0.237 OA
ATOM     99  O   UNL A   1      43.446  18.312  24.973  1.00  0.00    -0.744 OA
ENDBRANCH  95  96
ENDBRANCH  63  88
BRANCH  75 100
ATOM    100  C   UNL A   1      49.571  26.557  26.621  1.00  0.00     0.058 A 
ATOM    101  C   UNL A   1      50.149  26.556  25.342  1.00  0.00     0.135 A 
ATOM    102  C   UNL A   1      50.359  26.118  27.697  1.00  0.00     0.135 A 
ATOM    103  F   UNL A   1      49.438  26.960  24.278  1.00  0.00    -0.206 F 
ATOM    104  C   UNL A   1      51.445  26.093  25.132  1.00  0.00     0.059 A 
ATOM    105  C   UNL A   1      51.667  25.682  27.515  1.00  0.00     0.059 A 
ATOM    106  F   UNL A   1      49.861  26.113  28.944  1.00  0.00    -0.206 F 
ATOM    107  C   UNL A   1      52.194  25.653  26.224  1.00  0.00     0.060 A 
BRANCH 107 108
ATOM    108  S   UNL A   1      53.871  25.051  25.939  1.00  0.00     0.124 S 
ATOM    109  O   UNL A   1      54.445  25.139  27.277  1.00  0.00    -0.237 OA
ATOM    110  O   UNL A   1      53.637  23.700  25.437  1.00  0.00    -0.237 OA
ATOM    111  O   UNL A   1      54.408  25.992  24.961  1.00  0.00    -0.744 OA
ENDBRANCH 107 108
ENDBRANCH  75 100
ENDBRANCH  49  50
ENDBRANCH  41  44
ENDBRANCH  39  40
ENDBRANCH   1  39
TORSDOF 19
ENDMDL
