MODEL 1
REMARK VINA RESULT:      -9.9      0.000      0.000
REMARK SMILES O=C(Nc1c(F)cc(F)cc1F)N[C@H]1C=C[C@H](C(=O)NCCCNC(=O)c2ccc(-c3c4nc(c(-c5c(F)cc(S(=O)(=O)[O-])cc5F)c5ccc([nH]5)c(-c5c(F)cc(S(=O)(=O)[O-])cc5F)c5nc(c(-c6c(F)cc(S(=O)(=O)[O-])cc6F)c6ccc3[nH]6)C=C5)C=C4)cc2)C1
REMARK SMILES IDX 22 1 21 2 20 3 18 4 19 5 17 7 14 8 15 9 93 10 16 11 13 12
REMARK SMILES IDX 1 13 2 14 3 15 4 18 5 19 11 20 6 21 7 22 10 23 12 24 8 25
REMARK SMILES IDX 9 26 23 27 24 28 25 29 26 31 27 32 28 33 92 34 29 35 91 36
REMARK SMILES IDX 30 37 31 38 32 39 85 40 33 41 90 42 84 43 86 44 34 45 89 46
REMARK SMILES IDX 83 47 82 48 35 50 69 51 48 52 68 53 49 54 52 55 67 56 87 57
REMARK SMILES IDX 50 58 51 59 66 61 88 62 53 63 36 64 37 65 46 66 38 67 39 68
REMARK SMILES IDX 45 69 47 70 40 71 41 72 42 73 43 74 44 75 70 76 71 77 80 78
REMARK SMILES IDX 72 79 73 80 79 81 81 82 74 83 75 84 76 85 77 86 78 87 54 88
REMARK SMILES IDX 55 89 64 90 56 91 57 92 63 93 65 94 58 95 59 96 60 97 61 98
REMARK SMILES IDX 62 99
REMARK H PARENT 20 6 3 16 13 17 24 30 86 49 52 60
REMARK Flexibility Score: inf
ROOT
ATOM      1  C   UNL A   1      35.669  33.314  28.412  1.00  0.00     0.042 C 
ENDROOT
BRANCH   1   2
ATOM      2  C   UNL A   1      36.784  33.949  29.237  1.00  0.00     0.117 C 
BRANCH   2   3
ATOM      3  N   UNL A   1      36.297  34.461  30.505  1.00  0.00    -0.356 N 
ATOM      4  C   UNL A   1      36.725  34.204  31.772  1.00  0.00     0.227 C 
ATOM      5  O   UNL A   1      36.126  34.747  32.704  1.00  0.00    -0.274 OA
ATOM      6  H   UNL A   1      35.543  35.091  30.438  1.00  0.00     0.163 HD
BRANCH   4   7
ATOM      7  C   UNL A   1      37.934  33.298  31.997  1.00  0.00     0.103 C 
ATOM      8  C   UNL A   1      38.587  32.610  34.257  1.00  0.00     0.107 C 
ATOM      9  C   UNL A   1      39.417  33.750  33.771  1.00  0.00    -0.006 C 
ATOM     10  C   UNL A   1      37.646  32.269  33.102  1.00  0.00     0.047 C 
ATOM     11  C   UNL A   1      39.062  34.129  32.541  1.00  0.00    -0.016 C 
BRANCH   8  12
ATOM     12  N   UNL A   1      39.462  31.565  34.731  1.00  0.00    -0.332 N 
ATOM     13  O   UNL A   1      38.230  30.678  36.436  1.00  0.00    -0.248 OA
ATOM     14  C   UNL A   1      39.224  30.665  35.714  1.00  0.00     0.319 C 
ATOM     15  N   UNL A   1      40.091  29.617  35.841  1.00  0.00    -0.303 N 
ATOM     16  H   UNL A   1      39.837  28.983  36.548  1.00  0.00     0.172 HD
ATOM     17  H   UNL A   1      40.338  31.500  34.286  1.00  0.00     0.165 HD
BRANCH  15  18
ATOM     18  C   UNL A   1      41.277  29.256  35.164  1.00  0.00     0.115 A 
ATOM     19  C   UNL A   1      41.356  28.664  33.900  1.00  0.00     0.152 A 
ATOM     20  C   UNL A   1      42.483  29.497  35.835  1.00  0.00     0.152 A 
ATOM     21  F   UNL A   1      40.263  28.487  33.145  1.00  0.00    -0.204 F 
ATOM     22  C   UNL A   1      42.570  28.246  33.362  1.00  0.00     0.081 A 
ATOM     23  C   UNL A   1      43.706  29.076  35.321  1.00  0.00     0.081 A 
ATOM     24  F   UNL A   1      42.464  30.092  37.038  1.00  0.00    -0.204 F 
ATOM     25  C   UNL A   1      43.734  28.439  34.090  1.00  0.00     0.129 A 
ATOM     26  F   UNL A   1      44.898  28.003  33.597  1.00  0.00    -0.207 F 
ENDBRANCH  15  18
ENDBRANCH   8  12
ENDBRANCH   4   7
ENDBRANCH   2   3
ENDBRANCH   1   2
BRANCH   1  27
ATOM     27  C   UNL A   1      34.633  32.561  29.246  1.00  0.00     0.118 C 
BRANCH  27  28
ATOM     28  N   UNL A   1      33.964  31.505  28.496  1.00  0.00    -0.352 N 
ATOM     29  C   UNL A   1      34.462  30.354  27.943  1.00  0.00     0.251 C 
ATOM     30  H   UNL A   1      32.998  31.642  28.365  1.00  0.00     0.163 HD
ATOM     31  O   UNL A   1      33.750  29.698  27.182  1.00  0.00    -0.269 OA
BRANCH  29  32
ATOM     32  C   UNL A   1      35.839  29.906  28.237  1.00  0.00     0.039 A 
ATOM     33  C   UNL A   1      36.810  30.005  27.235  1.00  0.00     0.014 A 
ATOM     34  C   UNL A   1      36.174  29.362  29.480  1.00  0.00     0.014 A 
ATOM     35  C   UNL A   1      38.126  29.624  27.502  1.00  0.00     0.010 A 
ATOM     36  C   UNL A   1      37.501  29.059  29.770  1.00  0.00     0.010 A 
ATOM     37  C   UNL A   1      38.493  29.185  28.786  1.00  0.00    -0.014 A 
BRANCH  37  38
ATOM     38  C   UNL A   1      39.907  28.865  29.117  1.00  0.00     0.031 A 
ATOM     39  C   UNL A   1      40.788  29.895  29.769  1.00  0.00     0.074 A 
ATOM     40  C   UNL A   1      40.413  27.664  28.769  1.00  0.00     0.049 A 
ATOM     41  N   UNL A   1      42.060  29.823  30.069  1.00  0.00    -0.248 NA
ATOM     42  C   UNL A   1      40.167  31.186  30.105  1.00  0.00     0.031 C 
ATOM     43  C   UNL A   1      39.673  26.598  28.090  1.00  0.00     0.029 A 
ATOM     44  N   UNL A   1      41.672  27.141  28.927  1.00  0.00    -0.354 N 
ATOM     45  C   UNL A   1      42.392  31.057  30.615  1.00  0.00     0.074 A 
ATOM     46  C   UNL A   1      41.203  31.878  30.556  1.00  0.00     0.031 C 
ATOM     47  C   UNL A   1      40.482  25.543  27.910  1.00  0.00     0.029 A 
ATOM     48  C   UNL A   1      41.811  25.870  28.419  1.00  0.00     0.049 A 
ATOM     49  H   UNL A   1      42.407  27.630  29.363  1.00  0.00     0.167 HD
ATOM     50  C   UNL A   1      43.574  31.461  31.141  1.00  0.00     0.037 A 
ATOM     51  C   UNL A   1      42.888  25.063  28.358  1.00  0.00     0.037 A 
ATOM     52  C   UNL A   1      44.749  30.631  31.212  1.00  0.00     0.049 A 
ATOM     53  C   UNL A   1      44.194  25.539  28.934  1.00  0.00     0.074 A 
ATOM     54  C   UNL A   1      45.979  30.927  31.776  1.00  0.00     0.029 A 
ATOM     55  N   UNL A   1      44.846  29.344  30.700  1.00  0.00    -0.354 N 
ATOM     56  N   UNL A   1      44.472  26.686  29.509  1.00  0.00    -0.248 NA
ATOM     57  C   UNL A   1      45.331  24.611  28.861  1.00  0.00     0.031 C 
ATOM     58  C   UNL A   1      46.834  29.843  31.556  1.00  0.00     0.029 A 
ATOM     59  C   UNL A   1      46.121  28.845  30.910  1.00  0.00     0.049 A 
ATOM     60  H   UNL A   1      44.116  28.859  30.252  1.00  0.00     0.167 HD
ATOM     61  C   UNL A   1      45.807  26.605  29.891  1.00  0.00     0.074 A 
ATOM     62  C   UNL A   1      46.276  25.293  29.495  1.00  0.00     0.031 C 
ATOM     63  C   UNL A   1      46.574  27.533  30.515  1.00  0.00     0.037 A 
BRANCH  50  64
ATOM     64  C   UNL A   1      43.659  32.865  31.678  1.00  0.00     0.058 A 
ATOM     65  C   UNL A   1      44.111  33.933  30.886  1.00  0.00     0.135 A 
ATOM     66  C   UNL A   1      43.246  33.155  32.989  1.00  0.00     0.135 A 
ATOM     67  F   UNL A   1      44.532  33.714  29.629  1.00  0.00    -0.206 F 
ATOM     68  C   UNL A   1      44.180  35.231  31.383  1.00  0.00     0.059 A 
ATOM     69  C   UNL A   1      43.276  34.450  33.496  1.00  0.00     0.059 A 
ATOM     70  F   UNL A   1      42.803  32.173  33.791  1.00  0.00    -0.206 F 
ATOM     71  C   UNL A   1      43.760  35.480  32.690  1.00  0.00     0.060 A 
BRANCH  71  72
ATOM     72  S   UNL A   1      43.850  37.171  33.317  1.00  0.00     0.124 S 
ATOM     73  O   UNL A   1      45.120  37.145  34.039  1.00  0.00    -0.237 OA
ATOM     74  O   UNL A   1      43.836  37.959  32.089  1.00  0.00    -0.237 OA
ATOM     75  O   UNL A   1      42.659  37.291  34.150  1.00  0.00    -0.744 OA
ENDBRANCH  71  72
ENDBRANCH  50  64
BRANCH  51  76
ATOM     76  C   UNL A   1      42.770  23.714  27.740  1.00  0.00     0.058 A 
ATOM     77  C   UNL A   1      42.913  23.538  26.355  1.00  0.00     0.135 A 
ATOM     78  C   UNL A   1      42.526  22.573  28.521  1.00  0.00     0.135 A 
ATOM     79  F   UNL A   1      43.139  24.599  25.565  1.00  0.00    -0.206 F 
ATOM     80  C   UNL A   1      42.800  22.285  25.764  1.00  0.00     0.059 A 
ATOM     81  C   UNL A   1      42.439  21.304  27.955  1.00  0.00     0.059 A 
ATOM     82  F   UNL A   1      42.399  22.683  29.852  1.00  0.00    -0.206 F 
ATOM     83  C   UNL A   1      42.568  21.172  26.574  1.00  0.00     0.060 A 
BRANCH  83  84
ATOM     84  S   UNL A   1      42.471  19.543  25.799  1.00  0.00     0.124 S 
ATOM     85  O   UNL A   1      42.841  18.669  26.906  1.00  0.00    -0.237 OA
ATOM     86  O   UNL A   1      41.073  19.487  25.381  1.00  0.00    -0.237 OA
ATOM     87  O   UNL A   1      43.440  19.630  24.712  1.00  0.00    -0.744 OA
ENDBRANCH  83  84
ENDBRANCH  51  76
BRANCH  63  88
ATOM     88  C   UNL A   1      47.993  27.154  30.846  1.00  0.00     0.058 A 
ATOM     89  C   UNL A   1      48.320  26.451  32.015  1.00  0.00     0.135 A 
ATOM     90  C   UNL A   1      49.033  27.456  29.951  1.00  0.00     0.135 A 
ATOM     91  F   UNL A   1      47.365  26.142  32.909  1.00  0.00    -0.206 F 
ATOM     92  C   UNL A   1      49.630  26.080  32.299  1.00  0.00     0.059 A 
ATOM     93  C   UNL A   1      50.347  27.068  30.199  1.00  0.00     0.059 A 
ATOM     94  F   UNL A   1      48.776  28.118  28.813  1.00  0.00    -0.206 F 
ATOM     95  C   UNL A   1      50.637  26.391  31.382  1.00  0.00     0.060 A 
BRANCH  95  96
ATOM     96  S   UNL A   1      52.328  25.875  31.747  1.00  0.00     0.124 S 
ATOM     97  O   UNL A   1      52.700  26.809  32.804  1.00  0.00    -0.237 OA
ATOM     98  O   UNL A   1      52.148  24.487  32.161  1.00  0.00    -0.237 OA
ATOM     99  O   UNL A   1      53.022  26.057  30.475  1.00  0.00    -0.744 OA
ENDBRANCH  95  96
ENDBRANCH  63  88
ENDBRANCH  37  38
ENDBRANCH  29  32
ENDBRANCH  27  28
ENDBRANCH   1  27
TORSDOF 15
ENDMDL
MODEL 2
REMARK VINA RESULT:      -9.9      5.324     11.634
REMARK SMILES O=C(Nc1c(F)cc(F)cc1F)N[C@H]1C=C[C@H](C(=O)NCCCNC(=O)c2ccc(-c3c4nc(c(-c5c(F)cc(S(=O)(=O)[O-])cc5F)c5ccc([nH]5)c(-c5c(F)cc(S(=O)(=O)[O-])cc5F)c5nc(c(-c6c(F)cc(S(=O)(=O)[O-])cc6F)c6ccc3[nH]6)C=C5)C=C4)cc2)C1
REMARK SMILES IDX 22 1 21 2 20 3 18 4 19 5 17 7 14 8 15 9 93 10 16 11 13 12
REMARK SMILES IDX 1 13 2 14 3 15 4 18 5 19 11 20 6 21 7 22 10 23 12 24 8 25
REMARK SMILES IDX 9 26 23 27 24 28 25 29 26 31 27 32 28 33 92 34 29 35 91 36
REMARK SMILES IDX 30 37 31 38 32 39 85 40 33 41 90 42 84 43 86 44 34 45 89 46
REMARK SMILES IDX 83 47 82 48 35 50 69 51 48 52 68 53 49 54 52 55 67 56 87 57
REMARK SMILES IDX 50 58 51 59 66 61 88 62 53 63 36 64 37 65 46 66 38 67 39 68
REMARK SMILES IDX 45 69 47 70 40 71 41 72 42 73 43 74 44 75 70 76 71 77 80 78
REMARK SMILES IDX 72 79 73 80 79 81 81 82 74 83 75 84 76 85 77 86 78 87 54 88
REMARK SMILES IDX 55 89 64 90 56 91 57 92 63 93 65 94 58 95 59 96 60 97 61 98
REMARK SMILES IDX 62 99
REMARK H PARENT 20 6 3 16 13 17 24 30 86 49 52 60
REMARK Flexibility Score: inf
ROOT
ATOM      1  C   UNL A   1      38.123  19.899  24.993  1.00  0.00     0.042 C 
ENDROOT
BRANCH   1   2
ATOM      2  C   UNL A   1      36.842  20.717  25.127  1.00  0.00     0.117 C 
BRANCH   2   3
ATOM      3  N   UNL A   1      35.657  19.880  25.096  1.00  0.00    -0.356 N 
ATOM      4  C   UNL A   1      34.348  20.226  24.949  1.00  0.00     0.227 C 
ATOM      5  O   UNL A   1      33.507  19.324  24.981  1.00  0.00    -0.274 OA
ATOM      6  H   UNL A   1      35.826  18.915  25.194  1.00  0.00     0.163 HD
BRANCH   4   7
ATOM      7  C   UNL A   1      33.969  21.687  24.716  1.00  0.00     0.103 C 
ATOM      8  C   UNL A   1      31.653  22.445  24.985  1.00  0.00     0.107 C 
ATOM      9  C   UNL A   1      31.989  22.209  23.551  1.00  0.00    -0.006 C 
ATOM     10  C   UNL A   1      32.941  22.156  25.758  1.00  0.00     0.047 C 
ATOM     11  C   UNL A   1      33.249  21.793  23.401  1.00  0.00    -0.016 C 
BRANCH   8  12
ATOM     12  N   UNL A   1      31.081  23.762  25.119  1.00  0.00    -0.332 N 
ATOM     13  O   UNL A   1      30.265  23.689  27.250  1.00  0.00    -0.248 OA
ATOM     14  C   UNL A   1      30.491  24.305  26.211  1.00  0.00     0.319 C 
ATOM     15  N   UNL A   1      30.230  25.645  26.193  1.00  0.00    -0.303 N 
ATOM     16  H   UNL A   1      29.837  25.978  27.031  1.00  0.00     0.172 HD
ATOM     17  H   UNL A   1      31.122  24.335  24.319  1.00  0.00     0.165 HD
BRANCH  15  18
ATOM     18  C   UNL A   1      30.408  26.651  25.218  1.00  0.00     0.115 A 
ATOM     19  C   UNL A   1      29.581  26.885  24.115  1.00  0.00     0.152 A 
ATOM     20  C   UNL A   1      31.531  27.476  25.364  1.00  0.00     0.152 A 
ATOM     21  F   UNL A   1      28.435  26.211  23.950  1.00  0.00    -0.204 F 
ATOM     22  C   UNL A   1      29.901  27.836  23.149  1.00  0.00     0.081 A 
ATOM     23  C   UNL A   1      31.875  28.424  24.404  1.00  0.00     0.081 A 
ATOM     24  F   UNL A   1      32.339  27.314  26.422  1.00  0.00    -0.204 F 
ATOM     25  C   UNL A   1      31.059  28.583  23.294  1.00  0.00     0.129 A 
ATOM     26  F   UNL A   1      31.393  29.469  22.348  1.00  0.00    -0.207 F 
ENDBRANCH  15  18
ENDBRANCH   8  12
ENDBRANCH   4   7
ENDBRANCH   2   3
ENDBRANCH   1   2
BRANCH   1  27
ATOM     27  C   UNL A   1      39.282  20.419  25.841  1.00  0.00     0.118 C 
BRANCH  27  28
ATOM     28  N   UNL A   1      40.301  19.406  26.086  1.00  0.00    -0.352 N 
ATOM     29  C   UNL A   1      41.651  19.531  26.290  1.00  0.00     0.251 C 
ATOM     30  H   UNL A   1      39.965  18.481  26.108  1.00  0.00     0.163 HD
ATOM     31  O   UNL A   1      42.355  18.521  26.285  1.00  0.00    -0.269 OA
BRANCH  29  32
ATOM     32  C   UNL A   1      42.265  20.859  26.498  1.00  0.00     0.039 A 
ATOM     33  C   UNL A   1      42.599  21.631  25.381  1.00  0.00     0.014 A 
ATOM     34  C   UNL A   1      42.543  21.335  27.782  1.00  0.00     0.014 A 
ATOM     35  C   UNL A   1      43.146  22.905  25.555  1.00  0.00     0.010 A 
ATOM     36  C   UNL A   1      43.011  22.635  27.955  1.00  0.00     0.010 A 
ATOM     37  C   UNL A   1      43.319  23.435  26.844  1.00  0.00    -0.014 A 
BRANCH  37  38
ATOM     38  C   UNL A   1      43.810  24.823  27.048  1.00  0.00     0.031 A 
ATOM     39  C   UNL A   1      45.266  25.152  26.860  1.00  0.00     0.074 A 
ATOM     40  C   UNL A   1      42.951  25.774  27.467  1.00  0.00     0.049 A 
ATOM     41  N   UNL A   1      45.889  26.285  27.058  1.00  0.00    -0.248 NA
ATOM     42  C   UNL A   1      46.144  24.056  26.414  1.00  0.00     0.031 C 
ATOM     43  C   UNL A   1      41.524  25.570  27.731  1.00  0.00     0.029 A 
ATOM     44  N   UNL A   1      43.152  27.101  27.757  1.00  0.00    -0.354 N 
ATOM     45  C   UNL A   1      47.228  26.038  26.776  1.00  0.00     0.074 A 
ATOM     46  C   UNL A   1      47.336  24.634  26.445  1.00  0.00     0.031 C 
ATOM     47  C   UNL A   1      40.977  26.731  28.121  1.00  0.00     0.029 A 
ATOM     48  C   UNL A   1      42.017  27.753  28.179  1.00  0.00     0.049 A 
ATOM     49  H   UNL A   1      44.027  27.544  27.670  1.00  0.00     0.167 HD
ATOM     50  C   UNL A   1      48.267  26.907  26.769  1.00  0.00     0.037 A 
ATOM     51  C   UNL A   1      41.835  29.027  28.580  1.00  0.00     0.037 A 
ATOM     52  C   UNL A   1      48.148  28.307  27.083  1.00  0.00     0.049 A 
ATOM     53  C   UNL A   1      43.008  29.970  28.579  1.00  0.00     0.074 A 
ATOM     54  C   UNL A   1      49.130  29.283  27.051  1.00  0.00     0.029 A 
ATOM     55  N   UNL A   1      46.979  28.933  27.492  1.00  0.00    -0.354 N 
ATOM     56  N   UNL A   1      44.255  29.734  28.244  1.00  0.00    -0.248 NA
ATOM     57  C   UNL A   1      42.750  31.352  29.005  1.00  0.00     0.031 C 
ATOM     58  C   UNL A   1      48.569  30.484  27.494  1.00  0.00     0.029 A 
ATOM     59  C   UNL A   1      47.221  30.275  27.742  1.00  0.00     0.049 A 
ATOM     60  H   UNL A   1      46.106  28.489  27.592  1.00  0.00     0.167 HD
ATOM     61  C   UNL A   1      44.922  30.946  28.389  1.00  0.00     0.074 A 
ATOM     62  C   UNL A   1      43.940  31.914  28.830  1.00  0.00     0.031 C 
ATOM     63  C   UNL A   1      46.231  31.230  28.175  1.00  0.00     0.037 A 
BRANCH  50  64
ATOM     64  C   UNL A   1      49.628  26.368  26.415  1.00  0.00     0.058 A 
ATOM     65  C   UNL A   1      50.137  26.449  25.108  1.00  0.00     0.135 A 
ATOM     66  C   UNL A   1      50.451  25.800  27.401  1.00  0.00     0.135 A 
ATOM     67  F   UNL A   1      49.389  26.969  24.121  1.00  0.00    -0.206 F 
ATOM     68  C   UNL A   1      51.399  25.957  24.786  1.00  0.00     0.059 A 
ATOM     69  C   UNL A   1      51.729  25.332  27.107  1.00  0.00     0.059 A 
ATOM     70  F   UNL A   1      50.018  25.700  28.667  1.00  0.00    -0.206 F 
ATOM     71  C   UNL A   1      52.188  25.401  25.793  1.00  0.00     0.060 A 
BRANCH  71  72
ATOM     72  S   UNL A   1      53.824  24.775  25.358  1.00  0.00     0.124 S 
ATOM     73  O   UNL A   1      53.521  23.392  25.000  1.00  0.00    -0.237 OA
ATOM     74  O   UNL A   1      54.207  25.646  24.251  1.00  0.00    -0.237 OA
ATOM     75  O   UNL A   1      54.594  24.950  26.584  1.00  0.00    -0.744 OA
ENDBRANCH  71  72
ENDBRANCH  50  64
BRANCH  51  76
ATOM     76  C   UNL A   1      40.483  29.487  29.001  1.00  0.00     0.058 A 
ATOM     77  C   UNL A   1      39.468  29.704  28.058  1.00  0.00     0.135 A 
ATOM     78  C   UNL A   1      40.176  29.707  30.353  1.00  0.00     0.135 A 
ATOM     79  F   UNL A   1      39.714  29.516  26.752  1.00  0.00    -0.206 F 
ATOM     80  C   UNL A   1      38.202  30.139  28.436  1.00  0.00     0.059 A 
ATOM     81  C   UNL A   1      38.909  30.114  30.759  1.00  0.00     0.059 A 
ATOM     82  F   UNL A   1      41.107  29.498  31.298  1.00  0.00    -0.206 F 
ATOM     83  C   UNL A   1      37.931  30.337  29.791  1.00  0.00     0.060 A 
BRANCH  83  84
ATOM     84  S   UNL A   1      36.270  30.856  30.274  1.00  0.00     0.124 S 
ATOM     85  O   UNL A   1      35.528  30.660  29.034  1.00  0.00    -0.237 OA
ATOM     86  O   UNL A   1      35.963  29.927  31.356  1.00  0.00    -0.237 OA
ATOM     87  O   UNL A   1      36.458  32.245  30.684  1.00  0.00    -0.744 OA
ENDBRANCH  83  84
ENDBRANCH  51  76
BRANCH  63  88
ATOM     88  C   UNL A   1      46.675  32.654  28.378  1.00  0.00     0.058 A 
ATOM     89  C   UNL A   1      46.601  33.607  27.351  1.00  0.00     0.135 A 
ATOM     90  C   UNL A   1      47.134  33.082  29.635  1.00  0.00     0.135 A 
ATOM     91  F   UNL A   1      46.176  33.252  26.127  1.00  0.00    -0.206 F 
ATOM     92  C   UNL A   1      46.987  34.928  27.554  1.00  0.00     0.059 A 
ATOM     93  C   UNL A   1      47.496  34.405  29.871  1.00  0.00     0.059 A 
ATOM     94  F   UNL A   1      47.216  32.214  30.656  1.00  0.00    -0.206 F 
ATOM     95  C   UNL A   1      47.431  35.318  28.821  1.00  0.00     0.060 A 
BRANCH  95  96
ATOM     96  S   UNL A   1      47.897  37.042  29.080  1.00  0.00     0.124 S 
ATOM     97  O   UNL A   1      46.598  37.706  29.052  1.00  0.00    -0.237 OA
ATOM     98  O   UNL A   1      48.558  36.995  30.381  1.00  0.00    -0.237 OA
ATOM     99  O   UNL A   1      48.774  37.331  27.949  1.00  0.00    -0.744 OA
ENDBRANCH  95  96
ENDBRANCH  63  88
ENDBRANCH  37  38
ENDBRANCH  29  32
ENDBRANCH  27  28
ENDBRANCH   1  27
TORSDOF 15
ENDMDL
MODEL 3
REMARK VINA RESULT:      -9.8      5.373     10.759
REMARK SMILES O=C(Nc1c(F)cc(F)cc1F)N[C@H]1C=C[C@H](C(=O)NCCCNC(=O)c2ccc(-c3c4nc(c(-c5c(F)cc(S(=O)(=O)[O-])cc5F)c5ccc([nH]5)c(-c5c(F)cc(S(=O)(=O)[O-])cc5F)c5nc(c(-c6c(F)cc(S(=O)(=O)[O-])cc6F)c6ccc3[nH]6)C=C5)C=C4)cc2)C1
REMARK SMILES IDX 22 1 21 2 20 3 18 4 19 5 17 7 14 8 15 9 93 10 16 11 13 12
REMARK SMILES IDX 1 13 2 14 3 15 4 18 5 19 11 20 6 21 7 22 10 23 12 24 8 25
REMARK SMILES IDX 9 26 23 27 24 28 25 29 26 31 27 32 28 33 92 34 29 35 91 36
REMARK SMILES IDX 30 37 31 38 32 39 85 40 33 41 90 42 84 43 86 44 34 45 89 46
REMARK SMILES IDX 83 47 82 48 35 50 69 51 48 52 68 53 49 54 52 55 67 56 87 57
REMARK SMILES IDX 50 58 51 59 66 61 88 62 53 63 36 64 37 65 46 66 38 67 39 68
REMARK SMILES IDX 45 69 47 70 40 71 41 72 42 73 43 74 44 75 70 76 71 77 80 78
REMARK SMILES IDX 72 79 73 80 79 81 81 82 74 83 75 84 76 85 77 86 78 87 54 88
REMARK SMILES IDX 55 89 64 90 56 91 57 92 63 93 65 94 58 95 59 96 60 97 61 98
REMARK SMILES IDX 62 99
REMARK H PARENT 20 6 3 16 13 17 24 30 86 49 52 60
REMARK Flexibility Score: inf
ROOT
ATOM      1  C   UNL A   1      38.150  19.951  24.956  1.00  0.00     0.042 C 
ENDROOT
BRANCH   1   2
ATOM      2  C   UNL A   1      36.887  20.779  25.175  1.00  0.00     0.117 C 
BRANCH   2   3
ATOM      3  N   UNL A   1      35.690  19.960  25.143  1.00  0.00    -0.356 N 
ATOM      4  C   UNL A   1      34.383  20.329  25.031  1.00  0.00     0.227 C 
ATOM      5  O   UNL A   1      33.529  19.439  25.055  1.00  0.00    -0.274 OA
ATOM      6  H   UNL A   1      35.845  18.990  25.212  1.00  0.00     0.163 HD
BRANCH   4   7
ATOM      7  C   UNL A   1      34.022  21.801  24.845  1.00  0.00     0.103 C 
ATOM      8  C   UNL A   1      31.683  22.535  24.860  1.00  0.00     0.107 C 
ATOM      9  C   UNL A   1      32.203  22.393  23.470  1.00  0.00    -0.006 C 
ATOM     10  C   UNL A   1      32.862  22.199  25.773  1.00  0.00     0.047 C 
ATOM     11  C   UNL A   1      33.477  21.992  23.458  1.00  0.00    -0.016 C 
BRANCH   8  12
ATOM     12  N   UNL A   1      31.084  23.839  25.003  1.00  0.00    -0.332 N 
ATOM     13  O   UNL A   1      30.457  23.813  27.198  1.00  0.00    -0.248 OA
ATOM     14  C   UNL A   1      30.574  24.401  26.125  1.00  0.00     0.319 C 
ATOM     15  N   UNL A   1      30.271  25.731  26.089  1.00  0.00    -0.303 N 
ATOM     16  H   UNL A   1      29.942  26.081  26.948  1.00  0.00     0.172 HD
ATOM     17  H   UNL A   1      31.038  24.386  24.186  1.00  0.00     0.165 HD
BRANCH  15  18
ATOM     18  C   UNL A   1      30.333  26.710  25.073  1.00  0.00     0.115 A 
ATOM     19  C   UNL A   1      29.490  26.798  23.961  1.00  0.00     0.152 A 
ATOM     20  C   UNL A   1      31.350  27.667  25.183  1.00  0.00     0.152 A 
ATOM     21  F   UNL A   1      28.432  25.987  23.825  1.00  0.00    -0.204 F 
ATOM     22  C   UNL A   1      29.699  27.738  22.955  1.00  0.00     0.081 A 
ATOM     23  C   UNL A   1      31.584  28.607  24.183  1.00  0.00     0.081 A 
ATOM     24  F   UNL A   1      32.167  27.646  26.247  1.00  0.00    -0.204 F 
ATOM     25  C   UNL A   1      30.761  28.622  23.068  1.00  0.00     0.129 A 
ATOM     26  F   UNL A   1      30.992  29.500  22.086  1.00  0.00    -0.207 F 
ENDBRANCH  15  18
ENDBRANCH   8  12
ENDBRANCH   4   7
ENDBRANCH   2   3
ENDBRANCH   1   2
BRANCH   1  27
ATOM     27  C   UNL A   1      39.318  20.353  25.855  1.00  0.00     0.118 C 
BRANCH  27  28
ATOM     28  N   UNL A   1      40.325  19.305  25.974  1.00  0.00    -0.352 N 
ATOM     29  C   UNL A   1      41.684  19.390  26.130  1.00  0.00     0.251 C 
ATOM     30  H   UNL A   1      39.970  18.387  25.934  1.00  0.00     0.163 HD
ATOM     31  O   UNL A   1      42.366  18.371  26.013  1.00  0.00    -0.269 OA
BRANCH  29  32
ATOM     32  C   UNL A   1      42.334  20.685  26.419  1.00  0.00     0.039 A 
ATOM     33  C   UNL A   1      42.849  21.434  25.357  1.00  0.00     0.014 A 
ATOM     34  C   UNL A   1      42.466  21.153  27.730  1.00  0.00     0.014 A 
ATOM     35  C   UNL A   1      43.434  22.679  25.603  1.00  0.00     0.010 A 
ATOM     36  C   UNL A   1      42.973  22.428  27.964  1.00  0.00     0.010 A 
ATOM     37  C   UNL A   1      43.465  23.205  26.905  1.00  0.00    -0.014 A 
BRANCH  37  38
ATOM     38  C   UNL A   1      43.996  24.568  27.174  1.00  0.00     0.031 A 
ATOM     39  C   UNL A   1      43.069  25.679  27.586  1.00  0.00     0.074 A 
ATOM     40  C   UNL A   1      45.307  24.817  26.982  1.00  0.00     0.049 A 
ATOM     41  N   UNL A   1      43.337  26.942  27.797  1.00  0.00    -0.248 NA
ATOM     42  C   UNL A   1      41.649  25.331  27.761  1.00  0.00     0.031 C 
ATOM     43  C   UNL A   1      46.300  23.835  26.538  1.00  0.00     0.029 A 
ATOM     44  N   UNL A   1      46.031  25.975  27.124  1.00  0.00    -0.354 N 
ATOM     45  C   UNL A   1      42.123  27.540  28.114  1.00  0.00     0.074 A 
ATOM     46  C   UNL A   1      41.109  26.514  28.017  1.00  0.00     0.031 C 
ATOM     47  C   UNL A   1      47.503  24.425  26.466  1.00  0.00     0.029 A 
ATOM     48  C   UNL A   1      47.364  25.835  26.814  1.00  0.00     0.049 A 
ATOM     49  H   UNL A   1      45.633  26.825  27.421  1.00  0.00     0.167 HD
ATOM     50  C   UNL A   1      41.879  28.823  28.478  1.00  0.00     0.037 A 
ATOM     51  C   UNL A   1      48.360  26.742  26.799  1.00  0.00     0.037 A 
ATOM     52  C   UNL A   1      42.898  29.835  28.590  1.00  0.00     0.049 A 
ATOM     53  C   UNL A   1      48.063  28.164  27.192  1.00  0.00     0.074 A 
ATOM     54  C   UNL A   1      42.762  31.149  29.004  1.00  0.00     0.029 A 
ATOM     55  N   UNL A   1      44.238  29.652  28.281  1.00  0.00    -0.354 N 
ATOM     56  N   UNL A   1      46.920  28.697  27.555  1.00  0.00    -0.248 NA
ATOM     57  C   UNL A   1      49.189  29.107  27.179  1.00  0.00     0.031 C 
ATOM     58  C   UNL A   1      44.008  31.774  28.893  1.00  0.00     0.029 A 
ATOM     59  C   UNL A   1      44.935  30.835  28.469  1.00  0.00     0.049 A 
ATOM     60  H   UNL A   1      44.636  28.805  27.972  1.00  0.00     0.167 HD
ATOM     61  C   UNL A   1      47.196  30.029  27.843  1.00  0.00     0.074 A 
ATOM     62  C   UNL A   1      48.615  30.218  27.624  1.00  0.00     0.031 C 
ATOM     63  C   UNL A   1      46.351  31.007  28.253  1.00  0.00     0.037 A 
BRANCH  50  64
ATOM     64  C   UNL A   1      40.455  29.207  28.779  1.00  0.00     0.058 A 
ATOM     65  C   UNL A   1      39.517  29.429  27.756  1.00  0.00     0.135 A 
ATOM     66  C   UNL A   1      40.010  29.317  30.106  1.00  0.00     0.135 A 
ATOM     67  F   UNL A   1      39.889  29.351  26.468  1.00  0.00    -0.206 F 
ATOM     68  C   UNL A   1      38.199  29.776  28.039  1.00  0.00     0.059 A 
ATOM     69  C   UNL A   1      38.689  29.631  30.412  1.00  0.00     0.059 A 
ATOM     70  F   UNL A   1      40.861  29.114  31.124  1.00  0.00    -0.206 F 
ATOM     71  C   UNL A   1      37.794  29.874  29.370  1.00  0.00     0.060 A 
BRANCH  71  72
ATOM     72  S   UNL A   1      36.079  30.319  29.718  1.00  0.00     0.124 S 
ATOM     73  O   UNL A   1      35.876  29.694  31.022  1.00  0.00    -0.237 OA
ATOM     74  O   UNL A   1      36.130  31.778  29.716  1.00  0.00    -0.237 OA
ATOM     75  O   UNL A   1      35.340  29.718  28.613  1.00  0.00    -0.744 OA
ENDBRANCH  71  72
ENDBRANCH  50  64
BRANCH  51  76
ATOM     76  C   UNL A   1      49.737  26.327  26.412  1.00  0.00     0.058 A 
ATOM     77  C   UNL A   1      50.184  26.452  25.088  1.00  0.00     0.135 A 
ATOM     78  C   UNL A   1      50.635  25.809  27.359  1.00  0.00     0.135 A 
ATOM     79  F   UNL A   1      49.360  26.934  24.145  1.00  0.00    -0.206 F 
ATOM     80  C   UNL A   1      51.465  26.064  24.712  1.00  0.00     0.059 A 
ATOM     81  C   UNL A   1      51.932  25.441  27.012  1.00  0.00     0.059 A 
ATOM     82  F   UNL A   1      50.263  25.684  28.642  1.00  0.00    -0.206 F 
ATOM     83  C   UNL A   1      52.333  25.563  25.683  1.00  0.00     0.060 A 
BRANCH  83  84
ATOM     84  S   UNL A   1      54.010  25.106  25.191  1.00  0.00     0.124 S 
ATOM     85  O   UNL A   1      54.780  25.501  26.365  1.00  0.00    -0.237 OA
ATOM     86  O   UNL A   1      53.881  23.669  24.966  1.00  0.00    -0.237 OA
ATOM     87  O   UNL A   1      54.237  25.903  23.990  1.00  0.00    -0.744 OA
ENDBRANCH  83  84
ENDBRANCH  51  76
BRANCH  63  88
ATOM     88  C   UNL A   1      46.940  32.365  28.530  1.00  0.00     0.058 A 
ATOM     89  C   UNL A   1      47.000  33.362  27.545  1.00  0.00     0.135 A 
ATOM     90  C   UNL A   1      47.405  32.687  29.816  1.00  0.00     0.135 A 
ATOM     91  F   UNL A   1      46.576  33.106  26.296  1.00  0.00    -0.206 F 
ATOM     92  C   UNL A   1      47.521  34.623  27.817  1.00  0.00     0.059 A 
ATOM     93  C   UNL A   1      47.901  33.951  30.119  1.00  0.00     0.059 A 
ATOM     94  F   UNL A   1      47.363  31.774  30.799  1.00  0.00    -0.206 F 
ATOM     95  C   UNL A   1      47.967  34.909  29.110  1.00  0.00     0.060 A 
BRANCH  95  96
ATOM     96  S   UNL A   1      48.609  36.559  29.457  1.00  0.00     0.124 S 
ATOM     97  O   UNL A   1      50.047  36.316  29.486  1.00  0.00    -0.237 OA
ATOM     98  O   UNL A   1      48.119  37.331  28.319  1.00  0.00    -0.237 OA
ATOM     99  O   UNL A   1      48.003  36.897  30.742  1.00  0.00    -0.744 OA
ENDBRANCH  95  96
ENDBRANCH  63  88
ENDBRANCH  37  38
ENDBRANCH  29  32
ENDBRANCH  27  28
ENDBRANCH   1  27
TORSDOF 15
ENDMDL
