MODEL 1
REMARK VINA RESULT:     -13.7      0.000      0.000
REMARK SMILES Cc1ccc(S(=O)(=O)N2CCCC2)cc1C(=O)N[C@H](CC1=c2ccccc2=NC1)C(=O)NCCCNC(=O)c1ccc(-c2c3nc(c(-c4c(F)cc(S(=O)(=O)[O-])cc4F)c4ccc([nH]4)c(-c4c(F)cc(S(=O)(=O)[O-])cc4F)c4nc(c(-c5c(F)cc(S(=O)(=O)[O-])cc5F)c5ccc2[nH]5)C=C4)C=C3)cc1
REMARK SMILES IDX 33 1 32 2 30 3 31 4 19 6 18 7 16 8 17 9 15 11 1 12 2 13 3 14
REMARK SMILES IDX 4 15 14 16 5 17 6 18 7 19 8 20 9 21 10 22 13 23 11 24 12 25
REMARK SMILES IDX 20 26 21 27 22 28 29 29 23 30 27 31 28 32 24 33 26 34 25 35
REMARK SMILES IDX 34 36 35 37 36 38 37 39 38 41 39 42 40 43 104 44 41 45
REMARK SMILES IDX 103 46 42 47 43 48 44 49 97 50 45 51 102 52 96 53 98 54
REMARK SMILES IDX 46 55 101 56 95 57 94 58 47 60 81 61 60 62 80 63 61 64 64 65
REMARK SMILES IDX 79 66 99 67 62 68 63 69 78 71 100 72 65 73 48 74 49 75 58 76
REMARK SMILES IDX 50 77 51 78 57 79 59 80 52 81 53 82 54 83 55 84 56 85 82 86
REMARK SMILES IDX 83 87 92 88 84 89 85 90 91 91 93 92 86 93 87 94 88 95 89 96
REMARK SMILES IDX 90 97 66 98 67 99 76 100 68 101 69 102 75 103 77 104 70 105
REMARK SMILES IDX 71 106 72 107 73 108 74 109
REMARK H PARENT 32 5 18 10 36 40 98 59 64 70
REMARK Flexibility Score: inf
ROOT
ATOM      1  C   UNL A   1      31.267  30.657  25.837  1.00  0.00     0.117 C 
ENDROOT
BRANCH   1   2
ATOM      2  N   UNL A   1      30.939  30.528  24.432  1.00  0.00    -0.354 N 
ATOM      3  C   UNL A   1      30.527  29.491  23.664  1.00  0.00     0.242 C 
ATOM      4  O   UNL A   1      30.262  29.806  22.498  1.00  0.00    -0.273 OA
ATOM      5  H   UNL A   1      31.037  31.369  23.931  1.00  0.00     0.163 HD
BRANCH   3   6
ATOM      6  C   UNL A   1      30.257  28.034  24.167  1.00  0.00     0.175 C 
BRANCH   6   7
ATOM      7  N   UNL A   1      30.653  27.550  25.530  1.00  0.00    -0.340 N 
ATOM      8  C   UNL A   1      31.501  26.790  26.286  1.00  0.00     0.252 C 
ATOM      9  O   UNL A   1      31.200  26.833  27.491  1.00  0.00    -0.269 OA
ATOM     10  H   UNL A   1      30.021  27.966  26.161  1.00  0.00     0.164 HD
BRANCH   8  11
ATOM     11  C   UNL A   1      32.717  25.963  25.948  1.00  0.00     0.044 A 
ATOM     12  C   UNL A   1      34.079  27.652  24.616  1.00  0.00     0.045 C 
ATOM     13  C   UNL A   1      33.844  26.320  25.201  1.00  0.00    -0.038 A 
ATOM     14  C   UNL A   1      34.856  25.378  24.913  1.00  0.00     0.005 A 
ATOM     15  C   UNL A   1      34.784  24.078  25.371  1.00  0.00     0.022 A 
ATOM     16  C   UNL A   1      32.684  24.623  26.435  1.00  0.00     0.035 A 
ATOM     17  C   UNL A   1      33.688  23.691  26.130  1.00  0.00     0.083 A 
BRANCH  17  18
ATOM     18  S   UNL A   1      33.622  21.960  26.538  1.00  0.00     0.243 S 
ATOM     19  O   UNL A   1      34.110  21.877  27.914  1.00  0.00    -0.207 OA
ATOM     20  O   UNL A   1      32.309  21.493  26.199  1.00  0.00    -0.207 OA
BRANCH  18  21
ATOM     21  N   UNL A   1      34.716  21.151  25.586  1.00  0.00    -0.198 NA
ATOM     22  C   UNL A   1      34.357  19.961  24.809  1.00  0.00     0.102 C 
ATOM     23  C   UNL A   1      36.158  21.190  25.869  1.00  0.00     0.102 C 
ATOM     24  C   UNL A   1      35.647  19.152  24.758  1.00  0.00     0.018 C 
ATOM     25  C   UNL A   1      36.724  20.223  24.832  1.00  0.00     0.018 C 
ENDBRANCH  18  21
ENDBRANCH  17  18
ENDBRANCH   8  11
ENDBRANCH   6   7
BRANCH   6  26
ATOM     26  C   UNL A   1      30.116  26.891  23.078  1.00  0.00     0.068 C 
BRANCH  26  27
ATOM     27  C   UNL A   1      31.305  26.105  22.550  1.00  0.00    -0.037 C 
ATOM     28  C   UNL A   1      31.614  24.820  22.739  1.00  0.00     0.001 A 
ATOM     29  C   UNL A   1      32.427  26.755  21.784  1.00  0.00     0.174 C 
ATOM     30  C   UNL A   1      31.024  23.719  23.430  1.00  0.00     0.010 A 
ATOM     31  C   UNL A   1      32.865  24.646  21.977  1.00  0.00     0.065 A 
ATOM     32  N   UNL A   1      33.426  25.707  21.489  1.00  0.00    -0.280 NA
ATOM     33  C   UNL A   1      31.568  22.498  23.285  1.00  0.00     0.001 A 
ATOM     34  C   UNL A   1      33.375  23.272  21.819  1.00  0.00     0.028 A 
ATOM     35  C   UNL A   1      32.725  22.273  22.436  1.00  0.00     0.002 A 
ENDBRANCH  26  27
ENDBRANCH   6  26
ENDBRANCH   3   6
ENDBRANCH   1   2
BRANCH   1  36
ATOM     36  C   UNL A   1      32.753  30.479  26.088  1.00  0.00     0.042 C 
BRANCH  36  37
ATOM     37  C   UNL A   1      33.163  30.333  27.548  1.00  0.00     0.118 C 
BRANCH  37  38
ATOM     38  N   UNL A   1      34.022  31.463  27.914  1.00  0.00    -0.352 N 
ATOM     39  C   UNL A   1      35.209  31.498  28.613  1.00  0.00     0.251 C 
ATOM     40  H   UNL A   1      33.699  32.340  27.609  1.00  0.00     0.163 HD
ATOM     41  O   UNL A   1      35.671  32.519  29.104  1.00  0.00    -0.269 OA
BRANCH  39  42
ATOM     42  C   UNL A   1      35.997  30.260  28.582  1.00  0.00     0.039 A 
ATOM     43  C   UNL A   1      36.225  29.674  29.835  1.00  0.00     0.014 A 
ATOM     44  C   UNL A   1      36.830  30.037  27.493  1.00  0.00     0.014 A 
ATOM     45  C   UNL A   1      37.441  29.061  30.077  1.00  0.00     0.010 A 
ATOM     46  C   UNL A   1      38.068  29.491  27.758  1.00  0.00     0.010 A 
ATOM     47  C   UNL A   1      38.393  29.081  29.065  1.00  0.00    -0.014 A 
BRANCH  47  48
ATOM     48  C   UNL A   1      39.789  28.741  29.272  1.00  0.00     0.031 A 
ATOM     49  C   UNL A   1      40.226  27.375  28.923  1.00  0.00     0.074 A 
ATOM     50  C   UNL A   1      40.672  29.689  29.660  1.00  0.00     0.049 A 
ATOM     51  N   UNL A   1      41.381  26.893  29.209  1.00  0.00    -0.248 NA
ATOM     52  C   UNL A   1      39.342  26.401  28.282  1.00  0.00     0.031 C 
ATOM     53  C   UNL A   1      42.126  29.642  29.541  1.00  0.00     0.029 A 
ATOM     54  N   UNL A   1      40.428  30.828  30.436  1.00  0.00    -0.354 N 
ATOM     55  C   UNL A   1      41.503  25.685  28.564  1.00  0.00     0.074 A 
ATOM     56  C   UNL A   1      40.175  25.372  28.107  1.00  0.00     0.031 C 
ATOM     57  C   UNL A   1      42.669  30.530  30.388  1.00  0.00     0.029 A 
ATOM     58  C   UNL A   1      41.590  31.061  31.202  1.00  0.00     0.049 A 
ATOM     59  H   UNL A   1      39.604  31.364  30.446  1.00  0.00     0.167 HD
ATOM     60  C   UNL A   1      42.751  25.173  28.394  1.00  0.00     0.037 A 
ATOM     61  C   UNL A   1      41.561  30.989  32.567  1.00  0.00     0.037 A 
ATOM     62  C   UNL A   1      43.692  25.854  29.285  1.00  0.00     0.049 A 
ATOM     63  C   UNL A   1      42.421  29.880  33.134  1.00  0.00     0.074 A 
ATOM     64  C   UNL A   1      44.645  26.838  29.094  1.00  0.00     0.029 A 
ATOM     65  N   UNL A   1      43.495  25.752  30.661  1.00  0.00    -0.354 N 
ATOM     66  N   UNL A   1      42.848  28.861  32.439  1.00  0.00    -0.248 NA
ATOM     67  C   UNL A   1      42.881  29.838  34.519  1.00  0.00     0.031 C 
ATOM     68  C   UNL A   1      44.931  27.410  30.366  1.00  0.00     0.029 A 
ATOM     69  C   UNL A   1      44.194  26.738  31.329  1.00  0.00     0.049 A 
ATOM     70  H   UNL A   1      42.935  25.071  31.097  1.00  0.00     0.167 HD
ATOM     71  C   UNL A   1      43.584  28.027  33.242  1.00  0.00     0.074 A 
ATOM     72  C   UNL A   1      43.594  28.698  34.530  1.00  0.00     0.031 C 
ATOM     73  C   UNL A   1      44.115  26.853  32.782  1.00  0.00     0.037 A 
BRANCH  60  74
ATOM     74  C   UNL A   1      43.170  24.209  27.300  1.00  0.00     0.058 A 
ATOM     75  C   UNL A   1      42.959  22.821  27.466  1.00  0.00     0.135 A 
ATOM     76  C   UNL A   1      43.911  24.549  26.143  1.00  0.00     0.135 A 
ATOM     77  F   UNL A   1      42.281  22.345  28.520  1.00  0.00    -0.206 F 
ATOM     78  C   UNL A   1      43.466  21.859  26.585  1.00  0.00     0.059 A 
ATOM     79  C   UNL A   1      44.390  23.609  25.229  1.00  0.00     0.059 A 
ATOM     80  F   UNL A   1      44.272  25.803  25.861  1.00  0.00    -0.206 F 
ATOM     81  C   UNL A   1      44.188  22.262  25.469  1.00  0.00     0.060 A 
BRANCH  81  82
ATOM     82  S   UNL A   1      44.890  21.025  24.364  1.00  0.00     0.124 S 
ATOM     83  O   UNL A   1      44.075  19.854  24.668  1.00  0.00    -0.237 OA
ATOM     84  O   UNL A   1      44.679  21.626  23.051  1.00  0.00    -0.237 OA
ATOM     85  O   UNL A   1      46.285  20.940  24.788  1.00  0.00    -0.744 OA
ENDBRANCH  81  82
ENDBRANCH  60  74
BRANCH  61  86
ATOM     86  C   UNL A   1      40.290  31.511  33.145  1.00  0.00     0.058 A 
ATOM     87  C   UNL A   1      39.366  30.558  33.616  1.00  0.00     0.135 A 
ATOM     88  C   UNL A   1      40.212  32.804  33.678  1.00  0.00     0.135 A 
ATOM     89  F   UNL A   1      39.377  29.310  33.117  1.00  0.00    -0.206 F 
ATOM     90  C   UNL A   1      38.538  30.815  34.703  1.00  0.00     0.059 A 
ATOM     91  C   UNL A   1      39.384  33.087  34.769  1.00  0.00     0.059 A 
ATOM     92  F   UNL A   1      41.055  33.760  33.259  1.00  0.00    -0.206 F 
ATOM     93  C   UNL A   1      38.612  32.062  35.321  1.00  0.00     0.060 A 
BRANCH  93  94
ATOM     94  S   UNL A   1      37.845  32.240  36.952  1.00  0.00     0.124 S 
ATOM     95  O   UNL A   1      37.571  30.854  37.312  1.00  0.00    -0.237 OA
ATOM     96  O   UNL A   1      38.909  32.888  37.723  1.00  0.00    -0.237 OA
ATOM     97  O   UNL A   1      36.677  33.068  36.684  1.00  0.00    -0.744 OA
ENDBRANCH  93  94
ENDBRANCH  61  86
BRANCH  73  98
ATOM     98  C   UNL A   1      44.688  25.741  33.640  1.00  0.00     0.058 A 
ATOM     99  C   UNL A   1      46.048  25.384  33.673  1.00  0.00     0.135 A 
ATOM    100  C   UNL A   1      43.871  25.071  34.587  1.00  0.00     0.135 A 
ATOM    101  F   UNL A   1      46.960  26.028  32.932  1.00  0.00    -0.206 F 
ATOM    102  C   UNL A   1      46.544  24.379  34.509  1.00  0.00     0.059 A 
ATOM    103  C   UNL A   1      44.356  24.113  35.475  1.00  0.00     0.059 A 
ATOM    104  F   UNL A   1      42.561  25.338  34.697  1.00  0.00    -0.206 F 
ATOM    105  C   UNL A   1      45.689  23.745  35.403  1.00  0.00     0.060 A 
BRANCH 105 106
ATOM    106  S   UNL A   1      46.331  22.473  36.505  1.00  0.00     0.124 S 
ATOM    107  O   UNL A   1      45.909  21.256  35.819  1.00  0.00    -0.237 OA
ATOM    108  O   UNL A   1      47.768  22.734  36.500  1.00  0.00    -0.237 OA
ATOM    109  O   UNL A   1      45.657  22.754  37.768  1.00  0.00    -0.744 OA
ENDBRANCH 105 106
ENDBRANCH  73  98
ENDBRANCH  47  48
ENDBRANCH  39  42
ENDBRANCH  37  38
ENDBRANCH  36  37
ENDBRANCH   1  36
TORSDOF 19
ENDMDL
MODEL 2
REMARK VINA RESULT:     -12.3      1.288      2.056
REMARK SMILES Cc1ccc(S(=O)(=O)N2CCCC2)cc1C(=O)N[C@H](CC1=c2ccccc2=NC1)C(=O)NCCCNC(=O)c1ccc(-c2c3nc(c(-c4c(F)cc(S(=O)(=O)[O-])cc4F)c4ccc([nH]4)c(-c4c(F)cc(S(=O)(=O)[O-])cc4F)c4nc(c(-c5c(F)cc(S(=O)(=O)[O-])cc5F)c5ccc2[nH]5)C=C4)C=C3)cc1
REMARK SMILES IDX 33 1 32 2 30 3 31 4 19 6 18 7 16 8 17 9 15 11 1 12 2 13 3 14
REMARK SMILES IDX 4 15 14 16 5 17 6 18 7 19 8 20 9 21 10 22 13 23 11 24 12 25
REMARK SMILES IDX 20 26 21 27 22 28 29 29 23 30 27 31 28 32 24 33 26 34 25 35
REMARK SMILES IDX 34 36 35 37 36 38 37 39 38 41 39 42 40 43 104 44 41 45
REMARK SMILES IDX 103 46 42 47 43 48 44 49 97 50 45 51 102 52 96 53 98 54
REMARK SMILES IDX 46 55 101 56 95 57 94 58 47 60 81 61 60 62 80 63 61 64 64 65
REMARK SMILES IDX 79 66 99 67 62 68 63 69 78 71 100 72 65 73 48 74 49 75 58 76
REMARK SMILES IDX 50 77 51 78 57 79 59 80 52 81 53 82 54 83 55 84 56 85 82 86
REMARK SMILES IDX 83 87 92 88 84 89 85 90 91 91 93 92 86 93 87 94 88 95 89 96
REMARK SMILES IDX 90 97 66 98 67 99 76 100 68 101 69 102 75 103 77 104 70 105
REMARK SMILES IDX 71 106 72 107 73 108 74 109
REMARK H PARENT 32 5 18 10 36 40 98 59 64 70
REMARK Flexibility Score: inf
ROOT
ATOM      1  C   UNL A   1      31.323  30.593  26.053  1.00  0.00     0.117 C 
ENDROOT
BRANCH   1   2
ATOM      2  N   UNL A   1      31.027  30.323  24.661  1.00  0.00    -0.354 N 
ATOM      3  C   UNL A   1      30.636  29.214  23.990  1.00  0.00     0.242 C 
ATOM      4  O   UNL A   1      30.396  29.410  22.793  1.00  0.00    -0.273 OA
ATOM      5  H   UNL A   1      31.132  31.112  24.082  1.00  0.00     0.163 HD
BRANCH   3   6
ATOM      6  C   UNL A   1      30.360  27.811  24.629  1.00  0.00     0.175 C 
BRANCH   6   7
ATOM      7  N   UNL A   1      31.065  27.317  25.857  1.00  0.00    -0.340 N 
ATOM      8  C   UNL A   1      32.069  26.556  26.387  1.00  0.00     0.252 C 
ATOM      9  O   UNL A   1      32.055  26.584  27.629  1.00  0.00    -0.269 OA
ATOM     10  H   UNL A   1      30.594  27.720  26.622  1.00  0.00     0.164 HD
BRANCH   8  11
ATOM     11  C   UNL A   1      33.179  25.744  25.766  1.00  0.00     0.044 A 
ATOM     12  C   UNL A   1      33.902  27.297  23.882  1.00  0.00     0.045 C 
ATOM     13  C   UNL A   1      33.977  26.046  24.657  1.00  0.00    -0.038 A 
ATOM     14  C   UNL A   1      34.920  25.117  24.164  1.00  0.00     0.005 A 
ATOM     15  C   UNL A   1      35.105  23.888  24.763  1.00  0.00     0.022 A 
ATOM     16  C   UNL A   1      33.414  24.481  26.384  1.00  0.00     0.035 A 
ATOM     17  C   UNL A   1      34.343  23.560  25.876  1.00  0.00     0.083 A 
BRANCH  17  18
ATOM     18  S   UNL A   1      34.554  21.897  26.475  1.00  0.00     0.243 S 
ATOM     19  O   UNL A   1      35.999  21.667  26.449  1.00  0.00    -0.207 OA
ATOM     20  O   UNL A   1      33.819  21.790  27.701  1.00  0.00    -0.207 OA
BRANCH  18  21
ATOM     21  N   UNL A   1      33.877  20.850  25.377  1.00  0.00    -0.198 NA
ATOM     22  C   UNL A   1      32.432  20.621  25.294  1.00  0.00     0.102 C 
ATOM     23  C   UNL A   1      34.632  19.712  24.835  1.00  0.00     0.102 C 
ATOM     24  C   UNL A   1      32.316  19.181  24.814  1.00  0.00     0.018 C 
ATOM     25  C   UNL A   1      33.581  18.992  23.992  1.00  0.00     0.018 C 
ENDBRANCH  18  21
ENDBRANCH  17  18
ENDBRANCH   8  11
ENDBRANCH   6   7
BRANCH   6  26
ATOM     26  C   UNL A   1      29.801  26.667  23.684  1.00  0.00     0.068 C 
BRANCH  26  27
ATOM     27  C   UNL A   1      30.547  25.367  23.435  1.00  0.00    -0.037 C 
ATOM     28  C   UNL A   1      31.403  25.062  22.457  1.00  0.00     0.001 A 
ATOM     29  C   UNL A   1      30.307  24.128  24.259  1.00  0.00     0.174 C 
ATOM     30  C   UNL A   1      31.958  25.750  21.336  1.00  0.00     0.010 A 
ATOM     31  C   UNL A   1      31.792  23.671  22.754  1.00  0.00     0.065 A 
ATOM     32  N   UNL A   1      31.153  23.055  23.697  1.00  0.00    -0.280 NA
ATOM     33  C   UNL A   1      32.924  25.147  20.621  1.00  0.00     0.001 A 
ATOM     34  C   UNL A   1      32.892  23.094  21.961  1.00  0.00     0.028 A 
ATOM     35  C   UNL A   1      33.420  23.827  20.969  1.00  0.00     0.002 A 
ENDBRANCH  26  27
ENDBRANCH   6  26
ENDBRANCH   3   6
ENDBRANCH   1   2
BRANCH   1  36
ATOM     36  C   UNL A   1      32.778  30.969  26.258  1.00  0.00     0.042 C 
BRANCH  36  37
ATOM     37  C   UNL A   1      33.402  30.507  27.569  1.00  0.00     0.118 C 
BRANCH  37  38
ATOM     38  N   UNL A   1      34.135  31.627  28.165  1.00  0.00    -0.352 N 
ATOM     39  C   UNL A   1      35.202  31.639  29.037  1.00  0.00     0.251 C 
ATOM     40  H   UNL A   1      33.812  32.518  27.899  1.00  0.00     0.163 HD
ATOM     41  O   UNL A   1      35.530  32.623  29.686  1.00  0.00    -0.269 OA
BRANCH  39  42
ATOM     42  C   UNL A   1      36.052  30.443  29.010  1.00  0.00     0.039 A 
ATOM     43  C   UNL A   1      36.258  29.837  30.257  1.00  0.00     0.014 A 
ATOM     44  C   UNL A   1      36.940  30.290  27.952  1.00  0.00     0.014 A 
ATOM     45  C   UNL A   1      37.492  29.278  30.536  1.00  0.00     0.010 A 
ATOM     46  C   UNL A   1      38.192  29.799  28.256  1.00  0.00     0.010 A 
ATOM     47  C   UNL A   1      38.482  29.373  29.566  1.00  0.00    -0.014 A 
BRANCH  47  48
ATOM     48  C   UNL A   1      39.885  29.096  29.824  1.00  0.00     0.031 A 
ATOM     49  C   UNL A   1      40.440  27.822  29.330  1.00  0.00     0.074 A 
ATOM     50  C   UNL A   1      40.671  30.037  30.395  1.00  0.00     0.049 A 
ATOM     51  N   UNL A   1      41.608  27.379  29.630  1.00  0.00    -0.248 NA
ATOM     52  C   UNL A   1      39.670  26.890  28.504  1.00  0.00     0.031 C 
ATOM     53  C   UNL A   1      42.130  30.100  30.373  1.00  0.00     0.029 A 
ATOM     54  N   UNL A   1      40.298  31.041  31.295  1.00  0.00    -0.354 N 
ATOM     55  C   UNL A   1      41.856  26.281  28.841  1.00  0.00     0.074 A 
ATOM     56  C   UNL A   1      40.584  25.949  28.254  1.00  0.00     0.031 C 
ATOM     57  C   UNL A   1      42.553  30.896  31.366  1.00  0.00     0.029 A 
ATOM     58  C   UNL A   1      41.391  31.241  32.165  1.00  0.00     0.049 A 
ATOM     59  H   UNL A   1      39.438  31.518  31.318  1.00  0.00     0.167 HD
ATOM     60  C   UNL A   1      43.146  25.878  28.693  1.00  0.00     0.037 A 
ATOM     61  C   UNL A   1      41.283  30.982  33.503  1.00  0.00     0.037 A 
ATOM     62  C   UNL A   1      43.979  26.490  29.730  1.00  0.00     0.049 A 
ATOM     63  C   UNL A   1      42.186  29.863  33.978  1.00  0.00     0.074 A 
ATOM     64  C   UNL A   1      44.867  27.549  29.739  1.00  0.00     0.029 A 
ATOM     65  N   UNL A   1      43.706  26.188  31.063  1.00  0.00    -0.354 N 
ATOM     66  N   UNL A   1      42.727  28.977  33.187  1.00  0.00    -0.248 NA
ATOM     67  C   UNL A   1      42.562  29.661  35.375  1.00  0.00     0.031 C 
ATOM     68  C   UNL A   1      45.033  27.959  31.091  1.00  0.00     0.029 A 
ATOM     69  C   UNL A   1      44.290  27.116  31.903  1.00  0.00     0.049 A 
ATOM     70  H   UNL A   1      43.170  25.420  31.365  1.00  0.00     0.167 HD
ATOM     71  C   UNL A   1      43.471  28.091  33.922  1.00  0.00     0.074 A 
ATOM     72  C   UNL A   1      43.354  28.578  35.285  1.00  0.00     0.031 C 
ATOM     73  C   UNL A   1      44.113  27.026  33.349  1.00  0.00     0.037 A 
BRANCH  60  74
ATOM     74  C   UNL A   1      43.700  25.101  27.513  1.00  0.00     0.058 A 
ATOM     75  C   UNL A   1      43.511  23.702  27.441  1.00  0.00     0.135 A 
ATOM     76  C   UNL A   1      44.544  25.625  26.507  1.00  0.00     0.135 A 
ATOM     77  F   UNL A   1      42.743  23.059  28.333  1.00  0.00    -0.206 F 
ATOM     78  C   UNL A   1      44.131  22.895  26.480  1.00  0.00     0.059 A 
ATOM     79  C   UNL A   1      45.139  24.845  25.513  1.00  0.00     0.059 A 
ATOM     80  F   UNL A   1      44.897  26.913  26.460  1.00  0.00    -0.206 F 
ATOM     81  C   UNL A   1      44.951  23.475  25.522  1.00  0.00     0.060 A 
BRANCH  81  82
ATOM     82  S   UNL A   1      45.795  22.434  24.318  1.00  0.00     0.124 S 
ATOM     83  O   UNL A   1      44.687  21.982  23.484  1.00  0.00    -0.237 OA
ATOM     84  O   UNL A   1      46.724  23.369  23.694  1.00  0.00    -0.237 OA
ATOM     85  O   UNL A   1      46.418  21.399  25.139  1.00  0.00    -0.744 OA
ENDBRANCH  81  82
ENDBRANCH  60  74
BRANCH  61  86
ATOM     86  C   UNL A   1      39.945  31.338  34.054  1.00  0.00     0.058 A 
ATOM     87  C   UNL A   1      39.732  32.689  34.390  1.00  0.00     0.135 A 
ATOM     88  C   UNL A   1      38.816  30.555  33.778  1.00  0.00     0.135 A 
ATOM     89  F   UNL A   1      40.778  33.477  34.692  1.00  0.00    -0.206 F 
ATOM     90  C   UNL A   1      38.483  33.287  34.264  1.00  0.00     0.059 A 
ATOM     91  C   UNL A   1      37.549  31.134  33.651  1.00  0.00     0.059 A 
ATOM     92  F   UNL A   1      38.952  29.257  33.466  1.00  0.00    -0.206 F 
ATOM     93  C   UNL A   1      37.413  32.514  33.818  1.00  0.00     0.060 A 
BRANCH  93  94
ATOM     94  S   UNL A   1      35.918  33.381  33.275  1.00  0.00     0.124 S 
ATOM     95  O   UNL A   1      35.411  33.927  34.529  1.00  0.00    -0.237 OA
ATOM     96  O   UNL A   1      36.457  34.367  32.336  1.00  0.00    -0.237 OA
ATOM     97  O   UNL A   1      35.116  32.323  32.675  1.00  0.00    -0.744 OA
ENDBRANCH  93  94
ENDBRANCH  61  86
BRANCH  73  98
ATOM     98  C   UNL A   1      44.712  25.846  34.091  1.00  0.00     0.058 A 
ATOM     99  C   UNL A   1      43.961  24.818  34.686  1.00  0.00     0.135 A 
ATOM    100  C   UNL A   1      46.117  25.644  34.102  1.00  0.00     0.135 A 
ATOM    101  F   UNL A   1      42.622  24.805  34.631  1.00  0.00    -0.206 F 
ATOM    102  C   UNL A   1      44.552  23.724  35.325  1.00  0.00     0.059 A 
ATOM    103  C   UNL A   1      46.725  24.529  34.676  1.00  0.00     0.059 A 
ATOM    104  F   UNL A   1      46.957  26.523  33.536  1.00  0.00    -0.206 F 
ATOM    105  C   UNL A   1      45.936  23.591  35.321  1.00  0.00     0.060 A 
BRANCH 105 106
ATOM    106  S   UNL A   1      46.701  22.166  36.114  1.00  0.00     0.124 S 
ATOM    107  O   UNL A   1      47.476  22.806  37.172  1.00  0.00    -0.237 OA
ATOM    108  O   UNL A   1      45.549  21.386  36.559  1.00  0.00    -0.237 OA
ATOM    109  O   UNL A   1      47.478  21.561  35.037  1.00  0.00    -0.744 OA
ENDBRANCH 105 106
ENDBRANCH  73  98
ENDBRANCH  47  48
ENDBRANCH  39  42
ENDBRANCH  37  38
ENDBRANCH  36  37
ENDBRANCH   1  36
TORSDOF 19
ENDMDL
MODEL 3
REMARK VINA RESULT:     -11.5      4.065     10.572
REMARK SMILES Cc1ccc(S(=O)(=O)N2CCCC2)cc1C(=O)N[C@H](CC1=c2ccccc2=NC1)C(=O)NCCCNC(=O)c1ccc(-c2c3nc(c(-c4c(F)cc(S(=O)(=O)[O-])cc4F)c4ccc([nH]4)c(-c4c(F)cc(S(=O)(=O)[O-])cc4F)c4nc(c(-c5c(F)cc(S(=O)(=O)[O-])cc5F)c5ccc2[nH]5)C=C4)C=C3)cc1
REMARK SMILES IDX 33 1 32 2 30 3 31 4 19 6 18 7 16 8 17 9 15 11 1 12 2 13 3 14
REMARK SMILES IDX 4 15 14 16 5 17 6 18 7 19 8 20 9 21 10 22 13 23 11 24 12 25
REMARK SMILES IDX 20 26 21 27 22 28 29 29 23 30 27 31 28 32 24 33 26 34 25 35
REMARK SMILES IDX 34 36 35 37 36 38 37 39 38 41 39 42 40 43 104 44 41 45
REMARK SMILES IDX 103 46 42 47 43 48 44 49 97 50 45 51 102 52 96 53 98 54
REMARK SMILES IDX 46 55 101 56 95 57 94 58 47 60 81 61 60 62 80 63 61 64 64 65
REMARK SMILES IDX 79 66 99 67 62 68 63 69 78 71 100 72 65 73 48 74 49 75 58 76
REMARK SMILES IDX 50 77 51 78 57 79 59 80 52 81 53 82 54 83 55 84 56 85 82 86
REMARK SMILES IDX 83 87 92 88 84 89 85 90 91 91 93 92 86 93 87 94 88 95 89 96
REMARK SMILES IDX 90 97 66 98 67 99 76 100 68 101 69 102 75 103 77 104 70 105
REMARK SMILES IDX 71 106 72 107 73 108 74 109
REMARK H PARENT 32 5 18 10 36 40 98 59 64 70
REMARK Flexibility Score: inf
ROOT
ATOM      1  C   UNL A   1      38.003  21.709  26.242  1.00  0.00     0.117 C 
ENDROOT
BRANCH   1   2
ATOM      2  N   UNL A   1      37.270  22.956  26.172  1.00  0.00    -0.354 N 
ATOM      3  C   UNL A   1      36.222  23.380  25.426  1.00  0.00     0.242 C 
ATOM      4  O   UNL A   1      35.818  24.510  25.726  1.00  0.00    -0.273 OA
ATOM      5  H   UNL A   1      37.603  23.638  26.799  1.00  0.00     0.163 HD
BRANCH   3   6
ATOM      6  C   UNL A   1      35.457  22.527  24.360  1.00  0.00     0.175 C 
BRANCH   6   7
ATOM      7  N   UNL A   1      34.274  23.041  23.595  1.00  0.00    -0.340 N 
ATOM      8  C   UNL A   1      33.209  23.897  23.550  1.00  0.00     0.252 C 
ATOM      9  O   UNL A   1      32.553  23.754  22.503  1.00  0.00    -0.269 OA
ATOM     10  H   UNL A   1      34.256  22.537  22.749  1.00  0.00     0.164 HD
BRANCH   8  11
ATOM     11  C   UNL A   1      32.716  24.973  24.485  1.00  0.00     0.044 A 
ATOM     12  C   UNL A   1      32.357  23.620  26.612  1.00  0.00     0.045 C 
ATOM     13  C   UNL A   1      32.320  24.863  25.822  1.00  0.00    -0.038 A 
ATOM     14  C   UNL A   1      31.801  25.975  26.522  1.00  0.00     0.005 A 
ATOM     15  C   UNL A   1      31.681  27.213  25.924  1.00  0.00     0.022 A 
ATOM     16  C   UNL A   1      32.611  26.270  23.903  1.00  0.00     0.035 A 
ATOM     17  C   UNL A   1      32.080  27.364  24.603  1.00  0.00     0.083 A 
BRANCH  17  18
ATOM     18  S   UNL A   1      31.740  28.958  23.888  1.00  0.00     0.243 S 
ATOM     19  O   UNL A   1      32.171  29.925  24.897  1.00  0.00    -0.207 OA
ATOM     20  O   UNL A   1      32.317  28.967  22.575  1.00  0.00    -0.207 OA
BRANCH  18  21
ATOM     21  N   UNL A   1      30.096  29.126  23.727  1.00  0.00    -0.198 NA
ATOM     22  C   UNL A   1      29.229  28.025  23.297  1.00  0.00     0.102 C 
ATOM     23  C   UNL A   1      29.480  30.432  23.450  1.00  0.00     0.102 C 
ATOM     24  C   UNL A   1      28.086  28.721  22.570  1.00  0.00     0.018 C 
ATOM     25  C   UNL A   1      28.008  30.069  23.268  1.00  0.00     0.018 C 
ENDBRANCH  18  21
ENDBRANCH  17  18
ENDBRANCH   8  11
ENDBRANCH   6   7
BRANCH   6  26
ATOM     26  C   UNL A   1      35.522  20.949  24.492  1.00  0.00     0.068 C 
BRANCH  26  27
ATOM     27  C   UNL A   1      34.294  20.093  24.758  1.00  0.00    -0.037 C 
ATOM     28  C   UNL A   1      34.149  18.771  24.642  1.00  0.00     0.001 A 
ATOM     29  C   UNL A   1      32.954  20.689  25.102  1.00  0.00     0.174 C 
ATOM     30  C   UNL A   1      34.993  17.681  24.275  1.00  0.00     0.010 A 
ATOM     31  C   UNL A   1      32.749  18.537  25.043  1.00  0.00     0.065 A 
ATOM     32  N   UNL A   1      31.994  19.573  25.230  1.00  0.00    -0.280 NA
ATOM     33  C   UNL A   1      34.524  16.427  24.405  1.00  0.00     0.001 A 
ATOM     34  C   UNL A   1      32.321  17.137  25.213  1.00  0.00     0.028 A 
ATOM     35  C   UNL A   1      33.193  16.160  24.921  1.00  0.00     0.002 A 
ENDBRANCH  26  27
ENDBRANCH   6  26
ENDBRANCH   3   6
ENDBRANCH   1   2
BRANCH   1  36
ATOM     36  C   UNL A   1      39.453  21.883  25.831  1.00  0.00     0.042 C 
BRANCH  36  37
ATOM     37  C   UNL A   1      40.451  22.024  26.974  1.00  0.00     0.118 C 
BRANCH  37  38
ATOM     38  N   UNL A   1      41.701  22.577  26.446  1.00  0.00    -0.352 N 
ATOM     39  C   UNL A   1      42.002  23.844  25.995  1.00  0.00     0.251 C 
ATOM     40  H   UNL A   1      42.448  21.938  26.406  1.00  0.00     0.163 HD
ATOM     41  O   UNL A   1      42.983  24.099  25.310  1.00  0.00    -0.269 OA
BRANCH  39  42
ATOM     42  C   UNL A   1      41.169  24.922  26.541  1.00  0.00     0.039 A 
ATOM     43  C   UNL A   1      41.176  26.108  25.795  1.00  0.00     0.014 A 
ATOM     44  C   UNL A   1      40.864  24.897  27.897  1.00  0.00     0.014 A 
ATOM     45  C   UNL A   1      41.129  27.320  26.461  1.00  0.00     0.010 A 
ATOM     46  C   UNL A   1      40.891  26.103  28.563  1.00  0.00     0.010 A 
ATOM     47  C   UNL A   1      41.103  27.298  27.850  1.00  0.00    -0.014 A 
BRANCH  47  48
ATOM     48  C   UNL A   1      41.341  28.470  28.673  1.00  0.00     0.031 A 
ATOM     49  C   UNL A   1      40.260  29.468  28.784  1.00  0.00     0.074 A 
ATOM     50  C   UNL A   1      42.475  28.571  29.404  1.00  0.00     0.049 A 
ATOM     51  N   UNL A   1      40.395  30.619  29.336  1.00  0.00    -0.248 NA
ATOM     52  C   UNL A   1      38.936  29.269  28.192  1.00  0.00     0.031 C 
ATOM     53  C   UNL A   1      42.710  29.442  30.552  1.00  0.00     0.029 A 
ATOM     54  N   UNL A   1      43.734  28.031  29.120  1.00  0.00    -0.354 N 
ATOM     55  C   UNL A   1      39.147  31.188  29.430  1.00  0.00     0.074 A 
ATOM     56  C   UNL A   1      38.301  30.370  28.602  1.00  0.00     0.031 C 
ATOM     57  C   UNL A   1      44.031  29.580  30.740  1.00  0.00     0.029 A 
ATOM     58  C   UNL A   1      44.694  28.937  29.619  1.00  0.00     0.049 A 
ATOM     59  H   UNL A   1      43.917  27.181  28.660  1.00  0.00     0.167 HD
ATOM     60  C   UNL A   1      38.975  32.210  30.310  1.00  0.00     0.037 A 
ATOM     61  C   UNL A   1      45.562  29.578  28.779  1.00  0.00     0.037 A 
ATOM     62  C   UNL A   1      40.277  32.747  30.708  1.00  0.00     0.049 A 
ATOM     63  C   UNL A   1      45.380  31.081  28.752  1.00  0.00     0.074 A 
ATOM     64  C   UNL A   1      41.061  32.609  31.839  1.00  0.00     0.029 A 
ATOM     65  N   UNL A   1      41.091  33.310  29.727  1.00  0.00    -0.354 N 
ATOM     66  N   UNL A   1      44.303  31.693  29.163  1.00  0.00    -0.248 NA
ATOM     67  C   UNL A   1      46.399  32.013  28.278  1.00  0.00     0.031 C 
ATOM     68  C   UNL A   1      42.388  32.984  31.490  1.00  0.00     0.029 A 
ATOM     69  C   UNL A   1      42.397  33.399  30.168  1.00  0.00     0.049 A 
ATOM     70  H   UNL A   1      40.779  33.603  28.841  1.00  0.00     0.167 HD
ATOM     71  C   UNL A   1      44.443  33.047  28.992  1.00  0.00     0.074 A 
ATOM     72  C   UNL A   1      45.785  33.196  28.456  1.00  0.00     0.031 C 
ATOM     73  C   UNL A   1      43.442  33.928  29.296  1.00  0.00     0.037 A 
BRANCH  60  74
ATOM     74  C   UNL A   1      37.664  32.602  30.965  1.00  0.00     0.058 A 
ATOM     75  C   UNL A   1      36.741  33.413  30.264  1.00  0.00     0.135 A 
ATOM     76  C   UNL A   1      37.310  32.354  32.312  1.00  0.00     0.135 A 
ATOM     77  F   UNL A   1      36.944  33.742  28.980  1.00  0.00    -0.206 F 
ATOM     78  C   UNL A   1      35.593  33.953  30.855  1.00  0.00     0.059 A 
ATOM     79  C   UNL A   1      36.150  32.849  32.910  1.00  0.00     0.059 A 
ATOM     80  F   UNL A   1      38.096  31.673  33.150  1.00  0.00    -0.206 F 
ATOM     81  C   UNL A   1      35.308  33.672  32.184  1.00  0.00     0.060 A 
BRANCH  81  82
ATOM     82  S   UNL A   1      33.863  34.411  32.965  1.00  0.00     0.124 S 
ATOM     83  O   UNL A   1      33.359  35.277  31.905  1.00  0.00    -0.237 OA
ATOM     84  O   UNL A   1      33.046  33.243  33.276  1.00  0.00    -0.237 OA
ATOM     85  O   UNL A   1      34.418  35.104  34.124  1.00  0.00    -0.744 OA
ENDBRANCH  81  82
ENDBRANCH  60  74
BRANCH  61  86
ATOM     86  C   UNL A   1      46.011  28.719  27.648  1.00  0.00     0.058 A 
ATOM     87  C   UNL A   1      47.180  27.959  27.850  1.00  0.00     0.135 A 
ATOM     88  C   UNL A   1      45.108  28.268  26.676  1.00  0.00     0.135 A 
ATOM     89  F   UNL A   1      48.094  28.362  28.749  1.00  0.00    -0.206 F 
ATOM     90  C   UNL A   1      47.353  26.710  27.263  1.00  0.00     0.059 A 
ATOM     91  C   UNL A   1      45.264  27.017  26.070  1.00  0.00     0.059 A 
ATOM     92  F   UNL A   1      43.983  28.956  26.427  1.00  0.00    -0.206 F 
ATOM     93  C   UNL A   1      46.348  26.216  26.434  1.00  0.00     0.060 A 
BRANCH  93  94
ATOM     94  S   UNL A   1      46.395  24.455  26.014  1.00  0.00     0.124 S 
ATOM     95  O   UNL A   1      46.003  24.466  24.610  1.00  0.00    -0.237 OA
ATOM     96  O   UNL A   1      47.796  24.114  26.270  1.00  0.00    -0.237 OA
ATOM     97  O   UNL A   1      45.433  23.865  26.936  1.00  0.00    -0.744 OA
ENDBRANCH  93  94
ENDBRANCH  61  86
BRANCH  73  98
ATOM     98  C   UNL A   1      43.387  35.387  28.884  1.00  0.00     0.058 A 
ATOM     99  C   UNL A   1      43.747  36.462  29.715  1.00  0.00     0.135 A 
ATOM    100  C   UNL A   1      43.087  35.743  27.543  1.00  0.00     0.135 A 
ATOM    101  F   UNL A   1      44.186  36.264  30.966  1.00  0.00    -0.206 F 
ATOM    102  C   UNL A   1      43.722  37.791  29.284  1.00  0.00     0.059 A 
ATOM    103  C   UNL A   1      43.118  37.055  27.074  1.00  0.00     0.059 A 
ATOM    104  F   UNL A   1      42.764  34.818  26.627  1.00  0.00    -0.206 F 
ATOM    105  C   UNL A   1      43.400  38.079  27.962  1.00  0.00     0.060 A 
BRANCH 105 106
ATOM    106  S   UNL A   1      43.399  39.788  27.393  1.00  0.00     0.124 S 
ATOM    107  O   UNL A   1      42.465  39.720  26.275  1.00  0.00    -0.237 OA
ATOM    108  O   UNL A   1      42.926  40.520  28.566  1.00  0.00    -0.237 OA
ATOM    109  O   UNL A   1      44.795  40.024  27.040  1.00  0.00    -0.744 OA
ENDBRANCH 105 106
ENDBRANCH  73  98
ENDBRANCH  47  48
ENDBRANCH  39  42
ENDBRANCH  37  38
ENDBRANCH  36  37
ENDBRANCH   1  36
TORSDOF 19
ENDMDL
