MODEL 1
REMARK VINA RESULT:     -12.2      0.000      0.000
REMARK SMILES COc1ccc(C(=O)NCCCNC(=O)c2ccc(-c3c4nc(c(-c5c(F)cc(S(=O)(=O)[O-])cc5F)c5ccc([nH]5)c(-c5c(F)cc(S(=O)(=O)[O-])cc5F)c5nc(c(-c6c(F)cc(S(=O)(=O)[O-])cc6F)c6ccc3[nH]6)C=C5)C=C4)cc2)cc1Oc1nc(C(C)(C)C)ns1
REMARK SMILES IDX 11 1 10 2 9 3 7 4 8 5 6 7 3 8 4 9 83 10 5 11 82 12 2 13 1 14
REMARK SMILES IDX 84 15 85 16 86 17 93 18 87 19 92 20 88 21 89 22 90 23 91 24
REMARK SMILES IDX 12 25 13 26 14 27 15 29 16 30 17 31 81 32 18 33 80 34 19 35
REMARK SMILES IDX 20 36 21 37 74 38 22 39 79 40 73 41 75 42 23 43 78 44 72 45
REMARK SMILES IDX 71 46 24 48 58 49 37 50 57 51 38 52 41 53 56 54 76 55 39 56
REMARK SMILES IDX 40 57 55 59 77 60 42 61 25 62 26 63 35 64 27 65 28 66 34 67
REMARK SMILES IDX 36 68 29 69 30 70 31 71 32 72 33 73 59 74 60 75 69 76 61 77
REMARK SMILES IDX 62 78 68 79 70 80 63 81 64 82 65 83 66 84 67 85 43 86 44 87
REMARK SMILES IDX 53 88 45 89 46 90 52 91 54 92 47 93 48 94 49 95 50 96 51 97
REMARK H PARENT 9 6 13 28 75 47 41 58
REMARK Flexibility Score: inf
ROOT
ATOM      1  C   UNL A   1      34.155  31.596  27.873  1.00  0.00     0.042 C 
ENDROOT
BRANCH   1   2
ATOM      2  C   UNL A   1      33.908  30.367  26.998  1.00  0.00     0.118 C 
BRANCH   2   3
ATOM      3  N   UNL A   1      33.028  29.430  27.669  1.00  0.00    -0.352 N 
ATOM      4  C   UNL A   1      31.976  28.657  27.260  1.00  0.00     0.251 C 
ATOM      5  O   UNL A   1      31.436  27.959  28.121  1.00  0.00    -0.269 OA
ATOM      6  H   UNL A   1      33.232  29.328  28.627  1.00  0.00     0.163 HD
BRANCH   4   7
ATOM      7  C   UNL A   1      31.499  28.551  25.852  1.00  0.00     0.043 A 
ATOM      8  C   UNL A   1      30.441  28.594  23.248  1.00  0.00     0.161 A 
ATOM      9  C   UNL A   1      30.596  29.784  23.956  1.00  0.00     0.051 A 
ATOM     10  C   UNL A   1      30.888  27.384  23.794  1.00  0.00     0.173 A 
ATOM     11  C   UNL A   1      31.105  29.758  25.252  1.00  0.00     0.018 A 
ATOM     12  C   UNL A   1      31.435  27.377  25.092  1.00  0.00     0.065 A 
BRANCH   8  13
ATOM     13  O   UNL A   1      29.882  28.676  22.003  1.00  0.00    -0.493 OA
ATOM     14  C   UNL A   1      29.647  30.046  21.669  1.00  0.00     0.278 C 
ENDBRANCH   8  13
BRANCH  10  15
ATOM     15  O   UNL A   1      30.786  26.142  23.201  1.00  0.00    -0.426 OA
BRANCH  15  16
ATOM     16  C   UNL A   1      31.861  25.395  22.957  1.00  0.00     0.298 A 
ATOM     17  N   UNL A   1      32.461  24.676  23.882  1.00  0.00    -0.185 NA
ATOM     18  S   UNL A   1      32.680  25.353  21.454  1.00  0.00     0.025 S 
ATOM     19  C   UNL A   1      33.537  24.014  23.285  1.00  0.00     0.151 A 
ATOM     20  N   UNL A   1      33.831  24.274  22.005  1.00  0.00    -0.172 NA
BRANCH  19  21
ATOM     21  C   UNL A   1      34.380  23.041  24.095  1.00  0.00     0.023 C 
ATOM     22  C   UNL A   1      33.692  21.665  24.133  1.00  0.00     0.019 C 
ATOM     23  C   UNL A   1      35.780  22.873  23.469  1.00  0.00     0.019 C 
ATOM     24  C   UNL A   1      34.583  23.534  25.546  1.00  0.00     0.019 C 
ENDBRANCH  19  21
ENDBRANCH  15  16
ENDBRANCH  10  15
ENDBRANCH   4   7
ENDBRANCH   2   3
ENDBRANCH   1   2
BRANCH   1  25
ATOM     25  C   UNL A   1      35.540  31.601  28.527  1.00  0.00     0.118 C 
BRANCH  25  26
ATOM     26  N   UNL A   1      35.461  31.373  29.963  1.00  0.00    -0.352 N 
ATOM     27  C   UNL A   1      36.326  30.714  30.802  1.00  0.00     0.251 C 
ATOM     28  H   UNL A   1      34.664  31.749  30.400  1.00  0.00     0.163 HD
ATOM     29  O   UNL A   1      35.955  30.424  31.935  1.00  0.00    -0.269 OA
BRANCH  27  30
ATOM     30  C   UNL A   1      37.688  30.350  30.353  1.00  0.00     0.039 A 
ATOM     31  C   UNL A   1      38.659  30.062  31.317  1.00  0.00     0.014 A 
ATOM     32  C   UNL A   1      38.028  30.350  28.998  1.00  0.00     0.014 A 
ATOM     33  C   UNL A   1      39.956  29.726  30.921  1.00  0.00     0.010 A 
ATOM     34  C   UNL A   1      39.308  29.960  28.601  1.00  0.00     0.010 A 
ATOM     35  C   UNL A   1      40.285  29.646  29.558  1.00  0.00    -0.014 A 
BRANCH  35  36
ATOM     36  C   UNL A   1      41.641  29.229  29.119  1.00  0.00     0.031 A 
ATOM     37  C   UNL A   1      42.764  30.230  29.054  1.00  0.00     0.074 A 
ATOM     38  C   UNL A   1      41.845  27.957  28.719  1.00  0.00     0.049 A 
ATOM     39  N   UNL A   1      43.992  30.067  28.633  1.00  0.00    -0.248 NA
ATOM     40  C   UNL A   1      42.459  31.599  29.500  1.00  0.00     0.031 C 
ATOM     41  C   UNL A   1      40.825  26.907  28.694  1.00  0.00     0.029 A 
ATOM     42  N   UNL A   1      42.973  27.336  28.245  1.00  0.00    -0.354 N 
ATOM     43  C   UNL A   1      44.601  31.311  28.745  1.00  0.00     0.074 A 
ATOM     44  C   UNL A   1      43.595  32.229  29.237  1.00  0.00     0.031 C 
ATOM     45  C   UNL A   1      41.378  25.768  28.246  1.00  0.00     0.029 A 
ATOM     46  C   UNL A   1      42.779  26.014  27.920  1.00  0.00     0.049 A 
ATOM     47  H   UNL A   1      43.839  27.794  28.148  1.00  0.00     0.167 HD
ATOM     48  C   UNL A   1      45.884  31.653  28.478  1.00  0.00     0.037 A 
ATOM     49  C   UNL A   1      43.632  25.105  27.411  1.00  0.00     0.037 A 
ATOM     50  C   UNL A   1      46.888  30.728  28.019  1.00  0.00     0.049 A 
ATOM     51  C   UNL A   1      45.054  25.507  27.134  1.00  0.00     0.074 A 
ATOM     52  C   UNL A   1      48.233  30.961  27.785  1.00  0.00     0.029 A 
ATOM     53  N   UNL A   1      46.659  29.392  27.723  1.00  0.00    -0.354 N 
ATOM     54  N   UNL A   1      45.628  26.673  27.303  1.00  0.00    -0.248 NA
ATOM     55  C   UNL A   1      45.946  24.468  26.600  1.00  0.00     0.031 C 
ATOM     56  C   UNL A   1      48.808  29.777  27.314  1.00  0.00     0.029 A 
ATOM     57  C   UNL A   1      47.832  28.794  27.292  1.00  0.00     0.049 A 
ATOM     58  H   UNL A   1      45.790  28.936  27.808  1.00  0.00     0.167 HD
ATOM     59  C   UNL A   1      46.954  26.504  26.922  1.00  0.00     0.074 A 
ATOM     60  C   UNL A   1      47.100  25.119  26.522  1.00  0.00     0.031 C 
ATOM     61  C   UNL A   1      47.960  27.412  26.904  1.00  0.00     0.037 A 
BRANCH  48  62
ATOM     62  C   UNL A   1      46.281  33.090  28.680  1.00  0.00     0.058 A 
ATOM     63  C   UNL A   1      46.773  33.552  29.911  1.00  0.00     0.135 A 
ATOM     64  C   UNL A   1      46.209  34.008  27.618  1.00  0.00     0.135 A 
ATOM     65  F   UNL A   1      46.850  32.721  30.963  1.00  0.00    -0.206 F 
ATOM     66  C   UNL A   1      47.153  34.878  30.092  1.00  0.00     0.059 A 
ATOM     67  C   UNL A   1      46.608  35.333  27.770  1.00  0.00     0.059 A 
ATOM     68  F   UNL A   1      45.748  33.618  26.419  1.00  0.00    -0.206 F 
ATOM     69  C   UNL A   1      47.064  35.762  29.015  1.00  0.00     0.060 A 
BRANCH  69  70
ATOM     70  S   UNL A   1      47.568  37.478  29.263  1.00  0.00     0.124 S 
ATOM     71  O   UNL A   1      48.989  37.412  28.939  1.00  0.00    -0.237 OA
ATOM     72  O   UNL A   1      46.732  38.192  28.304  1.00  0.00    -0.237 OA
ATOM     73  O   UNL A   1      47.255  37.724  30.667  1.00  0.00    -0.744 OA
ENDBRANCH  69  70
ENDBRANCH  48  62
BRANCH  49  74
ATOM     74  C   UNL A   1      43.169  23.716  27.152  1.00  0.00     0.058 A 
ATOM     75  C   UNL A   1      42.887  23.285  25.847  1.00  0.00     0.135 A 
ATOM     76  C   UNL A   1      43.012  22.791  28.196  1.00  0.00     0.135 A 
ATOM     77  F   UNL A   1      43.018  24.135  24.818  1.00  0.00    -0.206 F 
ATOM     78  C   UNL A   1      42.448  21.992  25.586  1.00  0.00     0.059 A 
ATOM     79  C   UNL A   1      42.595  21.485  27.957  1.00  0.00     0.059 A 
ATOM     80  F   UNL A   1      43.287  23.150  29.459  1.00  0.00    -0.206 F 
ATOM     81  C   UNL A   1      42.305  21.098  26.649  1.00  0.00     0.060 A 
BRANCH  81  82
ATOM     82  S   UNL A   1      41.778  19.408  26.296  1.00  0.00     0.124 S 
ATOM     83  O   UNL A   1      40.337  19.575  26.145  1.00  0.00    -0.237 OA
ATOM     84  O   UNL A   1      42.516  19.103  25.074  1.00  0.00    -0.237 OA
ATOM     85  O   UNL A   1      42.209  18.670  27.479  1.00  0.00    -0.744 OA
ENDBRANCH  81  82
ENDBRANCH  49  74
BRANCH  61  86
ATOM     86  C   UNL A   1      49.315  26.930  26.467  1.00  0.00     0.058 A 
ATOM     87  C   UNL A   1      50.231  26.383  27.380  1.00  0.00     0.135 A 
ATOM     88  C   UNL A   1      49.684  26.977  25.113  1.00  0.00     0.135 A 
ATOM     89  F   UNL A   1      49.928  26.323  28.686  1.00  0.00    -0.206 F 
ATOM     90  C   UNL A   1      51.475  25.919  26.968  1.00  0.00     0.059 A 
ATOM     91  C   UNL A   1      50.914  26.496  24.675  1.00  0.00     0.059 A 
ATOM     92  F   UNL A   1      48.840  27.482  24.199  1.00  0.00    -0.206 F 
ATOM     93  C   UNL A   1      51.807  25.980  25.612  1.00  0.00     0.060 A 
BRANCH  93  94
ATOM     94  S   UNL A   1      53.414  25.345  25.084  1.00  0.00     0.124 S 
ATOM     95  O   UNL A   1      53.269  23.919  25.354  1.00  0.00    -0.237 OA
ATOM     96  O   UNL A   1      53.454  25.723  23.675  1.00  0.00    -0.237 OA
ATOM     97  O   UNL A   1      54.356  26.055  25.944  1.00  0.00    -0.744 OA
ENDBRANCH  93  94
ENDBRANCH  61  86
ENDBRANCH  35  36
ENDBRANCH  27  30
ENDBRANCH  25  26
ENDBRANCH   1  25
TORSDOF 17
ENDMDL
MODEL 2
REMARK VINA RESULT:     -12.1      6.270     11.829
REMARK SMILES COc1ccc(C(=O)NCCCNC(=O)c2ccc(-c3c4nc(c(-c5c(F)cc(S(=O)(=O)[O-])cc5F)c5ccc([nH]5)c(-c5c(F)cc(S(=O)(=O)[O-])cc5F)c5nc(c(-c6c(F)cc(S(=O)(=O)[O-])cc6F)c6ccc3[nH]6)C=C5)C=C4)cc2)cc1Oc1nc(C(C)(C)C)ns1
REMARK SMILES IDX 11 1 10 2 9 3 7 4 8 5 6 7 3 8 4 9 83 10 5 11 82 12 2 13 1 14
REMARK SMILES IDX 84 15 85 16 86 17 93 18 87 19 92 20 88 21 89 22 90 23 91 24
REMARK SMILES IDX 12 25 13 26 14 27 15 29 16 30 17 31 81 32 18 33 80 34 19 35
REMARK SMILES IDX 20 36 21 37 74 38 22 39 79 40 73 41 75 42 23 43 78 44 72 45
REMARK SMILES IDX 71 46 24 48 58 49 37 50 57 51 38 52 41 53 56 54 76 55 39 56
REMARK SMILES IDX 40 57 55 59 77 60 42 61 25 62 26 63 35 64 27 65 28 66 34 67
REMARK SMILES IDX 36 68 29 69 30 70 31 71 32 72 33 73 59 74 60 75 69 76 61 77
REMARK SMILES IDX 62 78 68 79 70 80 63 81 64 82 65 83 66 84 67 85 43 86 44 87
REMARK SMILES IDX 53 88 45 89 46 90 52 91 54 92 47 93 48 94 49 95 50 96 51 97
REMARK H PARENT 9 6 13 28 75 47 41 58
REMARK Flexibility Score: inf
ROOT
ATOM      1  C   UNL A   1      38.361  23.935  26.320  1.00  0.00     0.042 C 
ENDROOT
BRANCH   1   2
ATOM      2  C   UNL A   1      37.464  22.808  25.807  1.00  0.00     0.118 C 
BRANCH   2   3
ATOM      3  N   UNL A   1      37.385  22.837  24.359  1.00  0.00    -0.352 N 
ATOM      4  C   UNL A   1      36.354  22.946  23.467  1.00  0.00     0.251 C 
ATOM      5  O   UNL A   1      36.654  22.932  22.271  1.00  0.00    -0.269 OA
ATOM      6  H   UNL A   1      38.265  22.762  23.923  1.00  0.00     0.163 HD
BRANCH   4   7
ATOM      7  C   UNL A   1      34.927  23.153  23.843  1.00  0.00     0.043 A 
ATOM      8  C   UNL A   1      32.209  23.249  24.555  1.00  0.00     0.161 A 
ATOM      9  C   UNL A   1      32.990  22.160  24.938  1.00  0.00     0.051 A 
ATOM     10  C   UNL A   1      32.790  24.336  23.891  1.00  0.00     0.173 A 
ATOM     11  C   UNL A   1      34.332  22.107  24.569  1.00  0.00     0.018 A 
ATOM     12  C   UNL A   1      34.157  24.287  23.556  1.00  0.00     0.065 A 
BRANCH   8  13
ATOM     13  O   UNL A   1      30.885  23.217  24.896  1.00  0.00    -0.493 OA
ATOM     14  C   UNL A   1      30.752  22.940  26.292  1.00  0.00     0.278 C 
ENDBRANCH   8  13
BRANCH  10  15
ATOM     15  O   UNL A   1      32.127  25.466  23.454  1.00  0.00    -0.426 OA
BRANCH  15  16
ATOM     16  C   UNL A   1      32.435  26.677  23.912  1.00  0.00     0.298 A 
ATOM     17  N   UNL A   1      32.198  27.058  25.150  1.00  0.00    -0.185 NA
ATOM     18  S   UNL A   1      33.068  27.938  22.944  1.00  0.00     0.025 S 
ATOM     19  C   UNL A   1      32.653  28.371  25.293  1.00  0.00     0.151 A 
ATOM     20  N   UNL A   1      33.119  29.018  24.217  1.00  0.00    -0.172 NA
BRANCH  19  21
ATOM     21  C   UNL A   1      32.583  29.061  26.647  1.00  0.00     0.023 C 
ATOM     22  C   UNL A   1      31.760  28.203  27.625  1.00  0.00     0.019 C 
ATOM     23  C   UNL A   1      33.994  29.260  27.236  1.00  0.00     0.019 C 
ATOM     24  C   UNL A   1      31.929  30.457  26.542  1.00  0.00     0.019 C 
ENDBRANCH  19  21
ENDBRANCH  15  16
ENDBRANCH  10  15
ENDBRANCH   4   7
ENDBRANCH   2   3
ENDBRANCH   1   2
BRANCH   1  25
ATOM     25  C   UNL A   1      39.633  23.427  27.005  1.00  0.00     0.118 C 
BRANCH  25  26
ATOM     26  N   UNL A   1      40.829  23.775  26.249  1.00  0.00    -0.352 N 
ATOM     27  C   UNL A   1      41.587  24.920  26.273  1.00  0.00     0.251 C 
ATOM     28  H   UNL A   1      41.142  23.082  25.625  1.00  0.00     0.163 HD
ATOM     29  O   UNL A   1      42.412  25.109  25.385  1.00  0.00    -0.269 OA
BRANCH  27  30
ATOM     30  C   UNL A   1      41.417  25.919  27.351  1.00  0.00     0.039 A 
ATOM     31  C   UNL A   1      40.467  25.678  28.348  1.00  0.00     0.014 A 
ATOM     32  C   UNL A   1      42.141  27.115  27.351  1.00  0.00     0.014 A 
ATOM     33  C   UNL A   1      40.278  26.611  29.372  1.00  0.00     0.010 A 
ATOM     34  C   UNL A   1      41.992  28.019  28.404  1.00  0.00     0.010 A 
ATOM     35  C   UNL A   1      41.059  27.777  29.423  1.00  0.00    -0.014 A 
BRANCH  35  36
ATOM     36  C   UNL A   1      40.916  28.747  30.539  1.00  0.00     0.031 A 
ATOM     37  C   UNL A   1      41.805  28.655  31.749  1.00  0.00     0.074 A 
ATOM     38  C   UNL A   1      39.939  29.676  30.486  1.00  0.00     0.049 A 
ATOM     39  N   UNL A   1      41.783  29.368  32.846  1.00  0.00    -0.248 NA
ATOM     40  C   UNL A   1      42.841  27.610  31.733  1.00  0.00     0.031 C 
ATOM     41  C   UNL A   1      38.985  29.836  29.387  1.00  0.00     0.029 A 
ATOM     42  N   UNL A   1      39.578  30.650  31.382  1.00  0.00    -0.354 N 
ATOM     43  C   UNL A   1      42.786  28.849  33.657  1.00  0.00     0.074 A 
ATOM     44  C   UNL A   1      43.371  27.734  32.942  1.00  0.00     0.031 C 
ATOM     45  C   UNL A   1      38.160  30.859  29.666  1.00  0.00     0.029 A 
ATOM     46  C   UNL A   1      38.503  31.403  30.976  1.00  0.00     0.049 A 
ATOM     47  H   UNL A   1      40.046  30.795  32.236  1.00  0.00     0.167 HD
ATOM     48  C   UNL A   1      43.191  29.273  34.879  1.00  0.00     0.037 A 
ATOM     49  C   UNL A   1      37.861  32.416  31.591  1.00  0.00     0.037 A 
ATOM     50  C   UNL A   1      42.625  30.402  35.570  1.00  0.00     0.049 A 
ATOM     51  C   UNL A   1      38.337  32.874  32.941  1.00  0.00     0.074 A 
ATOM     52  C   UNL A   1      43.012  30.952  36.781  1.00  0.00     0.029 A 
ATOM     53  N   UNL A   1      41.553  31.154  35.116  1.00  0.00    -0.354 N 
ATOM     54  N   UNL A   1      39.326  32.410  33.667  1.00  0.00    -0.248 NA
ATOM     55  C   UNL A   1      37.614  33.996  33.556  1.00  0.00     0.031 C 
ATOM     56  C   UNL A   1      42.150  32.015  37.075  1.00  0.00     0.029 A 
ATOM     57  C   UNL A   1      41.252  32.152  36.029  1.00  0.00     0.049 A 
ATOM     58  H   UNL A   1      41.075  31.002  34.268  1.00  0.00     0.167 HD
ATOM     59  C   UNL A   1      39.361  33.198  34.810  1.00  0.00     0.074 A 
ATOM     60  C   UNL A   1      38.300  34.176  34.677  1.00  0.00     0.031 C 
ATOM     61  C   UNL A   1      40.196  33.121  35.876  1.00  0.00     0.037 A 
BRANCH  48  62
ATOM     62  C   UNL A   1      44.305  28.515  35.547  1.00  0.00     0.058 A 
ATOM     63  C   UNL A   1      45.652  28.870  35.361  1.00  0.00     0.135 A 
ATOM     64  C   UNL A   1      44.024  27.448  36.416  1.00  0.00     0.135 A 
ATOM     65  F   UNL A   1      45.978  29.872  34.530  1.00  0.00    -0.206 F 
ATOM     66  C   UNL A   1      46.680  28.177  35.991  1.00  0.00     0.059 A 
ATOM     67  C   UNL A   1      45.037  26.758  37.076  1.00  0.00     0.059 A 
ATOM     68  F   UNL A   1      42.754  27.069  36.631  1.00  0.00    -0.206 F 
ATOM     69  C   UNL A   1      46.362  27.120  36.846  1.00  0.00     0.060 A 
BRANCH  69  70
ATOM     70  S   UNL A   1      47.708  26.234  37.661  1.00  0.00     0.124 S 
ATOM     71  O   UNL A   1      48.414  27.327  38.323  1.00  0.00    -0.237 OA
ATOM     72  O   UNL A   1      46.992  25.318  38.542  1.00  0.00    -0.237 OA
ATOM     73  O   UNL A   1      48.421  25.606  36.554  1.00  0.00    -0.744 OA
ENDBRANCH  69  70
ENDBRANCH  48  62
BRANCH  49  74
ATOM     74  C   UNL A   1      36.711  33.080  30.924  1.00  0.00     0.058 A 
ATOM     75  C   UNL A   1      35.399  32.866  31.372  1.00  0.00     0.135 A 
ATOM     76  C   UNL A   1      36.898  33.948  29.837  1.00  0.00     0.135 A 
ATOM     77  F   UNL A   1      35.170  32.040  32.404  1.00  0.00    -0.206 F 
ATOM     78  C   UNL A   1      34.311  33.474  30.757  1.00  0.00     0.059 A 
ATOM     79  C   UNL A   1      35.827  34.586  29.219  1.00  0.00     0.059 A 
ATOM     80  F   UNL A   1      38.135  34.200  29.383  1.00  0.00    -0.206 F 
ATOM     81  C   UNL A   1      34.535  34.333  29.680  1.00  0.00     0.060 A 
BRANCH  81  82
ATOM     82  S   UNL A   1      33.120  35.155  28.917  1.00  0.00     0.124 S 
ATOM     83  O   UNL A   1      33.743  36.344  28.346  1.00  0.00    -0.237 OA
ATOM     84  O   UNL A   1      32.661  34.153  27.960  1.00  0.00    -0.237 OA
ATOM     85  O   UNL A   1      32.222  35.389  30.044  1.00  0.00    -0.744 OA
ENDBRANCH  81  82
ENDBRANCH  49  74
BRANCH  61  86
ATOM     86  C   UNL A   1      40.016  34.139  36.967  1.00  0.00     0.058 A 
ATOM     87  C   UNL A   1      40.623  35.403  36.901  1.00  0.00     0.135 A 
ATOM     88  C   UNL A   1      39.193  33.862  38.070  1.00  0.00     0.135 A 
ATOM     89  F   UNL A   1      41.425  35.713  35.871  1.00  0.00    -0.206 F 
ATOM     90  C   UNL A   1      40.437  36.350  37.902  1.00  0.00     0.059 A 
ATOM     91  C   UNL A   1      38.973  34.803  39.071  1.00  0.00     0.059 A 
ATOM     92  F   UNL A   1      38.582  32.671  38.176  1.00  0.00    -0.206 F 
ATOM     93  C   UNL A   1      39.609  36.040  38.984  1.00  0.00     0.060 A 
BRANCH  93  94
ATOM     94  S   UNL A   1      39.350  37.288  40.263  1.00  0.00     0.124 S 
ATOM     95  O   UNL A   1      38.606  36.532  41.265  1.00  0.00    -0.237 OA
ATOM     96  O   UNL A   1      40.715  37.653  40.628  1.00  0.00    -0.237 OA
ATOM     97  O   UNL A   1      38.595  38.329  39.571  1.00  0.00    -0.744 OA
ENDBRANCH  93  94
ENDBRANCH  61  86
ENDBRANCH  35  36
ENDBRANCH  27  30
ENDBRANCH  25  26
ENDBRANCH   1  25
TORSDOF 17
ENDMDL
MODEL 3
REMARK VINA RESULT:     -12.1      2.909      4.132
REMARK SMILES COc1ccc(C(=O)NCCCNC(=O)c2ccc(-c3c4nc(c(-c5c(F)cc(S(=O)(=O)[O-])cc5F)c5ccc([nH]5)c(-c5c(F)cc(S(=O)(=O)[O-])cc5F)c5nc(c(-c6c(F)cc(S(=O)(=O)[O-])cc6F)c6ccc3[nH]6)C=C5)C=C4)cc2)cc1Oc1nc(C(C)(C)C)ns1
REMARK SMILES IDX 11 1 10 2 9 3 7 4 8 5 6 7 3 8 4 9 83 10 5 11 82 12 2 13 1 14
REMARK SMILES IDX 84 15 85 16 86 17 93 18 87 19 92 20 88 21 89 22 90 23 91 24
REMARK SMILES IDX 12 25 13 26 14 27 15 29 16 30 17 31 81 32 18 33 80 34 19 35
REMARK SMILES IDX 20 36 21 37 74 38 22 39 79 40 73 41 75 42 23 43 78 44 72 45
REMARK SMILES IDX 71 46 24 48 58 49 37 50 57 51 38 52 41 53 56 54 76 55 39 56
REMARK SMILES IDX 40 57 55 59 77 60 42 61 25 62 26 63 35 64 27 65 28 66 34 67
REMARK SMILES IDX 36 68 29 69 30 70 31 71 32 72 33 73 59 74 60 75 69 76 61 77
REMARK SMILES IDX 62 78 68 79 70 80 63 81 64 82 65 83 66 84 67 85 43 86 44 87
REMARK SMILES IDX 53 88 45 89 46 90 52 91 54 92 47 93 48 94 49 95 50 96 51 97
REMARK H PARENT 9 6 13 28 75 47 41 58
REMARK Flexibility Score: inf
ROOT
ATOM      1  C   UNL A   1      33.461  28.251  25.060  1.00  0.00     0.042 C 
ENDROOT
BRANCH   1   2
ATOM      2  C   UNL A   1      32.080  28.894  24.938  1.00  0.00     0.118 C 
BRANCH   2   3
ATOM      3  N   UNL A   1      31.480  28.578  23.655  1.00  0.00    -0.352 N 
ATOM      4  C   UNL A   1      30.971  27.435  23.103  1.00  0.00     0.251 C 
ATOM      5  O   UNL A   1      30.531  27.525  21.954  1.00  0.00    -0.269 OA
ATOM      6  H   UNL A   1      31.428  29.354  23.053  1.00  0.00     0.163 HD
BRANCH   4   7
ATOM      7  C   UNL A   1      30.848  26.131  23.814  1.00  0.00     0.043 A 
ATOM      8  C   UNL A   1      30.623  23.827  25.408  1.00  0.00     0.161 A 
ATOM      9  C   UNL A   1      30.139  25.047  25.877  1.00  0.00     0.051 A 
ATOM     10  C   UNL A   1      31.146  23.725  24.113  1.00  0.00     0.173 A 
ATOM     11  C   UNL A   1      30.267  26.190  25.092  1.00  0.00     0.018 A 
ATOM     12  C   UNL A   1      31.235  24.882  23.315  1.00  0.00     0.065 A 
BRANCH   8  13
ATOM     13  O   UNL A   1      30.522  22.752  26.247  1.00  0.00    -0.493 OA
ATOM     14  C   UNL A   1      29.497  22.988  27.214  1.00  0.00     0.278 C 
ENDBRANCH   8  13
BRANCH  10  15
ATOM     15  O   UNL A   1      31.662  22.582  23.536  1.00  0.00    -0.426 OA
BRANCH  15  16
ATOM     16  C   UNL A   1      32.800  22.038  23.961  1.00  0.00     0.298 A 
ATOM     17  N   UNL A   1      33.966  22.642  23.862  1.00  0.00    -0.185 NA
ATOM     18  S   UNL A   1      32.932  20.449  24.584  1.00  0.00     0.025 S 
ATOM     19  C   UNL A   1      34.937  21.801  24.411  1.00  0.00     0.151 A 
ATOM     20  N   UNL A   1      34.581  20.577  24.819  1.00  0.00    -0.172 NA
BRANCH  19  21
ATOM     21  C   UNL A   1      36.383  22.264  24.507  1.00  0.00     0.023 C 
ATOM     22  C   UNL A   1      36.815  22.897  23.172  1.00  0.00     0.019 C 
ATOM     23  C   UNL A   1      36.550  23.314  25.625  1.00  0.00     0.019 C 
ATOM     24  C   UNL A   1      37.337  21.093  24.832  1.00  0.00     0.019 C 
ENDBRANCH  19  21
ENDBRANCH  15  16
ENDBRANCH  10  15
ENDBRANCH   4   7
ENDBRANCH   2   3
ENDBRANCH   1   2
BRANCH   1  25
ATOM     25  C   UNL A   1      34.062  28.378  26.463  1.00  0.00     0.118 C 
BRANCH  25  26
ATOM     26  N   UNL A   1      33.843  29.703  27.027  1.00  0.00    -0.352 N 
ATOM     27  C   UNL A   1      34.611  30.426  27.907  1.00  0.00     0.251 C 
ATOM     28  H   UNL A   1      33.017  30.148  26.734  1.00  0.00     0.163 HD
ATOM     29  O   UNL A   1      34.130  31.418  28.445  1.00  0.00    -0.269 OA
BRANCH  27  30
ATOM     30  C   UNL A   1      36.002  30.021  28.209  1.00  0.00     0.039 A 
ATOM     31  C   UNL A   1      36.971  30.146  27.209  1.00  0.00     0.014 A 
ATOM     32  C   UNL A   1      36.343  29.467  29.446  1.00  0.00     0.014 A 
ATOM     33  C   UNL A   1      38.290  29.760  27.465  1.00  0.00     0.010 A 
ATOM     34  C   UNL A   1      37.670  29.136  29.719  1.00  0.00     0.010 A 
ATOM     35  C   UNL A   1      38.656  29.278  28.731  1.00  0.00    -0.014 A 
BRANCH  35  36
ATOM     36  C   UNL A   1      40.066  28.924  29.040  1.00  0.00     0.031 A 
ATOM     37  C   UNL A   1      40.988  29.938  29.661  1.00  0.00     0.074 A 
ATOM     38  C   UNL A   1      40.531  27.705  28.700  1.00  0.00     0.049 A 
ATOM     39  N   UNL A   1      42.263  29.834  29.939  1.00  0.00    -0.248 NA
ATOM     40  C   UNL A   1      40.407  31.248  29.994  1.00  0.00     0.031 C 
ATOM     41  C   UNL A   1      39.747  26.652  28.052  1.00  0.00     0.029 A 
ATOM     42  N   UNL A   1      41.778  27.149  28.841  1.00  0.00    -0.354 N 
ATOM     43  C   UNL A   1      42.641  31.066  30.460  1.00  0.00     0.074 A 
ATOM     44  C   UNL A   1      41.469  31.915  30.424  1.00  0.00     0.031 C 
ATOM     45  C   UNL A   1      40.525  25.573  27.868  1.00  0.00     0.029 A 
ATOM     46  C   UNL A   1      41.870  25.868  28.352  1.00  0.00     0.049 A 
ATOM     47  H   UNL A   1      42.535  27.624  29.254  1.00  0.00     0.167 HD
ATOM     48  C   UNL A   1      43.849  31.448  30.940  1.00  0.00     0.037 A 
ATOM     49  C   UNL A   1      42.921  25.027  28.294  1.00  0.00     0.037 A 
ATOM     50  C   UNL A   1      45.002  30.588  31.003  1.00  0.00     0.049 A 
ATOM     51  C   UNL A   1      44.247  25.471  28.843  1.00  0.00     0.074 A 
ATOM     52  C   UNL A   1      46.251  30.859  31.534  1.00  0.00     0.029 A 
ATOM     53  N   UNL A   1      45.049  29.289  30.518  1.00  0.00    -0.354 N 
ATOM     54  N   UNL A   1      44.571  26.619  29.388  1.00  0.00    -0.248 NA
ATOM     55  C   UNL A   1      45.353  24.505  28.773  1.00  0.00     0.031 C 
ATOM     56  C   UNL A   1      47.064  29.738  31.338  1.00  0.00     0.029 A 
ATOM     57  C   UNL A   1      46.310  28.752  30.721  1.00  0.00     0.049 A 
ATOM     58  H   UNL A   1      44.296  28.817  30.093  1.00  0.00     0.167 HD
ATOM     59  C   UNL A   1      45.908  26.506  29.750  1.00  0.00     0.074 A 
ATOM     60  C   UNL A   1      46.331  25.173  29.371  1.00  0.00     0.031 C 
ATOM     61  C   UNL A   1      46.713  27.421  30.343  1.00  0.00     0.037 A 
BRANCH  48  62
ATOM     62  C   UNL A   1      43.986  32.859  31.442  1.00  0.00     0.058 A 
ATOM     63  C   UNL A   1      44.459  33.892  30.617  1.00  0.00     0.135 A 
ATOM     64  C   UNL A   1      43.601  33.193  32.752  1.00  0.00     0.135 A 
ATOM     65  F   UNL A   1      44.853  33.626  29.361  1.00  0.00    -0.206 F 
ATOM     66  C   UNL A   1      44.572  35.199  31.079  1.00  0.00     0.059 A 
ATOM     67  C   UNL A   1      43.682  34.499  33.226  1.00  0.00     0.059 A 
ATOM     68  F   UNL A   1      43.140  32.244  33.582  1.00  0.00    -0.206 F 
ATOM     69  C   UNL A   1      44.183  35.492  32.387  1.00  0.00     0.060 A 
BRANCH  69  70
ATOM     70  S   UNL A   1      44.329  37.194  32.971  1.00  0.00     0.124 S 
ATOM     71  O   UNL A   1      45.776  37.333  33.099  1.00  0.00    -0.237 OA
ATOM     72  O   UNL A   1      43.714  37.953  31.886  1.00  0.00    -0.237 OA
ATOM     73  O   UNL A   1      43.586  37.188  34.227  1.00  0.00    -0.744 OA
ENDBRANCH  69  70
ENDBRANCH  48  62
BRANCH  49  74
ATOM     74  C   UNL A   1      42.754  23.669  27.712  1.00  0.00     0.058 A 
ATOM     75  C   UNL A   1      42.444  22.572  28.528  1.00  0.00     0.135 A 
ATOM     76  C   UNL A   1      42.888  23.444  26.333  1.00  0.00     0.135 A 
ATOM     77  F   UNL A   1      42.310  22.738  29.852  1.00  0.00    -0.206 F 
ATOM     78  C   UNL A   1      42.290  21.294  28.003  1.00  0.00     0.059 A 
ATOM     79  C   UNL A   1      42.716  22.178  25.780  1.00  0.00     0.059 A 
ATOM     80  F   UNL A   1      43.166  24.465  25.509  1.00  0.00    -0.206 F 
ATOM     81  C   UNL A   1      42.428  21.107  26.626  1.00  0.00     0.060 A 
BRANCH  81  82
ATOM     82  S   UNL A   1      42.181  19.452  25.946  1.00  0.00     0.124 S 
ATOM     83  O   UNL A   1      43.035  19.490  24.765  1.00  0.00    -0.237 OA
ATOM     84  O   UNL A   1      42.639  18.598  27.038  1.00  0.00    -0.237 OA
ATOM     85  O   UNL A   1      40.744  19.409  25.689  1.00  0.00    -0.744 OA
ENDBRANCH  81  82
ENDBRANCH  49  74
BRANCH  61  86
ATOM     86  C   UNL A   1      48.124  27.003  30.646  1.00  0.00     0.058 A 
ATOM     87  C   UNL A   1      49.176  27.264  29.755  1.00  0.00     0.135 A 
ATOM     88  C   UNL A   1      48.433  26.373  31.862  1.00  0.00     0.135 A 
ATOM     89  F   UNL A   1      48.931  27.858  28.576  1.00  0.00    -0.206 F 
ATOM     90  C   UNL A   1      50.485  26.895  30.049  1.00  0.00     0.059 A 
ATOM     91  C   UNL A   1      49.739  26.017  32.187  1.00  0.00     0.059 A 
ATOM     92  F   UNL A   1      47.464  26.109  32.753  1.00  0.00    -0.206 F 
ATOM     93  C   UNL A   1      50.755  26.271  31.269  1.00  0.00     0.060 A 
BRANCH  93  94
ATOM     94  S   UNL A   1      52.462  25.824  31.654  1.00  0.00     0.124 S 
ATOM     95  O   UNL A   1      53.090  25.903  30.339  1.00  0.00    -0.237 OA
ATOM     96  O   UNL A   1      52.852  26.859  32.606  1.00  0.00    -0.237 OA
ATOM     97  O   UNL A   1      52.342  24.481  32.213  1.00  0.00    -0.744 OA
ENDBRANCH  93  94
ENDBRANCH  61  86
ENDBRANCH  35  36
ENDBRANCH  27  30
ENDBRANCH  25  26
ENDBRANCH   1  25
TORSDOF 17
ENDMDL
