MODEL 1
REMARK VINA RESULT:     -11.8      0.000      0.000
REMARK SMILES C[C@H]1CCCC[C@@H]1NC(=O)CCn1cc(C(=O)NCCCNC(=O)c2ccc(-c3c4nc(c(-c5c(F)cc(S(=O)(=O)[O-])cc5F)c5ccc([nH]5)c(-c5c(F)cc(S(=O)(=O)[O-])cc5F)c5nc(c(-c6c(F)cc(S(=O)(=O)[O-])cc6F)c6ccc3[nH]6)C=C5)C=C4)cc2)cn1
REMARK SMILES IDX 19 1 18 2 16 3 17 4 15 6 13 7 14 8 92 9 91 10 12 11 11 12
REMARK SMILES IDX 9 13 8 14 10 16 7 17 1 18 2 19 3 20 4 21 6 22 5 23 20 24
REMARK SMILES IDX 21 25 22 26 23 27 24 29 25 30 26 31 90 32 27 33 89 34 28 35
REMARK SMILES IDX 29 36 30 37 83 38 31 39 88 40 82 41 84 42 32 43 87 44 81 45
REMARK SMILES IDX 80 46 33 48 67 49 46 50 66 51 47 52 50 53 65 54 85 55 48 56
REMARK SMILES IDX 49 57 64 59 86 60 51 61 34 62 35 63 44 64 36 65 37 66 43 67
REMARK SMILES IDX 45 68 38 69 39 70 40 71 41 72 42 73 68 74 69 75 78 76 70 77
REMARK SMILES IDX 71 78 77 79 79 80 72 81 73 82 74 83 75 84 76 85 52 86 53 87
REMARK SMILES IDX 62 88 54 89 55 90 61 91 63 92 56 93 57 94 58 95 59 96 60 97
REMARK H PARENT 18 5 8 15 22 28 84 47 50 58
REMARK Flexibility Score: inf
ROOT
ATOM      1  C   UNL A   1      42.758  19.001  25.946  1.00  0.00     0.118 C 
ENDROOT
BRANCH   1   2
ATOM      2  N   UNL A   1      42.895  20.194  26.764  1.00  0.00    -0.352 N 
ATOM      3  C   UNL A   1      41.976  21.142  27.149  1.00  0.00     0.254 C 
ATOM      4  O   UNL A   1      42.310  21.932  28.028  1.00  0.00    -0.269 OA
ATOM      5  H   UNL A   1      43.805  20.352  27.102  1.00  0.00     0.163 HD
BRANCH   3   6
ATOM      6  C   UNL A   1      40.632  21.159  26.604  1.00  0.00     0.077 A 
ATOM      7  N   UNL A   1      38.644  21.656  25.793  1.00  0.00    -0.271 N 
ATOM      8  C   UNL A   1      39.690  22.168  26.510  1.00  0.00     0.122 A 
ATOM      9  N   UNL A   1      38.773  20.350  25.524  1.00  0.00    -0.181 NA
ATOM     10  C   UNL A   1      39.964  20.040  26.042  1.00  0.00     0.149 A 
BRANCH   7  11
ATOM     11  C   UNL A   1      37.493  22.384  25.292  1.00  0.00     0.154 C 
BRANCH  11  12
ATOM     12  C   UNL A   1      36.384  21.472  24.789  1.00  0.00     0.123 C 
BRANCH  12  13
ATOM     13  C   UNL A   1      35.301  21.266  25.826  1.00  0.00     0.222 C 
ATOM     14  N   UNL A   1      34.260  20.420  25.583  1.00  0.00    -0.353 N 
ATOM     15  H   UNL A   1      33.572  20.384  26.287  1.00  0.00     0.163 HD
ATOM     16  O   UNL A   1      35.328  21.891  26.889  1.00  0.00    -0.275 OA
BRANCH  14  17
ATOM     17  C   UNL A   1      34.017  19.562  24.432  1.00  0.00     0.084 C 
ATOM     18  C   UNL A   1      32.153  21.126  23.596  1.00  0.00     0.010 C 
ATOM     19  C   UNL A   1      32.583  19.685  23.871  1.00  0.00     0.008 C 
ATOM     20  C   UNL A   1      32.488  18.852  22.580  1.00  0.00     0.005 C 
ATOM     21  C   UNL A   1      32.856  17.387  22.807  1.00  0.00     0.000 C 
ATOM     22  C   UNL A   1      34.281  18.093  24.794  1.00  0.00     0.025 C 
ATOM     23  C   UNL A   1      34.171  17.203  23.562  1.00  0.00     0.002 C 
ENDBRANCH  14  17
ENDBRANCH  12  13
ENDBRANCH  11  12
ENDBRANCH   7  11
ENDBRANCH   3   6
ENDBRANCH   1   2
BRANCH   1  24
ATOM     24  C   UNL A   1      44.020  18.702  25.139  1.00  0.00     0.042 C 
BRANCH  24  25
ATOM     25  C   UNL A   1      44.993  19.874  25.147  1.00  0.00     0.118 C 
BRANCH  25  26
ATOM     26  N   UNL A   1      45.005  20.599  23.873  1.00  0.00    -0.352 N 
ATOM     27  C   UNL A   1      44.491  21.857  23.601  1.00  0.00     0.251 C 
ATOM     28  H   UNL A   1      45.432  20.135  23.116  1.00  0.00     0.163 HD
ATOM     29  O   UNL A   1      44.245  22.202  22.462  1.00  0.00    -0.269 OA
BRANCH  27  30
ATOM     30  C   UNL A   1      44.242  22.760  24.740  1.00  0.00     0.039 A 
ATOM     31  C   UNL A   1      45.200  22.947  25.740  1.00  0.00     0.014 A 
ATOM     32  C   UNL A   1      43.059  23.491  24.732  1.00  0.00     0.014 A 
ATOM     33  C   UNL A   1      45.007  23.960  26.678  1.00  0.00     0.010 A 
ATOM     34  C   UNL A   1      42.942  24.577  25.563  1.00  0.00     0.010 A 
ATOM     35  C   UNL A   1      43.889  24.799  26.566  1.00  0.00    -0.014 A 
BRANCH  35  36
ATOM     36  C   UNL A   1      43.754  25.995  27.404  1.00  0.00     0.031 A 
ATOM     37  C   UNL A   1      44.763  27.075  27.173  1.00  0.00     0.074 A 
ATOM     38  C   UNL A   1      42.636  26.235  28.124  1.00  0.00     0.049 A 
ATOM     39  N   UNL A   1      45.575  27.608  28.027  1.00  0.00    -0.248 NA
ATOM     40  C   UNL A   1      44.959  27.561  25.795  1.00  0.00     0.031 C 
ATOM     41  C   UNL A   1      41.426  25.404  28.208  1.00  0.00     0.029 A 
ATOM     42  N   UNL A   1      42.271  27.354  28.808  1.00  0.00    -0.354 N 
ATOM     43  C   UNL A   1      46.231  28.640  27.353  1.00  0.00     0.074 A 
ATOM     44  C   UNL A   1      45.943  28.448  25.956  1.00  0.00     0.031 C 
ATOM     45  C   UNL A   1      40.396  26.151  28.655  1.00  0.00     0.029 A 
ATOM     46  C   UNL A   1      40.905  27.449  29.055  1.00  0.00     0.049 A 
ATOM     47  H   UNL A   1      42.917  28.036  29.102  1.00  0.00     0.167 HD
ATOM     48  C   UNL A   1      46.778  29.700  28.015  1.00  0.00     0.037 A 
ATOM     49  C   UNL A   1      40.226  28.527  29.517  1.00  0.00     0.037 A 
ATOM     50  C   UNL A   1      46.904  29.430  29.425  1.00  0.00     0.049 A 
ATOM     51  C   UNL A   1      41.218  29.405  30.187  1.00  0.00     0.074 A 
ATOM     52  C   UNL A   1      47.552  28.469  30.175  1.00  0.00     0.029 A 
ATOM     53  N   UNL A   1      45.996  30.016  30.273  1.00  0.00    -0.354 N 
ATOM     54  N   UNL A   1      41.859  29.078  31.277  1.00  0.00    -0.248 NA
ATOM     55  C   UNL A   1      41.823  30.475  29.410  1.00  0.00     0.031 C 
ATOM     56  C   UNL A   1      46.669  28.193  31.261  1.00  0.00     0.029 A 
ATOM     57  C   UNL A   1      45.570  29.046  31.143  1.00  0.00     0.049 A 
ATOM     58  H   UNL A   1      45.706  30.956  30.258  1.00  0.00     0.167 HD
ATOM     59  C   UNL A   1      43.142  29.573  31.095  1.00  0.00     0.074 A 
ATOM     60  C   UNL A   1      43.026  30.521  29.990  1.00  0.00     0.031 C 
ATOM     61  C   UNL A   1      44.222  28.959  31.663  1.00  0.00     0.037 A 
BRANCH  48  62
ATOM     62  C   UNL A   1      46.874  31.109  27.466  1.00  0.00     0.058 A 
ATOM     63  C   UNL A   1      48.106  31.800  27.535  1.00  0.00     0.135 A 
ATOM     64  C   UNL A   1      45.753  31.906  27.150  1.00  0.00     0.135 A 
ATOM     65  F   UNL A   1      49.240  31.145  27.830  1.00  0.00    -0.206 F 
ATOM     66  C   UNL A   1      48.198  33.186  27.391  1.00  0.00     0.059 A 
ATOM     67  C   UNL A   1      45.831  33.281  26.944  1.00  0.00     0.059 A 
ATOM     68  F   UNL A   1      44.510  31.412  27.123  1.00  0.00    -0.206 F 
ATOM     69  C   UNL A   1      47.049  33.919  27.116  1.00  0.00     0.060 A 
BRANCH  69  70
ATOM     70  S   UNL A   1      47.135  35.718  27.061  1.00  0.00     0.124 S 
ATOM     71  O   UNL A   1      45.729  36.069  26.898  1.00  0.00    -0.237 OA
ATOM     72  O   UNL A   1      47.729  36.034  28.356  1.00  0.00    -0.237 OA
ATOM     73  O   UNL A   1      47.991  35.977  25.906  1.00  0.00    -0.744 OA
ENDBRANCH  69  70
ENDBRANCH  48  62
BRANCH  49  74
ATOM     74  C   UNL A   1      38.845  28.962  29.177  1.00  0.00     0.058 A 
ATOM     75  C   UNL A   1      37.887  29.183  30.180  1.00  0.00     0.135 A 
ATOM     76  C   UNL A   1      38.510  29.430  27.888  1.00  0.00     0.135 A 
ATOM     77  F   UNL A   1      38.124  28.784  31.439  1.00  0.00    -0.206 F 
ATOM     78  C   UNL A   1      36.697  29.878  29.937  1.00  0.00     0.059 A 
ATOM     79  C   UNL A   1      37.324  30.111  27.618  1.00  0.00     0.059 A 
ATOM     80  F   UNL A   1      39.371  29.326  26.864  1.00  0.00    -0.206 F 
ATOM     81  C   UNL A   1      36.435  30.360  28.655  1.00  0.00     0.060 A 
BRANCH  81  82
ATOM     82  S   UNL A   1      35.005  31.433  28.384  1.00  0.00     0.124 S 
ATOM     83  O   UNL A   1      34.682  31.856  29.742  1.00  0.00    -0.237 OA
ATOM     84  O   UNL A   1      35.555  32.463  27.509  1.00  0.00    -0.237 OA
ATOM     85  O   UNL A   1      34.030  30.545  27.757  1.00  0.00    -0.744 OA
ENDBRANCH  81  82
ENDBRANCH  49  74
BRANCH  61  86
ATOM     86  C   UNL A   1      43.980  27.928  32.737  1.00  0.00     0.058 A 
ATOM     87  C   UNL A   1      43.862  26.547  32.500  1.00  0.00     0.135 A 
ATOM     88  C   UNL A   1      44.029  28.342  34.076  1.00  0.00     0.135 A 
ATOM     89  F   UNL A   1      43.917  26.051  31.258  1.00  0.00    -0.206 F 
ATOM     90  C   UNL A   1      43.754  25.625  33.542  1.00  0.00     0.059 A 
ATOM     91  C   UNL A   1      43.957  27.437  35.133  1.00  0.00     0.059 A 
ATOM     92  F   UNL A   1      44.206  29.640  34.373  1.00  0.00    -0.206 F 
ATOM     93  C   UNL A   1      43.805  26.080  34.857  1.00  0.00     0.060 A 
BRANCH  93  94
ATOM     94  S   UNL A   1      43.753  24.877  36.203  1.00  0.00     0.124 S 
ATOM     95  O   UNL A   1      42.890  25.540  37.173  1.00  0.00    -0.237 OA
ATOM     96  O   UNL A   1      43.188  23.697  35.554  1.00  0.00    -0.237 OA
ATOM     97  O   UNL A   1      45.153  24.747  36.599  1.00  0.00    -0.744 OA
ENDBRANCH  93  94
ENDBRANCH  61  86
ENDBRANCH  35  36
ENDBRANCH  27  30
ENDBRANCH  25  26
ENDBRANCH  24  25
ENDBRANCH   1  24
TORSDOF 17
ENDMDL
MODEL 2
REMARK VINA RESULT:     -11.7      3.204      5.771
REMARK SMILES C[C@H]1CCCC[C@@H]1NC(=O)CCn1cc(C(=O)NCCCNC(=O)c2ccc(-c3c4nc(c(-c5c(F)cc(S(=O)(=O)[O-])cc5F)c5ccc([nH]5)c(-c5c(F)cc(S(=O)(=O)[O-])cc5F)c5nc(c(-c6c(F)cc(S(=O)(=O)[O-])cc6F)c6ccc3[nH]6)C=C5)C=C4)cc2)cn1
REMARK SMILES IDX 19 1 18 2 16 3 17 4 15 6 13 7 14 8 92 9 91 10 12 11 11 12
REMARK SMILES IDX 9 13 8 14 10 16 7 17 1 18 2 19 3 20 4 21 6 22 5 23 20 24
REMARK SMILES IDX 21 25 22 26 23 27 24 29 25 30 26 31 90 32 27 33 89 34 28 35
REMARK SMILES IDX 29 36 30 37 83 38 31 39 88 40 82 41 84 42 32 43 87 44 81 45
REMARK SMILES IDX 80 46 33 48 67 49 46 50 66 51 47 52 50 53 65 54 85 55 48 56
REMARK SMILES IDX 49 57 64 59 86 60 51 61 34 62 35 63 44 64 36 65 37 66 43 67
REMARK SMILES IDX 45 68 38 69 39 70 40 71 41 72 42 73 68 74 69 75 78 76 70 77
REMARK SMILES IDX 71 78 77 79 79 80 72 81 73 82 74 83 75 84 76 85 52 86 53 87
REMARK SMILES IDX 62 88 54 89 55 90 61 91 63 92 56 93 57 94 58 95 59 96 60 97
REMARK H PARENT 18 5 8 15 22 28 84 47 50 58
REMARK Flexibility Score: inf
ROOT
ATOM      1  C   UNL A   1      35.155  23.062  24.392  1.00  0.00     0.118 C 
ENDROOT
BRANCH   1   2
ATOM      2  N   UNL A   1      34.049  22.122  24.327  1.00  0.00    -0.352 N 
ATOM      3  C   UNL A   1      32.721  22.302  24.016  1.00  0.00     0.254 C 
ATOM      4  O   UNL A   1      32.043  21.297  23.819  1.00  0.00    -0.269 OA
ATOM      5  H   UNL A   1      34.292  21.194  24.543  1.00  0.00     0.163 HD
BRANCH   3   6
ATOM      6  C   UNL A   1      32.158  23.627  23.839  1.00  0.00     0.077 A 
ATOM      7  N   UNL A   1      31.303  25.522  23.108  1.00  0.00    -0.271 N 
ATOM      8  C   UNL A   1      32.015  24.422  22.716  1.00  0.00     0.122 A 
ATOM      9  N   UNL A   1      31.082  25.568  24.429  1.00  0.00    -0.181 NA
ATOM     10  C   UNL A   1      31.627  24.435  24.877  1.00  0.00     0.149 A 
BRANCH   7  11
ATOM     11  C   UNL A   1      30.761  26.559  22.251  1.00  0.00     0.154 C 
BRANCH  11  12
ATOM     12  C   UNL A   1      30.070  27.672  23.026  1.00  0.00     0.123 C 
BRANCH  12  13
ATOM     13  C   UNL A   1      30.670  29.030  22.729  1.00  0.00     0.222 C 
ATOM     14  N   UNL A   1      31.518  29.623  23.617  1.00  0.00    -0.353 N 
ATOM     15  H   UNL A   1      31.820  30.527  23.373  1.00  0.00     0.163 HD
ATOM     16  O   UNL A   1      30.368  29.634  21.697  1.00  0.00    -0.275 OA
BRANCH  14  17
ATOM     17  C   UNL A   1      32.040  29.112  24.877  1.00  0.00     0.084 C 
ATOM     18  C   UNL A   1      31.234  31.213  26.122  1.00  0.00     0.010 C 
ATOM     19  C   UNL A   1      32.376  30.224  25.894  1.00  0.00     0.008 C 
ATOM     20  C   UNL A   1      32.776  29.566  27.227  1.00  0.00     0.005 C 
ATOM     21  C   UNL A   1      33.953  28.604  27.068  1.00  0.00     0.000 C 
ATOM     22  C   UNL A   1      33.300  28.270  24.631  1.00  0.00     0.025 C 
ATOM     23  C   UNL A   1      33.772  27.611  25.922  1.00  0.00     0.002 C 
ENDBRANCH  14  17
ENDBRANCH  12  13
ENDBRANCH  11  12
ENDBRANCH   7  11
ENDBRANCH   3   6
ENDBRANCH   1   2
BRANCH   1  24
ATOM     24  C   UNL A   1      35.912  22.976  25.717  1.00  0.00     0.042 C 
BRANCH  24  25
ATOM     25  C   UNL A   1      37.398  23.265  25.544  1.00  0.00     0.118 C 
BRANCH  25  26
ATOM     26  N   UNL A   1      38.243  22.229  26.146  1.00  0.00    -0.352 N 
ATOM     27  C   UNL A   1      39.516  22.367  26.676  1.00  0.00     0.251 C 
ATOM     28  H   UNL A   1      37.859  21.323  26.177  1.00  0.00     0.163 HD
ATOM     29  O   UNL A   1      40.244  21.405  26.819  1.00  0.00    -0.269 OA
BRANCH  27  30
ATOM     30  C   UNL A   1      39.963  23.723  27.050  1.00  0.00     0.039 A 
ATOM     31  C   UNL A   1      39.091  24.813  26.999  1.00  0.00     0.014 A 
ATOM     32  C   UNL A   1      41.255  23.857  27.547  1.00  0.00     0.014 A 
ATOM     33  C   UNL A   1      39.495  26.026  27.557  1.00  0.00     0.010 A 
ATOM     34  C   UNL A   1      41.592  25.003  28.223  1.00  0.00     0.010 A 
ATOM     35  C   UNL A   1      40.737  26.108  28.201  1.00  0.00    -0.014 A 
BRANCH  35  36
ATOM     36  C   UNL A   1      41.111  27.298  28.971  1.00  0.00     0.031 A 
ATOM     37  C   UNL A   1      42.231  28.117  28.412  1.00  0.00     0.074 A 
ATOM     38  C   UNL A   1      40.319  27.787  29.952  1.00  0.00     0.049 A 
ATOM     39  N   UNL A   1      43.346  28.444  28.981  1.00  0.00    -0.248 NA
ATOM     40  C   UNL A   1      42.141  28.552  27.006  1.00  0.00     0.031 C 
ATOM     41  C   UNL A   1      39.027  27.257  30.410  1.00  0.00     0.029 A 
ATOM     42  N   UNL A   1      40.418  28.957  30.642  1.00  0.00    -0.354 N 
ATOM     43  C   UNL A   1      44.002  29.300  28.094  1.00  0.00     0.074 A 
ATOM     44  C   UNL A   1      43.303  29.187  26.841  1.00  0.00     0.031 C 
ATOM     45  C   UNL A   1      38.356  28.220  31.074  1.00  0.00     0.029 A 
ATOM     46  C   UNL A   1      39.232  29.363  31.243  1.00  0.00     0.049 A 
ATOM     47  H   UNL A   1      41.256  29.469  30.708  1.00  0.00     0.167 HD
ATOM     48  C   UNL A   1      44.933  30.202  28.518  1.00  0.00     0.037 A 
ATOM     49  C   UNL A   1      38.966  30.567  31.807  1.00  0.00     0.037 A 
ATOM     50  C   UNL A   1      45.382  29.902  29.854  1.00  0.00     0.049 A 
ATOM     51  C   UNL A   1      40.275  31.188  32.130  1.00  0.00     0.074 A 
ATOM     52  C   UNL A   1      45.981  28.814  30.457  1.00  0.00     0.029 A 
ATOM     53  N   UNL A   1      44.900  30.679  30.880  1.00  0.00    -0.354 N 
ATOM     54  N   UNL A   1      41.104  30.717  33.022  1.00  0.00    -0.248 NA
ATOM     55  C   UNL A   1      40.864  32.094  31.155  1.00  0.00     0.031 C 
ATOM     56  C   UNL A   1      45.396  28.745  31.756  1.00  0.00     0.029 A 
ATOM     57  C   UNL A   1      44.527  29.829  31.889  1.00  0.00     0.049 A 
ATOM     58  H   UNL A   1      44.835  31.661  30.889  1.00  0.00     0.167 HD
ATOM     59  C   UNL A   1      42.362  30.903  32.471  1.00  0.00     0.074 A 
ATOM     60  C   UNL A   1      42.159  31.857  31.384  1.00  0.00     0.031 C 
ATOM     61  C   UNL A   1      43.392  30.053  32.759  1.00  0.00     0.037 A 
BRANCH  48  62
ATOM     62  C   UNL A   1      45.186  31.554  27.881  1.00  0.00     0.058 A 
ATOM     63  C   UNL A   1      46.482  31.871  27.415  1.00  0.00     0.135 A 
ATOM     64  C   UNL A   1      44.294  32.644  27.975  1.00  0.00     0.135 A 
ATOM     65  F   UNL A   1      47.415  30.915  27.285  1.00  0.00    -0.206 F 
ATOM     66  C   UNL A   1      46.884  33.182  27.152  1.00  0.00     0.059 A 
ATOM     67  C   UNL A   1      44.657  33.951  27.662  1.00  0.00     0.059 A 
ATOM     68  F   UNL A   1      43.059  32.515  28.472  1.00  0.00    -0.206 F 
ATOM     69  C   UNL A   1      45.968  34.218  27.300  1.00  0.00     0.060 A 
BRANCH  69  70
ATOM     70  S   UNL A   1      46.512  35.923  27.093  1.00  0.00     0.124 S 
ATOM     71  O   UNL A   1      46.623  36.016  25.642  1.00  0.00    -0.237 OA
ATOM     72  O   UNL A   1      45.414  36.668  27.701  1.00  0.00    -0.237 OA
ATOM     73  O   UNL A   1      47.772  35.963  27.829  1.00  0.00    -0.744 OA
ENDBRANCH  69  70
ENDBRANCH  48  62
BRANCH  49  74
ATOM     74  C   UNL A   1      37.679  31.311  31.829  1.00  0.00     0.058 A 
ATOM     75  C   UNL A   1      37.043  31.624  33.042  1.00  0.00     0.135 A 
ATOM     76  C   UNL A   1      37.180  31.965  30.682  1.00  0.00     0.135 A 
ATOM     77  F   UNL A   1      37.458  31.060  34.187  1.00  0.00    -0.206 F 
ATOM     78  C   UNL A   1      36.017  32.572  33.125  1.00  0.00     0.059 A 
ATOM     79  C   UNL A   1      36.148  32.902  30.738  1.00  0.00     0.059 A 
ATOM     80  F   UNL A   1      37.745  31.789  29.478  1.00  0.00    -0.206 F 
ATOM     81  C   UNL A   1      35.592  33.224  31.968  1.00  0.00     0.060 A 
BRANCH  81  82
ATOM     82  S   UNL A   1      34.417  34.592  32.100  1.00  0.00     0.124 S 
ATOM     83  O   UNL A   1      33.334  33.989  32.868  1.00  0.00    -0.237 OA
ATOM     84  O   UNL A   1      35.203  35.607  32.793  1.00  0.00    -0.237 OA
ATOM     85  O   UNL A   1      34.099  34.900  30.707  1.00  0.00    -0.744 OA
ENDBRANCH  81  82
ENDBRANCH  49  74
BRANCH  61  86
ATOM     86  C   UNL A   1      43.234  29.101  33.918  1.00  0.00     0.058 A 
ATOM     87  C   UNL A   1      43.438  29.449  35.265  1.00  0.00     0.135 A 
ATOM     88  C   UNL A   1      42.698  27.830  33.664  1.00  0.00     0.135 A 
ATOM     89  F   UNL A   1      43.842  30.677  35.609  1.00  0.00    -0.206 F 
ATOM     90  C   UNL A   1      43.165  28.560  36.307  1.00  0.00     0.059 A 
ATOM     91  C   UNL A   1      42.387  26.940  34.689  1.00  0.00     0.059 A 
ATOM     92  F   UNL A   1      42.417  27.459  32.404  1.00  0.00    -0.206 F 
ATOM     93  C   UNL A   1      42.636  27.308  36.009  1.00  0.00     0.060 A 
BRANCH  93  94
ATOM     94  S   UNL A   1      42.203  26.194  37.363  1.00  0.00     0.124 S 
ATOM     95  O   UNL A   1      43.192  26.543  38.375  1.00  0.00    -0.237 OA
ATOM     96  O   UNL A   1      40.826  26.578  37.663  1.00  0.00    -0.237 OA
ATOM     97  O   UNL A   1      42.354  24.866  36.774  1.00  0.00    -0.744 OA
ENDBRANCH  93  94
ENDBRANCH  61  86
ENDBRANCH  35  36
ENDBRANCH  27  30
ENDBRANCH  25  26
ENDBRANCH  24  25
ENDBRANCH   1  24
TORSDOF 17
ENDMDL
MODEL 3
REMARK VINA RESULT:     -11.6      2.649      4.327
REMARK SMILES C[C@H]1CCCC[C@@H]1NC(=O)CCn1cc(C(=O)NCCCNC(=O)c2ccc(-c3c4nc(c(-c5c(F)cc(S(=O)(=O)[O-])cc5F)c5ccc([nH]5)c(-c5c(F)cc(S(=O)(=O)[O-])cc5F)c5nc(c(-c6c(F)cc(S(=O)(=O)[O-])cc6F)c6ccc3[nH]6)C=C5)C=C4)cc2)cn1
REMARK SMILES IDX 19 1 18 2 16 3 17 4 15 6 13 7 14 8 92 9 91 10 12 11 11 12
REMARK SMILES IDX 9 13 8 14 10 16 7 17 1 18 2 19 3 20 4 21 6 22 5 23 20 24
REMARK SMILES IDX 21 25 22 26 23 27 24 29 25 30 26 31 90 32 27 33 89 34 28 35
REMARK SMILES IDX 29 36 30 37 83 38 31 39 88 40 82 41 84 42 32 43 87 44 81 45
REMARK SMILES IDX 80 46 33 48 67 49 46 50 66 51 47 52 50 53 65 54 85 55 48 56
REMARK SMILES IDX 49 57 64 59 86 60 51 61 34 62 35 63 44 64 36 65 37 66 43 67
REMARK SMILES IDX 45 68 38 69 39 70 40 71 41 72 42 73 68 74 69 75 78 76 70 77
REMARK SMILES IDX 71 78 77 79 79 80 72 81 73 82 74 83 75 84 76 85 52 86 53 87
REMARK SMILES IDX 62 88 54 89 55 90 61 91 63 92 56 93 57 94 58 95 59 96 60 97
REMARK H PARENT 18 5 8 15 22 28 84 47 50 58
REMARK Flexibility Score: inf
ROOT
ATOM      1  C   UNL A   1      38.093  21.979  25.859  1.00  0.00     0.118 C 
ENDROOT
BRANCH   1   2
ATOM      2  N   UNL A   1      37.756  22.219  24.466  1.00  0.00    -0.352 N 
ATOM      3  C   UNL A   1      36.570  22.569  23.865  1.00  0.00     0.254 C 
ATOM      4  O   UNL A   1      36.613  22.927  22.691  1.00  0.00    -0.269 OA
ATOM      5  H   UNL A   1      38.510  22.112  23.843  1.00  0.00     0.163 HD
BRANCH   3   6
ATOM      6  C   UNL A   1      35.325  22.602  24.610  1.00  0.00     0.077 A 
ATOM      7  N   UNL A   1      33.501  23.124  25.729  1.00  0.00    -0.271 N 
ATOM      8  C   UNL A   1      34.724  23.603  25.352  1.00  0.00     0.122 A 
ATOM      9  N   UNL A   1      33.309  21.839  25.401  1.00  0.00    -0.181 NA
ATOM     10  C   UNL A   1      34.427  21.513  24.749  1.00  0.00     0.149 A 
BRANCH   7  11
ATOM     11  C   UNL A   1      32.438  23.867  26.380  1.00  0.00     0.154 C 
BRANCH  11  12
ATOM     12  C   UNL A   1      31.294  24.218  25.439  1.00  0.00     0.123 C 
BRANCH  12  13
ATOM     13  C   UNL A   1      31.791  24.749  24.111  1.00  0.00     0.222 C 
ATOM     14  N   UNL A   1      32.176  26.051  23.984  1.00  0.00    -0.353 N 
ATOM     15  H   UNL A   1      32.434  26.328  23.076  1.00  0.00     0.163 HD
ATOM     16  O   UNL A   1      31.817  24.019  23.117  1.00  0.00    -0.275 OA
BRANCH  14  17
ATOM     17  C   UNL A   1      32.258  27.092  24.999  1.00  0.00     0.084 C 
ATOM     18  C   UNL A   1      30.512  28.514  23.755  1.00  0.00     0.010 C 
ATOM     19  C   UNL A   1      31.861  28.489  24.474  1.00  0.00     0.008 C 
ATOM     20  C   UNL A   1      31.843  29.472  25.658  1.00  0.00     0.005 C 
ATOM     21  C   UNL A   1      33.187  29.528  26.385  1.00  0.00     0.000 C 
ATOM     22  C   UNL A   1      33.679  27.167  25.575  1.00  0.00     0.025 C 
ATOM     23  C   UNL A   1      33.742  28.151  26.737  1.00  0.00     0.002 C 
ENDBRANCH  14  17
ENDBRANCH  12  13
ENDBRANCH  11  12
ENDBRANCH   7  11
ENDBRANCH   3   6
ENDBRANCH   1   2
BRANCH   1  24
ATOM     24  C   UNL A   1      39.221  22.885  26.349  1.00  0.00     0.042 C 
BRANCH  24  25
ATOM     25  C   UNL A   1      40.321  22.098  27.050  1.00  0.00     0.118 C 
BRANCH  25  26
ATOM     26  N   UNL A   1      41.422  21.748  26.148  1.00  0.00    -0.352 N 
ATOM     27  C   UNL A   1      42.343  22.597  25.554  1.00  0.00     0.251 C 
ATOM     28  H   UNL A   1      41.519  20.791  25.937  1.00  0.00     0.163 HD
ATOM     29  O   UNL A   1      42.971  22.254  24.572  1.00  0.00    -0.269 OA
BRANCH  27  30
ATOM     30  C   UNL A   1      42.527  23.935  26.147  1.00  0.00     0.039 A 
ATOM     31  C   UNL A   1      41.951  25.069  25.570  1.00  0.00     0.014 A 
ATOM     32  C   UNL A   1      43.215  24.012  27.353  1.00  0.00     0.014 A 
ATOM     33  C   UNL A   1      41.977  26.272  26.275  1.00  0.00     0.010 A 
ATOM     34  C   UNL A   1      43.112  25.155  28.106  1.00  0.00     0.010 A 
ATOM     35  C   UNL A   1      42.531  26.304  27.563  1.00  0.00    -0.014 A 
BRANCH  35  36
ATOM     36  C   UNL A   1      42.399  27.491  28.413  1.00  0.00     0.031 A 
ATOM     37  C   UNL A   1      43.481  28.516  28.281  1.00  0.00     0.074 A 
ATOM     38  C   UNL A   1      41.243  27.782  29.051  1.00  0.00     0.049 A 
ATOM     39  N   UNL A   1      44.253  28.989  29.205  1.00  0.00    -0.248 NA
ATOM     40  C   UNL A   1      43.808  29.013  26.932  1.00  0.00     0.031 C 
ATOM     41  C   UNL A   1      39.987  27.019  29.027  1.00  0.00     0.029 A 
ATOM     42  N   UNL A   1      40.889  28.909  29.729  1.00  0.00    -0.354 N 
ATOM     43  C   UNL A   1      45.014  29.993  28.604  1.00  0.00     0.074 A 
ATOM     44  C   UNL A   1      44.824  29.841  27.185  1.00  0.00     0.031 C 
ATOM     45  C   UNL A   1      38.969  27.816  29.410  1.00  0.00     0.029 A 
ATOM     46  C   UNL A   1      39.516  29.076  29.874  1.00  0.00     0.049 A 
ATOM     47  H   UNL A   1      41.548  29.548  30.085  1.00  0.00     0.167 HD
ATOM     48  C   UNL A   1      45.566  31.009  29.327  1.00  0.00     0.037 A 
ATOM     49  C   UNL A   1      38.864  30.183  30.305  1.00  0.00     0.037 A 
ATOM     50  C   UNL A   1      45.569  30.709  30.736  1.00  0.00     0.049 A 
ATOM     51  C   UNL A   1      39.848  30.993  31.067  1.00  0.00     0.074 A 
ATOM     52  C   UNL A   1      46.104  29.701  31.513  1.00  0.00     0.029 A 
ATOM     53  N   UNL A   1      44.632  31.332  31.525  1.00  0.00    -0.354 N 
ATOM     54  N   UNL A   1      40.386  30.612  32.194  1.00  0.00    -0.248 NA
ATOM     55  C   UNL A   1      40.570  32.040  30.360  1.00  0.00     0.031 C 
ATOM     56  C   UNL A   1      45.127  29.458  32.523  1.00  0.00     0.029 A 
ATOM     57  C   UNL A   1      44.088  30.373  32.340  1.00  0.00     0.049 A 
ATOM     58  H   UNL A   1      44.396  32.287  31.508  1.00  0.00     0.167 HD
ATOM     59  C   UNL A   1      41.704  31.037  32.121  1.00  0.00     0.074 A 
ATOM     60  C   UNL A   1      41.725  32.008  31.030  1.00  0.00     0.031 C 
ATOM     61  C   UNL A   1      42.702  30.354  32.755  1.00  0.00     0.037 A 
BRANCH  48  62
ATOM     62  C   UNL A   1      45.781  32.420  28.816  1.00  0.00     0.058 A 
ATOM     63  C   UNL A   1      47.041  33.038  28.991  1.00  0.00     0.135 A 
ATOM     64  C   UNL A   1      44.733  33.284  28.434  1.00  0.00     0.135 A 
ATOM     65  F   UNL A   1      48.112  32.315  29.355  1.00  0.00    -0.206 F 
ATOM     66  C   UNL A   1      47.220  34.418  28.882  1.00  0.00     0.059 A 
ATOM     67  C   UNL A   1      44.903  34.655  28.263  1.00  0.00     0.059 A 
ATOM     68  F   UNL A   1      43.470  32.862  28.305  1.00  0.00    -0.206 F 
ATOM     69  C   UNL A   1      46.138  35.221  28.538  1.00  0.00     0.060 A 
BRANCH  69  70
ATOM     70  S   UNL A   1      46.327  37.012  28.527  1.00  0.00     0.124 S 
ATOM     71  O   UNL A   1      47.693  37.161  29.015  1.00  0.00    -0.237 OA
ATOM     72  O   UNL A   1      46.111  37.332  27.119  1.00  0.00    -0.237 OA
ATOM     73  O   UNL A   1      45.277  37.465  29.435  1.00  0.00    -0.744 OA
ENDBRANCH  69  70
ENDBRANCH  48  62
BRANCH  49  74
ATOM     74  C   UNL A   1      37.539  30.701  29.871  1.00  0.00     0.058 A 
ATOM     75  C   UNL A   1      36.669  31.322  30.784  1.00  0.00     0.135 A 
ATOM     76  C   UNL A   1      37.208  30.842  28.506  1.00  0.00     0.135 A 
ATOM     77  F   UNL A   1      36.912  31.253  32.101  1.00  0.00    -0.206 F 
ATOM     78  C   UNL A   1      35.574  32.087  30.369  1.00  0.00     0.059 A 
ATOM     79  C   UNL A   1      36.112  31.585  28.070  1.00  0.00     0.059 A 
ATOM     80  F   UNL A   1      37.995  30.340  27.543  1.00  0.00    -0.206 F 
ATOM     81  C   UNL A   1      35.316  32.232  29.006  1.00  0.00     0.060 A 
BRANCH  81  82
ATOM     82  S   UNL A   1      34.032  33.383  28.461  1.00  0.00     0.124 S 
ATOM     83  O   UNL A   1      33.055  32.483  27.860  1.00  0.00    -0.237 OA
ATOM     84  O   UNL A   1      33.633  34.015  29.714  1.00  0.00    -0.237 OA
ATOM     85  O   UNL A   1      34.736  34.257  27.525  1.00  0.00    -0.744 OA
ENDBRANCH  81  82
ENDBRANCH  49  74
BRANCH  61  86
ATOM     86  C   UNL A   1      42.322  29.321  33.786  1.00  0.00     0.058 A 
ATOM     87  C   UNL A   1      42.057  27.971  33.497  1.00  0.00     0.135 A 
ATOM     88  C   UNL A   1      42.387  29.680  35.140  1.00  0.00     0.135 A 
ATOM     89  F   UNL A   1      42.084  27.514  32.239  1.00  0.00    -0.206 F 
ATOM     90  C   UNL A   1      41.823  27.032  34.503  1.00  0.00     0.059 A 
ATOM     91  C   UNL A   1      42.190  28.754  36.162  1.00  0.00     0.059 A 
ATOM     92  F   UNL A   1      42.701  30.939  35.488  1.00  0.00    -0.206 F 
ATOM     93  C   UNL A   1      41.895  27.433  35.834  1.00  0.00     0.060 A 
BRANCH  93  94
ATOM     94  S   UNL A   1      41.678  26.198  37.135  1.00  0.00     0.124 S 
ATOM     95  O   UNL A   1      41.715  24.950  36.382  1.00  0.00    -0.237 OA
ATOM     96  O   UNL A   1      42.824  26.448  38.005  1.00  0.00    -0.237 OA
ATOM     97  O   UNL A   1      40.382  26.539  37.716  1.00  0.00    -0.744 OA
ENDBRANCH  93  94
ENDBRANCH  61  86
ENDBRANCH  35  36
ENDBRANCH  27  30
ENDBRANCH  25  26
ENDBRANCH  24  25
ENDBRANCH   1  24
TORSDOF 17
ENDMDL
