MODEL 1
REMARK VINA RESULT:     -11.3      0.000      0.000
REMARK SMILES CC[C@@](C)([NH2+]Cc1ccc(C(N)=O)cc1F)C(=O)NCCCNC(=O)c1ccc(-c2c3nc(c(-c4c(F)cc(S(=O)(=O)[O-])cc4F)c4ccc([nH]4)c(-c4c(F)cc(S(=O)(=O)[O-])cc4F)c4nc(c(-c5c(F)cc(S(=O)(=O)[O-])cc5F)c5ccc2[nH]5)C=C4)C=C3)cc1
REMARK SMILES IDX 20 1 19 2 17 3 18 4 3 6 4 7 2 8 1 9 5 10 6 13 7 14 8 15
REMARK SMILES IDX 15 16 9 17 14 18 16 19 10 20 11 21 12 22 13 23 21 26 22 27
REMARK SMILES IDX 23 28 24 29 25 31 26 32 27 33 91 34 28 35 90 36 29 37 30 38
REMARK SMILES IDX 31 39 84 40 32 41 89 42 83 43 85 44 33 45 88 46 82 47 81 48
REMARK SMILES IDX 34 50 68 51 47 52 67 53 48 54 51 55 66 56 86 57 49 58 50 59
REMARK SMILES IDX 65 61 87 62 52 63 35 64 36 65 45 66 37 67 38 68 44 69 46 70
REMARK SMILES IDX 39 71 40 72 41 73 42 74 43 75 69 76 70 77 79 78 71 79 72 80
REMARK SMILES IDX 78 81 80 82 73 83 74 84 75 85 76 86 77 87 53 88 54 89 63 90
REMARK SMILES IDX 55 91 56 92 62 93 64 94 57 95 58 96 59 97 60 98 61 99
REMARK H PARENT 19 5 5 11 5 12 12 24 12 25 23 30 85 49 51 60
REMARK Flexibility Score: inf
ROOT
ATOM      1  C   UNL A   1      32.861  25.959  25.544  1.00  0.00     0.118 C 
ENDROOT
BRANCH   1   2
ATOM      2  N   UNL A   1      33.861  25.057  26.059  1.00  0.00    -0.351 N 
ATOM      3  C   UNL A   1      34.296  23.822  25.699  1.00  0.00     0.281 C 
ATOM      4  O   UNL A   1      35.112  23.353  26.509  1.00  0.00    -0.268 OA
ATOM      5  H   UNL A   1      34.333  25.416  26.846  1.00  0.00     0.163 HD
BRANCH   3   6
ATOM      6  C   UNL A   1      33.959  23.058  24.354  1.00  0.00     0.172 C 
ATOM      7  C   UNL A   1      33.795  24.019  23.168  1.00  0.00     0.090 C 
BRANCH   6   8
ATOM      8  C   UNL A   1      35.237  22.161  24.047  1.00  0.00     0.075 C 
ATOM      9  C   UNL A   1      36.388  22.848  23.299  1.00  0.00     0.011 C 
ENDBRANCH   6   8
BRANCH   6  10
ATOM     10  N   UNL A   1      32.877  22.034  24.445  1.00  0.00    -0.330 N 
ATOM     11  H   UNL A   1      32.021  22.584  24.524  1.00  0.00     0.347 HD
ATOM     12  H   UNL A   1      33.299  21.458  25.173  1.00  0.00     0.347 HD
BRANCH  10  13
ATOM     13  C   UNL A   1      32.524  20.956  23.526  1.00  0.00     0.301 C 
BRANCH  13  14
ATOM     14  C   UNL A   1      32.579  19.506  23.988  1.00  0.00     0.042 A 
ATOM     15  C   UNL A   1      32.784  19.129  25.312  1.00  0.00     0.013 A 
ATOM     16  C   UNL A   1      32.580  18.450  23.065  1.00  0.00     0.132 A 
ATOM     17  C   UNL A   1      32.879  17.811  25.740  1.00  0.00     0.014 A 
ATOM     18  C   UNL A   1      32.679  17.104  23.463  1.00  0.00     0.053 A 
ATOM     19  F   UNL A   1      32.507  18.717  21.753  1.00  0.00    -0.206 F 
ATOM     20  C   UNL A   1      32.788  16.779  24.819  1.00  0.00     0.042 A 
BRANCH  20  21
ATOM     21  C   UNL A   1      32.844  15.368  25.274  1.00  0.00     0.248 C 
ATOM     22  N   UNL A   1      31.662  14.768  25.623  1.00  0.00    -0.366 N 
ATOM     23  O   UNL A   1      33.899  14.744  25.318  1.00  0.00    -0.270 OA
ATOM     24  H   UNL A   1      30.821  15.278  25.585  1.00  0.00     0.159 HD
ATOM     25  H   UNL A   1      31.653  13.826  25.912  1.00  0.00     0.159 HD
ENDBRANCH  20  21
ENDBRANCH  13  14
ENDBRANCH  10  13
ENDBRANCH   6  10
ENDBRANCH   3   6
ENDBRANCH   1   2
BRANCH   1  26
ATOM     26  C   UNL A   1      32.679  27.173  26.449  1.00  0.00     0.042 C 
BRANCH  26  27
ATOM     27  C   UNL A   1      33.934  28.009  26.593  1.00  0.00     0.118 C 
BRANCH  27  28
ATOM     28  N   UNL A   1      33.640  29.359  27.049  1.00  0.00    -0.352 N 
ATOM     29  C   UNL A   1      34.399  30.225  27.798  1.00  0.00     0.251 C 
ATOM     30  H   UNL A   1      32.758  29.706  26.779  1.00  0.00     0.163 HD
ATOM     31  O   UNL A   1      33.874  31.244  28.241  1.00  0.00    -0.269 OA
BRANCH  29  32
ATOM     32  C   UNL A   1      35.823  29.935  28.082  1.00  0.00     0.039 A 
ATOM     33  C   UNL A   1      36.189  29.524  29.368  1.00  0.00     0.014 A 
ATOM     34  C   UNL A   1      36.808  30.100  27.105  1.00  0.00     0.014 A 
ATOM     35  C   UNL A   1      37.529  29.253  29.655  1.00  0.00     0.010 A 
ATOM     36  C   UNL A   1      38.116  29.708  27.356  1.00  0.00     0.010 A 
ATOM     37  C   UNL A   1      38.502  29.323  28.644  1.00  0.00    -0.014 A 
BRANCH  37  38
ATOM     38  C   UNL A   1      39.939  29.081  28.929  1.00  0.00     0.031 A 
ATOM     39  C   UNL A   1      40.547  27.741  28.597  1.00  0.00     0.074 A 
ATOM     40  C   UNL A   1      40.682  30.040  29.513  1.00  0.00     0.049 A 
ATOM     41  N   UNL A   1      41.763  27.309  28.811  1.00  0.00    -0.248 NA
ATOM     42  C   UNL A   1      39.664  26.739  27.971  1.00  0.00     0.031 C 
ATOM     43  C   UNL A   1      40.191  31.359  29.922  1.00  0.00     0.029 A 
ATOM     44  N   UNL A   1      42.009  30.060  29.861  1.00  0.00    -0.354 N 
ATOM     45  C   UNL A   1      41.781  25.993  28.361  1.00  0.00     0.074 A 
ATOM     46  C   UNL A   1      40.441  25.668  27.936  1.00  0.00     0.031 C 
ATOM     47  C   UNL A   1      41.213  32.073  30.421  1.00  0.00     0.029 A 
ATOM     48  C   UNL A   1      42.420  31.253  30.407  1.00  0.00     0.049 A 
ATOM     49  H   UNL A   1      42.610  29.291  29.731  1.00  0.00     0.167 HD
ATOM     50  C   UNL A   1      42.832  25.144  28.271  1.00  0.00     0.037 A 
ATOM     51  C   UNL A   1      43.635  31.642  30.844  1.00  0.00     0.037 A 
ATOM     52  C   UNL A   1      44.172  25.491  28.657  1.00  0.00     0.049 A 
ATOM     53  C   UNL A   1      44.788  30.682  30.733  1.00  0.00     0.074 A 
ATOM     54  C   UNL A   1      45.318  24.723  28.567  1.00  0.00     0.029 A 
ATOM     55  N   UNL A   1      44.548  26.714  29.196  1.00  0.00    -0.354 N 
ATOM     56  N   UNL A   1      44.797  29.454  30.267  1.00  0.00    -0.248 NA
ATOM     57  C   UNL A   1      46.098  31.157  31.197  1.00  0.00     0.031 C 
ATOM     58  C   UNL A   1      46.380  25.464  29.095  1.00  0.00     0.029 A 
ATOM     59  C   UNL A   1      45.906  26.715  29.456  1.00  0.00     0.049 A 
ATOM     60  H   UNL A   1      43.938  27.468  29.368  1.00  0.00     0.167 HD
ATOM     61  C   UNL A   1      46.117  29.024  30.350  1.00  0.00     0.074 A 
ATOM     62  C   UNL A   1      46.878  30.124  30.905  1.00  0.00     0.031 C 
ATOM     63  C   UNL A   1      46.649  27.829  29.995  1.00  0.00     0.037 A 
BRANCH  50  64
ATOM     64  C   UNL A   1      42.581  23.771  27.709  1.00  0.00     0.058 A 
ATOM     65  C   UNL A   1      42.388  22.672  28.562  1.00  0.00     0.135 A 
ATOM     66  C   UNL A   1      42.585  23.527  26.325  1.00  0.00     0.135 A 
ATOM     67  F   UNL A   1      42.366  22.845  29.893  1.00  0.00    -0.206 F 
ATOM     68  C   UNL A   1      42.225  21.383  28.065  1.00  0.00     0.059 A 
ATOM     69  C   UNL A   1      42.392  22.252  25.805  1.00  0.00     0.059 A 
ATOM     70  F   UNL A   1      42.739  24.544  25.461  1.00  0.00    -0.206 F 
ATOM     71  C   UNL A   1      42.228  21.182  26.684  1.00  0.00     0.060 A 
BRANCH  71  72
ATOM     72  S   UNL A   1      41.988  19.507  26.055  1.00  0.00     0.124 S 
ATOM     73  O   UNL A   1      42.862  19.496  24.888  1.00  0.00    -0.237 OA
ATOM     74  O   UNL A   1      42.422  18.693  27.185  1.00  0.00    -0.237 OA
ATOM     75  O   UNL A   1      40.556  19.455  25.771  1.00  0.00    -0.744 OA
ENDBRANCH  71  72
ENDBRANCH  50  64
BRANCH  51  76
ATOM     76  C   UNL A   1      43.822  33.020  31.371  1.00  0.00     0.058 A 
ATOM     77  C   UNL A   1      43.666  33.311  32.736  1.00  0.00     0.135 A 
ATOM     78  C   UNL A   1      44.121  34.087  30.509  1.00  0.00     0.135 A 
ATOM     79  F   UNL A   1      43.367  32.330  33.602  1.00  0.00    -0.206 F 
ATOM     80  C   UNL A   1      43.773  34.609  33.223  1.00  0.00     0.059 A 
ATOM     81  C   UNL A   1      44.261  35.392  30.976  1.00  0.00     0.059 A 
ATOM     82  F   UNL A   1      44.289  33.860  29.197  1.00  0.00    -0.206 F 
ATOM     83  C   UNL A   1      44.068  35.644  32.334  1.00  0.00     0.060 A 
BRANCH  83  84
ATOM     84  S   UNL A   1      44.192  37.323  32.986  1.00  0.00     0.124 S 
ATOM     85  O   UNL A   1      43.021  37.386  33.855  1.00  0.00    -0.237 OA
ATOM     86  O   UNL A   1      45.485  37.293  33.662  1.00  0.00    -0.237 OA
ATOM     87  O   UNL A   1      44.131  38.157  31.790  1.00  0.00    -0.744 OA
ENDBRANCH  83  84
ENDBRANCH  51  76
BRANCH  63  88
ATOM     88  C   UNL A   1      48.134  27.648  30.151  1.00  0.00     0.058 A 
ATOM     89  C   UNL A   1      48.664  27.183  31.366  1.00  0.00     0.135 A 
ATOM     90  C   UNL A   1      49.034  28.024  29.143  1.00  0.00     0.135 A 
ATOM     91  F   UNL A   1      47.846  26.820  32.367  1.00  0.00    -0.206 F 
ATOM     92  C   UNL A   1      50.034  27.115  31.582  1.00  0.00     0.059 A 
ATOM     93  C   UNL A   1      50.411  27.934  29.327  1.00  0.00     0.059 A 
ATOM     94  F   UNL A   1      48.578  28.468  27.961  1.00  0.00    -0.206 F 
ATOM     95  C   UNL A   1      50.901  27.496  30.557  1.00  0.00     0.060 A 
BRANCH  95  96
ATOM     96  S   UNL A   1      52.678  27.393  30.855  1.00  0.00     0.124 S 
ATOM     97  O   UNL A   1      52.728  26.700  32.137  1.00  0.00    -0.237 OA
ATOM     98  O   UNL A   1      53.139  26.628  29.701  1.00  0.00    -0.237 OA
ATOM     99  O   UNL A   1      53.098  28.792  30.880  1.00  0.00    -0.744 OA
ENDBRANCH  95  96
ENDBRANCH  63  88
ENDBRANCH  37  38
ENDBRANCH  29  32
ENDBRANCH  27  28
ENDBRANCH  26  27
ENDBRANCH   1  26
TORSDOF 18
ENDMDL
MODEL 2
REMARK VINA RESULT:     -11.2      4.721     10.329
REMARK SMILES CC[C@@](C)([NH2+]Cc1ccc(C(N)=O)cc1F)C(=O)NCCCNC(=O)c1ccc(-c2c3nc(c(-c4c(F)cc(S(=O)(=O)[O-])cc4F)c4ccc([nH]4)c(-c4c(F)cc(S(=O)(=O)[O-])cc4F)c4nc(c(-c5c(F)cc(S(=O)(=O)[O-])cc5F)c5ccc2[nH]5)C=C4)C=C3)cc1
REMARK SMILES IDX 20 1 19 2 17 3 18 4 3 6 4 7 2 8 1 9 5 10 6 13 7 14 8 15
REMARK SMILES IDX 15 16 9 17 14 18 16 19 10 20 11 21 12 22 13 23 21 26 22 27
REMARK SMILES IDX 23 28 24 29 25 31 26 32 27 33 91 34 28 35 90 36 29 37 30 38
REMARK SMILES IDX 31 39 84 40 32 41 89 42 83 43 85 44 33 45 88 46 82 47 81 48
REMARK SMILES IDX 34 50 68 51 47 52 67 53 48 54 51 55 66 56 86 57 49 58 50 59
REMARK SMILES IDX 65 61 87 62 52 63 35 64 36 65 45 66 37 67 38 68 44 69 46 70
REMARK SMILES IDX 39 71 40 72 41 73 42 74 43 75 69 76 70 77 79 78 71 79 72 80
REMARK SMILES IDX 78 81 80 82 73 83 74 84 75 85 76 86 77 87 53 88 54 89 63 90
REMARK SMILES IDX 55 91 56 92 62 93 64 94 57 95 58 96 59 97 60 98 61 99
REMARK H PARENT 19 5 5 11 5 12 12 24 12 25 23 30 85 49 51 60
REMARK Flexibility Score: inf
ROOT
ATOM      1  C   UNL A   1      42.654  20.315  26.491  1.00  0.00     0.118 C 
ENDROOT
BRANCH   1   2
ATOM      2  N   UNL A   1      42.838  21.155  25.333  1.00  0.00    -0.351 N 
ATOM      3  C   UNL A   1      43.883  21.866  24.836  1.00  0.00     0.281 C 
ATOM      4  O   UNL A   1      43.561  22.557  23.857  1.00  0.00    -0.268 OA
ATOM      5  H   UNL A   1      42.026  21.230  24.780  1.00  0.00     0.163 HD
BRANCH   3   6
ATOM      6  C   UNL A   1      45.392  21.775  25.304  1.00  0.00     0.172 C 
ATOM      7  C   UNL A   1      45.917  20.333  25.292  1.00  0.00     0.090 C 
BRANCH   6   8
ATOM      8  C   UNL A   1      46.222  22.576  24.208  1.00  0.00     0.075 C 
ATOM      9  C   UNL A   1      46.758  23.952  24.629  1.00  0.00     0.011 C 
ENDBRANCH   6   8
BRANCH   6  10
ATOM     10  N   UNL A   1      45.729  22.521  26.552  1.00  0.00    -0.330 N 
ATOM     11  H   UNL A   1      46.455  23.176  26.262  1.00  0.00     0.347 HD
ATOM     12  H   UNL A   1      45.846  21.713  27.163  1.00  0.00     0.347 HD
BRANCH  10  13
ATOM     13  C   UNL A   1      44.873  23.307  27.436  1.00  0.00     0.301 C 
BRANCH  13  14
ATOM     14  C   UNL A   1      44.884  24.828  27.361  1.00  0.00     0.042 A 
ATOM     15  C   UNL A   1      44.007  25.564  26.568  1.00  0.00     0.013 A 
ATOM     16  C   UNL A   1      45.895  25.578  27.979  1.00  0.00     0.132 A 
ATOM     17  C   UNL A   1      44.034  26.948  26.457  1.00  0.00     0.014 A 
ATOM     18  C   UNL A   1      45.955  26.980  27.882  1.00  0.00     0.053 A 
ATOM     19  F   UNL A   1      46.857  24.951  28.669  1.00  0.00    -0.206 F 
ATOM     20  C   UNL A   1      44.989  27.676  27.148  1.00  0.00     0.042 A 
BRANCH  20  21
ATOM     21  C   UNL A   1      44.996  29.158  27.069  1.00  0.00     0.248 C 
ATOM     22  N   UNL A   1      45.657  29.732  26.013  1.00  0.00    -0.366 N 
ATOM     23  O   UNL A   1      44.418  29.852  27.897  1.00  0.00    -0.270 OA
ATOM     24  H   UNL A   1      46.118  29.165  25.354  1.00  0.00     0.159 HD
ATOM     25  H   UNL A   1      45.668  30.712  25.913  1.00  0.00     0.159 HD
ENDBRANCH  20  21
ENDBRANCH  13  14
ENDBRANCH  10  13
ENDBRANCH   6  10
ENDBRANCH   3   6
ENDBRANCH   1   2
BRANCH   1  26
ATOM     26  C   UNL A   1      41.228  20.398  27.025  1.00  0.00     0.042 C 
BRANCH  26  27
ATOM     27  C   UNL A   1      40.746  21.819  27.232  1.00  0.00     0.118 C 
BRANCH  27  28
ATOM     28  N   UNL A   1      39.666  22.165  26.320  1.00  0.00    -0.352 N 
ATOM     29  C   UNL A   1      38.902  23.304  26.245  1.00  0.00     0.251 C 
ATOM     30  H   UNL A   1      39.449  21.474  25.652  1.00  0.00     0.163 HD
ATOM     31  O   UNL A   1      37.907  23.305  25.524  1.00  0.00    -0.269 OA
BRANCH  29  32
ATOM     32  C   UNL A   1      39.259  24.510  27.027  1.00  0.00     0.039 A 
ATOM     33  C   UNL A   1      40.023  25.511  26.419  1.00  0.00     0.014 A 
ATOM     34  C   UNL A   1      38.879  24.649  28.364  1.00  0.00     0.014 A 
ATOM     35  C   UNL A   1      40.375  26.653  27.144  1.00  0.00     0.010 A 
ATOM     36  C   UNL A   1      39.119  25.838  29.041  1.00  0.00     0.010 A 
ATOM     37  C   UNL A   1      39.907  26.835  28.456  1.00  0.00    -0.014 A 
BRANCH  37  38
ATOM     38  C   UNL A   1      40.298  28.018  29.264  1.00  0.00     0.031 A 
ATOM     39  C   UNL A   1      41.648  28.047  29.934  1.00  0.00     0.074 A 
ATOM     40  C   UNL A   1      39.435  29.040  29.424  1.00  0.00     0.049 A 
ATOM     41  N   UNL A   1      42.160  28.958  30.722  1.00  0.00    -0.248 NA
ATOM     42  C   UNL A   1      42.530  26.885  29.721  1.00  0.00     0.031 C 
ATOM     43  C   UNL A   1      38.083  29.102  28.861  1.00  0.00     0.029 A 
ATOM     44  N   UNL A   1      39.565  30.225  30.102  1.00  0.00    -0.354 N 
ATOM     45  C   UNL A   1      43.406  28.471  31.102  1.00  0.00     0.074 A 
ATOM     46  C   UNL A   1      43.544  27.154  30.527  1.00  0.00     0.031 C 
ATOM     47  C   UNL A   1      37.529  30.282  29.179  1.00  0.00     0.029 A 
ATOM     48  C   UNL A   1      38.464  31.044  30.000  1.00  0.00     0.049 A 
ATOM     49  H   UNL A   1      40.370  30.467  30.614  1.00  0.00     0.167 HD
ATOM     50  C   UNL A   1      44.369  29.084  31.830  1.00  0.00     0.037 A 
ATOM     51  C   UNL A   1      38.239  32.272  30.509  1.00  0.00     0.037 A 
ATOM     52  C   UNL A   1      44.239  30.413  32.362  1.00  0.00     0.049 A 
ATOM     53  C   UNL A   1      39.323  32.935  31.315  1.00  0.00     0.074 A 
ATOM     54  C   UNL A   1      45.168  31.146  33.078  1.00  0.00     0.029 A 
ATOM     55  N   UNL A   1      43.112  31.213  32.228  1.00  0.00    -0.354 N 
ATOM     56  N   UNL A   1      40.512  32.477  31.631  1.00  0.00    -0.248 NA
ATOM     57  C   UNL A   1      39.043  34.282  31.827  1.00  0.00     0.031 C 
ATOM     58  C   UNL A   1      44.587  32.372  33.415  1.00  0.00     0.029 A 
ATOM     59  C   UNL A   1      43.319  32.426  32.858  1.00  0.00     0.049 A 
ATOM     60  H   UNL A   1      42.289  30.954  31.754  1.00  0.00     0.167 HD
ATOM     61  C   UNL A   1      41.134  33.493  32.349  1.00  0.00     0.074 A 
ATOM     62  C   UNL A   1      40.192  34.591  32.415  1.00  0.00     0.031 C 
ATOM     63  C   UNL A   1      42.373  33.514  32.899  1.00  0.00     0.037 A 
BRANCH  50  64
ATOM     64  C   UNL A   1      45.654  28.338  32.071  1.00  0.00     0.058 A 
ATOM     65  C   UNL A   1      46.723  28.441  31.166  1.00  0.00     0.135 A 
ATOM     66  C   UNL A   1      45.812  27.477  33.170  1.00  0.00     0.135 A 
ATOM     67  F   UNL A   1      46.632  29.255  30.101  1.00  0.00    -0.206 F 
ATOM     68  C   UNL A   1      47.892  27.706  31.332  1.00  0.00     0.059 A 
ATOM     69  C   UNL A   1      46.985  26.757  33.374  1.00  0.00     0.059 A 
ATOM     70  F   UNL A   1      44.833  27.360  34.082  1.00  0.00    -0.206 F 
ATOM     71  C   UNL A   1      48.014  26.866  32.440  1.00  0.00     0.060 A 
BRANCH  71  72
ATOM     72  S   UNL A   1      49.549  25.941  32.655  1.00  0.00     0.124 S 
ATOM     73  O   UNL A   1      49.719  25.330  31.342  1.00  0.00    -0.237 OA
ATOM     74  O   UNL A   1      50.497  26.997  32.995  1.00  0.00    -0.237 OA
ATOM     75  O   UNL A   1      49.238  25.018  33.744  1.00  0.00    -0.744 OA
ENDBRANCH  71  72
ENDBRANCH  50  64
BRANCH  51  76
ATOM     76  C   UNL A   1      36.954  32.965  30.220  1.00  0.00     0.058 A 
ATOM     77  C   UNL A   1      36.799  33.778  29.086  1.00  0.00     0.135 A 
ATOM     78  C   UNL A   1      35.866  32.861  31.101  1.00  0.00     0.135 A 
ATOM     79  F   UNL A   1      37.813  33.924  28.218  1.00  0.00    -0.206 F 
ATOM     80  C   UNL A   1      35.624  34.483  28.849  1.00  0.00     0.059 A 
ATOM     81  C   UNL A   1      34.669  33.535  30.870  1.00  0.00     0.059 A 
ATOM     82  F   UNL A   1      35.961  32.089  32.194  1.00  0.00    -0.206 F 
ATOM     83  C   UNL A   1      34.564  34.356  29.749  1.00  0.00     0.060 A 
BRANCH  83  84
ATOM     84  S   UNL A   1      33.052  35.288  29.427  1.00  0.00     0.124 S 
ATOM     85  O   UNL A   1      33.588  36.583  29.018  1.00  0.00    -0.237 OA
ATOM     86  O   UNL A   1      32.426  34.497  28.371  1.00  0.00    -0.237 OA
ATOM     87  O   UNL A   1      32.363  35.271  30.713  1.00  0.00    -0.744 OA
ENDBRANCH  83  84
ENDBRANCH  51  76
BRANCH  63  88
ATOM     88  C   UNL A   1      42.812  34.777  33.588  1.00  0.00     0.058 A 
ATOM     89  C   UNL A   1      43.554  35.742  32.885  1.00  0.00     0.135 A 
ATOM     90  C   UNL A   1      42.588  34.989  34.956  1.00  0.00     0.135 A 
ATOM     91  F   UNL A   1      43.805  35.582  31.576  1.00  0.00    -0.206 F 
ATOM     92  C   UNL A   1      44.073  36.862  33.521  1.00  0.00     0.059 A 
ATOM     93  C   UNL A   1      43.073  36.120  35.606  1.00  0.00     0.059 A 
ATOM     94  F   UNL A   1      41.880  34.100  35.670  1.00  0.00    -0.206 F 
ATOM     95  C   UNL A   1      43.830  37.043  34.883  1.00  0.00     0.060 A 
BRANCH  95  96
ATOM     96  S   UNL A   1      44.508  38.508  35.687  1.00  0.00     0.124 S 
ATOM     97  O   UNL A   1      44.063  38.327  37.065  1.00  0.00    -0.237 OA
ATOM     98  O   UNL A   1      45.940  38.352  35.456  1.00  0.00    -0.237 OA
ATOM     99  O   UNL A   1      43.880  39.612  34.965  1.00  0.00    -0.744 OA
ENDBRANCH  95  96
ENDBRANCH  63  88
ENDBRANCH  37  38
ENDBRANCH  29  32
ENDBRANCH  27  28
ENDBRANCH  26  27
ENDBRANCH   1  26
TORSDOF 18
ENDMDL
MODEL 3
REMARK VINA RESULT:     -11.2      2.929      8.475
REMARK SMILES CC[C@@](C)([NH2+]Cc1ccc(C(N)=O)cc1F)C(=O)NCCCNC(=O)c1ccc(-c2c3nc(c(-c4c(F)cc(S(=O)(=O)[O-])cc4F)c4ccc([nH]4)c(-c4c(F)cc(S(=O)(=O)[O-])cc4F)c4nc(c(-c5c(F)cc(S(=O)(=O)[O-])cc5F)c5ccc2[nH]5)C=C4)C=C3)cc1
REMARK SMILES IDX 20 1 19 2 17 3 18 4 3 6 4 7 2 8 1 9 5 10 6 13 7 14 8 15
REMARK SMILES IDX 15 16 9 17 14 18 16 19 10 20 11 21 12 22 13 23 21 26 22 27
REMARK SMILES IDX 23 28 24 29 25 31 26 32 27 33 91 34 28 35 90 36 29 37 30 38
REMARK SMILES IDX 31 39 84 40 32 41 89 42 83 43 85 44 33 45 88 46 82 47 81 48
REMARK SMILES IDX 34 50 68 51 47 52 67 53 48 54 51 55 66 56 86 57 49 58 50 59
REMARK SMILES IDX 65 61 87 62 52 63 35 64 36 65 45 66 37 67 38 68 44 69 46 70
REMARK SMILES IDX 39 71 40 72 41 73 42 74 43 75 69 76 70 77 79 78 71 79 72 80
REMARK SMILES IDX 78 81 80 82 73 83 74 84 75 85 76 86 77 87 53 88 54 89 63 90
REMARK SMILES IDX 55 91 56 92 62 93 64 94 57 95 58 96 59 97 60 98 61 99
REMARK H PARENT 19 5 5 11 5 12 12 24 12 25 23 30 85 49 51 60
REMARK Flexibility Score: inf
ROOT
ATOM      1  C   UNL A   1      33.628  26.343  25.779  1.00  0.00     0.118 C 
ENDROOT
BRANCH   1   2
ATOM      2  N   UNL A   1      33.748  25.860  24.425  1.00  0.00    -0.351 N 
ATOM      3  C   UNL A   1      33.788  24.625  23.862  1.00  0.00     0.281 C 
ATOM      4  O   UNL A   1      34.024  24.669  22.644  1.00  0.00    -0.268 OA
ATOM      5  H   UNL A   1      33.815  26.586  23.763  1.00  0.00     0.163 HD
BRANCH   3   6
ATOM      6  C   UNL A   1      33.452  23.252  24.574  1.00  0.00     0.172 C 
ATOM      7  C   UNL A   1      34.252  23.060  25.870  1.00  0.00     0.090 C 
BRANCH   6   8
ATOM      8  C   UNL A   1      31.920  23.356  24.988  1.00  0.00     0.075 C 
ATOM      9  C   UNL A   1      31.619  23.352  26.494  1.00  0.00     0.011 C 
ENDBRANCH   6   8
BRANCH   6  10
ATOM     10  N   UNL A   1      33.452  22.048  23.691  1.00  0.00    -0.330 N 
ATOM     11  H   UNL A   1      34.254  21.506  24.011  1.00  0.00     0.347 HD
ATOM     12  H   UNL A   1      33.365  22.536  22.800  1.00  0.00     0.347 HD
BRANCH  10  13
ATOM     13  C   UNL A   1      32.412  21.048  23.466  1.00  0.00     0.301 C 
BRANCH  13  14
ATOM     14  C   UNL A   1      32.625  19.608  23.910  1.00  0.00     0.042 A 
ATOM     15  C   UNL A   1      32.578  18.521  23.041  1.00  0.00     0.013 A 
ATOM     16  C   UNL A   1      32.730  19.274  25.269  1.00  0.00     0.132 A 
ATOM     17  C   UNL A   1      32.727  17.199  23.439  1.00  0.00     0.014 A 
ATOM     18  C   UNL A   1      32.877  17.946  25.707  1.00  0.00     0.053 A 
ATOM     19  F   UNL A   1      32.667  20.242  26.194  1.00  0.00    -0.206 F 
ATOM     20  C   UNL A   1      32.918  16.900  24.779  1.00  0.00     0.042 A 
BRANCH  20  21
ATOM     21  C   UNL A   1      33.122  15.494  25.206  1.00  0.00     0.248 C 
ATOM     22  N   UNL A   1      32.005  14.746  25.474  1.00  0.00    -0.366 N 
ATOM     23  O   UNL A   1      34.241  15.002  25.297  1.00  0.00    -0.270 OA
ATOM     24  H   UNL A   1      31.111  15.150  25.398  1.00  0.00     0.159 HD
ATOM     25  H   UNL A   1      32.097  13.802  25.741  1.00  0.00     0.159 HD
ENDBRANCH  20  21
ENDBRANCH  13  14
ENDBRANCH  10  13
ENDBRANCH   6  10
ENDBRANCH   3   6
ENDBRANCH   1   2
BRANCH   1  26
ATOM     26  C   UNL A   1      33.138  27.786  25.820  1.00  0.00     0.042 C 
BRANCH  26  27
ATOM     27  C   UNL A   1      34.261  28.803  25.831  1.00  0.00     0.118 C 
BRANCH  27  28
ATOM     28  N   UNL A   1      33.841  30.072  26.405  1.00  0.00    -0.352 N 
ATOM     29  C   UNL A   1      34.348  30.769  27.475  1.00  0.00     0.251 C 
ATOM     30  H   UNL A   1      33.074  30.497  25.957  1.00  0.00     0.163 HD
ATOM     31  O   UNL A   1      33.713  31.725  27.915  1.00  0.00    -0.269 OA
BRANCH  29  32
ATOM     32  C   UNL A   1      35.630  30.374  28.101  1.00  0.00     0.039 A 
ATOM     33  C   UNL A   1      35.608  29.572  29.246  1.00  0.00     0.014 A 
ATOM     34  C   UNL A   1      36.854  30.816  27.593  1.00  0.00     0.014 A 
ATOM     35  C   UNL A   1      36.808  29.195  29.854  1.00  0.00     0.010 A 
ATOM     36  C   UNL A   1      38.046  30.337  28.121  1.00  0.00     0.010 A 
ATOM     37  C   UNL A   1      38.039  29.558  29.283  1.00  0.00    -0.014 A 
BRANCH  37  38
ATOM     38  C   UNL A   1      39.330  29.206  29.928  1.00  0.00     0.031 A 
ATOM     39  C   UNL A   1      39.764  29.943  31.170  1.00  0.00     0.074 A 
ATOM     40  C   UNL A   1      40.120  28.261  29.384  1.00  0.00     0.049 A 
ATOM     41  N   UNL A   1      40.873  29.826  31.855  1.00  0.00    -0.248 NA
ATOM     42  C   UNL A   1      38.849  30.972  31.696  1.00  0.00     0.031 C 
ATOM     43  C   UNL A   1      39.825  27.514  28.158  1.00  0.00     0.029 A 
ATOM     44  N   UNL A   1      41.331  27.762  29.792  1.00  0.00    -0.354 N 
ATOM     45  C   UNL A   1      40.789  30.769  32.873  1.00  0.00     0.074 A 
ATOM     46  C   UNL A   1      39.563  31.505  32.675  1.00  0.00     0.031 C 
ATOM     47  C   UNL A   1      40.804  26.622  27.941  1.00  0.00     0.029 A 
ATOM     48  C   UNL A   1      41.816  26.759  28.985  1.00  0.00     0.049 A 
ATOM     49  H   UNL A   1      41.808  28.090  30.588  1.00  0.00     0.167 HD
ATOM     50  C   UNL A   1      41.638  30.976  33.907  1.00  0.00     0.037 A 
ATOM     51  C   UNL A   1      42.945  26.030  29.079  1.00  0.00     0.037 A 
ATOM     52  C   UNL A   1      42.835  30.210  34.121  1.00  0.00     0.049 A 
ATOM     53  C   UNL A   1      43.874  26.276  30.238  1.00  0.00     0.074 A 
ATOM     54  C   UNL A   1      43.744  30.307  35.159  1.00  0.00     0.029 A 
ATOM     55  N   UNL A   1      43.284  29.196  33.286  1.00  0.00    -0.354 N 
ATOM     56  N   UNL A   1      43.759  27.145  31.215  1.00  0.00    -0.248 NA
ATOM     57  C   UNL A   1      45.080  25.442  30.315  1.00  0.00     0.031 C 
ATOM     58  C   UNL A   1      44.767  29.382  34.928  1.00  0.00     0.029 A 
ATOM     59  C   UNL A   1      44.464  28.669  33.779  1.00  0.00     0.049 A 
ATOM     60  H   UNL A   1      42.830  28.897  32.465  1.00  0.00     0.167 HD
ATOM     61  C   UNL A   1      44.860  26.938  32.041  1.00  0.00     0.074 A 
ATOM     62  C   UNL A   1      45.624  25.858  31.451  1.00  0.00     0.031 C 
ATOM     63  C   UNL A   1      45.202  27.581  33.184  1.00  0.00     0.037 A 
BRANCH  50  64
ATOM     64  C   UNL A   1      41.290  32.053  34.900  1.00  0.00     0.058 A 
ATOM     65  C   UNL A   1      40.403  31.794  35.957  1.00  0.00     0.135 A 
ATOM     66  C   UNL A   1      41.793  33.359  34.778  1.00  0.00     0.135 A 
ATOM     67  F   UNL A   1      39.897  30.562  36.129  1.00  0.00    -0.206 F 
ATOM     68  C   UNL A   1      40.013  32.792  36.844  1.00  0.00     0.059 A 
ATOM     69  C   UNL A   1      41.443  34.366  35.672  1.00  0.00     0.059 A 
ATOM     70  F   UNL A   1      42.666  33.658  33.802  1.00  0.00    -0.206 F 
ATOM     71  C   UNL A   1      40.540  34.077  36.694  1.00  0.00     0.060 A 
BRANCH  71  72
ATOM     72  S   UNL A   1      40.046  35.354  37.870  1.00  0.00     0.124 S 
ATOM     73  O   UNL A   1      38.829  34.784  38.438  1.00  0.00    -0.237 OA
ATOM     74  O   UNL A   1      41.200  35.411  38.760  1.00  0.00    -0.237 OA
ATOM     75  O   UNL A   1      39.856  36.533  37.029  1.00  0.00    -0.744 OA
ENDBRANCH  71  72
ENDBRANCH  50  64
BRANCH  51  76
ATOM     76  C   UNL A   1      43.224  24.967  28.076  1.00  0.00     0.058 A 
ATOM     77  C   UNL A   1      42.816  23.640  28.282  1.00  0.00     0.135 A 
ATOM     78  C   UNL A   1      43.946  25.252  26.907  1.00  0.00     0.135 A 
ATOM     79  F   UNL A   1      42.134  23.310  29.390  1.00  0.00    -0.206 F 
ATOM     80  C   UNL A   1      43.133  22.630  27.380  1.00  0.00     0.059 A 
ATOM     81  C   UNL A   1      44.253  24.264  25.974  1.00  0.00     0.059 A 
ATOM     82  F   UNL A   1      44.352  26.507  26.660  1.00  0.00    -0.206 F 
ATOM     83  C   UNL A   1      43.855  22.952  26.229  1.00  0.00     0.060 A 
BRANCH  83  84
ATOM     84  S   UNL A   1      44.266  21.624  25.077  1.00  0.00     0.124 S 
ATOM     85  O   UNL A   1      43.258  20.624  25.412  1.00  0.00    -0.237 OA
ATOM     86  O   UNL A   1      44.105  22.282  23.784  1.00  0.00    -0.237 OA
ATOM     87  O   UNL A   1      45.638  21.277  25.435  1.00  0.00    -0.744 OA
ENDBRANCH  83  84
ENDBRANCH  51  76
BRANCH  63  88
ATOM     88  C   UNL A   1      46.435  27.115  33.909  1.00  0.00     0.058 A 
ATOM     89  C   UNL A   1      46.334  26.139  34.915  1.00  0.00     0.135 A 
ATOM     90  C   UNL A   1      47.691  27.695  33.681  1.00  0.00     0.135 A 
ATOM     91  F   UNL A   1      45.153  25.558  35.180  1.00  0.00    -0.206 F 
ATOM     92  C   UNL A   1      47.432  25.771  35.681  1.00  0.00     0.059 A 
ATOM     93  C   UNL A   1      48.811  27.319  34.416  1.00  0.00     0.059 A 
ATOM     94  F   UNL A   1      47.840  28.627  32.726  1.00  0.00    -0.206 F 
ATOM     95  C   UNL A   1      48.667  26.368  35.427  1.00  0.00     0.060 A 
BRANCH  95  96
ATOM     96  S   UNL A   1      50.083  25.870  36.428  1.00  0.00     0.124 S 
ATOM     97  O   UNL A   1      49.735  26.419  37.734  1.00  0.00    -0.237 OA
ATOM     98  O   UNL A   1      50.041  24.416  36.319  1.00  0.00    -0.237 OA
ATOM     99  O   UNL A   1      51.213  26.510  35.759  1.00  0.00    -0.744 OA
ENDBRANCH  95  96
ENDBRANCH  63  88
ENDBRANCH  37  38
ENDBRANCH  29  32
ENDBRANCH  27  28
ENDBRANCH  26  27
ENDBRANCH   1  26
TORSDOF 18
ENDMDL
