MODEL 1
REMARK VINA RESULT:     -11.2      0.000      0.000
REMARK SMILES CCCCCCNC(=O)Oc1cccc(-c2ccc([C@@H](C)C(=O)NCCCNC(=O)c3ccc(-c4c5nc(c(-c6c(F)cc(S(=O)(=O)[O-])cc6F)c6ccc([nH]6)c(-c6c(F)cc(S(=O)(=O)[O-])cc6F)c6nc(c(-c7c(F)cc(S(=O)(=O)[O-])cc7F)c7ccc4[nH]7)C=C6)C=C5)cc3)cc2Cl)c1
REMARK SMILES IDX 20 1 21 2 19 3 16 4 17 5 98 6 18 7 97 8 99 9 15 10 11 11
REMARK SMILES IDX 12 12 100 13 13 14 14 15 10 16 8 17 7 18 9 20 6 21 5 22 4 23
REMARK SMILES IDX 3 24 2 25 1 26 22 27 23 28 24 29 25 31 26 32 27 33 28 34
REMARK SMILES IDX 29 35 30 37 31 38 32 39 96 40 33 41 95 42 34 43 35 44 36 45
REMARK SMILES IDX 89 46 37 47 94 48 88 49 90 50 38 51 93 52 87 53 86 54 39 56
REMARK SMILES IDX 73 57 52 58 72 59 53 60 56 61 71 62 91 63 54 64 55 65 70 67
REMARK SMILES IDX 92 68 57 69 40 70 41 71 50 72 42 73 43 74 49 75 51 76 44 77
REMARK SMILES IDX 45 78 46 79 47 80 48 81 74 82 75 83 84 84 76 85 77 86 83 87
REMARK SMILES IDX 85 88 78 89 79 90 80 91 81 92 82 93 58 94 59 95 68 96 60 97
REMARK SMILES IDX 61 98 67 99 69 100 62 101 63 102 64 103 65 104 66 105
REMARK H PARENT 7 19 24 30 28 36 90 55 56 66
REMARK Flexibility Score: inf
ROOT
ATOM      1  C   UNL A   1      34.177  34.781  28.711  1.00  0.00     0.105 C 
ATOM      2  C   UNL A   1      34.387  35.911  27.704  1.00  0.00     0.023 C 
ENDROOT
BRANCH   1   3
ATOM      3  C   UNL A   1      33.679  33.473  28.118  1.00  0.00    -0.034 A 
ATOM      4  C   UNL A   1      32.755  30.937  27.132  1.00  0.00     0.000 A 
ATOM      5  C   UNL A   1      31.964  32.101  27.075  1.00  0.00     0.010 A 
ATOM      6  C   UNL A   1      34.053  31.092  27.656  1.00  0.00     0.049 A 
ATOM      7  C   UNL A   1      32.433  33.345  27.509  1.00  0.00     0.005 A 
ATOM      8  C   UNL A   1      34.488  32.328  28.174  1.00  0.00     0.025 A 
ATOM      9  Cl  UNL A   1      35.240  29.827  27.639  1.00  0.00    -0.084 Cl
BRANCH   4  10
ATOM     10  C   UNL A   1      32.174  29.662  26.638  1.00  0.00    -0.013 A 
ATOM     11  C   UNL A   1      31.481  28.177  24.838  1.00  0.00     0.133 A 
ATOM     12  C   UNL A   1      31.101  27.192  25.742  1.00  0.00     0.047 A 
ATOM     13  C   UNL A   1      32.027  29.390  25.268  1.00  0.00     0.056 A 
ATOM     14  C   UNL A   1      31.268  27.424  27.101  1.00  0.00     0.004 A 
ATOM     15  C   UNL A   1      31.782  28.649  27.541  1.00  0.00     0.009 A 
BRANCH  11  16
ATOM     16  O   UNL A   1      31.143  27.957  23.492  1.00  0.00    -0.410 OA
BRANCH  16  17
ATOM     17  C   UNL A   1      31.289  28.976  22.565  1.00  0.00     0.412 C 
ATOM     18  N   UNL A   1      32.553  29.034  22.043  1.00  0.00    -0.321 N 
ATOM     19  H   UNL A   1      32.744  29.781  21.431  1.00  0.00     0.167 HD
ATOM     20  O   UNL A   1      30.419  29.757  22.204  1.00  0.00    -0.224 OA
BRANCH  18  21
ATOM     21  C   UNL A   1      33.636  28.108  22.300  1.00  0.00     0.119 C 
BRANCH  21  22
ATOM     22  C   UNL A   1      33.368  26.741  21.670  1.00  0.00     0.021 C 
BRANCH  22  23
ATOM     23  C   UNL A   1      33.274  25.582  22.671  1.00  0.00     0.002 C 
BRANCH  23  24
ATOM     24  C   UNL A   1      31.990  24.751  22.592  1.00  0.00    -0.000 C 
BRANCH  24  25
ATOM     25  C   UNL A   1      32.015  23.433  23.372  1.00  0.00    -0.003 C 
ATOM     26  C   UNL A   1      31.157  23.463  24.628  1.00  0.00     0.004 C 
ENDBRANCH  24  25
ENDBRANCH  23  24
ENDBRANCH  22  23
ENDBRANCH  21  22
ENDBRANCH  18  21
ENDBRANCH  16  17
ENDBRANCH  11  16
ENDBRANCH   4  10
ENDBRANCH   1   3
BRANCH   1  27
ATOM     27  C   UNL A   1      33.462  35.201  30.004  1.00  0.00     0.227 C 
ATOM     28  O   UNL A   1      32.539  36.025  29.954  1.00  0.00    -0.274 OA
ATOM     29  N   UNL A   1      33.754  34.708  31.237  1.00  0.00    -0.356 N 
ATOM     30  H   UNL A   1      33.156  35.032  31.949  1.00  0.00     0.163 HD
BRANCH  29  31
ATOM     31  C   UNL A   1      34.780  33.794  31.703  1.00  0.00     0.117 C 
BRANCH  31  32
ATOM     32  C   UNL A   1      36.165  34.173  31.187  1.00  0.00     0.042 C 
BRANCH  32  33
ATOM     33  C   UNL A   1      37.091  32.981  31.003  1.00  0.00     0.118 C 
BRANCH  33  34
ATOM     34  N   UNL A   1      36.597  31.794  31.693  1.00  0.00    -0.352 N 
ATOM     35  C   UNL A   1      37.009  30.486  31.597  1.00  0.00     0.251 C 
ATOM     36  H   UNL A   1      35.859  31.955  32.323  1.00  0.00     0.163 HD
ATOM     37  O   UNL A   1      36.320  29.599  32.092  1.00  0.00    -0.269 OA
BRANCH  35  38
ATOM     38  C   UNL A   1      38.265  30.146  30.892  1.00  0.00     0.039 A 
ATOM     39  C   UNL A   1      38.328  30.275  29.501  1.00  0.00     0.014 A 
ATOM     40  C   UNL A   1      39.376  29.682  31.600  1.00  0.00     0.014 A 
ATOM     41  C   UNL A   1      39.525  30.003  28.830  1.00  0.00     0.010 A 
ATOM     42  C   UNL A   1      40.587  29.498  30.944  1.00  0.00     0.010 A 
ATOM     43  C   UNL A   1      40.674  29.645  29.552  1.00  0.00    -0.014 A 
BRANCH  43  44
ATOM     44  C   UNL A   1      41.977  29.372  28.893  1.00  0.00     0.031 A 
ATOM     45  C   UNL A   1      42.266  27.985  28.383  1.00  0.00     0.074 A 
ATOM     46  C   UNL A   1      42.930  30.324  28.853  1.00  0.00     0.049 A 
ATOM     47  N   UNL A   1      43.394  27.471  27.970  1.00  0.00    -0.248 NA
ATOM     48  C   UNL A   1      41.137  27.039  28.376  1.00  0.00     0.031 C 
ATOM     49  C   UNL A   1      42.781  31.696  29.339  1.00  0.00     0.029 A 
ATOM     50  N   UNL A   1      44.228  30.270  28.407  1.00  0.00    -0.354 N 
ATOM     51  C   UNL A   1      43.121  26.137  27.690  1.00  0.00     0.074 A 
ATOM     52  C   UNL A   1      41.732  25.910  28.022  1.00  0.00     0.031 C 
ATOM     53  C   UNL A   1      43.938  32.354  29.165  1.00  0.00     0.029 A 
ATOM     54  C   UNL A   1      44.927  31.439  28.601  1.00  0.00     0.049 A 
ATOM     55  H   UNL A   1      44.622  29.470  27.988  1.00  0.00     0.167 HD
ATOM     56  C   UNL A   1      43.949  25.193  27.185  1.00  0.00     0.037 A 
ATOM     57  C   UNL A   1      46.223  31.731  28.376  1.00  0.00     0.037 A 
ATOM     58  C   UNL A   1      45.319  25.441  26.823  1.00  0.00     0.049 A 
ATOM     59  C   UNL A   1      47.127  30.666  27.813  1.00  0.00     0.074 A 
ATOM     60  C   UNL A   1      46.232  24.568  26.257  1.00  0.00     0.029 A 
ATOM     61  N   UNL A   1      45.972  26.654  26.986  1.00  0.00    -0.354 N 
ATOM     62  N   UNL A   1      46.845  29.419  27.518  1.00  0.00    -0.248 NA
ATOM     63  C   UNL A   1      48.522  31.045  27.547  1.00  0.00     0.031 C 
ATOM     64  C   UNL A   1      47.448  25.243  26.112  1.00  0.00     0.029 A 
ATOM     65  C   UNL A   1      47.279  26.551  26.538  1.00  0.00     0.049 A 
ATOM     66  H   UNL A   1      45.568  27.468  27.365  1.00  0.00     0.167 HD
ATOM     67  C   UNL A   1      48.015  28.878  26.997  1.00  0.00     0.074 A 
ATOM     68  C   UNL A   1      49.009  29.930  27.018  1.00  0.00     0.031 C 
ATOM     69  C   UNL A   1      48.243  27.623  26.536  1.00  0.00     0.037 A 
BRANCH  56  70
ATOM     70  C   UNL A   1      43.395  23.807  26.993  1.00  0.00     0.058 A 
ATOM     71  C   UNL A   1      42.943  23.361  25.740  1.00  0.00     0.135 A 
ATOM     72  C   UNL A   1      43.341  22.904  28.067  1.00  0.00     0.135 A 
ATOM     73  F   UNL A   1      42.957  24.186  24.683  1.00  0.00    -0.206 F 
ATOM     74  C   UNL A   1      42.425  22.081  25.568  1.00  0.00     0.059 A 
ATOM     75  C   UNL A   1      42.855  21.609  27.910  1.00  0.00     0.059 A 
ATOM     76  F   UNL A   1      43.761  23.277  29.287  1.00  0.00    -0.206 F 
ATOM     77  C   UNL A   1      42.384  21.213  26.660  1.00  0.00     0.060 A 
BRANCH  77  78
ATOM     78  S   UNL A   1      41.710  19.556  26.417  1.00  0.00     0.124 S 
ATOM     79  O   UNL A   1      42.417  19.127  25.214  1.00  0.00    -0.237 OA
ATOM     80  O   UNL A   1      42.095  18.878  27.653  1.00  0.00    -0.237 OA
ATOM     81  O   UNL A   1      40.279  19.791  26.254  1.00  0.00    -0.744 OA
ENDBRANCH  77  78
ENDBRANCH  56  70
BRANCH  57  82
ATOM     82  C   UNL A   1      46.740  33.095  28.669  1.00  0.00     0.058 A 
ATOM     83  C   UNL A   1      47.271  33.409  29.930  1.00  0.00     0.135 A 
ATOM     84  C   UNL A   1      46.731  34.106  27.696  1.00  0.00     0.135 A 
ATOM     85  F   UNL A   1      47.295  32.479  30.896  1.00  0.00    -0.206 F 
ATOM     86  C   UNL A   1      47.759  34.679  30.221  1.00  0.00     0.059 A 
ATOM     87  C   UNL A   1      47.238  35.376  27.955  1.00  0.00     0.059 A 
ATOM     88  F   UNL A   1      46.248  33.855  26.470  1.00  0.00    -0.206 F 
ATOM     89  C   UNL A   1      47.741  35.656  29.224  1.00  0.00     0.060 A 
BRANCH  89  90
ATOM     90  S   UNL A   1      48.421  37.287  29.595  1.00  0.00     0.124 S 
ATOM     91  O   UNL A   1      49.835  36.981  29.781  1.00  0.00    -0.237 OA
ATOM     92  O   UNL A   1      48.083  38.042  28.393  1.00  0.00    -0.237 OA
ATOM     93  O   UNL A   1      47.698  37.687  30.800  1.00  0.00    -0.744 OA
ENDBRANCH  89  90
ENDBRANCH  57  82
BRANCH  69  94
ATOM     94  C   UNL A   1      49.593  27.324  25.947  1.00  0.00     0.058 A 
ATOM     95  C   UNL A   1      50.657  26.854  26.731  1.00  0.00     0.135 A 
ATOM     96  C   UNL A   1      49.788  27.416  24.559  1.00  0.00     0.135 A 
ATOM     97  F   UNL A   1      50.525  26.755  28.063  1.00  0.00    -0.206 F 
ATOM     98  C   UNL A   1      51.871  26.486  26.158  1.00  0.00     0.059 A 
ATOM     99  C   UNL A   1      50.983  27.031  23.962  1.00  0.00     0.059 A 
ATOM    100  F   UNL A   1      48.798  27.853  23.765  1.00  0.00    -0.206 F 
ATOM    101  C   UNL A   1      52.020  26.570  24.771  1.00  0.00     0.060 A 
BRANCH 101 102
ATOM    102  S   UNL A   1      53.574  26.019  24.035  1.00  0.00     0.124 S 
ATOM    103  O   UNL A   1      53.226  25.962  22.619  1.00  0.00    -0.237 OA
ATOM    104  O   UNL A   1      54.497  27.082  24.420  1.00  0.00    -0.237 OA
ATOM    105  O   UNL A   1      53.814  24.727  24.674  1.00  0.00    -0.744 OA
ENDBRANCH 101 102
ENDBRANCH  69  94
ENDBRANCH  43  44
ENDBRANCH  35  38
ENDBRANCH  33  34
ENDBRANCH  32  33
ENDBRANCH  31  32
ENDBRANCH  29  31
ENDBRANCH   1  27
TORSDOF 22
ENDMDL
MODEL 2
REMARK VINA RESULT:     -11.0      1.243      2.080
REMARK SMILES CCCCCCNC(=O)Oc1cccc(-c2ccc([C@@H](C)C(=O)NCCCNC(=O)c3ccc(-c4c5nc(c(-c6c(F)cc(S(=O)(=O)[O-])cc6F)c6ccc([nH]6)c(-c6c(F)cc(S(=O)(=O)[O-])cc6F)c6nc(c(-c7c(F)cc(S(=O)(=O)[O-])cc7F)c7ccc4[nH]7)C=C6)C=C5)cc3)cc2Cl)c1
REMARK SMILES IDX 20 1 21 2 19 3 16 4 17 5 98 6 18 7 97 8 99 9 15 10 11 11
REMARK SMILES IDX 12 12 100 13 13 14 14 15 10 16 8 17 7 18 9 20 6 21 5 22 4 23
REMARK SMILES IDX 3 24 2 25 1 26 22 27 23 28 24 29 25 31 26 32 27 33 28 34
REMARK SMILES IDX 29 35 30 37 31 38 32 39 96 40 33 41 95 42 34 43 35 44 36 45
REMARK SMILES IDX 89 46 37 47 94 48 88 49 90 50 38 51 93 52 87 53 86 54 39 56
REMARK SMILES IDX 73 57 52 58 72 59 53 60 56 61 71 62 91 63 54 64 55 65 70 67
REMARK SMILES IDX 92 68 57 69 40 70 41 71 50 72 42 73 43 74 49 75 51 76 44 77
REMARK SMILES IDX 45 78 46 79 47 80 48 81 74 82 75 83 84 84 76 85 77 86 83 87
REMARK SMILES IDX 85 88 78 89 79 90 80 91 81 92 82 93 58 94 59 95 68 96 60 97
REMARK SMILES IDX 61 98 67 99 69 100 62 101 63 102 64 103 65 104 66 105
REMARK H PARENT 7 19 24 30 28 36 90 55 56 66
REMARK Flexibility Score: inf
ROOT
ATOM      1  C   UNL A   1      34.826  34.241  28.896  1.00  0.00     0.105 C 
ATOM      2  C   UNL A   1      34.439  35.437  28.028  1.00  0.00     0.023 C 
ENDROOT
BRANCH   1   3
ATOM      3  C   UNL A   1      34.412  32.885  28.348  1.00  0.00    -0.034 A 
ATOM      4  C   UNL A   1      33.641  30.267  27.449  1.00  0.00     0.000 A 
ATOM      5  C   UNL A   1      32.806  31.391  27.298  1.00  0.00     0.010 A 
ATOM      6  C   UNL A   1      34.906  30.503  28.023  1.00  0.00     0.049 A 
ATOM      7  C   UNL A   1      33.202  32.673  27.690  1.00  0.00     0.005 A 
ATOM      8  C   UNL A   1      35.264  31.781  28.497  1.00  0.00     0.025 A 
ATOM      9  Cl  UNL A   1      36.144  29.292  28.123  1.00  0.00    -0.084 Cl
BRANCH   4  10
ATOM     10  C   UNL A   1      33.139  28.945  26.994  1.00  0.00    -0.013 A 
ATOM     11  C   UNL A   1      33.468  26.768  25.955  1.00  0.00     0.133 A 
ATOM     12  C   UNL A   1      32.143  26.414  26.183  1.00  0.00     0.047 A 
ATOM     13  C   UNL A   1      33.972  28.005  26.366  1.00  0.00     0.056 A 
ATOM     14  C   UNL A   1      31.307  27.313  26.833  1.00  0.00     0.004 A 
ATOM     15  C   UNL A   1      31.796  28.567  27.217  1.00  0.00     0.009 A 
BRANCH  11  16
ATOM     16  O   UNL A   1      34.221  25.893  25.155  1.00  0.00    -0.410 OA
BRANCH  16  17
ATOM     17  C   UNL A   1      34.031  24.524  25.256  1.00  0.00     0.412 C 
ATOM     18  N   UNL A   1      33.498  23.982  24.118  1.00  0.00    -0.321 N 
ATOM     19  H   UNL A   1      33.270  23.025  24.149  1.00  0.00     0.167 HD
ATOM     20  O   UNL A   1      34.302  23.825  26.223  1.00  0.00    -0.224 OA
BRANCH  18  21
ATOM     21  C   UNL A   1      33.234  24.674  22.873  1.00  0.00     0.119 C 
BRANCH  21  22
ATOM     22  C   UNL A   1      31.807  25.221  22.826  1.00  0.00     0.021 C 
BRANCH  22  23
ATOM     23  C   UNL A   1      31.632  26.482  21.971  1.00  0.00     0.002 C 
BRANCH  23  24
ATOM     24  C   UNL A   1      31.156  27.726  22.727  1.00  0.00    -0.000 C 
BRANCH  24  25
ATOM     25  C   UNL A   1      32.259  28.714  23.121  1.00  0.00    -0.003 C 
ATOM     26  C   UNL A   1      33.604  28.394  22.487  1.00  0.00     0.004 C 
ENDBRANCH  24  25
ENDBRANCH  23  24
ENDBRANCH  22  23
ENDBRANCH  21  22
ENDBRANCH  18  21
ENDBRANCH  16  17
ENDBRANCH  11  16
ENDBRANCH   4  10
ENDBRANCH   1   3
BRANCH   1  27
ATOM     27  C   UNL A   1      34.554  34.425  30.396  1.00  0.00     0.227 C 
ATOM     28  O   UNL A   1      33.391  34.566  30.796  1.00  0.00    -0.274 OA
ATOM     29  N   UNL A   1      35.517  34.422  31.356  1.00  0.00    -0.356 N 
ATOM     30  H   UNL A   1      35.166  34.485  32.275  1.00  0.00     0.163 HD
BRANCH  29  31
ATOM     31  C   UNL A   1      36.963  34.344  31.286  1.00  0.00     0.117 C 
BRANCH  31  32
ATOM     32  C   UNL A   1      37.594  34.116  32.656  1.00  0.00     0.042 C 
BRANCH  32  33
ATOM     33  C   UNL A   1      38.297  32.774  32.786  1.00  0.00     0.118 C 
BRANCH  33  34
ATOM     34  N   UNL A   1      37.362  31.658  32.701  1.00  0.00    -0.352 N 
ATOM     35  C   UNL A   1      37.405  30.531  31.912  1.00  0.00     0.251 C 
ATOM     36  H   UNL A   1      36.583  31.719  33.298  1.00  0.00     0.163 HD
ATOM     37  O   UNL A   1      36.411  29.819  31.824  1.00  0.00    -0.269 OA
BRANCH  35  38
ATOM     38  C   UNL A   1      38.636  30.188  31.165  1.00  0.00     0.039 A 
ATOM     39  C   UNL A   1      38.769  30.598  29.835  1.00  0.00     0.014 A 
ATOM     40  C   UNL A   1      39.652  29.445  31.770  1.00  0.00     0.014 A 
ATOM     41  C   UNL A   1      39.947  30.321  29.135  1.00  0.00     0.010 A 
ATOM     42  C   UNL A   1      40.855  29.247  31.104  1.00  0.00     0.010 A 
ATOM     43  C   UNL A   1      41.014  29.673  29.777  1.00  0.00    -0.014 A 
BRANCH  43  44
ATOM     44  C   UNL A   1      42.298  29.378  29.090  1.00  0.00     0.031 A 
ATOM     45  C   UNL A   1      42.539  27.995  28.546  1.00  0.00     0.074 A 
ATOM     46  C   UNL A   1      43.277  30.304  29.053  1.00  0.00     0.049 A 
ATOM     47  N   UNL A   1      43.645  27.459  28.102  1.00  0.00    -0.248 NA
ATOM     48  C   UNL A   1      41.384  27.081  28.538  1.00  0.00     0.031 C 
ATOM     49  C   UNL A   1      43.174  31.669  29.571  1.00  0.00     0.029 A 
ATOM     50  N   UNL A   1      44.565  30.223  28.584  1.00  0.00    -0.354 N 
ATOM     51  C   UNL A   1      43.330  26.139  27.799  1.00  0.00     0.074 A 
ATOM     52  C   UNL A   1      41.941  25.944  28.150  1.00  0.00     0.031 C 
ATOM     53  C   UNL A   1      44.347  32.297  29.391  1.00  0.00     0.029 A 
ATOM     54  C   UNL A   1      45.300  31.368  28.790  1.00  0.00     0.049 A 
ATOM     55  H   UNL A   1      44.929  29.422  28.142  1.00  0.00     0.167 HD
ATOM     56  C   UNL A   1      44.123  25.184  27.260  1.00  0.00     0.037 A 
ATOM     57  C   UNL A   1      46.599  31.629  28.550  1.00  0.00     0.037 A 
ATOM     58  C   UNL A   1      45.493  25.402  26.879  1.00  0.00     0.049 A 
ATOM     59  C   UNL A   1      47.464  30.551  27.949  1.00  0.00     0.074 A 
ATOM     60  C   UNL A   1      46.371  24.516  26.279  1.00  0.00     0.029 A 
ATOM     61  N   UNL A   1      46.183  26.592  27.057  1.00  0.00    -0.354 N 
ATOM     62  N   UNL A   1      47.142  29.319  27.632  1.00  0.00    -0.248 NA
ATOM     63  C   UNL A   1      48.865  30.897  27.667  1.00  0.00     0.031 C 
ATOM     64  C   UNL A   1      47.603  25.160  26.128  1.00  0.00     0.029 A 
ATOM     65  C   UNL A   1      47.478  26.462  26.585  1.00  0.00     0.049 A 
ATOM     66  H   UNL A   1      45.808  27.408  27.460  1.00  0.00     0.167 HD
ATOM     67  C   UNL A   1      48.287  28.757  27.079  1.00  0.00     0.074 A 
ATOM     68  C   UNL A   1      49.311  29.781  27.105  1.00  0.00     0.031 C 
ATOM     69  C   UNL A   1      48.472  27.507  26.588  1.00  0.00     0.037 A 
BRANCH  56  70
ATOM     70  C   UNL A   1      43.527  23.819  27.048  1.00  0.00     0.058 A 
ATOM     71  C   UNL A   1      42.974  23.438  25.814  1.00  0.00     0.135 A 
ATOM     72  C   UNL A   1      43.533  22.868  28.081  1.00  0.00     0.135 A 
ATOM     73  F   UNL A   1      42.927  24.312  24.796  1.00  0.00    -0.206 F 
ATOM     74  C   UNL A   1      42.417  22.177  25.624  1.00  0.00     0.059 A 
ATOM     75  C   UNL A   1      43.010  21.590  27.903  1.00  0.00     0.059 A 
ATOM     76  F   UNL A   1      44.050  23.177  29.282  1.00  0.00    -0.206 F 
ATOM     77  C   UNL A   1      42.439  21.261  26.675  1.00  0.00     0.060 A 
BRANCH  77  78
ATOM     78  S   UNL A   1      41.714  19.629  26.410  1.00  0.00     0.124 S 
ATOM     79  O   UNL A   1      42.092  18.939  27.640  1.00  0.00    -0.237 OA
ATOM     80  O   UNL A   1      40.294  19.937  26.269  1.00  0.00    -0.237 OA
ATOM     81  O   UNL A   1      42.373  19.156  25.197  1.00  0.00    -0.744 OA
ENDBRANCH  77  78
ENDBRANCH  56  70
BRANCH  57  82
ATOM     82  C   UNL A   1      47.160  32.971  28.863  1.00  0.00     0.058 A 
ATOM     83  C   UNL A   1      47.708  33.246  30.125  1.00  0.00     0.135 A 
ATOM     84  C   UNL A   1      47.175  33.999  27.908  1.00  0.00     0.135 A 
ATOM     85  F   UNL A   1      47.711  32.299  31.075  1.00  0.00    -0.206 F 
ATOM     86  C   UNL A   1      48.237  34.496  30.434  1.00  0.00     0.059 A 
ATOM     87  C   UNL A   1      47.722  35.248  28.185  1.00  0.00     0.059 A 
ATOM     88  F   UNL A   1      46.676  33.784  26.681  1.00  0.00    -0.206 F 
ATOM     89  C   UNL A   1      48.241  35.490  29.455  1.00  0.00     0.060 A 
BRANCH  89  90
ATOM     90  S   UNL A   1      48.973  37.094  29.850  1.00  0.00     0.124 S 
ATOM     91  O   UNL A   1      47.790  37.891  30.150  1.00  0.00    -0.237 OA
ATOM     92  O   UNL A   1      49.831  36.769  30.986  1.00  0.00    -0.237 OA
ATOM     93  O   UNL A   1      49.681  37.451  28.623  1.00  0.00    -0.744 OA
ENDBRANCH  89  90
ENDBRANCH  57  82
BRANCH  69  94
ATOM     94  C   UNL A   1      49.803  27.184  25.970  1.00  0.00     0.058 A 
ATOM     95  C   UNL A   1      50.034  27.312  24.593  1.00  0.00     0.135 A 
ATOM     96  C   UNL A   1      50.890  26.840  26.790  1.00  0.00     0.135 A 
ATOM     97  F   UNL A   1      49.027  27.632  23.765  1.00  0.00    -0.206 F 
ATOM     98  C   UNL A   1      51.297  27.108  24.048  1.00  0.00     0.059 A 
ATOM     99  C   UNL A   1      52.167  26.654  26.271  1.00  0.00     0.059 A 
ATOM    100  F   UNL A   1      50.723  26.711  28.116  1.00  0.00    -0.206 F 
ATOM    101  C   UNL A   1      52.360  26.788  24.897  1.00  0.00     0.060 A 
BRANCH 101 102
ATOM    102  S   UNL A   1      54.009  26.598  24.186  1.00  0.00     0.124 S 
ATOM    103  O   UNL A   1      54.304  25.203  24.493  1.00  0.00    -0.237 OA
ATOM    104  O   UNL A   1      53.779  26.903  22.777  1.00  0.00    -0.237 OA
ATOM    105  O   UNL A   1      54.807  27.584  24.911  1.00  0.00    -0.744 OA
ENDBRANCH 101 102
ENDBRANCH  69  94
ENDBRANCH  43  44
ENDBRANCH  35  38
ENDBRANCH  33  34
ENDBRANCH  32  33
ENDBRANCH  31  32
ENDBRANCH  29  31
ENDBRANCH   1  27
TORSDOF 22
ENDMDL
MODEL 3
REMARK VINA RESULT:     -10.8      2.376      9.088
REMARK SMILES CCCCCCNC(=O)Oc1cccc(-c2ccc([C@@H](C)C(=O)NCCCNC(=O)c3ccc(-c4c5nc(c(-c6c(F)cc(S(=O)(=O)[O-])cc6F)c6ccc([nH]6)c(-c6c(F)cc(S(=O)(=O)[O-])cc6F)c6nc(c(-c7c(F)cc(S(=O)(=O)[O-])cc7F)c7ccc4[nH]7)C=C6)C=C5)cc3)cc2Cl)c1
REMARK SMILES IDX 20 1 21 2 19 3 16 4 17 5 98 6 18 7 97 8 99 9 15 10 11 11
REMARK SMILES IDX 12 12 100 13 13 14 14 15 10 16 8 17 7 18 9 20 6 21 5 22 4 23
REMARK SMILES IDX 3 24 2 25 1 26 22 27 23 28 24 29 25 31 26 32 27 33 28 34
REMARK SMILES IDX 29 35 30 37 31 38 32 39 96 40 33 41 95 42 34 43 35 44 36 45
REMARK SMILES IDX 89 46 37 47 94 48 88 49 90 50 38 51 93 52 87 53 86 54 39 56
REMARK SMILES IDX 73 57 52 58 72 59 53 60 56 61 71 62 91 63 54 64 55 65 70 67
REMARK SMILES IDX 92 68 57 69 40 70 41 71 50 72 42 73 43 74 49 75 51 76 44 77
REMARK SMILES IDX 45 78 46 79 47 80 48 81 74 82 75 83 84 84 76 85 77 86 83 87
REMARK SMILES IDX 85 88 78 89 79 90 80 91 81 92 82 93 58 94 59 95 68 96 60 97
REMARK SMILES IDX 61 98 67 99 69 100 62 101 63 102 64 103 65 104 66 105
REMARK H PARENT 7 19 24 30 28 36 90 55 56 66
REMARK Flexibility Score: inf
ROOT
ATOM      1  C   UNL A   1      31.268  28.385  26.477  1.00  0.00     0.105 C 
ATOM      2  C   UNL A   1      31.450  28.510  27.989  1.00  0.00     0.023 C 
ENDROOT
BRANCH   1   3
ATOM      3  C   UNL A   1      31.397  26.974  25.928  1.00  0.00    -0.034 A 
ATOM      4  C   UNL A   1      31.686  24.365  24.758  1.00  0.00     0.000 A 
ATOM      5  C   UNL A   1      32.408  24.763  25.899  1.00  0.00     0.010 A 
ATOM      6  C   UNL A   1      30.768  25.303  24.244  1.00  0.00     0.049 A 
ATOM      7  C   UNL A   1      32.231  26.014  26.498  1.00  0.00     0.005 A 
ATOM      8  C   UNL A   1      30.659  26.594  24.797  1.00  0.00     0.025 A 
ATOM      9  Cl  UNL A   1      29.655  24.939  22.964  1.00  0.00    -0.084 Cl
BRANCH   4  10
ATOM     10  C   UNL A   1      31.935  23.012  24.198  1.00  0.00    -0.013 A 
ATOM     11  C   UNL A   1      32.382  20.633  24.458  1.00  0.00     0.133 A 
ATOM     12  C   UNL A   1      32.362  20.438  23.082  1.00  0.00     0.047 A 
ATOM     13  C   UNL A   1      32.155  21.893  25.018  1.00  0.00     0.056 A 
ATOM     14  C   UNL A   1      32.112  21.521  22.251  1.00  0.00     0.004 A 
ATOM     15  C   UNL A   1      31.918  22.793  22.803  1.00  0.00     0.009 A 
BRANCH  11  16
ATOM     16  O   UNL A   1      32.797  19.542  25.240  1.00  0.00    -0.410 OA
BRANCH  16  17
ATOM     17  C   UNL A   1      33.839  18.738  24.809  1.00  0.00     0.412 C 
ATOM     18  N   UNL A   1      35.051  19.372  24.865  1.00  0.00    -0.321 N 
ATOM     19  H   UNL A   1      35.824  18.880  24.505  1.00  0.00     0.167 HD
ATOM     20  O   UNL A   1      33.749  17.579  24.425  1.00  0.00    -0.224 OA
BRANCH  18  21
ATOM     21  C   UNL A   1      35.310  20.693  25.399  1.00  0.00     0.119 C 
BRANCH  21  22
ATOM     22  C   UNL A   1      35.693  21.680  24.295  1.00  0.00     0.021 C 
BRANCH  22  23
ATOM     23  C   UNL A   1      37.121  22.230  24.396  1.00  0.00     0.002 C 
BRANCH  23  24
ATOM     24  C   UNL A   1      37.657  22.405  25.820  1.00  0.00    -0.000 C 
BRANCH  24  25
ATOM     25  C   UNL A   1      39.183  22.378  25.953  1.00  0.00    -0.003 C 
ATOM     26  C   UNL A   1      39.672  22.821  27.323  1.00  0.00     0.004 C 
ENDBRANCH  24  25
ENDBRANCH  23  24
ENDBRANCH  22  23
ENDBRANCH  21  22
ENDBRANCH  18  21
ENDBRANCH  16  17
ENDBRANCH  11  16
ENDBRANCH   4  10
ENDBRANCH   1   3
BRANCH   1  27
ATOM     27  C   UNL A   1      32.002  29.453  25.654  1.00  0.00     0.227 C 
ATOM     28  O   UNL A   1      31.351  30.310  25.042  1.00  0.00    -0.274 OA
ATOM     29  N   UNL A   1      33.354  29.551  25.557  1.00  0.00    -0.356 N 
ATOM     30  H   UNL A   1      33.662  30.334  25.043  1.00  0.00     0.163 HD
BRANCH  29  31
ATOM     31  C   UNL A   1      34.431  28.724  26.066  1.00  0.00     0.117 C 
BRANCH  31  32
ATOM     32  C   UNL A   1      34.794  29.074  27.505  1.00  0.00     0.042 C 
BRANCH  32  33
ATOM     33  C   UNL A   1      35.398  30.460  27.660  1.00  0.00     0.118 C 
BRANCH  33  34
ATOM     34  N   UNL A   1      35.374  30.915  29.046  1.00  0.00    -0.352 N 
ATOM     35  C   UNL A   1      36.305  30.745  30.044  1.00  0.00     0.251 C 
ATOM     36  H   UNL A   1      34.571  31.420  29.306  1.00  0.00     0.163 HD
ATOM     37  O   UNL A   1      36.002  31.007  31.204  1.00  0.00    -0.269 OA
BRANCH  35  38
ATOM     38  C   UNL A   1      37.658  30.236  29.726  1.00  0.00     0.039 A 
ATOM     39  C   UNL A   1      38.096  30.231  28.398  1.00  0.00     0.014 A 
ATOM     40  C   UNL A   1      38.490  29.745  30.735  1.00  0.00     0.014 A 
ATOM     41  C   UNL A   1      39.390  29.798  28.092  1.00  0.00     0.010 A 
ATOM     42  C   UNL A   1      39.803  29.398  30.442  1.00  0.00     0.010 A 
ATOM     43  C   UNL A   1      40.265  29.410  29.118  1.00  0.00    -0.014 A 
BRANCH  43  44
ATOM     44  C   UNL A   1      41.659  28.968  28.853  1.00  0.00     0.031 A 
ATOM     45  C   UNL A   1      42.765  29.990  28.847  1.00  0.00     0.074 A 
ATOM     46  C   UNL A   1      41.913  27.689  28.514  1.00  0.00     0.049 A 
ATOM     47  N   UNL A   1      44.002  29.872  28.442  1.00  0.00    -0.248 NA
ATOM     48  C   UNL A   1      42.417  31.339  29.326  1.00  0.00     0.031 C 
ATOM     49  C   UNL A   1      40.922  26.613  28.457  1.00  0.00     0.029 A 
ATOM     50  N   UNL A   1      43.082  27.084  28.121  1.00  0.00    -0.354 N 
ATOM     51  C   UNL A   1      44.567  31.134  28.582  1.00  0.00     0.074 A 
ATOM     52  C   UNL A   1      43.527  32.013  29.067  1.00  0.00     0.031 C 
ATOM     53  C   UNL A   1      41.523  25.482  28.056  1.00  0.00     0.029 A 
ATOM     54  C   UNL A   1      42.930  25.761  27.779  1.00  0.00     0.049 A 
ATOM     55  H   UNL A   1      43.947  27.553  28.088  1.00  0.00     0.167 HD
ATOM     56  C   UNL A   1      45.843  31.520  28.343  1.00  0.00     0.037 A 
ATOM     57  C   UNL A   1      43.816  24.881  27.272  1.00  0.00     0.037 A 
ATOM     58  C   UNL A   1      46.879  30.627  27.897  1.00  0.00     0.049 A 
ATOM     59  C   UNL A   1      45.230  25.331  27.016  1.00  0.00     0.074 A 
ATOM     60  C   UNL A   1      48.216  30.903  27.673  1.00  0.00     0.029 A 
ATOM     61  N   UNL A   1      46.694  29.282  27.613  1.00  0.00    -0.354 N 
ATOM     62  N   UNL A   1      45.760  26.518  27.188  1.00  0.00    -0.248 NA
ATOM     63  C   UNL A   1      46.169  24.323  26.501  1.00  0.00     0.031 C 
ATOM     64  C   UNL A   1      48.832  29.734  27.217  1.00  0.00     0.029 A 
ATOM     65  C   UNL A   1      47.891  28.716  27.208  1.00  0.00     0.049 A 
ATOM     66  H   UNL A   1      45.838  28.800  27.687  1.00  0.00     0.167 HD
ATOM     67  C   UNL A   1      47.100  26.391  26.841  1.00  0.00     0.074 A 
ATOM     68  C   UNL A   1      47.302  25.012  26.447  1.00  0.00     0.031 C 
ATOM     69  C   UNL A   1      48.078  27.331  26.854  1.00  0.00     0.037 A 
BRANCH  56  70
ATOM     70  C   UNL A   1      46.188  32.967  28.563  1.00  0.00     0.058 A 
ATOM     71  C   UNL A   1      46.644  33.437  29.806  1.00  0.00     0.135 A 
ATOM     72  C   UNL A   1      46.089  33.893  27.512  1.00  0.00     0.135 A 
ATOM     73  F   UNL A   1      46.743  32.600  30.850  1.00  0.00    -0.206 F 
ATOM     74  C   UNL A   1      46.956  34.778  30.008  1.00  0.00     0.059 A 
ATOM     75  C   UNL A   1      46.425  35.233  27.683  1.00  0.00     0.059 A 
ATOM     76  F   UNL A   1      45.659  33.500  26.302  1.00  0.00    -0.206 F 
ATOM     77  C   UNL A   1      46.842  35.669  28.940  1.00  0.00     0.060 A 
BRANCH  77  78
ATOM     78  S   UNL A   1      47.252  37.404  29.219  1.00  0.00     0.124 S 
ATOM     79  O   UNL A   1      47.075  37.516  30.664  1.00  0.00    -0.237 OA
ATOM     80  O   UNL A   1      48.630  37.480  28.743  1.00  0.00    -0.237 OA
ATOM     81  O   UNL A   1      46.272  38.120  28.409  1.00  0.00    -0.744 OA
ENDBRANCH  77  78
ENDBRANCH  56  70
BRANCH  57  82
ATOM     82  C   UNL A   1      43.396  23.482  26.988  1.00  0.00     0.058 A 
ATOM     83  C   UNL A   1      43.138  23.059  25.675  1.00  0.00     0.135 A 
ATOM     84  C   UNL A   1      43.259  22.536  28.016  1.00  0.00     0.135 A 
ATOM     85  F   UNL A   1      43.247  23.928  24.659  1.00  0.00    -0.206 F 
ATOM     86  C   UNL A   1      42.745  21.755  25.392  1.00  0.00     0.059 A 
ATOM     87  C   UNL A   1      42.893  21.219  27.755  1.00  0.00     0.059 A 
ATOM     88  F   UNL A   1      43.507  22.884  29.288  1.00  0.00    -0.206 F 
ATOM     89  C   UNL A   1      42.628  20.840  26.440  1.00  0.00     0.060 A 
BRANCH  89  90
ATOM     90  S   UNL A   1      42.165  19.137  26.058  1.00  0.00     0.124 S 
ATOM     91  O   UNL A   1      42.577  18.441  27.271  1.00  0.00    -0.237 OA
ATOM     92  O   UNL A   1      40.725  19.250  25.844  1.00  0.00    -0.237 OA
ATOM     93  O   UNL A   1      42.946  18.836  24.861  1.00  0.00    -0.744 OA
ENDBRANCH  89  90
ENDBRANCH  57  82
BRANCH  69  94
ATOM     94  C   UNL A   1      49.473  26.898  26.501  1.00  0.00     0.058 A 
ATOM     95  C   UNL A   1      50.375  26.439  27.471  1.00  0.00     0.135 A 
ATOM     96  C   UNL A   1      49.872  26.849  25.156  1.00  0.00     0.135 A 
ATOM     97  F   UNL A   1      50.046  26.472  28.772  1.00  0.00    -0.206 F 
ATOM     98  C   UNL A   1      51.629  25.947  27.120  1.00  0.00     0.059 A 
ATOM     99  C   UNL A   1      51.109  26.339  24.778  1.00  0.00     0.059 A 
ATOM    100  F   UNL A   1      49.042  27.270  24.189  1.00  0.00    -0.206 F 
ATOM    101  C   UNL A   1      51.982  25.892  25.769  1.00  0.00     0.060 A 
BRANCH 101 102
ATOM    102  S   UNL A   1      53.581  25.183  25.322  1.00  0.00     0.124 S 
ATOM    103  O   UNL A   1      53.858  25.853  24.056  1.00  0.00    -0.237 OA
ATOM    104  O   UNL A   1      54.424  25.577  26.446  1.00  0.00    -0.237 OA
ATOM    105  O   UNL A   1      53.303  23.752  25.227  1.00  0.00    -0.744 OA
ENDBRANCH 101 102
ENDBRANCH  69  94
ENDBRANCH  43  44
ENDBRANCH  35  38
ENDBRANCH  33  34
ENDBRANCH  32  33
ENDBRANCH  31  32
ENDBRANCH  29  31
ENDBRANCH   1  27
TORSDOF 22
ENDMDL
