MODEL 1
REMARK VINA RESULT:     -10.3      0.000      0.000
REMARK SMILES CS(=O)(=O)c1ccc(N2N=C(C(=O)NCCCNC(=O)c3ccc(-c4c5nc(c(-c6c(F)cc(S(=O)(=O)[O-])cc6F)c6ccc([nH]6)c(-c6c(F)cc(S(=O)(=O)[O-])cc6F)c6nc(c(-c7c(F)cc(S(=O)(=O)[O-])cc7F)c7ccc4[nH]7)C=C6)C=C5)cc3)C[C@H]2c2cccs2)cc1
REMARK SMILES IDX 16 1 15 2 14 3 12 4 13 5 11 7 9 8 10 9 88 10 87 11 8 12 5 13
REMARK SMILES IDX 6 14 95 15 7 16 94 17 2 18 1 19 3 20 4 21 89 22 90 23 93 24
REMARK SMILES IDX 91 25 92 26 17 27 18 28 19 29 20 31 21 32 22 33 86 34 23 35
REMARK SMILES IDX 85 36 24 37 25 38 26 39 79 40 27 41 84 42 78 43 80 44 28 45
REMARK SMILES IDX 83 46 77 47 76 48 29 50 63 51 42 52 62 53 43 54 46 55 61 56
REMARK SMILES IDX 81 57 44 58 45 59 60 61 82 62 47 63 30 64 31 65 40 66 32 67
REMARK SMILES IDX 33 68 39 69 41 70 34 71 35 72 36 73 37 74 38 75 64 76 65 77
REMARK SMILES IDX 74 78 66 79 67 80 73 81 75 82 68 83 69 84 70 85 71 86 72 87
REMARK SMILES IDX 48 88 49 89 58 90 50 91 51 92 57 93 59 94 52 95 53 96 54 97
REMARK SMILES IDX 55 98 56 99
REMARK H PARENT 14 6 18 30 80 49 46 60
REMARK Flexibility Score: inf
ROOT
ATOM      1  C   UNL A   1      35.209  32.851  29.427  1.00  0.00     0.042 C 
ENDROOT
BRANCH   1   2
ATOM      2  C   UNL A   1      34.704  34.115  30.106  1.00  0.00     0.118 C 
BRANCH   2   3
ATOM      3  N   UNL A   1      34.021  33.811  31.348  1.00  0.00    -0.351 N 
ATOM      4  C   UNL A   1      34.413  33.406  32.595  1.00  0.00     0.267 C 
ATOM      5  O   UNL A   1      33.526  33.143  33.405  1.00  0.00    -0.268 OA
ATOM      6  H   UNL A   1      33.045  33.921  31.278  1.00  0.00     0.163 HD
BRANCH   4   7
ATOM      7  C   UNL A   1      35.859  33.314  33.057  1.00  0.00     0.128 C 
ATOM      8  N   UNL A   1      37.687  32.373  33.631  1.00  0.00    -0.256 N 
ATOM      9  N   UNL A   1      36.467  32.164  33.076  1.00  0.00    -0.171 NA
ATOM     10  C   UNL A   1      37.962  33.772  33.961  1.00  0.00     0.154 C 
ATOM     11  C   UNL A   1      36.702  34.483  33.449  1.00  0.00     0.097 C 
BRANCH   8  12
ATOM     12  C   UNL A   1      38.691  31.422  33.514  1.00  0.00     0.060 A 
ATOM     13  C   UNL A   1      40.691  29.456  33.314  1.00  0.00     0.067 A 
ATOM     14  C   UNL A   1      41.041  30.770  33.634  1.00  0.00     0.022 A 
ATOM     15  C   UNL A   1      39.361  29.119  33.070  1.00  0.00     0.022 A 
ATOM     16  C   UNL A   1      40.039  31.746  33.725  1.00  0.00     0.029 A 
ATOM     17  C   UNL A   1      38.377  30.102  33.166  1.00  0.00     0.029 A 
BRANCH  13  18
ATOM     18  S   UNL A   1      41.926  28.188  33.199  1.00  0.00     0.175 S 
ATOM     19  C   UNL A   1      43.460  28.985  33.585  1.00  0.00     0.163 C 
ATOM     20  O   UNL A   1      41.969  27.758  31.817  1.00  0.00    -0.224 OA
ATOM     21  O   UNL A   1      41.671  27.238  34.269  1.00  0.00    -0.224 OA
ENDBRANCH  13  18
ENDBRANCH   8  12
BRANCH  10  22
ATOM     22  C   UNL A   1      38.296  34.062  35.418  1.00  0.00     0.030 A 
ATOM     23  C   UNL A   1      39.231  34.972  35.886  1.00  0.00     0.017 A 
ATOM     24  S   UNL A   1      37.575  33.216  36.731  1.00  0.00    -0.147 S 
ATOM     25  C   UNL A   1      39.320  34.996  37.307  1.00  0.00     0.012 A 
ATOM     26  C   UNL A   1      38.428  34.129  37.892  1.00  0.00     0.065 A 
ENDBRANCH  10  22
ENDBRANCH   4   7
ENDBRANCH   2   3
ENDBRANCH   1   2
BRANCH   1  27
ATOM     27  C   UNL A   1      34.542  32.605  28.080  1.00  0.00     0.118 C 
BRANCH  27  28
ATOM     28  N   UNL A   1      33.887  31.302  28.028  1.00  0.00    -0.352 N 
ATOM     29  C   UNL A   1      34.423  30.041  27.964  1.00  0.00     0.251 C 
ATOM     30  H   UNL A   1      32.902  31.333  28.042  1.00  0.00     0.163 HD
ATOM     31  O   UNL A   1      33.701  29.095  27.659  1.00  0.00    -0.269 OA
BRANCH  29  32
ATOM     32  C   UNL A   1      35.856  29.823  28.251  1.00  0.00     0.039 A 
ATOM     33  C   UNL A   1      36.243  29.431  29.535  1.00  0.00     0.014 A 
ATOM     34  C   UNL A   1      36.822  30.032  27.264  1.00  0.00     0.014 A 
ATOM     35  C   UNL A   1      37.590  29.188  29.806  1.00  0.00     0.010 A 
ATOM     36  C   UNL A   1      38.147  29.692  27.505  1.00  0.00     0.010 A 
ATOM     37  C   UNL A   1      38.548  29.279  28.783  1.00  0.00    -0.014 A 
BRANCH  37  38
ATOM     38  C   UNL A   1      39.978  28.959  29.028  1.00  0.00     0.031 A 
ATOM     39  C   UNL A   1      40.904  30.017  29.566  1.00  0.00     0.074 A 
ATOM     40  C   UNL A   1      40.452  27.741  28.697  1.00  0.00     0.049 A 
ATOM     41  N   UNL A   1      42.195  29.958  29.767  1.00  0.00    -0.248 NA
ATOM     42  C   UNL A   1      40.309  31.325  29.890  1.00  0.00     0.031 C 
ATOM     43  C   UNL A   1      39.661  26.654  28.114  1.00  0.00     0.029 A 
ATOM     44  N   UNL A   1      41.716  27.216  28.791  1.00  0.00    -0.354 N 
ATOM     45  C   UNL A   1      42.567  31.218  30.221  1.00  0.00     0.074 A 
ATOM     46  C   UNL A   1      41.377  32.039  30.212  1.00  0.00     0.031 C 
ATOM     47  C   UNL A   1      40.452  25.586  27.925  1.00  0.00     0.029 A 
ATOM     48  C   UNL A   1      41.813  25.924  28.331  1.00  0.00     0.049 A 
ATOM     49  H   UNL A   1      42.481  27.717  29.154  1.00  0.00     0.167 HD
ATOM     50  C   UNL A   1      43.785  31.644  30.632  1.00  0.00     0.037 A 
ATOM     51  C   UNL A   1      42.880  25.106  28.236  1.00  0.00     0.037 A 
ATOM     52  C   UNL A   1      44.956  30.808  30.669  1.00  0.00     0.049 A 
ATOM     53  C   UNL A   1      44.220  25.601  28.710  1.00  0.00     0.074 A 
ATOM     54  C   UNL A   1      46.222  31.122  31.133  1.00  0.00     0.029 A 
ATOM     55  N   UNL A   1      45.006  29.494  30.226  1.00  0.00    -0.354 N 
ATOM     56  N   UNL A   1      44.538  26.775  29.204  1.00  0.00    -0.248 NA
ATOM     57  C   UNL A   1      45.344  24.660  28.623  1.00  0.00     0.031 C 
ATOM     58  C   UNL A   1      47.050  30.016  30.924  1.00  0.00     0.029 A 
ATOM     59  C   UNL A   1      46.287  28.992  30.384  1.00  0.00     0.049 A 
ATOM     60  H   UNL A   1      44.245  28.994  29.854  1.00  0.00     0.167 HD
ATOM     61  C   UNL A   1      45.891  26.701  29.514  1.00  0.00     0.074 A 
ATOM     62  C   UNL A   1      46.327  25.365  29.165  1.00  0.00     0.031 C 
ATOM     63  C   UNL A   1      46.701  27.654  30.040  1.00  0.00     0.037 A 
BRANCH  50  64
ATOM     64  C   UNL A   1      43.915  33.074  31.083  1.00  0.00     0.058 A 
ATOM     65  C   UNL A   1      44.125  34.120  30.172  1.00  0.00     0.135 A 
ATOM     66  C   UNL A   1      43.771  33.409  32.440  1.00  0.00     0.135 A 
ATOM     67  F   UNL A   1      44.288  33.857  28.865  1.00  0.00    -0.206 F 
ATOM     68  C   UNL A   1      44.211  35.444  30.590  1.00  0.00     0.059 A 
ATOM     69  C   UNL A   1      43.822  34.729  32.877  1.00  0.00     0.059 A 
ATOM     70  F   UNL A   1      43.570  32.448  33.356  1.00  0.00    -0.206 F 
ATOM     71  C   UNL A   1      44.053  35.740  31.945  1.00  0.00     0.060 A 
BRANCH  71  72
ATOM     72  S   UNL A   1      44.140  37.466  32.465  1.00  0.00     0.124 S 
ATOM     73  O   UNL A   1      43.159  37.493  33.546  1.00  0.00    -0.237 OA
ATOM     74  O   UNL A   1      45.535  37.597  32.873  1.00  0.00    -0.237 OA
ATOM     75  O   UNL A   1      43.769  38.203  31.262  1.00  0.00    -0.744 OA
ENDBRANCH  71  72
ENDBRANCH  50  64
BRANCH  51  76
ATOM     76  C   UNL A   1      42.722  23.734  27.683  1.00  0.00     0.058 A 
ATOM     77  C   UNL A   1      42.604  22.622  28.530  1.00  0.00     0.135 A 
ATOM     78  C   UNL A   1      42.684  23.507  26.299  1.00  0.00     0.135 A 
ATOM     79  F   UNL A   1      42.637  22.787  29.862  1.00  0.00    -0.206 F 
ATOM     80  C   UNL A   1      42.478  21.332  28.026  1.00  0.00     0.059 A 
ATOM     81  C   UNL A   1      42.531  22.229  25.771  1.00  0.00     0.059 A 
ATOM     82  F   UNL A   1      42.772  24.538  25.444  1.00  0.00    -0.206 F 
ATOM     83  C   UNL A   1      42.442  21.145  26.643  1.00  0.00     0.060 A 
BRANCH  83  84
ATOM     84  S   UNL A   1      42.243  19.470  25.999  1.00  0.00     0.124 S 
ATOM     85  O   UNL A   1      40.820  19.447  25.679  1.00  0.00    -0.237 OA
ATOM     86  O   UNL A   1      43.155  19.469  24.860  1.00  0.00    -0.237 OA
ATOM     87  O   UNL A   1      42.652  18.629  27.120  1.00  0.00    -0.744 OA
ENDBRANCH  83  84
ENDBRANCH  51  76
BRANCH  63  88
ATOM     88  C   UNL A   1      48.131  27.275  30.312  1.00  0.00     0.058 A 
ATOM     89  C   UNL A   1      49.148  27.495  29.370  1.00  0.00     0.135 A 
ATOM     90  C   UNL A   1      48.494  26.730  31.554  1.00  0.00     0.135 A 
ATOM     91  F   UNL A   1      48.853  28.010  28.166  1.00  0.00    -0.206 F 
ATOM     92  C   UNL A   1      50.470  27.162  29.640  1.00  0.00     0.059 A 
ATOM     93  C   UNL A   1      49.815  26.418  31.857  1.00  0.00     0.059 A 
ATOM     94  F   UNL A   1      47.562  26.509  32.495  1.00  0.00    -0.206 F 
ATOM     95  C   UNL A   1      50.795  26.625  30.888  1.00  0.00     0.060 A 
BRANCH  95  96
ATOM     96  S   UNL A   1      52.520  26.223  31.235  1.00  0.00     0.124 S 
ATOM     97  O   UNL A   1      52.392  24.924  31.888  1.00  0.00    -0.237 OA
ATOM     98  O   UNL A   1      53.110  26.206  29.900  1.00  0.00    -0.237 OA
ATOM     99  O   UNL A   1      52.958  27.318  32.094  1.00  0.00    -0.744 OA
ENDBRANCH  95  96
ENDBRANCH  63  88
ENDBRANCH  37  38
ENDBRANCH  29  32
ENDBRANCH  27  28
ENDBRANCH   1  27
TORSDOF 16
ENDMDL
MODEL 2
REMARK VINA RESULT:     -10.0      4.617      8.307
REMARK SMILES CS(=O)(=O)c1ccc(N2N=C(C(=O)NCCCNC(=O)c3ccc(-c4c5nc(c(-c6c(F)cc(S(=O)(=O)[O-])cc6F)c6ccc([nH]6)c(-c6c(F)cc(S(=O)(=O)[O-])cc6F)c6nc(c(-c7c(F)cc(S(=O)(=O)[O-])cc7F)c7ccc4[nH]7)C=C6)C=C5)cc3)C[C@H]2c2cccs2)cc1
REMARK SMILES IDX 16 1 15 2 14 3 12 4 13 5 11 7 9 8 10 9 88 10 87 11 8 12 5 13
REMARK SMILES IDX 6 14 95 15 7 16 94 17 2 18 1 19 3 20 4 21 89 22 90 23 93 24
REMARK SMILES IDX 91 25 92 26 17 27 18 28 19 29 20 31 21 32 22 33 86 34 23 35
REMARK SMILES IDX 85 36 24 37 25 38 26 39 79 40 27 41 84 42 78 43 80 44 28 45
REMARK SMILES IDX 83 46 77 47 76 48 29 50 63 51 42 52 62 53 43 54 46 55 61 56
REMARK SMILES IDX 81 57 44 58 45 59 60 61 82 62 47 63 30 64 31 65 40 66 32 67
REMARK SMILES IDX 33 68 39 69 41 70 34 71 35 72 36 73 37 74 38 75 64 76 65 77
REMARK SMILES IDX 74 78 66 79 67 80 73 81 75 82 68 83 69 84 70 85 71 86 72 87
REMARK SMILES IDX 48 88 49 89 58 90 50 91 51 92 57 93 59 94 52 95 53 96 54 97
REMARK SMILES IDX 55 98 56 99
REMARK H PARENT 14 6 18 30 80 49 46 60
REMARK Flexibility Score: inf
ROOT
ATOM      1  C   UNL A   1      32.831  27.981  25.141  1.00  0.00     0.042 C 
ENDROOT
BRANCH   1   2
ATOM      2  C   UNL A   1      32.034  26.949  25.924  1.00  0.00     0.118 C 
BRANCH   2   3
ATOM      3  N   UNL A   1      31.010  26.336  25.100  1.00  0.00    -0.351 N 
ATOM      4  C   UNL A   1      30.968  25.275  24.237  1.00  0.00     0.267 C 
ATOM      5  O   UNL A   1      29.919  25.095  23.620  1.00  0.00    -0.268 OA
ATOM      6  H   UNL A   1      30.139  26.790  25.181  1.00  0.00     0.163 HD
BRANCH   4   7
ATOM      7  C   UNL A   1      32.101  24.282  24.034  1.00  0.00     0.128 C 
ATOM      8  N   UNL A   1      33.147  22.428  24.191  1.00  0.00    -0.256 N 
ATOM      9  N   UNL A   1      31.952  23.039  24.386  1.00  0.00    -0.171 NA
ATOM     10  C   UNL A   1      34.173  23.294  23.608  1.00  0.00     0.154 C 
ATOM     11  C   UNL A   1      33.405  24.603  23.380  1.00  0.00     0.097 C 
BRANCH   8  12
ATOM     12  C   UNL A   1      33.242  21.043  24.176  1.00  0.00     0.060 A 
ATOM     13  C   UNL A   1      33.495  18.244  24.134  1.00  0.00     0.067 A 
ATOM     14  C   UNL A   1      32.489  18.859  23.387  1.00  0.00     0.022 A 
ATOM     15  C   UNL A   1      34.358  19.007  24.919  1.00  0.00     0.022 A 
ATOM     16  C   UNL A   1      32.364  20.255  23.418  1.00  0.00     0.029 A 
ATOM     17  C   UNL A   1      34.221  20.394  24.938  1.00  0.00     0.029 A 
BRANCH  13  18
ATOM     18  S   UNL A   1      33.695  16.482  24.114  1.00  0.00     0.175 S 
ATOM     19  C   UNL A   1      35.090  16.150  25.154  1.00  0.00     0.163 C 
ATOM     20  O   UNL A   1      34.036  16.106  22.757  1.00  0.00    -0.224 OA
ATOM     21  O   UNL A   1      32.537  15.907  24.779  1.00  0.00    -0.224 OA
ENDBRANCH  13  18
ENDBRANCH   8  12
BRANCH  10  22
ATOM     22  C   UNL A   1      35.453  23.453  24.417  1.00  0.00     0.030 A 
ATOM     23  C   UNL A   1      35.589  24.115  25.627  1.00  0.00     0.017 A 
ATOM     24  S   UNL A   1      36.979  22.864  23.882  1.00  0.00    -0.147 S 
ATOM     25  C   UNL A   1      36.924  24.101  26.121  1.00  0.00     0.012 A 
ATOM     26  C   UNL A   1      37.771  23.401  25.295  1.00  0.00     0.065 A 
ENDBRANCH  10  22
ENDBRANCH   4   7
ENDBRANCH   2   3
ENDBRANCH   1   2
BRANCH   1  27
ATOM     27  C   UNL A   1      34.001  28.544  25.938  1.00  0.00     0.118 C 
BRANCH  27  28
ATOM     28  N   UNL A   1      33.771  29.928  26.336  1.00  0.00    -0.352 N 
ATOM     29  C   UNL A   1      34.362  30.679  27.321  1.00  0.00     0.251 C 
ATOM     30  H   UNL A   1      33.081  30.400  25.815  1.00  0.00     0.163 HD
ATOM     31  O   UNL A   1      33.839  31.735  27.668  1.00  0.00    -0.269 OA
BRANCH  29  32
ATOM     32  C   UNL A   1      35.610  30.217  27.964  1.00  0.00     0.039 A 
ATOM     33  C   UNL A   1      36.825  30.391  27.297  1.00  0.00     0.014 A 
ATOM     34  C   UNL A   1      35.581  29.588  29.210  1.00  0.00     0.014 A 
ATOM     35  C   UNL A   1      38.013  29.992  27.911  1.00  0.00     0.010 A 
ATOM     36  C   UNL A   1      36.770  29.284  29.862  1.00  0.00     0.010 A 
ATOM     37  C   UNL A   1      37.999  29.471  29.215  1.00  0.00    -0.014 A 
BRANCH  37  38
ATOM     38  C   UNL A   1      39.254  29.102  29.917  1.00  0.00     0.031 A 
ATOM     39  C   UNL A   1      39.684  29.865  31.141  1.00  0.00     0.074 A 
ATOM     40  C   UNL A   1      40.037  28.129  29.409  1.00  0.00     0.049 A 
ATOM     41  N   UNL A   1      40.783  29.750  31.841  1.00  0.00    -0.248 NA
ATOM     42  C   UNL A   1      38.777  30.921  31.624  1.00  0.00     0.031 C 
ATOM     43  C   UNL A   1      39.752  27.359  28.196  1.00  0.00     0.029 A 
ATOM     44  N   UNL A   1      41.240  27.630  29.842  1.00  0.00    -0.354 N 
ATOM     45  C   UNL A   1      40.708  30.724  32.829  1.00  0.00     0.074 A 
ATOM     46  C   UNL A   1      39.484  31.460  32.606  1.00  0.00     0.031 C 
ATOM     47  C   UNL A   1      40.739  26.471  27.995  1.00  0.00     0.029 A 
ATOM     48  C   UNL A   1      41.747  26.636  29.037  1.00  0.00     0.049 A 
ATOM     49  H   UNL A   1      41.697  27.953  30.651  1.00  0.00     0.167 HD
ATOM     50  C   UNL A   1      41.569  30.965  33.847  1.00  0.00     0.037 A 
ATOM     51  C   UNL A   1      42.900  25.944  29.123  1.00  0.00     0.037 A 
ATOM     52  C   UNL A   1      42.768  30.204  34.080  1.00  0.00     0.049 A 
ATOM     53  C   UNL A   1      43.833  26.224  30.269  1.00  0.00     0.074 A 
ATOM     54  C   UNL A   1      43.672  30.323  35.121  1.00  0.00     0.029 A 
ATOM     55  N   UNL A   1      43.230  29.183  33.263  1.00  0.00    -0.354 N 
ATOM     56  N   UNL A   1      43.710  27.103  31.237  1.00  0.00    -0.248 NA
ATOM     57  C   UNL A   1      45.058  25.417  30.342  1.00  0.00     0.031 C 
ATOM     58  C   UNL A   1      44.707  29.408  34.906  1.00  0.00     0.029 A 
ATOM     59  C   UNL A   1      44.419  28.679  33.763  1.00  0.00     0.049 A 
ATOM     60  H   UNL A   1      42.780  28.864  32.447  1.00  0.00     0.167 HD
ATOM     61  C   UNL A   1      44.826  26.930  32.050  1.00  0.00     0.074 A 
ATOM     62  C   UNL A   1      45.603  25.857  31.467  1.00  0.00     0.031 C 
ATOM     63  C   UNL A   1      45.175  27.601  33.176  1.00  0.00     0.037 A 
BRANCH  50  64
ATOM     64  C   UNL A   1      41.244  32.092  34.791  1.00  0.00     0.058 A 
ATOM     65  C   UNL A   1      41.686  33.403  34.555  1.00  0.00     0.135 A 
ATOM     66  C   UNL A   1      40.434  31.868  35.916  1.00  0.00     0.135 A 
ATOM     67  F   UNL A   1      42.478  33.672  33.505  1.00  0.00    -0.206 F 
ATOM     68  C   UNL A   1      41.355  34.448  35.412  1.00  0.00     0.059 A 
ATOM     69  C   UNL A   1      40.065  32.903  36.770  1.00  0.00     0.059 A 
ATOM     70  F   UNL A   1      39.986  30.632  36.191  1.00  0.00    -0.206 F 
ATOM     71  C   UNL A   1      40.540  34.189  36.515  1.00  0.00     0.060 A 
BRANCH  71  72
ATOM     72  S   UNL A   1      40.100  35.562  37.601  1.00  0.00     0.124 S 
ATOM     73  O   UNL A   1      41.278  35.643  38.460  1.00  0.00    -0.237 OA
ATOM     74  O   UNL A   1      39.927  36.661  36.658  1.00  0.00    -0.237 OA
ATOM     75  O   UNL A   1      38.879  35.101  38.254  1.00  0.00    -0.744 OA
ENDBRANCH  71  72
ENDBRANCH  50  64
BRANCH  51  76
ATOM     76  C   UNL A   1      43.227  24.910  28.104  1.00  0.00     0.058 A 
ATOM     77  C   UNL A   1      42.928  23.557  28.324  1.00  0.00     0.135 A 
ATOM     78  C   UNL A   1      43.842  25.254  26.891  1.00  0.00     0.135 A 
ATOM     79  F   UNL A   1      42.342  23.177  29.470  1.00  0.00    -0.206 F 
ATOM     80  C   UNL A   1      43.249  22.579  27.389  1.00  0.00     0.059 A 
ATOM     81  C   UNL A   1      44.148  24.297  25.929  1.00  0.00     0.059 A 
ATOM     82  F   UNL A   1      44.131  26.537  26.621  1.00  0.00    -0.206 F 
ATOM     83  C   UNL A   1      43.860  22.959  26.193  1.00  0.00     0.060 A 
BRANCH  83  84
ATOM     84  S   UNL A   1      44.240  21.686  24.970  1.00  0.00     0.124 S 
ATOM     85  O   UNL A   1      44.155  22.441  23.725  1.00  0.00    -0.237 OA
ATOM     86  O   UNL A   1      45.578  21.263  25.373  1.00  0.00    -0.237 OA
ATOM     87  O   UNL A   1      43.189  20.695  25.181  1.00  0.00    -0.744 OA
ENDBRANCH  83  84
ENDBRANCH  51  76
BRANCH  63  88
ATOM     88  C   UNL A   1      46.431  27.166  33.878  1.00  0.00     0.058 A 
ATOM     89  C   UNL A   1      46.423  26.158  34.855  1.00  0.00     0.135 A 
ATOM     90  C   UNL A   1      47.669  27.732  33.530  1.00  0.00     0.135 A 
ATOM     91  F   UNL A   1      45.266  25.588  35.227  1.00  0.00    -0.206 F 
ATOM     92  C   UNL A   1      47.593  25.746  35.482  1.00  0.00     0.059 A 
ATOM     93  C   UNL A   1      48.856  27.313  34.123  1.00  0.00     0.059 A 
ATOM     94  F   UNL A   1      47.735  28.692  32.594  1.00  0.00    -0.206 F 
ATOM     95  C   UNL A   1      48.806  26.329  35.108  1.00  0.00     0.060 A 
BRANCH  95  96
ATOM     96  S   UNL A   1      50.321  25.765  35.911  1.00  0.00     0.124 S 
ATOM     97  O   UNL A   1      49.883  24.511  36.516  1.00  0.00    -0.237 OA
ATOM     98  O   UNL A   1      51.241  25.638  34.785  1.00  0.00    -0.237 OA
ATOM     99  O   UNL A   1      50.630  26.841  36.848  1.00  0.00    -0.744 OA
ENDBRANCH  95  96
ENDBRANCH  63  88
ENDBRANCH  37  38
ENDBRANCH  29  32
ENDBRANCH  27  28
ENDBRANCH   1  27
TORSDOF 16
ENDMDL
MODEL 3
REMARK VINA RESULT:     -10.0      0.616      8.164
REMARK SMILES CS(=O)(=O)c1ccc(N2N=C(C(=O)NCCCNC(=O)c3ccc(-c4c5nc(c(-c6c(F)cc(S(=O)(=O)[O-])cc6F)c6ccc([nH]6)c(-c6c(F)cc(S(=O)(=O)[O-])cc6F)c6nc(c(-c7c(F)cc(S(=O)(=O)[O-])cc7F)c7ccc4[nH]7)C=C6)C=C5)cc3)C[C@H]2c2cccs2)cc1
REMARK SMILES IDX 16 1 15 2 14 3 12 4 13 5 11 7 9 8 10 9 88 10 87 11 8 12 5 13
REMARK SMILES IDX 6 14 95 15 7 16 94 17 2 18 1 19 3 20 4 21 89 22 90 23 93 24
REMARK SMILES IDX 91 25 92 26 17 27 18 28 19 29 20 31 21 32 22 33 86 34 23 35
REMARK SMILES IDX 85 36 24 37 25 38 26 39 79 40 27 41 84 42 78 43 80 44 28 45
REMARK SMILES IDX 83 46 77 47 76 48 29 50 63 51 42 52 62 53 43 54 46 55 61 56
REMARK SMILES IDX 81 57 44 58 45 59 60 61 82 62 47 63 30 64 31 65 40 66 32 67
REMARK SMILES IDX 33 68 39 69 41 70 34 71 35 72 36 73 37 74 38 75 64 76 65 77
REMARK SMILES IDX 74 78 66 79 67 80 73 81 75 82 68 83 69 84 70 85 71 86 72 87
REMARK SMILES IDX 48 88 49 89 58 90 50 91 51 92 57 93 59 94 52 95 53 96 54 97
REMARK SMILES IDX 55 98 56 99
REMARK H PARENT 14 6 18 30 80 49 46 60
REMARK Flexibility Score: inf
ROOT
ATOM      1  C   UNL A   1      35.035  32.449  29.553  1.00  0.00     0.042 C 
ENDROOT
BRANCH   1   2
ATOM      2  C   UNL A   1      34.670  33.790  30.173  1.00  0.00     0.118 C 
BRANCH   2   3
ATOM      3  N   UNL A   1      34.003  33.619  31.449  1.00  0.00    -0.351 N 
ATOM      4  C   UNL A   1      34.410  33.326  32.723  1.00  0.00     0.267 C 
ATOM      5  O   UNL A   1      33.532  33.160  33.568  1.00  0.00    -0.268 OA
ATOM      6  H   UNL A   1      33.028  33.742  31.384  1.00  0.00     0.163 HD
BRANCH   4   7
ATOM      7  C   UNL A   1      35.861  33.249  33.169  1.00  0.00     0.128 C 
ATOM      8  N   UNL A   1      37.695  32.327  33.752  1.00  0.00    -0.256 N 
ATOM      9  N   UNL A   1      36.468  32.099  33.222  1.00  0.00    -0.171 NA
ATOM     10  C   UNL A   1      37.976  33.736  34.027  1.00  0.00     0.154 C 
ATOM     11  C   UNL A   1      36.711  34.430  33.507  1.00  0.00     0.097 C 
BRANCH   8  12
ATOM     12  C   UNL A   1      38.697  31.370  33.657  1.00  0.00     0.060 A 
ATOM     13  C   UNL A   1      40.685  29.390  33.488  1.00  0.00     0.067 A 
ATOM     14  C   UNL A   1      40.982  30.620  34.078  1.00  0.00     0.022 A 
ATOM     15  C   UNL A   1      39.417  29.147  32.962  1.00  0.00     0.022 A 
ATOM     16  C   UNL A   1      39.988  31.605  34.152  1.00  0.00     0.029 A 
ATOM     17  C   UNL A   1      38.440  30.137  33.045  1.00  0.00     0.029 A 
BRANCH  13  18
ATOM     18  S   UNL A   1      41.910  28.112  33.383  1.00  0.00     0.175 S 
ATOM     19  C   UNL A   1      43.408  28.841  33.985  1.00  0.00     0.163 C 
ATOM     20  O   UNL A   1      42.085  27.802  31.979  1.00  0.00    -0.224 OA
ATOM     21  O   UNL A   1      41.541  27.078  34.336  1.00  0.00    -0.224 OA
ENDBRANCH  13  18
ENDBRANCH   8  12
BRANCH  10  22
ATOM     22  C   UNL A   1      38.330  34.079  35.468  1.00  0.00     0.030 A 
ATOM     23  C   UNL A   1      37.738  33.562  36.610  1.00  0.00     0.017 A 
ATOM     24  S   UNL A   1      39.514  35.255  35.888  1.00  0.00    -0.147 S 
ATOM     25  C   UNL A   1      38.283  34.099  37.810  1.00  0.00     0.012 A 
ATOM     26  C   UNL A   1      39.300  34.990  37.560  1.00  0.00     0.065 A 
ENDBRANCH  10  22
ENDBRANCH   4   7
ENDBRANCH   2   3
ENDBRANCH   1   2
BRANCH   1  27
ATOM     27  C   UNL A   1      34.410  32.252  28.178  1.00  0.00     0.118 C 
BRANCH  27  28
ATOM     28  N   UNL A   1      33.874  30.905  28.013  1.00  0.00    -0.352 N 
ATOM     29  C   UNL A   1      34.521  29.704  27.863  1.00  0.00     0.251 C 
ATOM     30  H   UNL A   1      32.891  30.849  28.009  1.00  0.00     0.163 HD
ATOM     31  O   UNL A   1      33.889  28.726  27.472  1.00  0.00    -0.269 OA
BRANCH  29  32
ATOM     32  C   UNL A   1      35.963  29.591  28.161  1.00  0.00     0.039 A 
ATOM     33  C   UNL A   1      36.366  29.198  29.440  1.00  0.00     0.014 A 
ATOM     34  C   UNL A   1      36.920  29.898  27.191  1.00  0.00     0.014 A 
ATOM     35  C   UNL A   1      37.726  29.053  29.721  1.00  0.00     0.010 A 
ATOM     36  C   UNL A   1      38.265  29.655  27.440  1.00  0.00     0.010 A 
ATOM     37  C   UNL A   1      38.684  29.242  28.712  1.00  0.00    -0.014 A 
BRANCH  37  38
ATOM     38  C   UNL A   1      40.131  29.028  28.966  1.00  0.00     0.031 A 
ATOM     39  C   UNL A   1      40.768  27.707  28.623  1.00  0.00     0.074 A 
ATOM     40  C   UNL A   1      40.850  29.996  29.569  1.00  0.00     0.049 A 
ATOM     41  N   UNL A   1      41.991  27.299  28.845  1.00  0.00    -0.248 NA
ATOM     42  C   UNL A   1      39.911  26.699  27.978  1.00  0.00     0.031 C 
ATOM     43  C   UNL A   1      40.327  31.295  29.999  1.00  0.00     0.029 A 
ATOM     44  N   UNL A   1      42.171  30.033  29.937  1.00  0.00    -0.354 N 
ATOM     45  C   UNL A   1      42.043  25.989  28.385  1.00  0.00     0.074 A 
ATOM     46  C   UNL A   1      40.716  25.648  27.925  1.00  0.00     0.031 C 
ATOM     47  C   UNL A   1      41.321  32.010  30.551  1.00  0.00     0.029 A 
ATOM     48  C   UNL A   1      42.540  31.206  30.554  1.00  0.00     0.049 A 
ATOM     49  H   UNL A   1      42.796  29.291  29.776  1.00  0.00     0.167 HD
ATOM     50  C   UNL A   1      43.109  25.154  28.328  1.00  0.00     0.037 A 
ATOM     51  C   UNL A   1      43.723  31.587  31.074  1.00  0.00     0.037 A 
ATOM     52  C   UNL A   1      44.434  25.515  28.758  1.00  0.00     0.049 A 
ATOM     53  C   UNL A   1      44.893  30.645  30.988  1.00  0.00     0.074 A 
ATOM     54  C   UNL A   1      45.596  24.768  28.680  1.00  0.00     0.029 A 
ATOM     55  N   UNL A   1      44.775  26.725  29.346  1.00  0.00    -0.354 N 
ATOM     56  N   UNL A   1      44.941  29.434  30.483  1.00  0.00    -0.248 NA
ATOM     57  C   UNL A   1      46.171  31.121  31.532  1.00  0.00     0.031 C 
ATOM     58  C   UNL A   1      46.629  25.504  29.266  1.00  0.00     0.029 A 
ATOM     59  C   UNL A   1      46.124  26.735  29.657  1.00  0.00     0.049 A 
ATOM     60  H   UNL A   1      44.150  27.465  29.518  1.00  0.00     0.167 HD
ATOM     61  C   UNL A   1      46.260  29.017  30.623  1.00  0.00     0.074 A 
ATOM     62  C   UNL A   1      46.978  30.109  31.246  1.00  0.00     0.031 C 
ATOM     63  C   UNL A   1      46.826  27.836  30.268  1.00  0.00     0.037 A 
BRANCH  50  64
ATOM     64  C   UNL A   1      42.890  23.772  27.775  1.00  0.00     0.058 A 
ATOM     65  C   UNL A   1      42.657  22.669  28.612  1.00  0.00     0.135 A 
ATOM     66  C   UNL A   1      42.858  23.557  26.387  1.00  0.00     0.135 A 
ATOM     67  F   UNL A   1      42.694  22.813  29.946  1.00  0.00    -0.206 F 
ATOM     68  C   UNL A   1      42.422  21.399  28.095  1.00  0.00     0.059 A 
ATOM     69  C   UNL A   1      42.594  22.301  25.847  1.00  0.00     0.059 A 
ATOM     70  F   UNL A   1      43.076  24.575  25.539  1.00  0.00    -0.206 F 
ATOM     71  C   UNL A   1      42.387  21.226  26.710  1.00  0.00     0.060 A 
BRANCH  71  72
ATOM     72  S   UNL A   1      42.054  19.576  26.058  1.00  0.00     0.124 S 
ATOM     73  O   UNL A   1      40.617  19.647  25.810  1.00  0.00    -0.237 OA
ATOM     74  O   UNL A   1      42.900  19.536  24.870  1.00  0.00    -0.237 OA
ATOM     75  O   UNL A   1      42.461  18.692  27.145  1.00  0.00    -0.744 OA
ENDBRANCH  71  72
ENDBRANCH  50  64
BRANCH  51  76
ATOM     76  C   UNL A   1      43.863  32.926  31.707  1.00  0.00     0.058 A 
ATOM     77  C   UNL A   1      44.012  34.083  30.927  1.00  0.00     0.135 A 
ATOM     78  C   UNL A   1      43.849  33.077  33.102  1.00  0.00     0.135 A 
ATOM     79  F   UNL A   1      44.034  33.992  29.588  1.00  0.00    -0.206 F 
ATOM     80  C   UNL A   1      44.167  35.338  31.507  1.00  0.00     0.059 A 
ATOM     81  C   UNL A   1      43.974  34.325  33.704  1.00  0.00     0.059 A 
ATOM     82  F   UNL A   1      43.689  32.005  33.894  1.00  0.00    -0.206 F 
ATOM     83  C   UNL A   1      44.146  35.449  32.898  1.00  0.00     0.060 A 
BRANCH  83  84
ATOM     84  S   UNL A   1      44.312  37.086  33.641  1.00  0.00     0.124 S 
ATOM     85  O   UNL A   1      43.711  37.934  32.617  1.00  0.00    -0.237 OA
ATOM     86  O   UNL A   1      43.551  36.940  34.878  1.00  0.00    -0.237 OA
ATOM     87  O   UNL A   1      45.754  37.231  33.815  1.00  0.00    -0.744 OA
ENDBRANCH  83  84
ENDBRANCH  51  76
BRANCH  63  88
ATOM     88  C   UNL A   1      48.303  27.678  30.504  1.00  0.00     0.058 A 
ATOM     89  C   UNL A   1      49.252  28.081  29.552  1.00  0.00     0.135 A 
ATOM     90  C   UNL A   1      48.773  27.163  31.723  1.00  0.00     0.135 A 
ATOM     91  F   UNL A   1      48.855  28.575  28.369  1.00  0.00    -0.206 F 
ATOM     92  C   UNL A   1      50.616  27.952  29.790  1.00  0.00     0.059 A 
ATOM     93  C   UNL A   1      50.133  27.054  31.994  1.00  0.00     0.059 A 
ATOM     94  F   UNL A   1      47.908  26.774  32.673  1.00  0.00    -0.206 F 
ATOM     95  C   UNL A   1      51.047  27.439  31.015  1.00  0.00     0.060 A 
BRANCH  95  96
ATOM     96  S   UNL A   1      52.821  27.303  31.320  1.00  0.00     0.124 S 
ATOM     97  O   UNL A   1      53.274  28.658  31.023  1.00  0.00    -0.237 OA
ATOM     98  O   UNL A   1      52.866  26.915  32.726  1.00  0.00    -0.237 OA
ATOM     99  O   UNL A   1      53.251  26.275  30.377  1.00  0.00    -0.744 OA
ENDBRANCH  95  96
ENDBRANCH  63  88
ENDBRANCH  37  38
ENDBRANCH  29  32
ENDBRANCH  27  28
ENDBRANCH   1  27
TORSDOF 16
ENDMDL
