MODEL 1
REMARK VINA RESULT:     -10.8      0.000      0.000
REMARK SMILES NC(=O)CC[C@H](NC(=O)CC1CC1)C(=O)NCCCNC(=O)c1ccc(-c2c3nc(c(-c4c(F)cc(S(=O)(=O)[O-])cc4F)c4ccc([nH]4)c(-c4c(F)cc(S(=O)(=O)[O-])cc4F)c4nc(c(-c5c(F)cc(S(=O)(=O)[O-])cc5F)c5ccc2[nH]5)C=C4)C=C3)cc1
REMARK SMILES IDX 18 1 17 2 16 3 14 4 15 5 6 7 5 8 4 9 2 10 1 11 3 14 7 15
REMARK SMILES IDX 8 16 9 18 10 19 11 20 12 21 13 22 19 23 20 24 21 25 22 27
REMARK SMILES IDX 23 28 24 29 88 30 25 31 87 32 26 33 27 34 28 35 81 36 29 37
REMARK SMILES IDX 86 38 80 39 82 40 30 41 85 42 79 43 78 44 31 46 65 47 44 48
REMARK SMILES IDX 64 49 45 50 48 51 63 52 83 53 46 54 47 55 62 57 84 58 49 59
REMARK SMILES IDX 32 60 33 61 42 62 34 63 35 64 41 65 43 66 36 67 37 68 38 69
REMARK SMILES IDX 39 70 40 71 66 72 67 73 76 74 68 75 69 76 75 77 77 78 70 79
REMARK SMILES IDX 71 80 72 81 73 82 74 83 50 84 51 85 60 86 52 87 53 88 59 89
REMARK SMILES IDX 61 90 54 91 55 92 56 93 57 94 58 95
REMARK H PARENT 16 6 1 12 1 13 7 17 20 26 82 45 48 56
REMARK Flexibility Score: inf
ROOT
ATOM      1  C   UNL A   1      33.856  28.219  25.792  1.00  0.00     0.042 C 
ENDROOT
BRANCH   1   2
ATOM      2  C   UNL A   1      32.621  27.819  24.998  1.00  0.00     0.117 C 
BRANCH   2   3
ATOM      3  N   UNL A   1      31.548  27.291  25.805  1.00  0.00    -0.354 N 
ATOM      4  C   UNL A   1      30.513  26.497  25.423  1.00  0.00     0.242 C 
ATOM      5  O   UNL A   1      29.961  25.831  26.309  1.00  0.00    -0.273 OA
ATOM      6  H   UNL A   1      31.568  27.539  26.758  1.00  0.00     0.163 HD
BRANCH   4   7
ATOM      7  C   UNL A   1      30.082  26.317  23.938  1.00  0.00     0.171 C 
BRANCH   7   8
ATOM      8  C   UNL A   1      30.430  24.928  23.400  1.00  0.00     0.045 C 
BRANCH   8   9
ATOM      9  C   UNL A   1      31.917  24.555  23.512  1.00  0.00     0.102 C 
BRANCH   9  10
ATOM     10  C   UNL A   1      32.775  24.846  22.299  1.00  0.00     0.217 C 
ATOM     11  N   UNL A   1      32.112  25.195  21.163  1.00  0.00    -0.370 N 
ATOM     12  H   UNL A   1      32.615  25.396  20.342  1.00  0.00     0.159 HD
ATOM     13  H   UNL A   1      31.129  25.245  21.163  1.00  0.00     0.159 HD
ATOM     14  O   UNL A   1      33.999  24.778  22.317  1.00  0.00    -0.275 OA
ENDBRANCH   9  10
ENDBRANCH   8   9
ENDBRANCH   7   8
BRANCH   7  15
ATOM     15  N   UNL A   1      30.308  27.483  23.076  1.00  0.00    -0.344 N 
ATOM     16  C   UNL A   1      29.627  28.551  22.599  1.00  0.00     0.220 C 
ATOM     17  H   UNL A   1      31.235  27.490  22.745  1.00  0.00     0.164 HD
ATOM     18  O   UNL A   1      30.266  29.274  21.825  1.00  0.00    -0.275 OA
BRANCH  16  19
ATOM     19  C   UNL A   1      28.188  28.899  22.934  1.00  0.00     0.103 C 
BRANCH  19  20
ATOM     20  C   UNL A   1      27.791  30.329  22.697  1.00  0.00    -0.002 C 
ATOM     21  C   UNL A   1      27.313  31.184  23.843  1.00  0.00     0.004 C 
ATOM     22  C   UNL A   1      28.638  31.471  23.199  1.00  0.00     0.004 C 
ENDBRANCH  19  20
ENDBRANCH  16  19
ENDBRANCH   7  15
ENDBRANCH   4   7
ENDBRANCH   2   3
ENDBRANCH   1   2
BRANCH   1  23
ATOM     23  C   UNL A   1      33.589  28.427  27.275  1.00  0.00     0.118 C 
BRANCH  23  24
ATOM     24  N   UNL A   1      33.578  29.835  27.666  1.00  0.00    -0.352 N 
ATOM     25  C   UNL A   1      34.545  30.613  28.254  1.00  0.00     0.251 C 
ATOM     26  H   UNL A   1      32.734  30.305  27.478  1.00  0.00     0.163 HD
ATOM     27  O   UNL A   1      34.254  31.747  28.632  1.00  0.00    -0.269 OA
BRANCH  25  28
ATOM     28  C   UNL A   1      35.915  30.095  28.450  1.00  0.00     0.039 A 
ATOM     29  C   UNL A   1      36.813  30.104  27.379  1.00  0.00     0.014 A 
ATOM     30  C   UNL A   1      36.316  29.596  29.689  1.00  0.00     0.014 A 
ATOM     31  C   UNL A   1      38.135  29.690  27.575  1.00  0.00     0.010 A 
ATOM     32  C   UNL A   1      37.652  29.292  29.911  1.00  0.00     0.010 A 
ATOM     33  C   UNL A   1      38.575  29.326  28.857  1.00  0.00    -0.014 A 
BRANCH  33  34
ATOM     34  C   UNL A   1      39.984  28.957  29.147  1.00  0.00     0.031 A 
ATOM     35  C   UNL A   1      40.940  30.022  29.621  1.00  0.00     0.074 A 
ATOM     36  C   UNL A   1      40.432  27.720  28.853  1.00  0.00     0.049 A 
ATOM     37  N   UNL A   1      42.243  29.986  29.711  1.00  0.00    -0.248 NA
ATOM     38  C   UNL A   1      40.352  31.322  29.994  1.00  0.00     0.031 C 
ATOM     39  C   UNL A   1      39.614  26.622  28.330  1.00  0.00     0.029 A 
ATOM     40  N   UNL A   1      41.695  27.186  28.915  1.00  0.00    -0.354 N 
ATOM     41  C   UNL A   1      42.631  31.262  30.097  1.00  0.00     0.074 A 
ATOM     42  C   UNL A   1      41.431  32.064  30.187  1.00  0.00     0.031 C 
ATOM     43  C   UNL A   1      40.394  25.549  28.122  1.00  0.00     0.029 A 
ATOM     44  C   UNL A   1      41.773  25.894  28.449  1.00  0.00     0.049 A 
ATOM     45  H   UNL A   1      42.472  27.682  29.262  1.00  0.00     0.167 HD
ATOM     46  C   UNL A   1      43.876  31.719  30.370  1.00  0.00     0.037 A 
ATOM     47  C   UNL A   1      42.840  25.090  28.275  1.00  0.00     0.037 A 
ATOM     48  C   UNL A   1      45.051  30.891  30.347  1.00  0.00     0.049 A 
ATOM     49  C   UNL A   1      44.207  25.606  28.637  1.00  0.00     0.074 A 
ATOM     50  C   UNL A   1      46.344  31.225  30.708  1.00  0.00     0.029 A 
ATOM     51  N   UNL A   1      45.075  29.562  29.950  1.00  0.00    -0.354 N 
ATOM     52  N   UNL A   1      44.550  26.797  29.070  1.00  0.00    -0.248 NA
ATOM     53  C   UNL A   1      45.333  24.674  28.493  1.00  0.00     0.031 C 
ATOM     54  C   UNL A   1      47.158  30.110  30.488  1.00  0.00     0.029 A 
ATOM     55  C   UNL A   1      46.364  29.066  30.040  1.00  0.00     0.049 A 
ATOM     56  H   UNL A   1      44.292  29.048  29.647  1.00  0.00     0.167 HD
ATOM     57  C   UNL A   1      45.923  26.746  29.280  1.00  0.00     0.074 A 
ATOM     58  C   UNL A   1      46.347  25.404  28.935  1.00  0.00     0.031 C 
ATOM     59  C   UNL A   1      46.758  27.719  29.716  1.00  0.00     0.037 A 
BRANCH  46  60
ATOM     60  C   UNL A   1      44.038  33.169  30.735  1.00  0.00     0.058 A 
ATOM     61  C   UNL A   1      44.277  34.154  29.764  1.00  0.00     0.135 A 
ATOM     62  C   UNL A   1      43.882  33.588  32.067  1.00  0.00     0.135 A 
ATOM     63  F   UNL A   1      44.452  33.809  28.478  1.00  0.00    -0.206 F 
ATOM     64  C   UNL A   1      44.373  35.500  30.102  1.00  0.00     0.059 A 
ATOM     65  C   UNL A   1      43.944  34.932  32.424  1.00  0.00     0.059 A 
ATOM     66  F   UNL A   1      43.657  32.688  33.037  1.00  0.00    -0.206 F 
ATOM     67  C   UNL A   1      44.198  35.880  31.433  1.00  0.00     0.060 A 
BRANCH  67  68
ATOM     68  S   UNL A   1      44.281  37.635  31.846  1.00  0.00     0.124 S 
ATOM     69  O   UNL A   1      43.761  38.246  30.627  1.00  0.00    -0.237 OA
ATOM     70  O   UNL A   1      43.413  37.721  33.017  1.00  0.00    -0.237 OA
ATOM     71  O   UNL A   1      45.700  37.858  32.104  1.00  0.00    -0.744 OA
ENDBRANCH  67  68
ENDBRANCH  46  60
BRANCH  47  72
ATOM     72  C   UNL A   1      42.664  23.713  27.735  1.00  0.00     0.058 A 
ATOM     73  C   UNL A   1      42.598  23.482  26.354  1.00  0.00     0.135 A 
ATOM     74  C   UNL A   1      42.549  22.604  28.588  1.00  0.00     0.135 A 
ATOM     75  F   UNL A   1      42.700  24.510  25.497  1.00  0.00    -0.206 F 
ATOM     76  C   UNL A   1      42.393  22.208  25.835  1.00  0.00     0.059 A 
ATOM     77  C   UNL A   1      42.372  21.315  28.092  1.00  0.00     0.059 A 
ATOM     78  F   UNL A   1      42.624  22.766  29.918  1.00  0.00    -0.206 F 
ATOM     79  C   UNL A   1      42.277  21.130  26.714  1.00  0.00     0.060 A 
BRANCH  79  80
ATOM     80  S   UNL A   1      42.023  19.478  26.029  1.00  0.00     0.124 S 
ATOM     81  O   UNL A   1      42.864  19.522  24.838  1.00  0.00    -0.237 OA
ATOM     82  O   UNL A   1      42.493  18.620  27.111  1.00  0.00    -0.237 OA
ATOM     83  O   UNL A   1      40.583  19.435  25.783  1.00  0.00    -0.744 OA
ENDBRANCH  79  80
ENDBRANCH  47  72
BRANCH  59  84
ATOM     84  C   UNL A   1      48.207  27.365  29.897  1.00  0.00     0.058 A 
ATOM     85  C   UNL A   1      49.163  27.637  28.907  1.00  0.00     0.135 A 
ATOM     86  C   UNL A   1      48.653  26.819  31.112  1.00  0.00     0.135 A 
ATOM     87  F   UNL A   1      48.786  28.152  27.727  1.00  0.00    -0.206 F 
ATOM     88  C   UNL A   1      50.512  27.367  29.110  1.00  0.00     0.059 A 
ATOM     89  C   UNL A   1      50.000  26.568  31.348  1.00  0.00     0.059 A 
ATOM     90  F   UNL A   1      47.778  26.551  32.095  1.00  0.00    -0.206 F 
ATOM     91  C   UNL A   1      50.921  26.839  30.336  1.00  0.00     0.060 A 
BRANCH  91  92
ATOM     92  S   UNL A   1      52.682  26.548  30.608  1.00  0.00     0.124 S 
ATOM     93  O   UNL A   1      53.106  27.823  31.179  1.00  0.00    -0.237 OA
ATOM     94  O   UNL A   1      52.673  25.413  31.526  1.00  0.00    -0.237 OA
ATOM     95  O   UNL A   1      53.190  26.260  29.270  1.00  0.00    -0.744 OA
ENDBRANCH  91  92
ENDBRANCH  59  84
ENDBRANCH  33  34
ENDBRANCH  25  28
ENDBRANCH  23  24
ENDBRANCH   1  23
TORSDOF 19
ENDMDL
MODEL 2
REMARK VINA RESULT:     -10.7      0.956      2.982
REMARK SMILES NC(=O)CC[C@H](NC(=O)CC1CC1)C(=O)NCCCNC(=O)c1ccc(-c2c3nc(c(-c4c(F)cc(S(=O)(=O)[O-])cc4F)c4ccc([nH]4)c(-c4c(F)cc(S(=O)(=O)[O-])cc4F)c4nc(c(-c5c(F)cc(S(=O)(=O)[O-])cc5F)c5ccc2[nH]5)C=C4)C=C3)cc1
REMARK SMILES IDX 18 1 17 2 16 3 14 4 15 5 6 7 5 8 4 9 2 10 1 11 3 14 7 15
REMARK SMILES IDX 8 16 9 18 10 19 11 20 12 21 13 22 19 23 20 24 21 25 22 27
REMARK SMILES IDX 23 28 24 29 88 30 25 31 87 32 26 33 27 34 28 35 81 36 29 37
REMARK SMILES IDX 86 38 80 39 82 40 30 41 85 42 79 43 78 44 31 46 65 47 44 48
REMARK SMILES IDX 64 49 45 50 48 51 63 52 83 53 46 54 47 55 62 57 84 58 49 59
REMARK SMILES IDX 32 60 33 61 42 62 34 63 35 64 41 65 43 66 36 67 37 68 38 69
REMARK SMILES IDX 39 70 40 71 66 72 67 73 76 74 68 75 69 76 75 77 77 78 70 79
REMARK SMILES IDX 71 80 72 81 73 82 74 83 50 84 51 85 60 86 52 87 53 88 59 89
REMARK SMILES IDX 61 90 54 91 55 92 56 93 57 94 58 95
REMARK H PARENT 16 6 1 12 1 13 7 17 20 26 82 45 48 56
REMARK Flexibility Score: inf
ROOT
ATOM      1  C   UNL A   1      31.941  27.725  27.255  1.00  0.00     0.042 C 
ENDROOT
BRANCH   1   2
ATOM      2  C   UNL A   1      31.847  26.407  26.500  1.00  0.00     0.117 C 
BRANCH   2   3
ATOM      3  N   UNL A   1      30.680  26.292  25.660  1.00  0.00    -0.354 N 
ATOM      4  C   UNL A   1      30.529  26.670  24.363  1.00  0.00     0.242 C 
ATOM      5  O   UNL A   1      29.627  26.120  23.720  1.00  0.00    -0.273 OA
ATOM      6  H   UNL A   1      29.889  25.884  26.081  1.00  0.00     0.163 HD
BRANCH   4   7
ATOM      7  C   UNL A   1      31.495  27.661  23.648  1.00  0.00     0.171 C 
BRANCH   7   8
ATOM      8  C   UNL A   1      30.949  29.090  23.633  1.00  0.00     0.045 C 
BRANCH   8   9
ATOM      9  C   UNL A   1      30.211  29.477  22.341  1.00  0.00     0.102 C 
BRANCH   9  10
ATOM     10  C   UNL A   1      29.165  30.564  22.467  1.00  0.00     0.217 C 
ATOM     11  N   UNL A   1      29.365  31.681  21.717  1.00  0.00    -0.370 N 
ATOM     12  H   UNL A   1      28.719  32.422  21.756  1.00  0.00     0.159 HD
ATOM     13  H   UNL A   1      30.157  31.748  21.135  1.00  0.00     0.159 HD
ATOM     14  O   UNL A   1      28.185  30.464  23.197  1.00  0.00    -0.275 OA
ENDBRANCH   9  10
ENDBRANCH   8   9
ENDBRANCH   7   8
BRANCH   7  15
ATOM     15  N   UNL A   1      32.140  27.141  22.437  1.00  0.00    -0.344 N 
ATOM     16  C   UNL A   1      32.963  26.131  22.068  1.00  0.00     0.220 C 
ATOM     17  H   UNL A   1      31.903  27.694  21.658  1.00  0.00     0.164 HD
ATOM     18  O   UNL A   1      33.287  26.132  20.874  1.00  0.00    -0.275 OA
BRANCH  16  19
ATOM     19  C   UNL A   1      33.498  25.050  22.989  1.00  0.00     0.103 C 
BRANCH  19  20
ATOM     20  C   UNL A   1      32.606  23.855  23.176  1.00  0.00    -0.002 C 
ATOM     21  C   UNL A   1      32.861  22.588  22.397  1.00  0.00     0.004 C 
ATOM     22  C   UNL A   1      33.094  22.614  23.880  1.00  0.00     0.004 C 
ENDBRANCH  19  20
ENDBRANCH  16  19
ENDBRANCH   7  15
ENDBRANCH   4   7
ENDBRANCH   2   3
ENDBRANCH   1   2
BRANCH   1  23
ATOM     23  C   UNL A   1      33.335  28.335  27.250  1.00  0.00     0.118 C 
BRANCH  23  24
ATOM     24  N   UNL A   1      33.337  29.769  27.530  1.00  0.00    -0.352 N 
ATOM     25  C   UNL A   1      34.315  30.582  28.051  1.00  0.00     0.251 C 
ATOM     26  H   UNL A   1      32.496  30.231  27.310  1.00  0.00     0.163 HD
ATOM     27  O   UNL A   1      34.034  31.744  28.341  1.00  0.00    -0.269 OA
BRANCH  25  28
ATOM     28  C   UNL A   1      35.681  30.069  28.280  1.00  0.00     0.039 A 
ATOM     29  C   UNL A   1      36.595  30.051  27.223  1.00  0.00     0.014 A 
ATOM     30  C   UNL A   1      36.063  29.600  29.537  1.00  0.00     0.014 A 
ATOM     31  C   UNL A   1      37.913  29.642  27.449  1.00  0.00     0.010 A 
ATOM     32  C   UNL A   1      37.395  29.302  29.786  1.00  0.00     0.010 A 
ATOM     33  C   UNL A   1      38.334  29.309  28.746  1.00  0.00    -0.014 A 
BRANCH  33  34
ATOM     34  C   UNL A   1      39.738  28.947  29.066  1.00  0.00     0.031 A 
ATOM     35  C   UNL A   1      40.675  30.015  29.570  1.00  0.00     0.074 A 
ATOM     36  C   UNL A   1      40.201  27.716  28.773  1.00  0.00     0.049 A 
ATOM     37  N   UNL A   1      41.976  29.986  29.690  1.00  0.00    -0.248 NA
ATOM     38  C   UNL A   1      40.070  31.308  29.939  1.00  0.00     0.031 C 
ATOM     39  C   UNL A   1      39.403  26.617  28.223  1.00  0.00     0.029 A 
ATOM     40  N   UNL A   1      41.466  27.190  28.861  1.00  0.00    -0.354 N 
ATOM     41  C   UNL A   1      42.347  31.262  30.096  1.00  0.00     0.074 A 
ATOM     42  C   UNL A   1      41.140  32.056  30.164  1.00  0.00     0.031 C 
ATOM     43  C   UNL A   1      40.194  25.550  28.026  1.00  0.00     0.029 A 
ATOM     44  C   UNL A   1      41.563  25.901  28.387  1.00  0.00     0.049 A 
ATOM     45  H   UNL A   1      42.231  27.688  29.230  1.00  0.00     0.167 HD
ATOM     46  C   UNL A   1      43.581  31.725  30.401  1.00  0.00     0.037 A 
ATOM     47  C   UNL A   1      42.640  25.106  28.232  1.00  0.00     0.037 A 
ATOM     48  C   UNL A   1      44.763  30.905  30.399  1.00  0.00     0.049 A 
ATOM     49  C   UNL A   1      43.995  25.628  28.630  1.00  0.00     0.074 A 
ATOM     50  C   UNL A   1      46.045  31.245  30.793  1.00  0.00     0.029 A 
ATOM     51  N   UNL A   1      44.805  29.579  29.993  1.00  0.00    -0.354 N 
ATOM     52  N   UNL A   1      44.319  26.818  29.080  1.00  0.00    -0.248 NA
ATOM     53  C   UNL A   1      45.130  24.704  28.505  1.00  0.00     0.031 C 
ATOM     54  C   UNL A   1      46.871  30.137  30.584  1.00  0.00     0.029 A 
ATOM     55  C   UNL A   1      46.094  29.091  30.109  1.00  0.00     0.049 A 
ATOM     56  H   UNL A   1      44.032  29.062  29.668  1.00  0.00     0.167 HD
ATOM     57  C   UNL A   1      45.687  26.774  29.321  1.00  0.00     0.074 A 
ATOM     58  C   UNL A   1      46.128  25.438  28.976  1.00  0.00     0.031 C 
ATOM     59  C   UNL A   1      46.505  27.749  29.785  1.00  0.00     0.037 A 
BRANCH  46  60
ATOM     60  C   UNL A   1      43.726  33.173  30.781  1.00  0.00     0.058 A 
ATOM     61  C   UNL A   1      43.770  33.586  32.122  1.00  0.00     0.135 A 
ATOM     62  C   UNL A   1      43.893  34.154  29.789  1.00  0.00     0.135 A 
ATOM     63  F   UNL A   1      43.598  32.695  33.111  1.00  0.00    -0.206 F 
ATOM     64  C   UNL A   1      43.958  34.921  32.466  1.00  0.00     0.059 A 
ATOM     65  C   UNL A   1      44.112  35.490  30.110  1.00  0.00     0.059 A 
ATOM     66  F   UNL A   1      43.854  33.815  28.491  1.00  0.00    -0.206 F 
ATOM     67  C   UNL A   1      44.135  35.864  31.453  1.00  0.00     0.060 A 
BRANCH  67  68
ATOM     68  S   UNL A   1      44.421  37.585  31.919  1.00  0.00     0.124 S 
ATOM     69  O   UNL A   1      45.841  37.562  32.258  1.00  0.00    -0.237 OA
ATOM     70  O   UNL A   1      44.075  38.301  30.695  1.00  0.00    -0.237 OA
ATOM     71  O   UNL A   1      43.511  37.791  33.041  1.00  0.00    -0.744 OA
ENDBRANCH  67  68
ENDBRANCH  46  60
BRANCH  47  72
ATOM     72  C   UNL A   1      42.485  23.732  27.678  1.00  0.00     0.058 A 
ATOM     73  C   UNL A   1      42.396  22.618  28.526  1.00  0.00     0.135 A 
ATOM     74  C   UNL A   1      42.431  23.504  26.294  1.00  0.00     0.135 A 
ATOM     75  F   UNL A   1      42.445  22.783  29.857  1.00  0.00    -0.206 F 
ATOM     76  C   UNL A   1      42.292  21.325  28.024  1.00  0.00     0.059 A 
ATOM     77  C   UNL A   1      42.299  22.222  25.768  1.00  0.00     0.059 A 
ATOM     78  F   UNL A   1      42.493  24.536  25.439  1.00  0.00    -0.206 F 
ATOM     79  C   UNL A   1      42.249  21.137  26.642  1.00  0.00     0.060 A 
BRANCH  79  80
ATOM     80  S   UNL A   1      42.102  19.454  26.002  1.00  0.00     0.124 S 
ATOM     81  O   UNL A   1      42.641  18.672  27.107  1.00  0.00    -0.237 OA
ATOM     82  O   UNL A   1      40.665  19.335  25.776  1.00  0.00    -0.237 OA
ATOM     83  O   UNL A   1      42.919  19.483  24.791  1.00  0.00    -0.744 OA
ENDBRANCH  79  80
ENDBRANCH  47  72
BRANCH  59  84
ATOM     84  C   UNL A   1      47.952  27.403  29.996  1.00  0.00     0.058 A 
ATOM     85  C   UNL A   1      48.896  27.510  28.965  1.00  0.00     0.135 A 
ATOM     86  C   UNL A   1      48.410  27.037  31.273  1.00  0.00     0.135 A 
ATOM     87  F   UNL A   1      48.508  27.850  27.726  1.00  0.00    -0.206 F 
ATOM     88  C   UNL A   1      50.244  27.253  29.187  1.00  0.00     0.059 A 
ATOM     89  C   UNL A   1      49.756  26.802  31.526  1.00  0.00     0.059 A 
ATOM     90  F   UNL A   1      47.546  26.931  32.297  1.00  0.00    -0.206 F 
ATOM     91  C   UNL A   1      50.665  26.906  30.473  1.00  0.00     0.060 A 
BRANCH  91  92
ATOM     92  S   UNL A   1      52.426  26.631  30.761  1.00  0.00     0.124 S 
ATOM     93  O   UNL A   1      52.958  26.682  29.403  1.00  0.00    -0.237 OA
ATOM     94  O   UNL A   1      52.780  27.753  31.624  1.00  0.00    -0.237 OA
ATOM     95  O   UNL A   1      52.465  25.318  31.401  1.00  0.00    -0.744 OA
ENDBRANCH  91  92
ENDBRANCH  59  84
ENDBRANCH  33  34
ENDBRANCH  25  28
ENDBRANCH  23  24
ENDBRANCH   1  23
TORSDOF 19
ENDMDL
MODEL 3
REMARK VINA RESULT:     -10.6      3.515      9.459
REMARK SMILES NC(=O)CC[C@H](NC(=O)CC1CC1)C(=O)NCCCNC(=O)c1ccc(-c2c3nc(c(-c4c(F)cc(S(=O)(=O)[O-])cc4F)c4ccc([nH]4)c(-c4c(F)cc(S(=O)(=O)[O-])cc4F)c4nc(c(-c5c(F)cc(S(=O)(=O)[O-])cc5F)c5ccc2[nH]5)C=C4)C=C3)cc1
REMARK SMILES IDX 18 1 17 2 16 3 14 4 15 5 6 7 5 8 4 9 2 10 1 11 3 14 7 15
REMARK SMILES IDX 8 16 9 18 10 19 11 20 12 21 13 22 19 23 20 24 21 25 22 27
REMARK SMILES IDX 23 28 24 29 88 30 25 31 87 32 26 33 27 34 28 35 81 36 29 37
REMARK SMILES IDX 86 38 80 39 82 40 30 41 85 42 79 43 78 44 31 46 65 47 44 48
REMARK SMILES IDX 64 49 45 50 48 51 63 52 83 53 46 54 47 55 62 57 84 58 49 59
REMARK SMILES IDX 32 60 33 61 42 62 34 63 35 64 41 65 43 66 36 67 37 68 38 69
REMARK SMILES IDX 39 70 40 71 66 72 67 73 76 74 68 75 69 76 75 77 77 78 70 79
REMARK SMILES IDX 71 80 72 81 73 82 74 83 50 84 51 85 60 86 52 87 53 88 59 89
REMARK SMILES IDX 61 90 54 91 55 92 56 93 57 94 58 95
REMARK H PARENT 16 6 1 12 1 13 7 17 20 26 82 45 48 56
REMARK Flexibility Score: inf
ROOT
ATOM      1  C   UNL A   1      35.890  23.681  25.990  1.00  0.00     0.042 C 
ENDROOT
BRANCH   1   2
ATOM      2  C   UNL A   1      34.748  22.738  25.640  1.00  0.00     0.117 C 
BRANCH   2   3
ATOM      3  N   UNL A   1      34.498  22.615  24.225  1.00  0.00    -0.354 N 
ATOM      4  C   UNL A   1      33.857  23.484  23.399  1.00  0.00     0.242 C 
ATOM      5  O   UNL A   1      34.110  23.398  22.191  1.00  0.00    -0.273 OA
ATOM      6  H   UNL A   1      34.837  21.792  23.802  1.00  0.00     0.163 HD
BRANCH   4   7
ATOM      7  C   UNL A   1      32.928  24.621  23.917  1.00  0.00     0.171 C 
BRANCH   7   8
ATOM      8  C   UNL A   1      31.448  24.259  23.791  1.00  0.00     0.045 C 
BRANCH   8   9
ATOM      9  C   UNL A   1      30.891  23.433  24.962  1.00  0.00     0.102 C 
BRANCH   9  10
ATOM     10  C   UNL A   1      30.539  24.202  26.218  1.00  0.00     0.217 C 
ATOM     11  N   UNL A   1      29.647  23.608  27.056  1.00  0.00    -0.370 N 
ATOM     12  H   UNL A   1      29.379  24.059  27.888  1.00  0.00     0.159 HD
ATOM     13  H   UNL A   1      29.269  22.727  26.829  1.00  0.00     0.159 HD
ATOM     14  O   UNL A   1      31.019  25.298  26.483  1.00  0.00    -0.275 OA
ENDBRANCH   9  10
ENDBRANCH   8   9
ENDBRANCH   7   8
BRANCH   7  15
ATOM     15  N   UNL A   1      33.353  25.982  23.568  1.00  0.00    -0.344 N 
ATOM     16  C   UNL A   1      33.684  27.141  24.185  1.00  0.00     0.220 C 
ATOM     17  H   UNL A   1      33.414  26.082  22.591  1.00  0.00     0.164 HD
ATOM     18  O   UNL A   1      33.940  28.082  23.424  1.00  0.00    -0.275 OA
BRANCH  16  19
ATOM     19  C   UNL A   1      33.752  27.351  25.686  1.00  0.00     0.103 C 
BRANCH  19  20
ATOM     20  C   UNL A   1      33.819  28.782  26.141  1.00  0.00    -0.002 C 
ATOM     21  C   UNL A   1      33.096  29.215  27.392  1.00  0.00     0.004 C 
ATOM     22  C   UNL A   1      34.597  29.179  27.370  1.00  0.00     0.004 C 
ENDBRANCH  19  20
ENDBRANCH  16  19
ENDBRANCH   7  15
ENDBRANCH   4   7
ENDBRANCH   2   3
ENDBRANCH   1   2
BRANCH   1  23
ATOM     23  C   UNL A   1      37.029  23.662  24.981  1.00  0.00     0.118 C 
BRANCH  23  24
ATOM     24  N   UNL A   1      38.096  22.728  25.334  1.00  0.00    -0.352 N 
ATOM     25  C   UNL A   1      39.250  22.911  26.057  1.00  0.00     0.251 C 
ATOM     26  H   UNL A   1      37.967  21.812  24.996  1.00  0.00     0.163 HD
ATOM     27  O   UNL A   1      40.081  22.005  26.098  1.00  0.00    -0.269 OA
BRANCH  25  28
ATOM     28  C   UNL A   1      39.504  24.184  26.764  1.00  0.00     0.039 A 
ATOM     29  C   UNL A   1      38.977  24.376  28.044  1.00  0.00     0.014 A 
ATOM     30  C   UNL A   1      40.259  25.191  26.164  1.00  0.00     0.014 A 
ATOM     31  C   UNL A   1      39.278  25.544  28.752  1.00  0.00     0.010 A 
ATOM     32  C   UNL A   1      40.649  26.296  26.908  1.00  0.00     0.010 A 
ATOM     33  C   UNL A   1      40.157  26.491  28.205  1.00  0.00    -0.014 A 
BRANCH  33  34
ATOM     34  C   UNL A   1      40.581  27.711  28.940  1.00  0.00     0.031 A 
ATOM     35  C   UNL A   1      41.869  27.685  29.723  1.00  0.00     0.074 A 
ATOM     36  C   UNL A   1      39.755  28.773  29.019  1.00  0.00     0.049 A 
ATOM     37  N   UNL A   1      42.315  28.533  30.612  1.00  0.00    -0.248 NA
ATOM     38  C   UNL A   1      42.748  26.520  29.516  1.00  0.00     0.031 C 
ATOM     39  C   UNL A   1      38.454  28.888  28.354  1.00  0.00     0.029 A 
ATOM     40  N   UNL A   1      39.867  29.944  29.725  1.00  0.00    -0.354 N 
ATOM     41  C   UNL A   1      43.492  27.982  31.103  1.00  0.00     0.074 A 
ATOM     42  C   UNL A   1      43.673  26.707  30.446  1.00  0.00     0.031 C 
ATOM     43  C   UNL A   1      37.893  30.064  28.681  1.00  0.00     0.029 A 
ATOM     44  C   UNL A   1      38.767  30.764  29.616  1.00  0.00     0.049 A 
ATOM     45  H   UNL A   1      40.662  30.177  30.258  1.00  0.00     0.167 HD
ATOM     46  C   UNL A   1      44.353  28.502  32.009  1.00  0.00     0.037 A 
ATOM     47  C   UNL A   1      38.482  31.931  30.225  1.00  0.00     0.037 A 
ATOM     48  C   UNL A   1      44.197  29.803  32.601  1.00  0.00     0.049 A 
ATOM     49  C   UNL A   1      39.483  32.513  31.189  1.00  0.00     0.074 A 
ATOM     50  C   UNL A   1      45.064  30.470  33.448  1.00  0.00     0.029 A 
ATOM     51  N   UNL A   1      43.108  30.639  32.399  1.00  0.00    -0.354 N 
ATOM     52  N   UNL A   1      40.627  32.011  31.590  1.00  0.00    -0.248 NA
ATOM     53  C   UNL A   1      39.160  33.818  31.780  1.00  0.00     0.031 C 
ATOM     54  C   UNL A   1      44.479  31.692  33.793  1.00  0.00     0.029 A 
ATOM     55  C   UNL A   1      43.273  31.808  33.120  1.00  0.00     0.049 A 
ATOM     56  H   UNL A   1      42.334  30.431  31.829  1.00  0.00     0.167 HD
ATOM     57  C   UNL A   1      41.174  32.953  32.454  1.00  0.00     0.074 A 
ATOM     58  C   UNL A   1      40.240  34.058  32.511  1.00  0.00     0.031 C 
ATOM     59  C   UNL A   1      42.341  32.907  33.140  1.00  0.00     0.037 A 
BRANCH  46  60
ATOM     60  C   UNL A   1      45.549  27.681  32.408  1.00  0.00     0.058 A 
ATOM     61  C   UNL A   1      45.459  26.659  33.366  1.00  0.00     0.135 A 
ATOM     62  C   UNL A   1      46.786  27.873  31.770  1.00  0.00     0.135 A 
ATOM     63  F   UNL A   1      44.306  26.443  34.020  1.00  0.00    -0.206 F 
ATOM     64  C   UNL A   1      46.556  25.868  33.691  1.00  0.00     0.059 A 
ATOM     65  C   UNL A   1      47.889  27.074  32.057  1.00  0.00     0.059 A 
ATOM     66  F   UNL A   1      46.929  28.839  30.850  1.00  0.00    -0.206 F 
ATOM     67  C   UNL A   1      47.765  26.078  33.026  1.00  0.00     0.060 A 
BRANCH  67  68
ATOM     68  S   UNL A   1      49.166  25.014  33.428  1.00  0.00     0.124 S 
ATOM     69  O   UNL A   1      49.962  25.891  34.281  1.00  0.00    -0.237 OA
ATOM     70  O   UNL A   1      48.520  23.891  34.103  1.00  0.00    -0.237 OA
ATOM     71  O   UNL A   1      49.747  24.707  32.126  1.00  0.00    -0.744 OA
ENDBRANCH  67  68
ENDBRANCH  46  60
BRANCH  47  72
ATOM     72  C   UNL A   1      37.199  32.632  29.945  1.00  0.00     0.058 A 
ATOM     73  C   UNL A   1      37.131  33.661  28.995  1.00  0.00     0.135 A 
ATOM     74  C   UNL A   1      36.017  32.293  30.624  1.00  0.00     0.135 A 
ATOM     75  F   UNL A   1      38.233  34.024  28.320  1.00  0.00    -0.206 F 
ATOM     76  C   UNL A   1      35.949  34.353  28.750  1.00  0.00     0.059 A 
ATOM     77  C   UNL A   1      34.816  32.951  30.376  1.00  0.00     0.059 A 
ATOM     78  F   UNL A   1      36.022  31.302  31.529  1.00  0.00    -0.206 F 
ATOM     79  C   UNL A   1      34.797  33.993  29.449  1.00  0.00     0.060 A 
BRANCH  79  80
ATOM     80  S   UNL A   1      33.265  34.889  29.115  1.00  0.00     0.124 S 
ATOM     81  O   UNL A   1      33.773  36.183  28.674  1.00  0.00    -0.237 OA
ATOM     82  O   UNL A   1      32.643  34.064  28.085  1.00  0.00    -0.237 OA
ATOM     83  O   UNL A   1      32.585  34.885  30.407  1.00  0.00    -0.744 OA
ENDBRANCH  79  80
ENDBRANCH  47  72
BRANCH  59  84
ATOM     84  C   UNL A   1      42.707  34.103  33.974  1.00  0.00     0.058 A 
ATOM     85  C   UNL A   1      42.436  34.156  35.349  1.00  0.00     0.135 A 
ATOM     86  C   UNL A   1      43.411  35.174  33.399  1.00  0.00     0.135 A 
ATOM     87  F   UNL A   1      41.761  33.160  35.943  1.00  0.00    -0.206 F 
ATOM     88  C   UNL A   1      42.838  35.237  36.124  1.00  0.00     0.059 A 
ATOM     89  C   UNL A   1      43.847  36.252  34.160  1.00  0.00     0.059 A 
ATOM     90  F   UNL A   1      43.704  35.165  32.088  1.00  0.00    -0.206 F 
ATOM     91  C   UNL A   1      43.549  36.277  35.523  1.00  0.00     0.060 A 
BRANCH  91  92
ATOM     92  S   UNL A   1      44.115  37.648  36.552  1.00  0.00     0.124 S 
ATOM     93  O   UNL A   1      45.446  37.192  36.941  1.00  0.00    -0.237 OA
ATOM     94  O   UNL A   1      44.076  38.773  35.624  1.00  0.00    -0.237 OA
ATOM     95  O   UNL A   1      43.129  37.695  37.628  1.00  0.00    -0.744 OA
ENDBRANCH  91  92
ENDBRANCH  59  84
ENDBRANCH  33  34
ENDBRANCH  25  28
ENDBRANCH  23  24
ENDBRANCH   1  23
TORSDOF 19
ENDMDL
