MODEL 1
REMARK VINA RESULT:     -12.0      0.000      0.000
REMARK SMILES C[C@@H](C(=O)NCCCNC(=O)c1ccc(-c2c3nc(c(-c4c(F)cc(S(=O)(=O)[O-])cc4F)c4ccc([nH]4)c(-c4c(F)cc(S(=O)(=O)[O-])cc4F)c4nc(c(-c5c(F)cc(S(=O)(=O)[O-])cc5F)c5ccc2[nH]5)C=C4)C=C3)cc1)[C@H](C)[N@@H+]1C[C@H]2C[NH2+]C[C@@H]2[C@@H]1C
REMARK SMILES IDX 7 1 6 2 5 3 3 4 4 5 2 7 1 8 78 9 79 10 80 11 81 12 87 13
REMARK SMILES IDX 82 15 86 16 88 17 83 18 85 19 84 20 8 23 9 24 10 25 11 27
REMARK SMILES IDX 12 28 13 29 77 30 14 31 76 32 15 33 16 34 17 35 70 36 18 37
REMARK SMILES IDX 75 38 69 39 71 40 19 41 74 42 68 43 67 44 20 46 54 47 33 48
REMARK SMILES IDX 53 49 34 50 37 51 52 52 72 53 35 54 36 55 51 57 73 58 38 59
REMARK SMILES IDX 21 60 22 61 31 62 23 63 24 64 30 65 32 66 25 67 26 68 27 69
REMARK SMILES IDX 28 70 29 71 55 72 56 73 65 74 57 75 58 76 64 77 66 78 59 79
REMARK SMILES IDX 60 80 61 81 62 82 63 83 39 84 40 85 49 86 41 87 42 88 48 89
REMARK SMILES IDX 50 90 43 91 44 92 45 93 46 94 47 95
REMARK H PARENT 5 6 80 14 84 21 84 22 9 26 71 45 37 56
REMARK Flexibility Score: inf
ROOT
ATOM      1  C   UNL A   1      40.073  21.918  26.514  1.00  0.00     0.042 C 
ENDROOT
BRANCH   1   2
ATOM      2  C   UNL A   1      38.650  22.243  26.051  1.00  0.00     0.117 C 
BRANCH   2   3
ATOM      3  N   UNL A   1      37.964  21.077  25.546  1.00  0.00    -0.356 N 
ATOM      4  C   UNL A   1      36.794  20.853  24.917  1.00  0.00     0.228 C 
ATOM      5  O   UNL A   1      36.510  19.658  24.894  1.00  0.00    -0.275 OA
ATOM      6  H   UNL A   1      38.473  20.248  25.698  1.00  0.00     0.163 HD
BRANCH   4   7
ATOM      7  C   UNL A   1      35.955  21.933  24.231  1.00  0.00     0.133 C 
ATOM      8  C   UNL A   1      36.783  23.054  23.602  1.00  0.00     0.024 C 
BRANCH   7   9
ATOM      9  C   UNL A   1      34.716  22.439  25.086  1.00  0.00     0.193 C 
ATOM     10  C   UNL A   1      35.162  22.706  26.546  1.00  0.00     0.076 C 
BRANCH   9  11
ATOM     11  N   UNL A   1      33.433  21.735  25.230  1.00  0.00    -0.329 N 
ATOM     12  C   UNL A   1      33.328  20.530  26.079  1.00  0.00     0.272 C 
ATOM     13  C   UNL A   1      32.536  21.543  24.054  1.00  0.00     0.190 C 
ATOM     14  H   UNL A   1      33.089  22.534  25.763  1.00  0.00     0.348 HD
ATOM     15  C   UNL A   1      33.226  19.460  25.034  1.00  0.00     0.114 C 
ATOM     16  C   UNL A   1      32.213  20.051  24.078  1.00  0.00     0.116 C 
ATOM     17  C   UNL A   1      32.735  22.214  22.698  1.00  0.00     0.076 C 
ATOM     18  C   UNL A   1      32.663  18.075  25.179  1.00  0.00     0.270 C 
ATOM     19  C   UNL A   1      32.264  19.017  22.984  1.00  0.00     0.271 C 
ATOM     20  N   UNL A   1      32.373  17.733  23.753  1.00  0.00    -0.345 N 
ATOM     21  H   UNL A   1      31.496  17.217  23.691  1.00  0.00     0.346 HD
ATOM     22  H   UNL A   1      33.118  17.151  23.370  1.00  0.00     0.346 HD
ENDBRANCH   9  11
ENDBRANCH   7   9
ENDBRANCH   4   7
ENDBRANCH   2   3
ENDBRANCH   1   2
BRANCH   1  23
ATOM     23  C   UNL A   1      40.876  23.098  27.068  1.00  0.00     0.118 C 
BRANCH  23  24
ATOM     24  N   UNL A   1      41.381  23.993  26.039  1.00  0.00    -0.352 N 
ATOM     25  C   UNL A   1      41.571  25.350  26.042  1.00  0.00     0.251 C 
ATOM     26  H   UNL A   1      41.627  23.549  25.195  1.00  0.00     0.163 HD
ATOM     27  O   UNL A   1      41.864  25.913  24.985  1.00  0.00    -0.269 OA
BRANCH  25  28
ATOM     28  C   UNL A   1      41.398  26.148  27.274  1.00  0.00     0.039 A 
ATOM     29  C   UNL A   1      42.355  27.122  27.571  1.00  0.00     0.014 A 
ATOM     30  C   UNL A   1      40.338  25.925  28.157  1.00  0.00     0.014 A 
ATOM     31  C   UNL A   1      42.211  27.916  28.710  1.00  0.00     0.010 A 
ATOM     32  C   UNL A   1      40.153  26.769  29.254  1.00  0.00     0.010 A 
ATOM     33  C   UNL A   1      41.086  27.776  29.541  1.00  0.00    -0.014 A 
BRANCH  33  34
ATOM     34  C   UNL A   1      40.877  28.701  30.686  1.00  0.00     0.031 A 
ATOM     35  C   UNL A   1      41.708  28.588  31.934  1.00  0.00     0.074 A 
ATOM     36  C   UNL A   1      39.904  29.632  30.606  1.00  0.00     0.049 A 
ATOM     37  N   UNL A   1      41.665  29.318  33.021  1.00  0.00    -0.248 NA
ATOM     38  C   UNL A   1      42.703  27.507  31.980  1.00  0.00     0.031 C 
ATOM     39  C   UNL A   1      38.987  29.800  29.476  1.00  0.00     0.029 A 
ATOM     40  N   UNL A   1      39.524  30.613  31.487  1.00  0.00    -0.354 N 
ATOM     41  C   UNL A   1      42.625  28.787  33.876  1.00  0.00     0.074 A 
ATOM     42  C   UNL A   1      43.193  27.637  33.205  1.00  0.00     0.031 C 
ATOM     43  C   UNL A   1      38.172  30.837  29.721  1.00  0.00     0.029 A 
ATOM     44  C   UNL A   1      38.484  31.390  31.034  1.00  0.00     0.049 A 
ATOM     45  H   UNL A   1      39.956  30.747  32.362  1.00  0.00     0.167 HD
ATOM     46  C   UNL A   1      43.014  29.231  35.096  1.00  0.00     0.037 A 
ATOM     47  C   UNL A   1      37.851  32.431  31.609  1.00  0.00     0.037 A 
ATOM     48  C   UNL A   1      42.453  30.382  35.756  1.00  0.00     0.049 A 
ATOM     49  C   UNL A   1      38.312  32.914  32.957  1.00  0.00     0.074 A 
ATOM     50  C   UNL A   1      42.810  30.938  36.972  1.00  0.00     0.029 A 
ATOM     51  N   UNL A   1      41.414  31.155  35.257  1.00  0.00    -0.354 N 
ATOM     52  N   UNL A   1      39.266  32.437  33.721  1.00  0.00    -0.248 NA
ATOM     53  C   UNL A   1      37.620  34.084  33.514  1.00  0.00     0.031 C 
ATOM     54  C   UNL A   1      41.963  32.024  37.226  1.00  0.00     0.029 A 
ATOM     55  C   UNL A   1      41.108  32.173  36.147  1.00  0.00     0.049 A 
ATOM     56  H   UNL A   1      40.961  31.003  34.396  1.00  0.00     0.167 HD
ATOM     57  C   UNL A   1      39.298  33.257  34.844  1.00  0.00     0.074 A 
ATOM     58  C   UNL A   1      38.285  34.274  34.645  1.00  0.00     0.031 C 
ATOM     59  C   UNL A   1      40.089  33.172  35.943  1.00  0.00     0.037 A 
BRANCH  46  60
ATOM     60  C   UNL A   1      44.114  28.476  35.794  1.00  0.00     0.058 A 
ATOM     61  C   UNL A   1      43.833  27.423  36.679  1.00  0.00     0.135 A 
ATOM     62  C   UNL A   1      45.463  28.775  35.543  1.00  0.00     0.135 A 
ATOM     63  F   UNL A   1      42.560  27.101  36.966  1.00  0.00    -0.206 F 
ATOM     64  C   UNL A   1      44.847  26.711  37.312  1.00  0.00     0.059 A 
ATOM     65  C   UNL A   1      46.495  28.058  36.144  1.00  0.00     0.059 A 
ATOM     66  F   UNL A   1      45.790  29.771  34.705  1.00  0.00    -0.206 F 
ATOM     67  C   UNL A   1      46.176  27.036  37.037  1.00  0.00     0.060 A 
BRANCH  67  68
ATOM     68  S   UNL A   1      47.480  26.094  37.856  1.00  0.00     0.124 S 
ATOM     69  O   UNL A   1      48.401  25.847  36.750  1.00  0.00    -0.237 OA
ATOM     70  O   UNL A   1      47.950  27.030  38.874  1.00  0.00    -0.237 OA
ATOM     71  O   UNL A   1      46.782  24.918  38.366  1.00  0.00    -0.744 OA
ENDBRANCH  67  68
ENDBRANCH  46  60
BRANCH  47  72
ATOM     72  C   UNL A   1      36.726  33.097  30.901  1.00  0.00     0.058 A 
ATOM     73  C   UNL A   1      35.397  32.905  31.309  1.00  0.00     0.135 A 
ATOM     74  C   UNL A   1      36.960  33.950  29.811  1.00  0.00     0.135 A 
ATOM     75  F   UNL A   1      35.123  32.096  32.341  1.00  0.00    -0.206 F 
ATOM     76  C   UNL A   1      34.339  33.523  30.651  1.00  0.00     0.059 A 
ATOM     77  C   UNL A   1      35.920  34.599  29.155  1.00  0.00     0.059 A 
ATOM     78  F   UNL A   1      38.215  34.180  29.395  1.00  0.00    -0.206 F 
ATOM     79  C   UNL A   1      34.610  34.370  29.575  1.00  0.00     0.060 A 
BRANCH  79  80
ATOM     80  S   UNL A   1      33.236  35.211  28.759  1.00  0.00     0.124 S 
ATOM     81  O   UNL A   1      32.654  34.126  27.975  1.00  0.00    -0.237 OA
ATOM     82  O   UNL A   1      32.441  35.673  29.895  1.00  0.00    -0.237 OA
ATOM     83  O   UNL A   1      33.893  36.263  27.995  1.00  0.00    -0.744 OA
ENDBRANCH  79  80
ENDBRANCH  47  72
BRANCH  59  84
ATOM     84  C   UNL A   1      39.893  34.216  37.007  1.00  0.00     0.058 A 
ATOM     85  C   UNL A   1      40.437  35.504  36.881  1.00  0.00     0.135 A 
ATOM     86  C   UNL A   1      39.143  33.931  38.159  1.00  0.00     0.135 A 
ATOM     87  F   UNL A   1      41.167  35.827  35.803  1.00  0.00    -0.206 F 
ATOM     88  C   UNL A   1      40.279  36.460  37.880  1.00  0.00     0.059 A 
ATOM     89  C   UNL A   1      38.948  34.880  39.157  1.00  0.00     0.059 A 
ATOM     90  F   UNL A   1      38.590  32.718  38.324  1.00  0.00    -0.206 F 
ATOM     91  C   UNL A   1      39.537  36.137  39.017  1.00  0.00     0.060 A 
BRANCH  91  92
ATOM     92  S   UNL A   1      39.339  37.385  40.306  1.00  0.00     0.124 S 
ATOM     93  O   UNL A   1      40.728  37.716  40.608  1.00  0.00    -0.237 OA
ATOM     94  O   UNL A   1      38.573  38.423  39.624  1.00  0.00    -0.237 OA
ATOM     95  O   UNL A   1      38.620  36.674  41.359  1.00  0.00    -0.744 OA
ENDBRANCH  91  92
ENDBRANCH  59  84
ENDBRANCH  33  34
ENDBRANCH  25  28
ENDBRANCH  23  24
ENDBRANCH   1  23
TORSDOF 15
ENDMDL
MODEL 2
REMARK VINA RESULT:     -12.0      0.903      1.643
REMARK SMILES C[C@@H](C(=O)NCCCNC(=O)c1ccc(-c2c3nc(c(-c4c(F)cc(S(=O)(=O)[O-])cc4F)c4ccc([nH]4)c(-c4c(F)cc(S(=O)(=O)[O-])cc4F)c4nc(c(-c5c(F)cc(S(=O)(=O)[O-])cc5F)c5ccc2[nH]5)C=C4)C=C3)cc1)[C@H](C)[N@@H+]1C[C@H]2C[NH2+]C[C@@H]2[C@@H]1C
REMARK SMILES IDX 7 1 6 2 5 3 3 4 4 5 2 7 1 8 78 9 79 10 80 11 81 12 87 13
REMARK SMILES IDX 82 15 86 16 88 17 83 18 85 19 84 20 8 23 9 24 10 25 11 27
REMARK SMILES IDX 12 28 13 29 77 30 14 31 76 32 15 33 16 34 17 35 70 36 18 37
REMARK SMILES IDX 75 38 69 39 71 40 19 41 74 42 68 43 67 44 20 46 54 47 33 48
REMARK SMILES IDX 53 49 34 50 37 51 52 52 72 53 35 54 36 55 51 57 73 58 38 59
REMARK SMILES IDX 21 60 22 61 31 62 23 63 24 64 30 65 32 66 25 67 26 68 27 69
REMARK SMILES IDX 28 70 29 71 55 72 56 73 65 74 57 75 58 76 64 77 66 78 59 79
REMARK SMILES IDX 60 80 61 81 62 82 63 83 39 84 40 85 49 86 41 87 42 88 48 89
REMARK SMILES IDX 50 90 43 91 44 92 45 93 46 94 47 95
REMARK H PARENT 5 6 80 14 84 21 84 22 9 26 71 45 37 56
REMARK Flexibility Score: inf
ROOT
ATOM      1  C   UNL A   1      40.101  21.867  26.763  1.00  0.00     0.042 C 
ENDROOT
BRANCH   1   2
ATOM      2  C   UNL A   1      38.893  22.319  25.937  1.00  0.00     0.117 C 
BRANCH   2   3
ATOM      3  N   UNL A   1      38.162  21.201  25.389  1.00  0.00    -0.356 N 
ATOM      4  C   UNL A   1      36.859  20.883  25.255  1.00  0.00     0.228 C 
ATOM      5  O   UNL A   1      36.708  19.705  24.942  1.00  0.00    -0.275 OA
ATOM      6  H   UNL A   1      38.758  20.506  25.027  1.00  0.00     0.163 HD
BRANCH   4   7
ATOM      7  C   UNL A   1      35.705  21.877  25.385  1.00  0.00     0.133 C 
ATOM      8  C   UNL A   1      34.667  21.487  26.437  1.00  0.00     0.024 C 
BRANCH   7   9
ATOM      9  C   UNL A   1      35.084  22.343  23.999  1.00  0.00     0.193 C 
ATOM     10  C   UNL A   1      36.178  23.026  23.139  1.00  0.00     0.076 C 
BRANCH   9  11
ATOM     11  N   UNL A   1      33.911  23.215  23.839  1.00  0.00    -0.329 N 
ATOM     12  C   UNL A   1      33.799  24.473  24.606  1.00  0.00     0.272 C 
ATOM     13  C   UNL A   1      32.543  22.633  23.716  1.00  0.00     0.190 C 
ATOM     14  H   UNL A   1      34.245  23.440  22.901  1.00  0.00     0.348 HD
ATOM     15  C   UNL A   1      32.754  24.094  25.612  1.00  0.00     0.114 C 
ATOM     16  C   UNL A   1      31.722  23.403  24.747  1.00  0.00     0.116 C 
ATOM     17  C   UNL A   1      32.251  21.148  23.527  1.00  0.00     0.076 C 
ATOM     18  C   UNL A   1      31.857  25.003  26.402  1.00  0.00     0.270 C 
ATOM     19  C   UNL A   1      30.782  22.914  25.818  1.00  0.00     0.271 C 
ATOM     20  N   UNL A   1      30.759  24.063  26.782  1.00  0.00    -0.345 N 
ATOM     21  H   UNL A   1      29.860  24.541  26.730  1.00  0.00     0.346 HD
ATOM     22  H   UNL A   1      30.893  23.729  27.736  1.00  0.00     0.346 HD
ENDBRANCH   9  11
ENDBRANCH   7   9
ENDBRANCH   4   7
ENDBRANCH   2   3
ENDBRANCH   1   2
BRANCH   1  23
ATOM     23  C   UNL A   1      41.059  22.979  27.200  1.00  0.00     0.118 C 
BRANCH  23  24
ATOM     24  N   UNL A   1      41.424  23.890  26.126  1.00  0.00    -0.352 N 
ATOM     25  C   UNL A   1      41.499  25.257  26.094  1.00  0.00     0.251 C 
ATOM     26  H   UNL A   1      41.654  23.448  25.277  1.00  0.00     0.163 HD
ATOM     27  O   UNL A   1      41.678  25.819  25.011  1.00  0.00    -0.269 OA
BRANCH  25  28
ATOM     28  C   UNL A   1      41.335  26.066  27.320  1.00  0.00     0.039 A 
ATOM     29  C   UNL A   1      42.286  27.051  27.595  1.00  0.00     0.014 A 
ATOM     30  C   UNL A   1      40.289  25.841  28.220  1.00  0.00     0.014 A 
ATOM     31  C   UNL A   1      42.149  27.856  28.727  1.00  0.00     0.010 A 
ATOM     32  C   UNL A   1      40.111  26.694  29.311  1.00  0.00     0.010 A 
ATOM     33  C   UNL A   1      41.038  27.712  29.575  1.00  0.00    -0.014 A 
BRANCH  33  34
ATOM     34  C   UNL A   1      40.835  28.646  30.714  1.00  0.00     0.031 A 
ATOM     35  C   UNL A   1      41.665  28.536  31.964  1.00  0.00     0.074 A 
ATOM     36  C   UNL A   1      39.870  29.585  30.628  1.00  0.00     0.049 A 
ATOM     37  N   UNL A   1      41.627  29.273  33.045  1.00  0.00    -0.248 NA
ATOM     38  C   UNL A   1      42.652  27.447  32.017  1.00  0.00     0.031 C 
ATOM     39  C   UNL A   1      38.955  29.753  29.496  1.00  0.00     0.029 A 
ATOM     40  N   UNL A   1      39.497  30.574  31.502  1.00  0.00    -0.354 N 
ATOM     41  C   UNL A   1      42.582  28.740  33.904  1.00  0.00     0.074 A 
ATOM     42  C   UNL A   1      43.142  27.581  33.241  1.00  0.00     0.031 C 
ATOM     43  C   UNL A   1      38.147  30.798  29.733  1.00  0.00     0.029 A 
ATOM     44  C   UNL A   1      38.463  31.357  31.043  1.00  0.00     0.049 A 
ATOM     45  H   UNL A   1      39.929  30.711  32.376  1.00  0.00     0.167 HD
ATOM     46  C   UNL A   1      42.974  29.189  35.122  1.00  0.00     0.037 A 
ATOM     47  C   UNL A   1      37.838  32.406  31.611  1.00  0.00     0.037 A 
ATOM     48  C   UNL A   1      42.421  30.349  35.774  1.00  0.00     0.049 A 
ATOM     49  C   UNL A   1      38.302  32.895  32.956  1.00  0.00     0.074 A 
ATOM     50  C   UNL A   1      42.782  30.910  36.987  1.00  0.00     0.029 A 
ATOM     51  N   UNL A   1      41.389  31.126  35.269  1.00  0.00    -0.354 N 
ATOM     52  N   UNL A   1      39.252  32.415  33.723  1.00  0.00    -0.248 NA
ATOM     53  C   UNL A   1      37.619  34.073  33.504  1.00  0.00     0.031 C 
ATOM     54  C   UNL A   1      41.944  32.004  37.233  1.00  0.00     0.029 A 
ATOM     55  C   UNL A   1      41.091  32.152  36.153  1.00  0.00     0.049 A 
ATOM     56  H   UNL A   1      40.935  30.973  34.409  1.00  0.00     0.167 HD
ATOM     57  C   UNL A   1      39.289  33.242  34.841  1.00  0.00     0.074 A 
ATOM     58  C   UNL A   1      38.285  34.266  34.635  1.00  0.00     0.031 C 
ATOM     59  C   UNL A   1      40.079  33.158  35.941  1.00  0.00     0.037 A 
BRANCH  46  60
ATOM     60  C   UNL A   1      44.067  28.430  35.825  1.00  0.00     0.058 A 
ATOM     61  C   UNL A   1      43.778  27.379  36.711  1.00  0.00     0.135 A 
ATOM     62  C   UNL A   1      45.419  28.722  35.580  1.00  0.00     0.135 A 
ATOM     63  F   UNL A   1      42.503  27.065  36.993  1.00  0.00    -0.206 F 
ATOM     64  C   UNL A   1      44.786  26.664  37.349  1.00  0.00     0.059 A 
ATOM     65  C   UNL A   1      46.445  28.001  36.186  1.00  0.00     0.059 A 
ATOM     66  F   UNL A   1      45.754  29.715  34.741  1.00  0.00    -0.206 F 
ATOM     67  C   UNL A   1      46.118  26.983  37.079  1.00  0.00     0.060 A 
BRANCH  67  68
ATOM     68  S   UNL A   1      47.414  26.036  37.905  1.00  0.00     0.124 S 
ATOM     69  O   UNL A   1      48.423  25.943  36.854  1.00  0.00    -0.237 OA
ATOM     70  O   UNL A   1      47.755  26.893  39.036  1.00  0.00    -0.237 OA
ATOM     71  O   UNL A   1      46.753  24.782  38.251  1.00  0.00    -0.744 OA
ENDBRANCH  67  68
ENDBRANCH  46  60
BRANCH  47  72
ATOM     72  C   UNL A   1      36.719  33.076  30.898  1.00  0.00     0.058 A 
ATOM     73  C   UNL A   1      35.383  32.822  31.243  1.00  0.00     0.135 A 
ATOM     74  C   UNL A   1      36.965  33.996  29.866  1.00  0.00     0.135 A 
ATOM     75  F   UNL A   1      35.097  31.947  32.218  1.00  0.00    -0.206 F 
ATOM     76  C   UNL A   1      34.330  33.442  30.580  1.00  0.00     0.059 A 
ATOM     77  C   UNL A   1      35.929  34.648  29.207  1.00  0.00     0.059 A 
ATOM     78  F   UNL A   1      38.226  34.287  29.512  1.00  0.00    -0.206 F 
ATOM     79  C   UNL A   1      34.612  34.356  29.563  1.00  0.00     0.060 A 
BRANCH  79  80
ATOM     80  S   UNL A   1      33.243  35.200  28.742  1.00  0.00     0.124 S 
ATOM     81  O   UNL A   1      32.518  35.756  29.881  1.00  0.00    -0.237 OA
ATOM     82  O   UNL A   1      33.941  36.167  27.898  1.00  0.00    -0.237 OA
ATOM     83  O   UNL A   1      32.568  34.126  28.026  1.00  0.00    -0.744 OA
ENDBRANCH  79  80
ENDBRANCH  47  72
BRANCH  59  84
ATOM     84  C   UNL A   1      39.891  34.211  36.998  1.00  0.00     0.058 A 
ATOM     85  C   UNL A   1      40.454  35.490  36.869  1.00  0.00     0.135 A 
ATOM     86  C   UNL A   1      39.130  33.942  38.147  1.00  0.00     0.135 A 
ATOM     87  F   UNL A   1      41.195  35.797  35.793  1.00  0.00    -0.206 F 
ATOM     88  C   UNL A   1      40.302  36.454  37.861  1.00  0.00     0.059 A 
ATOM     89  C   UNL A   1      38.942  34.900  39.139  1.00  0.00     0.059 A 
ATOM     90  F   UNL A   1      38.559  32.738  38.315  1.00  0.00    -0.206 F 
ATOM     91  C   UNL A   1      39.548  36.148  38.995  1.00  0.00     0.060 A 
BRANCH  91  92
ATOM     92  S   UNL A   1      39.359  37.405  40.276  1.00  0.00     0.124 S 
ATOM     93  O   UNL A   1      40.747  37.786  40.520  1.00  0.00    -0.237 OA
ATOM     94  O   UNL A   1      38.534  38.409  39.612  1.00  0.00    -0.237 OA
ATOM     95  O   UNL A   1      38.706  36.685  41.365  1.00  0.00    -0.744 OA
ENDBRANCH  91  92
ENDBRANCH  59  84
ENDBRANCH  33  34
ENDBRANCH  25  28
ENDBRANCH  23  24
ENDBRANCH   1  23
TORSDOF 15
ENDMDL
MODEL 3
REMARK VINA RESULT:     -11.9      7.170     12.671
REMARK SMILES C[C@@H](C(=O)NCCCNC(=O)c1ccc(-c2c3nc(c(-c4c(F)cc(S(=O)(=O)[O-])cc4F)c4ccc([nH]4)c(-c4c(F)cc(S(=O)(=O)[O-])cc4F)c4nc(c(-c5c(F)cc(S(=O)(=O)[O-])cc5F)c5ccc2[nH]5)C=C4)C=C3)cc1)[C@H](C)[N@@H+]1C[C@H]2C[NH2+]C[C@@H]2[C@@H]1C
REMARK SMILES IDX 7 1 6 2 5 3 3 4 4 5 2 7 1 8 78 9 79 10 80 11 81 12 87 13
REMARK SMILES IDX 82 15 86 16 88 17 83 18 85 19 84 20 8 23 9 24 10 25 11 27
REMARK SMILES IDX 12 28 13 29 77 30 14 31 76 32 15 33 16 34 17 35 70 36 18 37
REMARK SMILES IDX 75 38 69 39 71 40 19 41 74 42 68 43 67 44 20 46 54 47 33 48
REMARK SMILES IDX 53 49 34 50 37 51 52 52 72 53 35 54 36 55 51 57 73 58 38 59
REMARK SMILES IDX 21 60 22 61 31 62 23 63 24 64 30 65 32 66 25 67 26 68 27 69
REMARK SMILES IDX 28 70 29 71 55 72 56 73 65 74 57 75 58 76 64 77 66 78 59 79
REMARK SMILES IDX 60 80 61 81 62 82 63 83 39 84 40 85 49 86 41 87 42 88 48 89
REMARK SMILES IDX 50 90 43 91 44 92 45 93 46 94 47 95
REMARK H PARENT 5 6 80 14 84 21 84 22 9 26 71 45 37 56
REMARK Flexibility Score: inf
ROOT
ATOM      1  C   UNL A   1      34.465  31.105  27.688  1.00  0.00     0.042 C 
ENDROOT
BRANCH   1   2
ATOM      2  C   UNL A   1      34.476  29.631  27.271  1.00  0.00     0.117 C 
BRANCH   2   3
ATOM      3  N   UNL A   1      33.322  28.919  27.767  1.00  0.00    -0.356 N 
ATOM      4  C   UNL A   1      32.352  28.166  27.213  1.00  0.00     0.228 C 
ATOM      5  O   UNL A   1      31.429  27.961  27.997  1.00  0.00    -0.275 OA
ATOM      6  H   UNL A   1      33.220  29.005  28.742  1.00  0.00     0.163 HD
BRANCH   4   7
ATOM      7  C   UNL A   1      32.418  27.558  25.811  1.00  0.00     0.133 C 
ATOM      8  C   UNL A   1      33.651  26.687  25.571  1.00  0.00     0.024 C 
BRANCH   7   9
ATOM      9  C   UNL A   1      32.105  28.583  24.639  1.00  0.00     0.193 C 
ATOM     10  C   UNL A   1      31.404  29.839  25.215  1.00  0.00     0.076 C 
BRANCH   9  11
ATOM     11  N   UNL A   1      31.343  28.279  23.419  1.00  0.00    -0.329 N 
ATOM     12  C   UNL A   1      31.091  29.327  22.409  1.00  0.00     0.272 C 
ATOM     13  C   UNL A   1      30.138  27.401  23.475  1.00  0.00     0.190 C 
ATOM     14  H   UNL A   1      32.132  27.713  23.104  1.00  0.00     0.348 HD
ATOM     15  C   UNL A   1      29.636  29.601  22.648  1.00  0.00     0.114 C 
ATOM     16  C   UNL A   1      29.065  28.203  22.742  1.00  0.00     0.116 C 
ATOM     17  C   UNL A   1      29.719  26.588  24.696  1.00  0.00     0.076 C 
ATOM     18  C   UNL A   1      28.643  30.219  21.705  1.00  0.00     0.270 C 
ATOM     19  C   UNL A   1      27.648  28.533  23.131  1.00  0.00     0.271 C 
ATOM     20  N   UNL A   1      27.355  29.745  22.295  1.00  0.00    -0.345 N 
ATOM     21  H   UNL A   1      26.701  29.502  21.551  1.00  0.00     0.346 HD
ATOM     22  H   UNL A   1      26.935  30.478  22.866  1.00  0.00     0.346 HD
ENDBRANCH   9  11
ENDBRANCH   7   9
ENDBRANCH   4   7
ENDBRANCH   2   3
ENDBRANCH   1   2
BRANCH   1  23
ATOM     23  C   UNL A   1      35.630  31.552  28.576  1.00  0.00     0.118 C 
BRANCH  23  24
ATOM     24  N   UNL A   1      35.584  30.997  29.920  1.00  0.00    -0.352 N 
ATOM     25  C   UNL A   1      36.498  30.250  30.616  1.00  0.00     0.251 C 
ATOM     26  H   UNL A   1      34.754  31.190  30.413  1.00  0.00     0.163 HD
ATOM     27  O   UNL A   1      36.165  29.755  31.694  1.00  0.00    -0.269 OA
BRANCH  25  28
ATOM     28  C   UNL A   1      37.854  30.002  30.082  1.00  0.00     0.039 A 
ATOM     29  C   UNL A   1      38.912  29.897  30.989  1.00  0.00     0.014 A 
ATOM     30  C   UNL A   1      38.104  29.912  28.710  1.00  0.00     0.014 A 
ATOM     31  C   UNL A   1      40.202  29.633  30.526  1.00  0.00     0.010 A 
ATOM     32  C   UNL A   1      39.379  29.573  28.253  1.00  0.00     0.010 A 
ATOM     33  C   UNL A   1      40.442  29.427  29.157  1.00  0.00    -0.014 A 
BRANCH  33  34
ATOM     34  C   UNL A   1      41.794  29.031  28.681  1.00  0.00     0.031 A 
ATOM     35  C   UNL A   1      42.908  30.038  28.590  1.00  0.00     0.074 A 
ATOM     36  C   UNL A   1      42.006  27.755  28.300  1.00  0.00     0.049 A 
ATOM     37  N   UNL A   1      44.148  29.861  28.206  1.00  0.00    -0.248 NA
ATOM     38  C   UNL A   1      42.588  31.425  28.956  1.00  0.00     0.031 C 
ATOM     39  C   UNL A   1      40.990  26.700  28.280  1.00  0.00     0.029 A 
ATOM     40  N   UNL A   1      43.142  27.125  27.858  1.00  0.00    -0.354 N 
ATOM     41  C   UNL A   1      44.754  31.109  28.287  1.00  0.00     0.074 A 
ATOM     42  C   UNL A   1      43.730  32.047  28.699  1.00  0.00     0.031 C 
ATOM     43  C   UNL A   1      41.554  25.552  27.876  1.00  0.00     0.029 A 
ATOM     44  C   UNL A   1      42.962  25.791  27.578  1.00  0.00     0.049 A 
ATOM     45  H   UNL A   1      44.006  27.586  27.751  1.00  0.00     0.167 HD
ATOM     46  C   UNL A   1      46.049  31.441  28.062  1.00  0.00     0.037 A 
ATOM     47  C   UNL A   1      43.831  24.863  27.133  1.00  0.00     0.037 A 
ATOM     48  C   UNL A   1      47.067  30.503  27.663  1.00  0.00     0.049 A 
ATOM     49  C   UNL A   1      45.266  25.252  26.907  1.00  0.00     0.074 A 
ATOM     50  C   UNL A   1      48.417  30.732  27.454  1.00  0.00     0.029 A 
ATOM     51  N   UNL A   1      46.850  29.156  27.408  1.00  0.00    -0.354 N 
ATOM     52  N   UNL A   1      45.834  26.425  27.051  1.00  0.00    -0.248 NA
ATOM     53  C   UNL A   1      46.180  24.189  26.470  1.00  0.00     0.031 C 
ATOM     54  C   UNL A   1      49.008  29.533  27.038  1.00  0.00     0.029 A 
ATOM     55  C   UNL A   1      48.037  28.546  27.030  1.00  0.00     0.049 A 
ATOM     56  H   UNL A   1      45.981  28.701  27.485  1.00  0.00     0.167 HD
ATOM     57  C   UNL A   1      47.175  26.239  26.736  1.00  0.00     0.074 A 
ATOM     58  C   UNL A   1      47.337  24.835  26.419  1.00  0.00     0.031 C 
ATOM     59  C   UNL A   1      48.181  27.149  26.705  1.00  0.00     0.037 A 
BRANCH  46  60
ATOM     60  C   UNL A   1      46.444  32.880  28.261  1.00  0.00     0.058 A 
ATOM     61  C   UNL A   1      46.364  33.813  27.214  1.00  0.00     0.135 A 
ATOM     62  C   UNL A   1      46.865  33.344  29.518  1.00  0.00     0.135 A 
ATOM     63  F   UNL A   1      45.981  33.422  25.988  1.00  0.00    -0.206 F 
ATOM     64  C   UNL A   1      46.712  35.147  27.398  1.00  0.00     0.059 A 
ATOM     65  C   UNL A   1      47.192  34.681  29.732  1.00  0.00     0.059 A 
ATOM     66  F   UNL A   1      46.959  32.497  30.554  1.00  0.00    -0.206 F 
ATOM     67  C   UNL A   1      47.124  35.572  28.663  1.00  0.00     0.060 A 
BRANCH  67  68
ATOM     68  S   UNL A   1      47.558  37.310  28.887  1.00  0.00     0.124 S 
ATOM     69  O   UNL A   1      46.368  37.978  28.369  1.00  0.00    -0.237 OA
ATOM     70  O   UNL A   1      47.755  37.399  30.331  1.00  0.00    -0.237 OA
ATOM     71  O   UNL A   1      48.765  37.466  28.083  1.00  0.00    -0.744 OA
ENDBRANCH  67  68
ENDBRANCH  46  60
BRANCH  47  72
ATOM     72  C   UNL A   1      43.367  23.471  26.891  1.00  0.00     0.058 A 
ATOM     73  C   UNL A   1      43.176  22.986  25.589  1.00  0.00     0.135 A 
ATOM     74  C   UNL A   1      43.123  22.593  27.959  1.00  0.00     0.135 A 
ATOM     75  F   UNL A   1      43.391  23.788  24.536  1.00  0.00    -0.206 F 
ATOM     76  C   UNL A   1      42.741  21.686  25.353  1.00  0.00     0.059 A 
ATOM     77  C   UNL A   1      42.713  21.281  27.747  1.00  0.00     0.059 A 
ATOM     78  F   UNL A   1      43.310  23.004  29.223  1.00  0.00    -0.206 F 
ATOM     79  C   UNL A   1      42.514  20.840  26.440  1.00  0.00     0.060 A 
BRANCH  79  80
ATOM     80  S   UNL A   1      42.001  19.136  26.127  1.00  0.00     0.124 S 
ATOM     81  O   UNL A   1      40.590  19.312  25.797  1.00  0.00    -0.237 OA
ATOM     82  O   UNL A   1      42.872  18.754  25.016  1.00  0.00    -0.237 OA
ATOM     83  O   UNL A   1      42.278  18.465  27.389  1.00  0.00    -0.744 OA
ENDBRANCH  79  80
ENDBRANCH  47  72
BRANCH  59  84
ATOM     84  C   UNL A   1      49.546  26.645  26.325  1.00  0.00     0.058 A 
ATOM     85  C   UNL A   1      50.385  26.021  27.260  1.00  0.00     0.135 A 
ATOM     86  C   UNL A   1      50.015  26.776  25.008  1.00  0.00     0.135 A 
ATOM     87  F   UNL A   1      49.988  25.875  28.534  1.00  0.00    -0.206 F 
ATOM     88  C   UNL A   1      51.659  25.580  26.914  1.00  0.00     0.059 A 
ATOM     89  C   UNL A   1      51.274  26.318  24.632  1.00  0.00     0.059 A 
ATOM     90  F   UNL A   1      49.247  27.355  24.070  1.00  0.00    -0.206 F 
ATOM     91  C   UNL A   1      52.096  25.738  25.598  1.00  0.00     0.060 A 
BRANCH  91  92
ATOM     92  S   UNL A   1      53.751  25.163  25.159  1.00  0.00     0.124 S 
ATOM     93  O   UNL A   1      54.539  25.655  26.285  1.00  0.00    -0.237 OA
ATOM     94  O   UNL A   1      53.574  23.716  25.093  1.00  0.00    -0.237 OA
ATOM     95  O   UNL A   1      54.008  25.816  23.879  1.00  0.00    -0.744 OA
ENDBRANCH  91  92
ENDBRANCH  59  84
ENDBRANCH  33  34
ENDBRANCH  25  28
ENDBRANCH  23  24
ENDBRANCH   1  23
TORSDOF 15
ENDMDL
