MODEL 1
REMARK VINA RESULT:     -12.2      0.000      0.000
REMARK SMILES O=C(NCCCNC(=O)[C@@H]1CCCC[C@@H]1NS(=O)(=O)c1ccc2ccccc2c1)c1ccc(-c2c3nc(c(-c4c(F)cc(S(=O)(=O)[O-])cc4F)c4ccc([nH]4)c(-c4c(F)cc(S(=O)(=O)[O-])cc4F)c4nc(c(-c5c(F)cc(S(=O)(=O)[O-])cc5F)c5ccc2[nH]5)C=C4)C=C3)cc1
REMARK SMILES IDX 5 1 4 2 3 3 1 4 2 5 30 7 31 8 95 9 32 10 94 11 33 12 34 13
REMARK SMILES IDX 35 14 88 15 36 16 93 17 87 18 89 19 37 20 92 21 86 22 85 23
REMARK SMILES IDX 38 25 72 26 51 27 71 28 52 29 55 30 70 31 90 32 53 33 54 34
REMARK SMILES IDX 69 36 91 37 56 38 39 39 40 40 49 41 41 42 42 43 48 44 50 45
REMARK SMILES IDX 43 46 44 47 45 48 46 49 47 50 73 51 74 52 83 53 75 54 76 55
REMARK SMILES IDX 82 56 84 57 77 58 78 59 79 60 80 61 81 62 57 63 58 64 67 65
REMARK SMILES IDX 59 66 60 67 66 68 68 69 61 70 62 71 63 72 64 73 65 74 6 75
REMARK SMILES IDX 7 76 8 77 9 79 10 80 11 81 15 82 12 83 14 84 13 85 16 86
REMARK SMILES IDX 17 88 18 89 19 90 20 91 21 92 29 93 22 94 28 95 23 96 27 97
REMARK SMILES IDX 24 98 26 99 25 100
REMARK H PARENT 3 6 89 24 55 35 7 78 16 87
REMARK Flexibility Score: inf
ROOT
ATOM      1  C   UNL A   1      32.992  27.532  26.096  1.00  0.00     0.042 C 
ENDROOT
BRANCH   1   2
ATOM      2  C   UNL A   1      34.083  28.214  26.922  1.00  0.00     0.118 C 
BRANCH   2   3
ATOM      3  N   UNL A   1      33.809  29.540  27.448  1.00  0.00    -0.352 N 
ATOM      4  O   UNL A   1      34.298  31.457  28.545  1.00  0.00    -0.269 OA
ATOM      5  C   UNL A   1      34.681  30.374  28.114  1.00  0.00     0.251 C 
ATOM      6  H   UNL A   1      32.896  29.882  27.312  1.00  0.00     0.163 HD
BRANCH   5   7
ATOM      7  C   UNL A   1      36.079  29.937  28.310  1.00  0.00     0.039 A 
ATOM      8  C   UNL A   1      36.482  29.429  29.546  1.00  0.00     0.014 A 
ATOM      9  C   UNL A   1      36.996  30.063  27.263  1.00  0.00     0.014 A 
ATOM     10  C   UNL A   1      37.826  29.175  29.780  1.00  0.00     0.010 A 
ATOM     11  C   UNL A   1      38.340  29.739  27.481  1.00  0.00     0.010 A 
ATOM     12  C   UNL A   1      38.770  29.323  28.750  1.00  0.00    -0.014 A 
BRANCH  12  13
ATOM     13  C   UNL A   1      40.192  28.988  29.025  1.00  0.00     0.031 A 
ATOM     14  C   UNL A   1      40.757  27.641  28.672  1.00  0.00     0.074 A 
ATOM     15  C   UNL A   1      40.984  29.943  29.550  1.00  0.00     0.049 A 
ATOM     16  N   UNL A   1      41.983  27.201  28.807  1.00  0.00    -0.248 NA
ATOM     17  C   UNL A   1      39.829  26.653  28.097  1.00  0.00     0.031 C 
ATOM     18  C   UNL A   1      40.536  31.281  29.948  1.00  0.00     0.029 A 
ATOM     19  N   UNL A   1      42.327  29.950  29.823  1.00  0.00    -0.354 N 
ATOM     20  C   UNL A   1      41.976  25.892  28.341  1.00  0.00     0.074 A 
ATOM     21  C   UNL A   1      40.614  25.594  27.950  1.00  0.00     0.031 C 
ATOM     22  C   UNL A   1      41.590  31.989  30.377  1.00  0.00     0.029 A 
ATOM     23  C   UNL A   1      42.777  31.142  30.337  1.00  0.00     0.049 A 
ATOM     24  H   UNL A   1      42.914  29.175  29.665  1.00  0.00     0.167 HD
ATOM     25  C   UNL A   1      43.014  25.025  28.238  1.00  0.00     0.037 A 
ATOM     26  C   UNL A   1      44.004  31.512  30.748  1.00  0.00     0.037 A 
ATOM     27  C   UNL A   1      44.366  25.335  28.632  1.00  0.00     0.049 A 
ATOM     28  C   UNL A   1      45.134  30.529  30.629  1.00  0.00     0.074 A 
ATOM     29  C   UNL A   1      45.490  24.527  28.571  1.00  0.00     0.029 A 
ATOM     30  N   UNL A   1      44.781  26.550  29.158  1.00  0.00    -0.354 N 
ATOM     31  N   UNL A   1      45.108  29.298  30.174  1.00  0.00    -0.248 NA
ATOM     32  C   UNL A   1      46.457  30.983  31.071  1.00  0.00     0.031 C 
ATOM     33  C   UNL A   1      46.575  25.241  29.091  1.00  0.00     0.029 A 
ATOM     34  C   UNL A   1      46.140  26.511  29.433  1.00  0.00     0.049 A 
ATOM     35  H   UNL A   1      44.197  27.328  29.313  1.00  0.00     0.167 HD
ATOM     36  C   UNL A   1      46.413  28.832  30.273  1.00  0.00     0.074 A 
ATOM     37  C   UNL A   1      47.207  29.926  30.798  1.00  0.00     0.031 C 
ATOM     38  C   UNL A   1      46.909  27.608  29.965  1.00  0.00     0.037 A 
BRANCH  25  39
ATOM     39  C   UNL A   1      42.733  23.654  27.679  1.00  0.00     0.058 A 
ATOM     40  C   UNL A   1      42.810  23.392  26.303  1.00  0.00     0.135 A 
ATOM     41  C   UNL A   1      42.443  22.576  28.533  1.00  0.00     0.135 A 
ATOM     42  F   UNL A   1      43.068  24.387  25.439  1.00  0.00    -0.206 F 
ATOM     43  C   UNL A   1      42.594  22.116  25.790  1.00  0.00     0.059 A 
ATOM     44  C   UNL A   1      42.246  21.287  28.045  1.00  0.00     0.059 A 
ATOM     45  F   UNL A   1      42.356  22.769  29.859  1.00  0.00    -0.206 F 
ATOM     46  C   UNL A   1      42.314  21.069  26.670  1.00  0.00     0.060 A 
BRANCH  46  47
ATOM     47  S   UNL A   1      42.049  19.418  25.987  1.00  0.00     0.124 S 
ATOM     48  O   UNL A   1      42.557  18.574  27.066  1.00  0.00    -0.237 OA
ATOM     49  O   UNL A   1      40.604  19.389  25.789  1.00  0.00    -0.237 OA
ATOM     50  O   UNL A   1      42.848  19.422  24.766  1.00  0.00    -0.744 OA
ENDBRANCH  46  47
ENDBRANCH  25  39
BRANCH  26  51
ATOM     51  C   UNL A   1      44.213  32.865  31.327  1.00  0.00     0.058 A 
ATOM     52  C   UNL A   1      44.557  33.960  30.522  1.00  0.00     0.135 A 
ATOM     53  C   UNL A   1      44.050  33.089  32.704  1.00  0.00     0.135 A 
ATOM     54  F   UNL A   1      44.725  33.796  29.201  1.00  0.00    -0.206 F 
ATOM     55  C   UNL A   1      44.752  35.227  31.063  1.00  0.00     0.059 A 
ATOM     56  C   UNL A   1      44.210  34.352  33.262  1.00  0.00     0.059 A 
ATOM     57  F   UNL A   1      43.701  32.078  33.514  1.00  0.00    -0.206 F 
ATOM     58  C   UNL A   1      44.575  35.412  32.435  1.00  0.00     0.060 A 
BRANCH  58  59
ATOM     59  S   UNL A   1      44.789  37.066  33.127  1.00  0.00     0.124 S 
ATOM     60  O   UNL A   1      43.857  37.843  32.318  1.00  0.00    -0.237 OA
ATOM     61  O   UNL A   1      44.413  36.868  34.524  1.00  0.00    -0.237 OA
ATOM     62  O   UNL A   1      46.205  37.342  32.902  1.00  0.00    -0.744 OA
ENDBRANCH  58  59
ENDBRANCH  26  51
BRANCH  38  63
ATOM     63  C   UNL A   1      48.382  27.401  30.183  1.00  0.00     0.058 A 
ATOM     64  C   UNL A   1      49.320  27.682  29.177  1.00  0.00     0.135 A 
ATOM     65  C   UNL A   1      48.860  26.920  31.411  1.00  0.00     0.135 A 
ATOM     66  F   UNL A   1      48.913  28.138  27.981  1.00  0.00    -0.206 F 
ATOM     67  C   UNL A   1      50.678  27.455  29.367  1.00  0.00     0.059 A 
ATOM     68  C   UNL A   1      50.218  26.711  31.633  1.00  0.00     0.059 A 
ATOM     69  F   UNL A   1      48.006  26.646  32.410  1.00  0.00    -0.206 F 
ATOM     70  C   UNL A   1      51.117  26.963  30.598  1.00  0.00     0.060 A 
BRANCH  70  71
ATOM     71  S   UNL A   1      52.883  26.669  30.833  1.00  0.00     0.124 S 
ATOM     72  O   UNL A   1      53.314  27.932  31.421  1.00  0.00    -0.237 OA
ATOM     73  O   UNL A   1      52.892  25.516  31.727  1.00  0.00    -0.237 OA
ATOM     74  O   UNL A   1      53.366  26.408  29.480  1.00  0.00    -0.744 OA
ENDBRANCH  70  71
ENDBRANCH  38  63
ENDBRANCH  12  13
ENDBRANCH   5   7
ENDBRANCH   2   3
ENDBRANCH   1   2
BRANCH   1  75
ATOM     75  C   UNL A   1      31.861  26.800  26.810  1.00  0.00     0.117 C 
BRANCH  75  76
ATOM     76  N   UNL A   1      31.094  25.868  26.006  1.00  0.00    -0.356 N 
ATOM     77  C   UNL A   1      30.611  25.947  24.738  1.00  0.00     0.224 C 
ATOM     78  H   UNL A   1      30.884  25.022  26.462  1.00  0.00     0.163 HD
ATOM     79  O   UNL A   1      30.414  24.879  24.143  1.00  0.00    -0.275 OA
BRANCH  77  80
ATOM     80  C   UNL A   1      30.230  27.234  24.024  1.00  0.00     0.096 C 
ATOM     81  C   UNL A   1      28.812  27.405  23.503  1.00  0.00     0.015 C 
ATOM     82  C   UNL A   1      31.330  27.654  23.022  1.00  0.00     0.082 C 
ATOM     83  C   UNL A   1      28.573  28.832  23.033  1.00  0.00     0.001 C 
ATOM     84  C   UNL A   1      31.020  29.040  22.417  1.00  0.00     0.021 C 
ATOM     85  C   UNL A   1      29.571  29.211  21.948  1.00  0.00     0.002 C 
BRANCH  82  86
ATOM     86  N   UNL A   1      31.516  26.677  21.920  1.00  0.00    -0.207 NA
ATOM     87  H   UNL A   1      31.060  27.070  21.096  1.00  0.00     0.141 HD
BRANCH  86  88
ATOM     88  S   UNL A   1      33.089  26.228  21.448  1.00  0.00     0.240 S 
ATOM     89  O   UNL A   1      32.964  25.756  20.087  1.00  0.00    -0.207 OA
ATOM     90  O   UNL A   1      34.010  27.286  21.800  1.00  0.00    -0.207 OA
BRANCH  88  91
ATOM     91  C   UNL A   1      33.400  24.814  22.475  1.00  0.00     0.083 A 
ATOM     92  C   UNL A   1      32.969  23.557  22.051  1.00  0.00     0.022 A 
ATOM     93  C   UNL A   1      33.991  24.972  23.730  1.00  0.00     0.030 A 
ATOM     94  C   UNL A   1      32.986  22.486  22.948  1.00  0.00     0.010 A 
ATOM     95  C   UNL A   1      33.954  23.915  24.655  1.00  0.00    -0.017 A 
ATOM     96  C   UNL A   1      33.394  22.673  24.274  1.00  0.00    -0.018 A 
ATOM     97  C   UNL A   1      34.358  24.099  25.986  1.00  0.00     0.009 A 
ATOM     98  C   UNL A   1      33.188  21.679  25.243  1.00  0.00     0.009 A 
ATOM     99  C   UNL A   1      34.132  23.108  26.943  1.00  0.00     0.001 A 
ATOM    100  C   UNL A   1      33.529  21.908  26.576  1.00  0.00     0.001 A 
ENDBRANCH  88  91
ENDBRANCH  86  88
ENDBRANCH  82  86
ENDBRANCH  77  80
ENDBRANCH  75  76
ENDBRANCH   1  75
TORSDOF 16
ENDMDL
MODEL 2
REMARK VINA RESULT:     -12.1      1.524      3.568
REMARK SMILES O=C(NCCCNC(=O)[C@@H]1CCCC[C@@H]1NS(=O)(=O)c1ccc2ccccc2c1)c1ccc(-c2c3nc(c(-c4c(F)cc(S(=O)(=O)[O-])cc4F)c4ccc([nH]4)c(-c4c(F)cc(S(=O)(=O)[O-])cc4F)c4nc(c(-c5c(F)cc(S(=O)(=O)[O-])cc5F)c5ccc2[nH]5)C=C4)C=C3)cc1
REMARK SMILES IDX 5 1 4 2 3 3 1 4 2 5 30 7 31 8 95 9 32 10 94 11 33 12 34 13
REMARK SMILES IDX 35 14 88 15 36 16 93 17 87 18 89 19 37 20 92 21 86 22 85 23
REMARK SMILES IDX 38 25 72 26 51 27 71 28 52 29 55 30 70 31 90 32 53 33 54 34
REMARK SMILES IDX 69 36 91 37 56 38 39 39 40 40 49 41 41 42 42 43 48 44 50 45
REMARK SMILES IDX 43 46 44 47 45 48 46 49 47 50 73 51 74 52 83 53 75 54 76 55
REMARK SMILES IDX 82 56 84 57 77 58 78 59 79 60 80 61 81 62 57 63 58 64 67 65
REMARK SMILES IDX 59 66 60 67 66 68 68 69 61 70 62 71 63 72 64 73 65 74 6 75
REMARK SMILES IDX 7 76 8 77 9 79 10 80 11 81 15 82 12 83 14 84 13 85 16 86
REMARK SMILES IDX 17 88 18 89 19 90 20 91 21 92 29 93 22 94 28 95 23 96 27 97
REMARK SMILES IDX 24 98 26 99 25 100
REMARK H PARENT 3 6 89 24 55 35 7 78 16 87
REMARK Flexibility Score: inf
ROOT
ATOM      1  C   UNL A   1      33.374  26.717  25.826  1.00  0.00     0.042 C 
ENDROOT
BRANCH   1   2
ATOM      2  C   UNL A   1      34.311  27.728  26.489  1.00  0.00     0.118 C 
BRANCH   2   3
ATOM      3  N   UNL A   1      33.749  28.995  26.921  1.00  0.00    -0.352 N 
ATOM      4  O   UNL A   1      33.758  30.990  27.986  1.00  0.00    -0.269 OA
ATOM      5  C   UNL A   1      34.372  29.983  27.652  1.00  0.00     0.251 C 
ATOM      6  H   UNL A   1      32.815  29.168  26.662  1.00  0.00     0.163 HD
BRANCH   5   7
ATOM      7  C   UNL A   1      35.788  29.803  28.033  1.00  0.00     0.039 A 
ATOM      8  C   UNL A   1      36.797  30.051  27.101  1.00  0.00     0.014 A 
ATOM      9  C   UNL A   1      36.107  29.357  29.319  1.00  0.00     0.014 A 
ATOM     10  C   UNL A   1      38.111  29.724  27.406  1.00  0.00     0.010 A 
ATOM     11  C   UNL A   1      37.442  29.095  29.647  1.00  0.00     0.010 A 
ATOM     12  C   UNL A   1      38.450  29.246  28.683  1.00  0.00    -0.014 A 
BRANCH  12  13
ATOM     13  C   UNL A   1      39.876  28.960  28.988  1.00  0.00     0.031 A 
ATOM     14  C   UNL A   1      40.494  27.632  28.648  1.00  0.00     0.074 A 
ATOM     15  C   UNL A   1      40.624  29.940  29.529  1.00  0.00     0.049 A 
ATOM     16  N   UNL A   1      41.730  27.234  28.810  1.00  0.00    -0.248 NA
ATOM     17  C   UNL A   1      39.612  26.613  28.054  1.00  0.00     0.031 C 
ATOM     18  C   UNL A   1      40.122  31.263  29.916  1.00  0.00     0.029 A 
ATOM     19  N   UNL A   1      41.960  29.993  29.830  1.00  0.00    -0.354 N 
ATOM     20  C   UNL A   1      41.778  25.925  28.344  1.00  0.00     0.074 A 
ATOM     21  C   UNL A   1      40.435  25.582  27.924  1.00  0.00     0.031 C 
ATOM     22  C   UNL A   1      41.143  32.006  30.367  1.00  0.00     0.029 A 
ATOM     23  C   UNL A   1      42.358  31.200  30.353  1.00  0.00     0.049 A 
ATOM     24  H   UNL A   1      42.576  29.238  29.686  1.00  0.00     0.167 HD
ATOM     25  C   UNL A   1      42.846  25.094  28.264  1.00  0.00     0.037 A 
ATOM     26  C   UNL A   1      43.564  31.611  30.789  1.00  0.00     0.037 A 
ATOM     27  C   UNL A   1      44.179  25.450  28.686  1.00  0.00     0.049 A 
ATOM     28  C   UNL A   1      44.728  30.667  30.695  1.00  0.00     0.074 A 
ATOM     29  C   UNL A   1      45.330  24.681  28.649  1.00  0.00     0.029 A 
ATOM     30  N   UNL A   1      44.541  26.679  29.219  1.00  0.00    -0.354 N 
ATOM     31  N   UNL A   1      44.753  29.436  30.240  1.00  0.00    -0.248 NA
ATOM     32  C   UNL A   1      46.026  31.166  31.164  1.00  0.00     0.031 C 
ATOM     33  C   UNL A   1      46.380  25.431  29.191  1.00  0.00     0.029 A 
ATOM     34  C   UNL A   1      45.894  26.686  29.523  1.00  0.00     0.049 A 
ATOM     35  H   UNL A   1      43.928  27.436  29.361  1.00  0.00     0.167 HD
ATOM     36  C   UNL A   1      46.071  29.014  30.367  1.00  0.00     0.074 A 
ATOM     37  C   UNL A   1      46.816  30.134  30.908  1.00  0.00     0.031 C 
ATOM     38  C   UNL A   1      46.615  27.807  30.071  1.00  0.00     0.037 A 
BRANCH  25  39
ATOM     39  C   UNL A   1      42.625  23.715  27.700  1.00  0.00     0.058 A 
ATOM     40  C   UNL A   1      42.697  23.464  26.321  1.00  0.00     0.135 A 
ATOM     41  C   UNL A   1      42.395  22.620  28.551  1.00  0.00     0.135 A 
ATOM     42  F   UNL A   1      42.897  24.474  25.460  1.00  0.00    -0.206 F 
ATOM     43  C   UNL A   1      42.536  22.182  25.804  1.00  0.00     0.059 A 
ATOM     44  C   UNL A   1      42.254  21.325  28.057  1.00  0.00     0.059 A 
ATOM     45  F   UNL A   1      42.315  22.801  29.879  1.00  0.00    -0.206 F 
ATOM     46  C   UNL A   1      42.316  21.118  26.680  1.00  0.00     0.060 A 
BRANCH  46  47
ATOM     47  S   UNL A   1      42.121  19.460  25.991  1.00  0.00     0.124 S 
ATOM     48  O   UNL A   1      42.950  19.545  24.792  1.00  0.00    -0.237 OA
ATOM     49  O   UNL A   1      42.643  18.614  27.060  1.00  0.00    -0.237 OA
ATOM     50  O   UNL A   1      40.685  19.355  25.755  1.00  0.00    -0.744 OA
ENDBRANCH  46  47
ENDBRANCH  25  39
BRANCH  26  51
ATOM     51  C   UNL A   1      43.714  32.970  31.372  1.00  0.00     0.058 A 
ATOM     52  C   UNL A   1      43.607  33.190  32.753  1.00  0.00     0.135 A 
ATOM     53  C   UNL A   1      43.988  34.076  30.552  1.00  0.00     0.135 A 
ATOM     54  F   UNL A   1      43.344  32.164  33.577  1.00  0.00    -0.206 F 
ATOM     55  C   UNL A   1      43.748  34.462  33.300  1.00  0.00     0.059 A 
ATOM     56  C   UNL A   1      44.163  35.351  31.078  1.00  0.00     0.059 A 
ATOM     57  F   UNL A   1      44.120  33.916  29.227  1.00  0.00    -0.206 F 
ATOM     58  C   UNL A   1      44.026  35.536  32.453  1.00  0.00     0.060 A 
BRANCH  58  59
ATOM     59  S   UNL A   1      44.249  37.178  33.171  1.00  0.00     0.124 S 
ATOM     60  O   UNL A   1      44.552  37.974  31.988  1.00  0.00    -0.237 OA
ATOM     61  O   UNL A   1      42.950  37.422  33.791  1.00  0.00    -0.237 OA
ATOM     62  O   UNL A   1      45.354  36.987  34.106  1.00  0.00    -0.744 OA
ENDBRANCH  58  59
ENDBRANCH  26  51
BRANCH  38  63
ATOM     63  C   UNL A   1      48.089  27.651  30.319  1.00  0.00     0.058 A 
ATOM     64  C   UNL A   1      48.582  27.177  31.545  1.00  0.00     0.135 A 
ATOM     65  C   UNL A   1      49.018  27.975  29.319  1.00  0.00     0.135 A 
ATOM     66  F   UNL A   1      47.734  26.859  32.537  1.00  0.00    -0.206 F 
ATOM     67  C   UNL A   1      49.946  27.068  31.785  1.00  0.00     0.059 A 
ATOM     68  C   UNL A   1      50.388  27.848  29.528  1.00  0.00     0.059 A 
ATOM     69  F   UNL A   1      48.599  28.423  28.124  1.00  0.00    -0.206 F 
ATOM     70  C   UNL A   1      50.842  27.412  30.772  1.00  0.00     0.060 A 
BRANCH  70  71
ATOM     71  S   UNL A   1      52.613  27.270  31.096  1.00  0.00     0.124 S 
ATOM     72  O   UNL A   1      53.116  28.514  30.524  1.00  0.00    -0.237 OA
ATOM     73  O   UNL A   1      52.659  27.176  32.551  1.00  0.00    -0.237 OA
ATOM     74  O   UNL A   1      52.990  26.052  30.383  1.00  0.00    -0.744 OA
ENDBRANCH  70  71
ENDBRANCH  38  63
ENDBRANCH  12  13
ENDBRANCH   5   7
ENDBRANCH   2   3
ENDBRANCH   1   2
BRANCH   1  75
ATOM     75  C   UNL A   1      33.887  25.316  25.514  1.00  0.00     0.117 C 
BRANCH  75  76
ATOM     76  N   UNL A   1      33.374  24.245  26.347  1.00  0.00    -0.356 N 
ATOM     77  C   UNL A   1      33.979  23.173  26.922  1.00  0.00     0.224 C 
ATOM     78  H   UNL A   1      32.409  24.307  26.531  1.00  0.00     0.163 HD
ATOM     79  O   UNL A   1      33.443  22.698  27.932  1.00  0.00    -0.275 OA
BRANCH  77  80
ATOM     80  C   UNL A   1      35.215  22.471  26.383  1.00  0.00     0.096 C 
ATOM     81  C   UNL A   1      36.420  23.299  25.966  1.00  0.00     0.015 C 
ATOM     82  C   UNL A   1      34.826  21.364  25.375  1.00  0.00     0.082 C 
ATOM     83  C   UNL A   1      37.620  22.409  25.679  1.00  0.00     0.001 C 
ATOM     84  C   UNL A   1      36.065  20.547  24.953  1.00  0.00     0.021 C 
ATOM     85  C   UNL A   1      37.286  21.399  24.590  1.00  0.00     0.002 C 
BRANCH  82  86
ATOM     86  N   UNL A   1      34.159  21.895  24.160  1.00  0.00    -0.207 NA
ATOM     87  H   UNL A   1      34.616  21.457  23.358  1.00  0.00     0.141 HD
BRANCH  86  88
ATOM     88  S   UNL A   1      32.484  21.677  23.954  1.00  0.00     0.240 S 
ATOM     89  O   UNL A   1      32.348  20.659  22.936  1.00  0.00    -0.207 OA
ATOM     90  O   UNL A   1      31.860  21.537  25.252  1.00  0.00    -0.207 OA
BRANCH  88  91
ATOM     91  C   UNL A   1      31.991  23.221  23.230  1.00  0.00     0.083 A 
ATOM     92  C   UNL A   1      32.817  23.822  22.282  1.00  0.00     0.022 A 
ATOM     93  C   UNL A   1      30.833  23.867  23.670  1.00  0.00     0.030 A 
ATOM     94  C   UNL A   1      32.569  25.141  21.890  1.00  0.00     0.010 A 
ATOM     95  C   UNL A   1      30.613  25.211  23.327  1.00  0.00    -0.017 A 
ATOM     96  C   UNL A   1      31.524  25.871  22.470  1.00  0.00    -0.018 A 
ATOM     97  C   UNL A   1      29.571  25.949  23.908  1.00  0.00     0.009 A 
ATOM     98  C   UNL A   1      31.412  27.256  22.273  1.00  0.00     0.009 A 
ATOM     99  C   UNL A   1      29.480  27.328  23.717  1.00  0.00     0.001 A 
ATOM    100  C   UNL A   1      30.412  27.984  22.917  1.00  0.00     0.001 A 
ENDBRANCH  88  91
ENDBRANCH  86  88
ENDBRANCH  82  86
ENDBRANCH  77  80
ENDBRANCH  75  76
ENDBRANCH   1  75
TORSDOF 16
ENDMDL
MODEL 3
REMARK VINA RESULT:     -12.0      4.850      9.921
REMARK SMILES O=C(NCCCNC(=O)[C@@H]1CCCC[C@@H]1NS(=O)(=O)c1ccc2ccccc2c1)c1ccc(-c2c3nc(c(-c4c(F)cc(S(=O)(=O)[O-])cc4F)c4ccc([nH]4)c(-c4c(F)cc(S(=O)(=O)[O-])cc4F)c4nc(c(-c5c(F)cc(S(=O)(=O)[O-])cc5F)c5ccc2[nH]5)C=C4)C=C3)cc1
REMARK SMILES IDX 5 1 4 2 3 3 1 4 2 5 30 7 31 8 95 9 32 10 94 11 33 12 34 13
REMARK SMILES IDX 35 14 88 15 36 16 93 17 87 18 89 19 37 20 92 21 86 22 85 23
REMARK SMILES IDX 38 25 72 26 51 27 71 28 52 29 55 30 70 31 90 32 53 33 54 34
REMARK SMILES IDX 69 36 91 37 56 38 39 39 40 40 49 41 41 42 42 43 48 44 50 45
REMARK SMILES IDX 43 46 44 47 45 48 46 49 47 50 73 51 74 52 83 53 75 54 76 55
REMARK SMILES IDX 82 56 84 57 77 58 78 59 79 60 80 61 81 62 57 63 58 64 67 65
REMARK SMILES IDX 59 66 60 67 66 68 68 69 61 70 62 71 63 72 64 73 65 74 6 75
REMARK SMILES IDX 7 76 8 77 9 79 10 80 11 81 15 82 12 83 14 84 13 85 16 86
REMARK SMILES IDX 17 88 18 89 19 90 20 91 21 92 29 93 22 94 28 95 23 96 27 97
REMARK SMILES IDX 24 98 26 99 25 100
REMARK H PARENT 3 6 89 24 55 35 7 78 16 87
REMARK Flexibility Score: inf
ROOT
ATOM      1  C   UNL A   1      37.838  23.687  26.054  1.00  0.00     0.042 C 
ENDROOT
BRANCH   1   2
ATOM      2  C   UNL A   1      39.141  23.763  26.852  1.00  0.00     0.118 C 
BRANCH   2   3
ATOM      3  N   UNL A   1      40.371  24.020  26.123  1.00  0.00    -0.352 N 
ATOM      4  O   UNL A   1      42.241  25.174  25.593  1.00  0.00    -0.269 OA
ATOM      5  C   UNL A   1      41.259  25.055  26.317  1.00  0.00     0.251 C 
ATOM      6  H   UNL A   1      40.595  23.380  25.408  1.00  0.00     0.163 HD
BRANCH   5   7
ATOM      7  C   UNL A   1      41.002  26.023  27.404  1.00  0.00     0.039 A 
ATOM      8  C   UNL A   1      41.849  27.119  27.573  1.00  0.00     0.014 A 
ATOM      9  C   UNL A   1      39.928  25.816  28.274  1.00  0.00     0.014 A 
ATOM     10  C   UNL A   1      41.706  27.932  28.689  1.00  0.00     0.010 A 
ATOM     11  C   UNL A   1      39.744  26.680  29.359  1.00  0.00     0.010 A 
ATOM     12  C   UNL A   1      40.651  27.725  29.593  1.00  0.00    -0.014 A 
BRANCH  12  13
ATOM     13  C   UNL A   1      40.500  28.651  30.746  1.00  0.00     0.031 A 
ATOM     14  C   UNL A   1      41.395  28.548  31.949  1.00  0.00     0.074 A 
ATOM     15  C   UNL A   1      39.575  29.626  30.666  1.00  0.00     0.049 A 
ATOM     16  N   UNL A   1      41.423  29.301  33.021  1.00  0.00    -0.248 NA
ATOM     17  C   UNL A   1      42.386  27.459  31.959  1.00  0.00     0.031 C 
ATOM     18  C   UNL A   1      38.639  29.807  29.552  1.00  0.00     0.029 A 
ATOM     19  N   UNL A   1      39.276  30.657  31.519  1.00  0.00    -0.354 N 
ATOM     20  C   UNL A   1      42.425  28.779  33.831  1.00  0.00     0.074 A 
ATOM     21  C   UNL A   1      42.960  27.623  33.144  1.00  0.00     0.031 C 
ATOM     22  C   UNL A   1      37.899  30.903  29.772  1.00  0.00     0.029 A 
ATOM     23  C   UNL A   1      38.267  31.471  31.063  1.00  0.00     0.049 A 
ATOM     24  H   UNL A   1      39.740  30.800  32.375  1.00  0.00     0.167 HD
ATOM     25  C   UNL A   1      42.863  29.233  35.031  1.00  0.00     0.037 A 
ATOM     26  C   UNL A   1      37.688  32.547  31.628  1.00  0.00     0.037 A 
ATOM     27  C   UNL A   1      42.322  30.387  35.705  1.00  0.00     0.049 A 
ATOM     28  C   UNL A   1      38.189  33.024  32.960  1.00  0.00     0.074 A 
ATOM     29  C   UNL A   1      42.693  30.929  36.924  1.00  0.00     0.029 A 
ATOM     30  N   UNL A   1      41.293  31.181  35.217  1.00  0.00    -0.354 N 
ATOM     31  N   UNL A   1      39.146  32.522  33.706  1.00  0.00    -0.248 NA
ATOM     32  C   UNL A   1      37.540  34.212  33.527  1.00  0.00     0.031 C 
ATOM     33  C   UNL A   1      41.868  32.028  37.189  1.00  0.00     0.029 A 
ATOM     34  C   UNL A   1      41.012  32.201  36.113  1.00  0.00     0.049 A 
ATOM     35  H   UNL A   1      40.830  31.041  34.359  1.00  0.00     0.167 HD
ATOM     36  C   UNL A   1      39.215  33.337  34.829  1.00  0.00     0.074 A 
ATOM     37  C   UNL A   1      38.227  34.382  34.647  1.00  0.00     0.031 C 
ATOM     38  C   UNL A   1      40.018  33.226  35.917  1.00  0.00     0.037 A 
BRANCH  25  39
ATOM     39  C   UNL A   1      43.985  28.483  35.700  1.00  0.00     0.058 A 
ATOM     40  C   UNL A   1      43.736  27.425  36.589  1.00  0.00     0.135 A 
ATOM     41  C   UNL A   1      45.327  28.783  35.405  1.00  0.00     0.135 A 
ATOM     42  F   UNL A   1      42.475  27.105  36.920  1.00  0.00    -0.206 F 
ATOM     43  C   UNL A   1      44.772  26.703  37.173  1.00  0.00     0.059 A 
ATOM     44  C   UNL A   1      46.379  28.059  35.960  1.00  0.00     0.059 A 
ATOM     45  F   UNL A   1      45.625  29.785  34.562  1.00  0.00    -0.206 F 
ATOM     46  C   UNL A   1      46.092  27.027  36.851  1.00  0.00     0.060 A 
BRANCH  46  47
ATOM     47  S   UNL A   1      47.423  26.070  37.609  1.00  0.00     0.124 S 
ATOM     48  O   UNL A   1      47.678  26.840  38.824  1.00  0.00    -0.237 OA
ATOM     49  O   UNL A   1      46.797  24.766  37.807  1.00  0.00    -0.237 OA
ATOM     50  O   UNL A   1      48.484  26.110  36.609  1.00  0.00    -0.744 OA
ENDBRANCH  46  47
ENDBRANCH  25  39
BRANCH  26  51
ATOM     51  C   UNL A   1      36.558  33.224  30.938  1.00  0.00     0.058 A 
ATOM     52  C   UNL A   1      35.240  33.101  31.400  1.00  0.00     0.135 A 
ATOM     53  C   UNL A   1      36.784  34.028  29.810  1.00  0.00     0.135 A 
ATOM     54  F   UNL A   1      34.973  32.342  32.475  1.00  0.00    -0.206 F 
ATOM     55  C   UNL A   1      34.181  33.734  30.756  1.00  0.00     0.059 A 
ATOM     56  C   UNL A   1      35.747  34.695  29.167  1.00  0.00     0.059 A 
ATOM     57  F   UNL A   1      38.030  34.195  29.341  1.00  0.00    -0.206 F 
ATOM     58  C   UNL A   1      34.446  34.530  29.640  1.00  0.00     0.060 A 
BRANCH  58  59
ATOM     59  S   UNL A   1      33.075  35.383  28.832  1.00  0.00     0.124 S 
ATOM     60  O   UNL A   1      32.310  35.856  29.979  1.00  0.00    -0.237 OA
ATOM     61  O   UNL A   1      33.765  36.409  28.055  1.00  0.00    -0.237 OA
ATOM     62  O   UNL A   1      32.446  34.329  28.041  1.00  0.00    -0.744 OA
ENDBRANCH  58  59
ENDBRANCH  26  51
BRANCH  38  63
ATOM     63  C   UNL A   1      39.859  34.274  36.983  1.00  0.00     0.058 A 
ATOM     64  C   UNL A   1      40.499  35.520  36.891  1.00  0.00     0.135 A 
ATOM     65  C   UNL A   1      39.056  34.030  38.109  1.00  0.00     0.135 A 
ATOM     66  F   UNL A   1      41.283  35.800  35.837  1.00  0.00    -0.206 F 
ATOM     67  C   UNL A   1      40.381  36.473  37.895  1.00  0.00     0.059 A 
ATOM     68  C   UNL A   1      38.902  34.980  39.113  1.00  0.00     0.059 A 
ATOM     69  F   UNL A   1      38.414  32.858  38.241  1.00  0.00    -0.206 F 
ATOM     70  C   UNL A   1      39.584  36.191  39.007  1.00  0.00     0.060 A 
BRANCH  70  71
ATOM     71  S   UNL A   1      39.440  37.435  40.307  1.00  0.00     0.124 S 
ATOM     72  O   UNL A   1      38.736  36.692  41.346  1.00  0.00    -0.237 OA
ATOM     73  O   UNL A   1      40.836  37.756  40.590  1.00  0.00    -0.237 OA
ATOM     74  O   UNL A   1      38.675  38.503  39.670  1.00  0.00    -0.744 OA
ENDBRANCH  70  71
ENDBRANCH  38  63
ENDBRANCH  12  13
ENDBRANCH   5   7
ENDBRANCH   2   3
ENDBRANCH   1   2
BRANCH   1  75
ATOM     75  C   UNL A   1      37.437  22.369  25.402  1.00  0.00     0.117 C 
BRANCH  75  76
ATOM     76  N   UNL A   1      36.822  22.464  24.092  1.00  0.00    -0.356 N 
ATOM     77  C   UNL A   1      35.550  22.746  23.705  1.00  0.00     0.224 C 
ATOM     78  H   UNL A   1      37.439  22.294  23.344  1.00  0.00     0.163 HD
ATOM     79  O   UNL A   1      35.398  23.218  22.570  1.00  0.00    -0.275 OA
BRANCH  77  80
ATOM     80  C   UNL A   1      34.301  22.463  24.525  1.00  0.00     0.096 C 
ATOM     81  C   UNL A   1      33.452  21.246  24.192  1.00  0.00     0.015 C 
ATOM     82  C   UNL A   1      33.490  23.759  24.759  1.00  0.00     0.082 C 
ATOM     83  C   UNL A   1      32.393  21.013  25.260  1.00  0.00     0.001 C 
ATOM     84  C   UNL A   1      32.313  23.501  25.723  1.00  0.00     0.021 C 
ATOM     85  C   UNL A   1      31.503  22.240  25.405  1.00  0.00     0.002 C 
BRANCH  82  86
ATOM     86  N   UNL A   1      32.965  24.350  23.502  1.00  0.00    -0.207 NA
ATOM     87  H   UNL A   1      31.956  24.194  23.501  1.00  0.00     0.141 HD
BRANCH  86  88
ATOM     88  S   UNL A   1      33.210  26.003  23.182  1.00  0.00     0.240 S 
ATOM     89  O   UNL A   1      34.083  26.475  24.233  1.00  0.00    -0.207 OA
ATOM     90  O   UNL A   1      33.546  26.172  21.785  1.00  0.00    -0.207 OA
BRANCH  88  91
ATOM     91  C   UNL A   1      31.598  26.686  23.484  1.00  0.00     0.083 A 
ATOM     92  C   UNL A   1      30.499  25.830  23.552  1.00  0.00     0.022 A 
ATOM     93  C   UNL A   1      31.424  28.069  23.564  1.00  0.00     0.030 A 
ATOM     94  C   UNL A   1      29.209  26.367  23.542  1.00  0.00     0.010 A 
ATOM     95  C   UNL A   1      30.130  28.612  23.492  1.00  0.00    -0.017 A 
ATOM     96  C   UNL A   1      29.013  27.748  23.425  1.00  0.00    -0.018 A 
ATOM     97  C   UNL A   1      29.928  29.995  23.371  1.00  0.00     0.009 A 
ATOM     98  C   UNL A   1      27.740  28.280  23.168  1.00  0.00     0.009 A 
ATOM     99  C   UNL A   1      28.660  30.510  23.100  1.00  0.00     0.001 A 
ATOM    100  C   UNL A   1      27.570  29.652  22.978  1.00  0.00     0.001 A 
ENDBRANCH  88  91
ENDBRANCH  86  88
ENDBRANCH  82  86
ENDBRANCH  77  80
ENDBRANCH  75  76
ENDBRANCH   1  75
TORSDOF 16
ENDMDL
