MODEL 1
REMARK VINA RESULT:      -8.9      0.000      0.000
REMARK SMILES C[C@H](Nc1ccc(N(C)C)cc1)[C@@H](C)C(=O)NCCCNC(=O)c1ccc(-c2c3nc(c(-c4c(F)cc(S(=O)(=O)[O-])cc4F)c4ccc([nH]4)c(-c4c(F)cc(S(=O)(=O)[O-])cc4F)c4nc(c(-c5c(F)cc(S(=O)(=O)[O-])cc5F)c5ccc2[nH]5)C=C4)C=C3)cc1
REMARK SMILES IDX 18 1 17 2 15 3 16 4 13 6 14 7 2 8 1 9 3 10 4 12 5 13 12 14
REMARK SMILES IDX 6 15 11 16 7 17 8 18 9 19 10 20 19 21 20 22 21 23 22 24
REMARK SMILES IDX 23 26 24 27 25 28 89 29 26 30 88 31 27 32 28 33 29 34 82 35
REMARK SMILES IDX 30 36 87 37 81 38 83 39 31 40 86 41 80 42 79 43 32 45 66 46
REMARK SMILES IDX 45 47 65 48 46 49 49 50 64 51 84 52 47 53 48 54 63 56 85 57
REMARK SMILES IDX 50 58 33 59 34 60 43 61 35 62 36 63 42 64 44 65 37 66 38 67
REMARK SMILES IDX 39 68 40 69 41 70 67 71 68 72 77 73 69 74 70 75 76 76 78 77
REMARK SMILES IDX 71 78 72 79 73 80 74 81 75 82 51 83 52 84 61 85 53 86 54 87
REMARK SMILES IDX 60 88 62 89 55 90 56 91 57 92 58 93 59 94
REMARK H PARENT 17 5 3 11 21 25 83 44 49 55
REMARK Flexibility Score: inf
ROOT
ATOM      1  C   UNL A   1      34.545  33.911  30.709  1.00  0.00     0.117 C 
ENDROOT
BRANCH   1   2
ATOM      2  N   UNL A   1      35.751  34.521  31.248  1.00  0.00    -0.356 N 
ATOM      3  C   UNL A   1      36.383  34.380  32.446  1.00  0.00     0.224 C 
ATOM      4  O   UNL A   1      37.398  35.057  32.630  1.00  0.00    -0.275 OA
ATOM      5  H   UNL A   1      36.192  35.151  30.634  1.00  0.00     0.163 HD
BRANCH   3   6
ATOM      6  C   UNL A   1      35.905  33.408  33.522  1.00  0.00     0.097 C 
ATOM      7  C   UNL A   1      35.158  34.188  34.604  1.00  0.00     0.020 C 
BRANCH   6   8
ATOM      8  C   UNL A   1      37.034  32.457  33.970  1.00  0.00     0.088 C 
ATOM      9  C   UNL A   1      37.465  32.791  35.410  1.00  0.00     0.031 C 
BRANCH   8  10
ATOM     10  N   UNL A   1      38.221  32.545  33.108  1.00  0.00    -0.382 N 
ATOM     11  H   UNL A   1      38.312  33.264  32.442  1.00  0.00     0.160 HD
BRANCH  10  12
ATOM     12  C   UNL A   1      39.212  31.577  33.265  1.00  0.00     0.034 A 
ATOM     13  C   UNL A   1      38.949  30.237  32.996  1.00  0.00     0.028 A 
ATOM     14  C   UNL A   1      40.522  31.909  33.589  1.00  0.00     0.028 A 
ATOM     15  C   UNL A   1      39.966  29.263  33.078  1.00  0.00     0.028 A 
ATOM     16  C   UNL A   1      41.525  30.935  33.685  1.00  0.00     0.028 A 
ATOM     17  C   UNL A   1      41.286  29.575  33.435  1.00  0.00     0.036 A 
BRANCH  17  18
ATOM     18  N   UNL A   1      42.291  28.627  33.564  1.00  0.00    -0.378 N 
ATOM     19  C   UNL A   1      42.647  27.674  32.517  1.00  0.00     0.143 C 
ATOM     20  C   UNL A   1      43.220  28.679  34.692  1.00  0.00     0.143 C 
ENDBRANCH  17  18
ENDBRANCH  10  12
ENDBRANCH   8  10
ENDBRANCH   6   8
ENDBRANCH   3   6
ENDBRANCH   1   2
BRANCH   1  21
ATOM     21  C   UNL A   1      34.800  32.511  30.160  1.00  0.00     0.042 C 
BRANCH  21  22
ATOM     22  C   UNL A   1      34.577  32.382  28.659  1.00  0.00     0.118 C 
BRANCH  22  23
ATOM     23  N   UNL A   1      34.023  31.088  28.286  1.00  0.00    -0.352 N 
ATOM     24  C   UNL A   1      34.655  29.904  28.006  1.00  0.00     0.251 C 
ATOM     25  H   UNL A   1      33.040  31.058  28.225  1.00  0.00     0.163 HD
ATOM     26  O   UNL A   1      34.004  28.981  27.506  1.00  0.00    -0.269 OA
BRANCH  24  27
ATOM     27  C   UNL A   1      36.096  29.726  28.281  1.00  0.00     0.039 A 
ATOM     28  C   UNL A   1      36.495  29.318  29.557  1.00  0.00     0.014 A 
ATOM     29  C   UNL A   1      37.058  29.987  27.301  1.00  0.00     0.014 A 
ATOM     30  C   UNL A   1      37.849  29.115  29.831  1.00  0.00     0.010 A 
ATOM     31  C   UNL A   1      38.399  29.703  27.549  1.00  0.00     0.010 A 
ATOM     32  C   UNL A   1      38.811  29.272  28.819  1.00  0.00    -0.014 A 
BRANCH  32  33
ATOM     33  C   UNL A   1      40.246  28.979  29.068  1.00  0.00     0.031 A 
ATOM     34  C   UNL A   1      41.166  30.054  29.582  1.00  0.00     0.074 A 
ATOM     35  C   UNL A   1      40.737  27.763  28.759  1.00  0.00     0.049 A 
ATOM     36  N   UNL A   1      42.454  30.001  29.804  1.00  0.00    -0.248 NA
ATOM     37  C   UNL A   1      40.565  31.370  29.849  1.00  0.00     0.031 C 
ATOM     38  C   UNL A   1      39.961  26.660  28.188  1.00  0.00     0.029 A 
ATOM     39  N   UNL A   1      42.008  27.255  28.862  1.00  0.00    -0.354 N 
ATOM     40  C   UNL A   1      42.822  31.278  30.212  1.00  0.00     0.074 A 
ATOM     41  C   UNL A   1      41.629  32.096  30.160  1.00  0.00     0.031 C 
ATOM     42  C   UNL A   1      40.768  25.603  28.003  1.00  0.00     0.029 A 
ATOM     43  C   UNL A   1      42.124  25.962  28.408  1.00  0.00     0.049 A 
ATOM     44  H   UNL A   1      42.765  27.766  29.228  1.00  0.00     0.167 HD
ATOM     45  C   UNL A   1      44.038  31.724  30.611  1.00  0.00     0.037 A 
ATOM     46  C   UNL A   1      43.200  25.158  28.315  1.00  0.00     0.037 A 
ATOM     47  C   UNL A   1      45.214  30.894  30.685  1.00  0.00     0.049 A 
ATOM     48  C   UNL A   1      44.533  25.658  28.797  1.00  0.00     0.074 A 
ATOM     49  C   UNL A   1      46.470  31.223  31.164  1.00  0.00     0.029 A 
ATOM     50  N   UNL A   1      45.282  29.575  30.258  1.00  0.00    -0.354 N 
ATOM     51  N   UNL A   1      44.844  26.841  29.272  1.00  0.00    -0.248 NA
ATOM     52  C   UNL A   1      45.657  24.716  28.742  1.00  0.00     0.031 C 
ATOM     53  C   UNL A   1      47.310  30.121  30.978  1.00  0.00     0.029 A 
ATOM     54  C   UNL A   1      46.566  29.086  30.434  1.00  0.00     0.049 A 
ATOM     55  H   UNL A   1      44.529  29.063  29.885  1.00  0.00     0.167 HD
ATOM     56  C   UNL A   1      46.196  26.781  29.587  1.00  0.00     0.074 A 
ATOM     57  C   UNL A   1      46.638  25.439  29.265  1.00  0.00     0.031 C 
ATOM     58  C   UNL A   1      46.997  27.749  30.099  1.00  0.00     0.037 A 
BRANCH  45  59
ATOM     59  C   UNL A   1      44.159  33.176  30.987  1.00  0.00     0.058 A 
ATOM     60  C   UNL A   1      44.186  33.598  32.327  1.00  0.00     0.135 A 
ATOM     61  C   UNL A   1      44.260  34.163  29.991  1.00  0.00     0.135 A 
ATOM     62  F   UNL A   1      44.082  32.701  33.320  1.00  0.00    -0.206 F 
ATOM     63  C   UNL A   1      44.263  34.945  32.666  1.00  0.00     0.059 A 
ATOM     64  C   UNL A   1      44.370  35.514  30.308  1.00  0.00     0.059 A 
ATOM     65  F   UNL A   1      44.243  33.819  28.694  1.00  0.00    -0.206 F 
ATOM     66  C   UNL A   1      44.349  35.897  31.648  1.00  0.00     0.060 A 
BRANCH  66  67
ATOM     67  S   UNL A   1      44.426  37.642  32.102  1.00  0.00     0.124 S 
ATOM     68  O   UNL A   1      45.810  37.764  32.550  1.00  0.00    -0.237 OA
ATOM     69  O   UNL A   1      44.109  38.308  30.842  1.00  0.00    -0.237 OA
ATOM     70  O   UNL A   1      43.415  37.768  33.146  1.00  0.00    -0.744 OA
ENDBRANCH  66  67
ENDBRANCH  45  59
BRANCH  46  71
ATOM     71  C   UNL A   1      43.041  23.789  27.756  1.00  0.00     0.058 A 
ATOM     72  C   UNL A   1      42.636  22.719  28.564  1.00  0.00     0.135 A 
ATOM     73  C   UNL A   1      43.231  23.540  26.387  1.00  0.00     0.135 A 
ATOM     74  F   UNL A   1      42.448  22.904  29.879  1.00  0.00    -0.206 F 
ATOM     75  C   UNL A   1      42.421  21.448  28.037  1.00  0.00     0.059 A 
ATOM     76  C   UNL A   1      43.000  22.286  25.832  1.00  0.00     0.059 A 
ATOM     77  F   UNL A   1      43.602  24.538  25.568  1.00  0.00    -0.206 F 
ATOM     78  C   UNL A   1      42.596  21.245  26.667  1.00  0.00     0.060 A 
BRANCH  78  79
ATOM     79  S   UNL A   1      42.224  19.617  25.978  1.00  0.00     0.124 S 
ATOM     80  O   UNL A   1      43.048  19.610  24.774  1.00  0.00    -0.237 OA
ATOM     81  O   UNL A   1      42.653  18.726  27.051  1.00  0.00    -0.237 OA
ATOM     82  O   UNL A   1      40.782  19.668  25.756  1.00  0.00    -0.744 OA
ENDBRANCH  78  79
ENDBRANCH  46  71
BRANCH  58  83
ATOM     83  C   UNL A   1      48.435  27.392  30.358  1.00  0.00     0.058 A 
ATOM     84  C   UNL A   1      48.838  26.767  31.549  1.00  0.00     0.135 A 
ATOM     85  C   UNL A   1      49.415  27.633  29.381  1.00  0.00     0.135 A 
ATOM     86  F   UNL A   1      47.943  26.519  32.518  1.00  0.00    -0.206 F 
ATOM     87  C   UNL A   1      50.165  26.415  31.771  1.00  0.00     0.059 A 
ATOM     88  C   UNL A   1      50.743  27.264  29.571  1.00  0.00     0.059 A 
ATOM     89  F   UNL A   1      49.082  28.219  28.219  1.00  0.00    -0.206 F 
ATOM     90  C   UNL A   1      51.110  26.667  30.775  1.00  0.00     0.060 A 
BRANCH  90  91
ATOM     91  S   UNL A   1      52.824  26.179  31.066  1.00  0.00     0.124 S 
ATOM     92  O   UNL A   1      53.317  27.297  31.863  1.00  0.00    -0.237 OA
ATOM     93  O   UNL A   1      52.674  24.912  31.774  1.00  0.00    -0.237 OA
ATOM     94  O   UNL A   1      53.381  26.075  29.719  1.00  0.00    -0.744 OA
ENDBRANCH  90  91
ENDBRANCH  58  83
ENDBRANCH  32  33
ENDBRANCH  24  27
ENDBRANCH  22  23
ENDBRANCH  21  22
ENDBRANCH   1  21
TORSDOF 17
ENDMDL
MODEL 2
REMARK VINA RESULT:      -8.8      3.637      6.542
REMARK SMILES C[C@H](Nc1ccc(N(C)C)cc1)[C@@H](C)C(=O)NCCCNC(=O)c1ccc(-c2c3nc(c(-c4c(F)cc(S(=O)(=O)[O-])cc4F)c4ccc([nH]4)c(-c4c(F)cc(S(=O)(=O)[O-])cc4F)c4nc(c(-c5c(F)cc(S(=O)(=O)[O-])cc5F)c5ccc2[nH]5)C=C4)C=C3)cc1
REMARK SMILES IDX 18 1 17 2 15 3 16 4 13 6 14 7 2 8 1 9 3 10 4 12 5 13 12 14
REMARK SMILES IDX 6 15 11 16 7 17 8 18 9 19 10 20 19 21 20 22 21 23 22 24
REMARK SMILES IDX 23 26 24 27 25 28 89 29 26 30 88 31 27 32 28 33 29 34 82 35
REMARK SMILES IDX 30 36 87 37 81 38 83 39 31 40 86 41 80 42 79 43 32 45 66 46
REMARK SMILES IDX 45 47 65 48 46 49 49 50 64 51 84 52 47 53 48 54 63 56 85 57
REMARK SMILES IDX 50 58 33 59 34 60 43 61 35 62 36 63 42 64 44 65 37 66 38 67
REMARK SMILES IDX 39 68 40 69 41 70 67 71 68 72 77 73 69 74 70 75 76 76 78 77
REMARK SMILES IDX 71 78 72 79 73 80 74 81 75 82 51 83 52 84 61 85 53 86 54 87
REMARK SMILES IDX 60 88 62 89 55 90 56 91 57 92 58 93 59 94
REMARK H PARENT 17 5 3 11 21 25 83 44 49 55
REMARK Flexibility Score: inf
ROOT
ATOM      1  C   UNL A   1      32.632  26.940  25.200  1.00  0.00     0.117 C 
ENDROOT
BRANCH   1   2
ATOM      2  N   UNL A   1      33.400  27.746  24.263  1.00  0.00    -0.356 N 
ATOM      3  C   UNL A   1      33.305  27.908  22.914  1.00  0.00     0.224 C 
ATOM      4  O   UNL A   1      34.125  28.659  22.379  1.00  0.00    -0.275 OA
ATOM      5  H   UNL A   1      34.119  28.272  24.680  1.00  0.00     0.163 HD
BRANCH   3   6
ATOM      6  C   UNL A   1      32.222  27.235  22.076  1.00  0.00     0.097 C 
ATOM      7  C   UNL A   1      30.870  27.419  22.765  1.00  0.00     0.020 C 
BRANCH   6   8
ATOM      8  C   UNL A   1      32.631  25.806  21.662  1.00  0.00     0.088 C 
ATOM      9  C   UNL A   1      32.459  25.627  20.143  1.00  0.00     0.031 C 
BRANCH   8  10
ATOM     10  N   UNL A   1      31.829  24.774  22.334  1.00  0.00    -0.382 N 
ATOM     11  H   UNL A   1      30.851  24.853  22.398  1.00  0.00     0.160 HD
BRANCH  10  12
ATOM     12  C   UNL A   1      32.501  23.679  22.878  1.00  0.00     0.034 A 
ATOM     13  C   UNL A   1      33.883  23.700  23.041  1.00  0.00     0.028 A 
ATOM     14  C   UNL A   1      31.825  22.571  23.374  1.00  0.00     0.028 A 
ATOM     15  C   UNL A   1      34.561  22.630  23.660  1.00  0.00     0.028 A 
ATOM     16  C   UNL A   1      32.505  21.502  23.973  1.00  0.00     0.028 A 
ATOM     17  C   UNL A   1      33.899  21.489  24.138  1.00  0.00     0.036 A 
BRANCH  17  18
ATOM     18  N   UNL A   1      34.551  20.406  24.709  1.00  0.00    -0.378 N 
ATOM     19  C   UNL A   1      34.039  19.039  24.675  1.00  0.00     0.143 C 
ATOM     20  C   UNL A   1      35.927  20.537  25.187  1.00  0.00     0.143 C 
ENDBRANCH  17  18
ENDBRANCH  10  12
ENDBRANCH   8  10
ENDBRANCH   6   8
ENDBRANCH   3   6
ENDBRANCH   1   2
BRANCH   1  21
ATOM     21  C   UNL A   1      32.301  27.699  26.481  1.00  0.00     0.042 C 
BRANCH  21  22
ATOM     22  C   UNL A   1      33.522  28.223  27.226  1.00  0.00     0.118 C 
BRANCH  22  23
ATOM     23  N   UNL A   1      33.455  29.658  27.466  1.00  0.00    -0.352 N 
ATOM     24  C   UNL A   1      34.376  30.502  28.029  1.00  0.00     0.251 C 
ATOM     25  H   UNL A   1      32.618  30.089  27.178  1.00  0.00     0.163 HD
ATOM     26  O   UNL A   1      34.032  31.650  28.328  1.00  0.00    -0.269 OA
BRANCH  24  27
ATOM     27  C   UNL A   1      35.760  30.055  28.294  1.00  0.00     0.039 A 
ATOM     28  C   UNL A   1      36.694  30.100  27.254  1.00  0.00     0.014 A 
ATOM     29  C   UNL A   1      36.136  29.563  29.547  1.00  0.00     0.014 A 
ATOM     30  C   UNL A   1      38.014  29.710  27.488  1.00  0.00     0.010 A 
ATOM     31  C   UNL A   1      37.471  29.255  29.802  1.00  0.00     0.010 A 
ATOM     32  C   UNL A   1      38.423  29.317  28.774  1.00  0.00    -0.014 A 
BRANCH  32  33
ATOM     33  C   UNL A   1      39.841  28.980  29.061  1.00  0.00     0.031 A 
ATOM     34  C   UNL A   1      40.771  30.016  29.632  1.00  0.00     0.074 A 
ATOM     35  C   UNL A   1      40.310  27.759  28.736  1.00  0.00     0.049 A 
ATOM     36  N   UNL A   1      42.049  29.924  29.894  1.00  0.00    -0.248 NA
ATOM     37  C   UNL A   1      40.195  31.341  29.915  1.00  0.00     0.031 C 
ATOM     38  C   UNL A   1      39.525  26.693  28.110  1.00  0.00     0.029 A 
ATOM     39  N   UNL A   1      41.564  27.215  28.865  1.00  0.00    -0.354 N 
ATOM     40  C   UNL A   1      42.436  31.179  30.348  1.00  0.00     0.074 A 
ATOM     41  C   UNL A   1      41.267  32.029  30.279  1.00  0.00     0.031 C 
ATOM     42  C   UNL A   1      40.310  25.620  27.923  1.00  0.00     0.029 A 
ATOM     43  C   UNL A   1      41.661  25.932  28.381  1.00  0.00     0.049 A 
ATOM     44  H   UNL A   1      42.321  27.697  29.268  1.00  0.00     0.167 HD
ATOM     45  C   UNL A   1      43.650  31.583  30.796  1.00  0.00     0.037 A 
ATOM     46  C   UNL A   1      42.719  25.102  28.300  1.00  0.00     0.037 A 
ATOM     47  C   UNL A   1      44.801  30.720  30.886  1.00  0.00     0.049 A 
ATOM     48  C   UNL A   1      44.048  25.555  28.838  1.00  0.00     0.074 A 
ATOM     49  C   UNL A   1      46.048  31.003  31.413  1.00  0.00     0.029 A 
ATOM     50  N   UNL A   1      44.849  29.411  30.427  1.00  0.00    -0.354 N 
ATOM     51  N   UNL A   1      44.373  26.716  29.354  1.00  0.00    -0.248 NA
ATOM     52  C   UNL A   1      45.149  24.585  28.794  1.00  0.00     0.031 C 
ATOM     53  C   UNL A   1      46.866  29.884  31.226  1.00  0.00     0.029 A 
ATOM     54  C   UNL A   1      46.114  28.884  30.631  1.00  0.00     0.049 A 
ATOM     55  H   UNL A   1      44.095  28.929  30.016  1.00  0.00     0.167 HD
ATOM     56  C   UNL A   1      45.713  26.612  29.711  1.00  0.00     0.074 A 
ATOM     57  C   UNL A   1      46.131  25.268  29.367  1.00  0.00     0.031 C 
ATOM     58  C   UNL A   1      46.521  27.545  30.274  1.00  0.00     0.037 A 
BRANCH  45  59
ATOM     59  C   UNL A   1      43.795  33.021  31.215  1.00  0.00     0.058 A 
ATOM     60  C   UNL A   1      43.565  33.438  32.536  1.00  0.00     0.135 A 
ATOM     61  C   UNL A   1      44.182  33.998  30.281  1.00  0.00     0.135 A 
ATOM     62  F   UNL A   1      43.183  32.551  33.469  1.00  0.00    -0.206 F 
ATOM     63  C   UNL A   1      43.668  34.775  32.908  1.00  0.00     0.059 A 
ATOM     64  C   UNL A   1      44.322  35.336  30.638  1.00  0.00     0.059 A 
ATOM     65  F   UNL A   1      44.418  33.657  29.005  1.00  0.00    -0.206 F 
ATOM     66  C   UNL A   1      44.042  35.718  31.949  1.00  0.00     0.060 A 
BRANCH  66  67
ATOM     67  S   UNL A   1      44.151  37.452  32.439  1.00  0.00     0.124 S 
ATOM     68  O   UNL A   1      43.819  38.128  31.189  1.00  0.00    -0.237 OA
ATOM     69  O   UNL A   1      43.144  37.543  33.492  1.00  0.00    -0.237 OA
ATOM     70  O   UNL A   1      45.533  37.595  32.883  1.00  0.00    -0.744 OA
ENDBRANCH  66  67
ENDBRANCH  45  59
BRANCH  46  71
ATOM     71  C   UNL A   1      42.544  23.753  27.701  1.00  0.00     0.058 A 
ATOM     72  C   UNL A   1      42.628  23.559  26.315  1.00  0.00     0.135 A 
ATOM     73  C   UNL A   1      42.352  22.621  28.510  1.00  0.00     0.135 A 
ATOM     74  F   UNL A   1      42.803  24.609  25.500  1.00  0.00    -0.206 F 
ATOM     75  C   UNL A   1      42.530  22.291  25.750  1.00  0.00     0.059 A 
ATOM     76  C   UNL A   1      42.276  21.341  27.971  1.00  0.00     0.059 A 
ATOM     77  F   UNL A   1      42.283  22.754  29.844  1.00  0.00    -0.206 F 
ATOM     78  C   UNL A   1      42.365  21.187  26.589  1.00  0.00     0.060 A 
BRANCH  78  79
ATOM     79  S   UNL A   1      42.334  19.537  25.853  1.00  0.00     0.124 S 
ATOM     80  O   UNL A   1      42.705  18.700  26.989  1.00  0.00    -0.237 OA
ATOM     81  O   UNL A   1      40.949  19.428  25.406  1.00  0.00    -0.237 OA
ATOM     82  O   UNL A   1      43.323  19.627  24.784  1.00  0.00    -0.744 OA
ENDBRANCH  78  79
ENDBRANCH  46  71
BRANCH  58  83
ATOM     83  C   UNL A   1      47.940  27.143  30.569  1.00  0.00     0.058 A 
ATOM     84  C   UNL A   1      48.962  27.292  29.618  1.00  0.00     0.135 A 
ATOM     85  C   UNL A   1      48.291  26.649  31.836  1.00  0.00     0.135 A 
ATOM     86  F   UNL A   1      48.681  27.754  28.390  1.00  0.00    -0.206 F 
ATOM     87  C   UNL A   1      50.277  26.943  29.906  1.00  0.00     0.059 A 
ATOM     88  C   UNL A   1      49.605  26.321  32.155  1.00  0.00     0.059 A 
ATOM     89  F   UNL A   1      47.354  26.497  32.786  1.00  0.00    -0.206 F 
ATOM     90  C   UNL A   1      50.589  26.459  31.178  1.00  0.00     0.060 A 
BRANCH  90  91
ATOM     91  S   UNL A   1      52.306  26.037  31.546  1.00  0.00     0.124 S 
ATOM     92  O   UNL A   1      52.664  27.075  32.508  1.00  0.00    -0.237 OA
ATOM     93  O   UNL A   1      52.188  24.686  32.085  1.00  0.00    -0.237 OA
ATOM     94  O   UNL A   1      52.965  26.131  30.246  1.00  0.00    -0.744 OA
ENDBRANCH  90  91
ENDBRANCH  58  83
ENDBRANCH  32  33
ENDBRANCH  24  27
ENDBRANCH  22  23
ENDBRANCH  21  22
ENDBRANCH   1  21
TORSDOF 17
ENDMDL
MODEL 3
REMARK VINA RESULT:      -8.7      4.446     11.314
REMARK SMILES C[C@H](Nc1ccc(N(C)C)cc1)[C@@H](C)C(=O)NCCCNC(=O)c1ccc(-c2c3nc(c(-c4c(F)cc(S(=O)(=O)[O-])cc4F)c4ccc([nH]4)c(-c4c(F)cc(S(=O)(=O)[O-])cc4F)c4nc(c(-c5c(F)cc(S(=O)(=O)[O-])cc5F)c5ccc2[nH]5)C=C4)C=C3)cc1
REMARK SMILES IDX 18 1 17 2 15 3 16 4 13 6 14 7 2 8 1 9 3 10 4 12 5 13 12 14
REMARK SMILES IDX 6 15 11 16 7 17 8 18 9 19 10 20 19 21 20 22 21 23 22 24
REMARK SMILES IDX 23 26 24 27 25 28 89 29 26 30 88 31 27 32 28 33 29 34 82 35
REMARK SMILES IDX 30 36 87 37 81 38 83 39 31 40 86 41 80 42 79 43 32 45 66 46
REMARK SMILES IDX 45 47 65 48 46 49 49 50 64 51 84 52 47 53 48 54 63 56 85 57
REMARK SMILES IDX 50 58 33 59 34 60 43 61 35 62 36 63 42 64 44 65 37 66 38 67
REMARK SMILES IDX 39 68 40 69 41 70 67 71 68 72 77 73 69 74 70 75 76 76 78 77
REMARK SMILES IDX 71 78 72 79 73 80 74 81 75 82 51 83 52 84 61 85 53 86 54 87
REMARK SMILES IDX 60 88 62 89 55 90 56 91 57 92 58 93 59 94
REMARK H PARENT 17 5 3 11 21 25 83 44 49 55
REMARK Flexibility Score: inf
ROOT
ATOM      1  C   UNL A   1      34.240  24.351  25.627  1.00  0.00     0.117 C 
ENDROOT
BRANCH   1   2
ATOM      2  N   UNL A   1      33.110  24.140  26.520  1.00  0.00    -0.356 N 
ATOM      3  C   UNL A   1      31.833  23.730  26.287  1.00  0.00     0.224 C 
ATOM      4  O   UNL A   1      31.077  23.663  27.261  1.00  0.00    -0.275 OA
ATOM      5  H   UNL A   1      33.305  24.328  27.466  1.00  0.00     0.163 HD
BRANCH   3   6
ATOM      6  C   UNL A   1      31.335  23.328  24.902  1.00  0.00     0.097 C 
ATOM      7  C   UNL A   1      32.309  22.319  24.294  1.00  0.00     0.020 C 
BRANCH   6   8
ATOM      8  C   UNL A   1      30.955  24.561  24.056  1.00  0.00     0.088 C 
ATOM      9  C   UNL A   1      31.887  24.671  22.835  1.00  0.00     0.031 C 
BRANCH   8  10
ATOM     10  N   UNL A   1      31.049  25.816  24.814  1.00  0.00    -0.382 N 
ATOM     11  H   UNL A   1      31.567  25.866  25.649  1.00  0.00     0.160 HD
BRANCH  10  12
ATOM     12  C   UNL A   1      30.383  26.933  24.310  1.00  0.00     0.034 A 
ATOM     13  C   UNL A   1      31.047  28.144  24.142  1.00  0.00     0.028 A 
ATOM     14  C   UNL A   1      29.071  26.866  23.857  1.00  0.00     0.028 A 
ATOM     15  C   UNL A   1      30.402  29.256  23.562  1.00  0.00     0.028 A 
ATOM     16  C   UNL A   1      28.428  27.978  23.297  1.00  0.00     0.028 A 
ATOM     17  C   UNL A   1      29.068  29.216  23.129  1.00  0.00     0.036 A 
BRANCH  17  18
ATOM     18  N   UNL A   1      28.401  30.311  22.597  1.00  0.00    -0.378 N 
ATOM     19  C   UNL A   1      27.522  31.182  23.372  1.00  0.00     0.143 C 
ATOM     20  C   UNL A   1      28.728  30.799  21.258  1.00  0.00     0.143 C 
ENDBRANCH  17  18
ENDBRANCH  10  12
ENDBRANCH   8  10
ENDBRANCH   6   8
ENDBRANCH   3   6
ENDBRANCH   1   2
BRANCH   1  21
ATOM     21  C   UNL A   1      35.416  23.437  25.955  1.00  0.00     0.042 C 
BRANCH  21  22
ATOM     22  C   UNL A   1      36.706  23.798  25.231  1.00  0.00     0.118 C 
BRANCH  22  23
ATOM     23  N   UNL A   1      37.763  22.821  25.451  1.00  0.00    -0.352 N 
ATOM     24  C   UNL A   1      39.000  22.972  26.021  1.00  0.00     0.251 C 
ATOM     25  H   UNL A   1      37.556  21.909  25.143  1.00  0.00     0.163 HD
ATOM     26  O   UNL A   1      39.823  22.056  25.918  1.00  0.00    -0.269 OA
BRANCH  24  27
ATOM     27  C   UNL A   1      39.363  24.213  26.738  1.00  0.00     0.039 A 
ATOM     28  C   UNL A   1      38.953  24.369  28.065  1.00  0.00     0.014 A 
ATOM     29  C   UNL A   1      40.077  25.234  26.104  1.00  0.00     0.014 A 
ATOM     30  C   UNL A   1      39.309  25.520  28.771  1.00  0.00     0.010 A 
ATOM     31  C   UNL A   1      40.503  26.341  26.834  1.00  0.00     0.010 A 
ATOM     32  C   UNL A   1      40.118  26.501  28.173  1.00  0.00    -0.014 A 
BRANCH  32  33
ATOM     33  C   UNL A   1      40.577  27.690  28.935  1.00  0.00     0.031 A 
ATOM     34  C   UNL A   1      41.921  27.691  29.612  1.00  0.00     0.074 A 
ATOM     35  C   UNL A   1      39.748  28.743  29.082  1.00  0.00     0.049 A 
ATOM     36  N   UNL A   1      42.466  28.611  30.366  1.00  0.00    -0.248 NA
ATOM     37  C   UNL A   1      42.748  26.485  29.446  1.00  0.00     0.031 C 
ATOM     38  C   UNL A   1      38.392  28.832  28.535  1.00  0.00     0.029 A 
ATOM     39  N   UNL A   1      39.914  29.930  29.751  1.00  0.00    -0.354 N 
ATOM     40  C   UNL A   1      43.684  28.088  30.783  1.00  0.00     0.074 A 
ATOM     41  C   UNL A   1      43.776  26.751  30.238  1.00  0.00     0.031 C 
ATOM     42  C   UNL A   1      37.856  30.013  28.879  1.00  0.00     0.029 A 
ATOM     43  C   UNL A   1      38.812  30.751  29.699  1.00  0.00     0.049 A 
ATOM     44  H   UNL A   1      40.743  30.172  30.223  1.00  0.00     0.167 HD
ATOM     45  C   UNL A   1      44.646  28.675  31.537  1.00  0.00     0.037 A 
ATOM     46  C   UNL A   1      38.589  31.956  30.258  1.00  0.00     0.037 A 
ATOM     47  C   UNL A   1      44.555  30.018  32.052  1.00  0.00     0.049 A 
ATOM     48  C   UNL A   1      39.681  32.607  31.060  1.00  0.00     0.074 A 
ATOM     49  C   UNL A   1      45.511  30.739  32.746  1.00  0.00     0.029 A 
ATOM     50  N   UNL A   1      43.440  30.837  31.941  1.00  0.00    -0.354 N 
ATOM     51  N   UNL A   1      40.868  32.137  31.364  1.00  0.00    -0.248 NA
ATOM     52  C   UNL A   1      39.413  33.951  31.583  1.00  0.00     0.031 C 
ATOM     53  C   UNL A   1      44.956  31.973  33.099  1.00  0.00     0.029 A 
ATOM     54  C   UNL A   1      43.674  32.044  32.579  1.00  0.00     0.049 A 
ATOM     55  H   UNL A   1      42.607  30.595  31.477  1.00  0.00     0.167 HD
ATOM     56  C   UNL A   1      41.494  33.134  32.103  1.00  0.00     0.074 A 
ATOM     57  C   UNL A   1      40.560  34.239  32.183  1.00  0.00     0.031 C 
ATOM     58  C   UNL A   1      42.731  33.134  32.661  1.00  0.00     0.037 A 
BRANCH  45  59
ATOM     59  C   UNL A   1      45.872  27.863  31.857  1.00  0.00     0.058 A 
ATOM     60  C   UNL A   1      46.981  27.820  30.995  1.00  0.00     0.135 A 
ATOM     61  C   UNL A   1      45.945  27.125  33.051  1.00  0.00     0.135 A 
ATOM     62  F   UNL A   1      46.963  28.497  29.836  1.00  0.00    -0.206 F 
ATOM     63  C   UNL A   1      48.097  27.040  31.282  1.00  0.00     0.059 A 
ATOM     64  C   UNL A   1      47.065  26.364  33.373  1.00  0.00     0.059 A 
ATOM     65  F   UNL A   1      44.918  27.132  33.914  1.00  0.00    -0.206 F 
ATOM     66  C   UNL A   1      48.127  26.310  32.471  1.00  0.00     0.060 A 
BRANCH  66  67
ATOM     67  S   UNL A   1      49.572  25.286  32.820  1.00  0.00     0.124 S 
ATOM     68  O   UNL A   1      50.018  24.945  31.472  1.00  0.00    -0.237 OA
ATOM     69  O   UNL A   1      50.435  26.203  33.558  1.00  0.00    -0.237 OA
ATOM     70  O   UNL A   1      49.025  24.180  33.598  1.00  0.00    -0.744 OA
ENDBRANCH  66  67
ENDBRANCH  45  59
BRANCH  46  71
ATOM     71  C   UNL A   1      37.275  32.623  30.053  1.00  0.00     0.058 A 
ATOM     72  C   UNL A   1      36.192  32.367  30.904  1.00  0.00     0.135 A 
ATOM     73  C   UNL A   1      37.100  33.578  29.039  1.00  0.00     0.135 A 
ATOM     74  F   UNL A   1      36.308  31.458  31.884  1.00  0.00    -0.206 F 
ATOM     75  C   UNL A   1      34.978  33.034  30.760  1.00  0.00     0.059 A 
ATOM     76  C   UNL A   1      35.906  34.276  28.890  1.00  0.00     0.059 A 
ATOM     77  F   UNL A   1      38.114  33.871  28.210  1.00  0.00    -0.206 F 
ATOM     78  C   UNL A   1      34.850  33.996  29.756  1.00  0.00     0.060 A 
BRANCH  78  79
ATOM     79  S   UNL A   1      33.305  34.923  29.637  1.00  0.00     0.124 S 
ATOM     80  O   UNL A   1      33.767  36.203  29.112  1.00  0.00    -0.237 OA
ATOM     81  O   UNL A   1      32.525  34.101  28.717  1.00  0.00    -0.237 OA
ATOM     82  O   UNL A   1      32.818  34.943  31.013  1.00  0.00    -0.744 OA
ENDBRANCH  78  79
ENDBRANCH  46  71
BRANCH  58  83
ATOM     83  C   UNL A   1      43.156  34.374  33.399  1.00  0.00     0.058 A 
ATOM     84  C   UNL A   1      43.662  35.497  32.726  1.00  0.00     0.135 A 
ATOM     85  C   UNL A   1      43.010  34.457  34.793  1.00  0.00     0.135 A 
ATOM     86  F   UNL A   1      43.828  35.469  31.394  1.00  0.00    -0.206 F 
ATOM     87  C   UNL A   1      44.029  36.650  33.411  1.00  0.00     0.059 A 
ATOM     88  C   UNL A   1      43.344  35.611  35.496  1.00  0.00     0.059 A 
ATOM     89  F   UNL A   1      42.521  33.416  35.486  1.00  0.00    -0.206 F 
ATOM     90  C   UNL A   1      43.865  36.698  34.797  1.00  0.00     0.060 A 
BRANCH  90  91
ATOM     91  S   UNL A   1      44.319  38.211  35.671  1.00  0.00     0.124 S 
ATOM     92  O   UNL A   1      45.775  38.128  35.667  1.00  0.00    -0.237 OA
ATOM     93  O   UNL A   1      43.741  39.249  34.822  1.00  0.00    -0.237 OA
ATOM     94  O   UNL A   1      43.684  38.053  36.977  1.00  0.00    -0.744 OA
ENDBRANCH  90  91
ENDBRANCH  58  83
ENDBRANCH  32  33
ENDBRANCH  24  27
ENDBRANCH  22  23
ENDBRANCH  21  22
ENDBRANCH   1  21
TORSDOF 17
ENDMDL
