MODEL 1
REMARK VINA RESULT:     -11.6      0.000      0.000
REMARK SMILES N#CCSc1nnnn1-c1ccc(C(=O)NCCCNC(=O)c2ccc(-c3c4nc(c(-c5c(F)cc(S(=O)(=O)[O-])cc5F)c5ccc([nH]5)c(-c5c(F)cc(S(=O)(=O)[O-])cc5F)c5nc(c(-c6c(F)cc(S(=O)(=O)[O-])cc6F)c6ccc3[nH]6)C=C5)C=C4)cc2)cc1
REMARK SMILES IDX 17 1 16 2 14 3 15 4 13 6 10 7 11 8 90 9 12 10 89 11 9 12
REMARK SMILES IDX 5 13 6 14 7 15 8 16 4 17 3 18 2 19 1 20 18 21 19 22 20 23
REMARK SMILES IDX 21 24 22 26 23 27 24 28 88 29 25 30 87 31 26 32 27 33 28 34
REMARK SMILES IDX 81 35 29 36 86 37 80 38 82 39 30 40 85 41 79 42 78 43 31 45
REMARK SMILES IDX 65 46 44 47 64 48 45 49 48 50 63 51 83 52 46 53 47 54 62 56
REMARK SMILES IDX 84 57 49 58 32 59 33 60 42 61 34 62 35 63 41 64 43 65 36 66
REMARK SMILES IDX 37 67 38 68 39 69 40 70 66 71 67 72 76 73 68 74 69 75 75 76
REMARK SMILES IDX 77 77 70 78 71 79 72 80 73 81 74 82 50 83 51 84 60 85 52 86
REMARK SMILES IDX 53 87 59 88 61 89 54 90 55 91 56 92 57 93 58 94
REMARK H PARENT 16 5 20 25 82 44 48 55
REMARK Flexibility Score: inf
ROOT
ATOM      1  C   UNL A   1      36.595  20.825  24.975  1.00  0.00     0.118 C 
ENDROOT
BRANCH   1   2
ATOM      2  N   UNL A   1      36.976  21.767  23.930  1.00  0.00    -0.352 N 
ATOM      3  C   UNL A   1      36.358  22.894  23.438  1.00  0.00     0.251 C 
ATOM      4  O   UNL A   1      36.973  23.612  22.654  1.00  0.00    -0.269 OA
ATOM      5  H   UNL A   1      37.835  21.559  23.496  1.00  0.00     0.163 HD
BRANCH   3   6
ATOM      6  C   UNL A   1      35.015  23.322  23.905  1.00  0.00     0.039 A 
ATOM      7  C   UNL A   1      32.554  23.786  25.087  1.00  0.00     0.069 A 
ATOM      8  C   UNL A   1      33.698  24.290  25.705  1.00  0.00     0.029 A 
ATOM      9  C   UNL A   1      32.601  23.210  23.818  1.00  0.00     0.029 A 
ATOM     10  C   UNL A   1      34.935  24.047  25.106  1.00  0.00     0.016 A 
ATOM     11  C   UNL A   1      33.838  23.005  23.221  1.00  0.00     0.016 A 
BRANCH   7  12
ATOM     12  N   UNL A   1      31.355  23.715  25.798  1.00  0.00    -0.187 N 
ATOM     13  C   UNL A   1      30.413  24.710  25.988  1.00  0.00     0.215 A 
ATOM     14  N   UNL A   1      29.604  24.328  26.952  1.00  0.00    -0.101 NA
ATOM     15  N   UNL A   1      30.057  23.099  27.367  1.00  0.00    -0.022 NA
ATOM     16  N   UNL A   1      31.112  22.712  26.664  1.00  0.00    -0.039 NA
BRANCH  13  17
ATOM     17  S   UNL A   1      30.068  26.018  24.893  1.00  0.00    -0.069 SA
BRANCH  17  18
ATOM     18  C   UNL A   1      31.287  27.326  25.210  1.00  0.00     0.198 C 
BRANCH  18  19
ATOM     19  C   UNL A   1      31.457  27.680  26.678  1.00  0.00     0.074 C 
ATOM     20  N   UNL A   1      31.599  27.975  27.895  1.00  0.00    -0.197 NA
ENDBRANCH  18  19
ENDBRANCH  17  18
ENDBRANCH  13  17
ENDBRANCH   7  12
ENDBRANCH   3   6
ENDBRANCH   1   2
BRANCH   1  21
ATOM     21  C   UNL A   1      37.633  19.713  25.175  1.00  0.00     0.042 C 
BRANCH  21  22
ATOM     22  C   UNL A   1      38.993  20.252  25.573  1.00  0.00     0.118 C 
BRANCH  22  23
ATOM     23  N   UNL A   1      39.991  19.196  25.744  1.00  0.00    -0.352 N 
ATOM     24  C   UNL A   1      41.348  19.342  25.996  1.00  0.00     0.251 C 
ATOM     25  H   UNL A   1      39.661  18.272  25.670  1.00  0.00     0.163 HD
ATOM     26  O   UNL A   1      42.124  18.435  25.759  1.00  0.00    -0.269 OA
BRANCH  24  27
ATOM     27  C   UNL A   1      41.818  20.622  26.560  1.00  0.00     0.039 A 
ATOM     28  C   UNL A   1      42.344  21.637  25.755  1.00  0.00     0.014 A 
ATOM     29  C   UNL A   1      41.673  20.804  27.930  1.00  0.00     0.014 A 
ATOM     30  C   UNL A   1      42.646  22.866  26.341  1.00  0.00     0.010 A 
ATOM     31  C   UNL A   1      41.770  22.061  28.457  1.00  0.00     0.010 A 
ATOM     32  C   UNL A   1      42.335  23.075  27.694  1.00  0.00    -0.014 A 
BRANCH  32  33
ATOM     33  C   UNL A   1      42.463  24.386  28.324  1.00  0.00     0.031 A 
ATOM     34  C   UNL A   1      41.287  25.273  28.094  1.00  0.00     0.074 A 
ATOM     35  C   UNL A   1      43.419  24.640  29.249  1.00  0.00     0.049 A 
ATOM     36  N   UNL A   1      41.244  26.381  27.430  1.00  0.00    -0.248 NA
ATOM     37  C   UNL A   1      39.955  24.778  28.497  1.00  0.00     0.031 C 
ATOM     38  C   UNL A   1      44.430  23.711  29.778  1.00  0.00     0.029 A 
ATOM     39  N   UNL A   1      43.617  25.742  30.019  1.00  0.00    -0.354 N 
ATOM     40  C   UNL A   1      39.941  26.854  27.576  1.00  0.00     0.074 A 
ATOM     41  C   UNL A   1      39.157  25.731  28.013  1.00  0.00     0.031 C 
ATOM     42  C   UNL A   1      44.940  24.196  30.932  1.00  0.00     0.029 A 
ATOM     43  C   UNL A   1      44.436  25.539  31.131  1.00  0.00     0.049 A 
ATOM     44  H   UNL A   1      43.214  26.616  29.808  1.00  0.00     0.167 HD
ATOM     45  C   UNL A   1      39.684  28.191  27.620  1.00  0.00     0.037 A 
ATOM     46  C   UNL A   1      44.660  26.407  32.152  1.00  0.00     0.037 A 
ATOM     47  C   UNL A   1      40.803  28.943  27.105  1.00  0.00     0.049 A 
ATOM     48  C   UNL A   1      44.269  27.752  31.659  1.00  0.00     0.074 A 
ATOM     49  C   UNL A   1      41.490  28.966  25.906  1.00  0.00     0.029 A 
ATOM     50  N   UNL A   1      41.629  29.549  28.022  1.00  0.00    -0.354 N 
ATOM     51  N   UNL A   1      44.882  28.374  30.688  1.00  0.00    -0.248 NA
ATOM     52  C   UNL A   1      42.904  28.185  31.911  1.00  0.00     0.031 C 
ATOM     53  C   UNL A   1      42.858  29.133  26.269  1.00  0.00     0.029 A 
ATOM     54  C   UNL A   1      42.926  29.295  27.655  1.00  0.00     0.049 A 
ATOM     55  H   UNL A   1      41.341  30.074  28.804  1.00  0.00     0.167 HD
ATOM     56  C   UNL A   1      43.867  28.947  29.935  1.00  0.00     0.074 A 
ATOM     57  C   UNL A   1      42.677  28.863  30.782  1.00  0.00     0.031 C 
ATOM     58  C   UNL A   1      44.019  29.163  28.594  1.00  0.00     0.037 A 
BRANCH  45  59
ATOM     59  C   UNL A   1      38.623  28.829  28.496  1.00  0.00     0.058 A 
ATOM     60  C   UNL A   1      37.748  29.781  27.929  1.00  0.00     0.135 A 
ATOM     61  C   UNL A   1      38.607  28.767  29.908  1.00  0.00     0.135 A 
ATOM     62  F   UNL A   1      37.676  29.934  26.597  1.00  0.00    -0.206 F 
ATOM     63  C   UNL A   1      36.988  30.659  28.704  1.00  0.00     0.059 A 
ATOM     64  C   UNL A   1      37.817  29.594  30.698  1.00  0.00     0.059 A 
ATOM     65  F   UNL A   1      39.424  27.972  30.607  1.00  0.00    -0.206 F 
ATOM     66  C   UNL A   1      37.042  30.565  30.090  1.00  0.00     0.060 A 
BRANCH  66  67
ATOM     67  S   UNL A   1      36.140  31.754  31.097  1.00  0.00     0.124 S 
ATOM     68  O   UNL A   1      37.080  32.867  31.142  1.00  0.00    -0.237 OA
ATOM     69  O   UNL A   1      34.933  31.964  30.305  1.00  0.00    -0.237 OA
ATOM     70  O   UNL A   1      35.940  31.042  32.356  1.00  0.00    -0.744 OA
ENDBRANCH  66  67
ENDBRANCH  45  59
BRANCH  46  71
ATOM     71  C   UNL A   1      44.844  26.108  33.602  1.00  0.00     0.058 A 
ATOM     72  C   UNL A   1      45.785  26.807  34.381  1.00  0.00     0.135 A 
ATOM     73  C   UNL A   1      43.903  25.340  34.318  1.00  0.00     0.135 A 
ATOM     74  F   UNL A   1      46.709  27.579  33.788  1.00  0.00    -0.206 F 
ATOM     75  C   UNL A   1      45.764  26.788  35.783  1.00  0.00     0.059 A 
ATOM     76  C   UNL A   1      43.866  25.300  35.714  1.00  0.00     0.059 A 
ATOM     77  F   UNL A   1      42.927  24.676  33.682  1.00  0.00    -0.206 F 
ATOM     78  C   UNL A   1      44.784  26.048  36.441  1.00  0.00     0.060 A 
BRANCH  78  79
ATOM     79  S   UNL A   1      44.639  26.158  38.244  1.00  0.00     0.124 S 
ATOM     80  O   UNL A   1      45.572  27.234  38.557  1.00  0.00    -0.237 OA
ATOM     81  O   UNL A   1      43.224  26.469  38.422  1.00  0.00    -0.237 OA
ATOM     82  O   UNL A   1      45.042  24.830  38.698  1.00  0.00    -0.744 OA
ENDBRANCH  78  79
ENDBRANCH  46  71
BRANCH  58  83
ATOM     83  C   UNL A   1      45.406  29.064  28.004  1.00  0.00     0.058 A 
ATOM     84  C   UNL A   1      46.384  30.074  28.060  1.00  0.00     0.135 A 
ATOM     85  C   UNL A   1      45.807  27.820  27.493  1.00  0.00     0.135 A 
ATOM     86  F   UNL A   1      46.120  31.262  28.622  1.00  0.00    -0.206 F 
ATOM     87  C   UNL A   1      47.687  29.867  27.596  1.00  0.00     0.059 A 
ATOM     88  C   UNL A   1      47.106  27.581  27.057  1.00  0.00     0.059 A 
ATOM     89  F   UNL A   1      44.939  26.795  27.468  1.00  0.00    -0.206 F 
ATOM     90  C   UNL A   1      48.039  28.613  27.098  1.00  0.00     0.060 A 
BRANCH  90  91
ATOM     91  S   UNL A   1      49.738  28.319  26.560  1.00  0.00     0.124 S 
ATOM     92  O   UNL A   1      49.604  28.310  25.108  1.00  0.00    -0.237 OA
ATOM     93  O   UNL A   1      50.453  29.460  27.124  1.00  0.00    -0.237 OA
ATOM     94  O   UNL A   1      50.069  27.029  27.164  1.00  0.00    -0.744 OA
ENDBRANCH  90  91
ENDBRANCH  58  83
ENDBRANCH  32  33
ENDBRANCH  24  27
ENDBRANCH  22  23
ENDBRANCH  21  22
ENDBRANCH   1  21
TORSDOF 17
ENDMDL
MODEL 2
REMARK VINA RESULT:     -11.6      3.244      8.059
REMARK SMILES N#CCSc1nnnn1-c1ccc(C(=O)NCCCNC(=O)c2ccc(-c3c4nc(c(-c5c(F)cc(S(=O)(=O)[O-])cc5F)c5ccc([nH]5)c(-c5c(F)cc(S(=O)(=O)[O-])cc5F)c5nc(c(-c6c(F)cc(S(=O)(=O)[O-])cc6F)c6ccc3[nH]6)C=C5)C=C4)cc2)cc1
REMARK SMILES IDX 17 1 16 2 14 3 15 4 13 6 10 7 11 8 90 9 12 10 89 11 9 12
REMARK SMILES IDX 5 13 6 14 7 15 8 16 4 17 3 18 2 19 1 20 18 21 19 22 20 23
REMARK SMILES IDX 21 24 22 26 23 27 24 28 88 29 25 30 87 31 26 32 27 33 28 34
REMARK SMILES IDX 81 35 29 36 86 37 80 38 82 39 30 40 85 41 79 42 78 43 31 45
REMARK SMILES IDX 65 46 44 47 64 48 45 49 48 50 63 51 83 52 46 53 47 54 62 56
REMARK SMILES IDX 84 57 49 58 32 59 33 60 42 61 34 62 35 63 41 64 43 65 36 66
REMARK SMILES IDX 37 67 38 68 39 69 40 70 66 71 67 72 76 73 68 74 69 75 75 76
REMARK SMILES IDX 77 77 70 78 71 79 72 80 73 81 74 82 50 83 51 84 60 85 52 86
REMARK SMILES IDX 53 87 59 88 61 89 54 90 55 91 56 92 57 93 58 94
REMARK H PARENT 16 5 20 25 82 44 48 55
REMARK Flexibility Score: inf
ROOT
ATOM      1  C   UNL A   1      38.152  22.244  25.974  1.00  0.00     0.118 C 
ENDROOT
BRANCH   1   2
ATOM      2  N   UNL A   1      37.772  22.426  24.579  1.00  0.00    -0.352 N 
ATOM      3  C   UNL A   1      36.572  22.749  23.986  1.00  0.00     0.251 C 
ATOM      4  O   UNL A   1      36.554  23.000  22.785  1.00  0.00    -0.269 OA
ATOM      5  H   UNL A   1      38.511  22.293  23.941  1.00  0.00     0.163 HD
BRANCH   3   6
ATOM      6  C   UNL A   1      35.323  22.904  24.774  1.00  0.00     0.039 A 
ATOM      7  C   UNL A   1      32.804  23.322  25.846  1.00  0.00     0.069 A 
ATOM      8  C   UNL A   1      33.050  22.133  25.161  1.00  0.00     0.029 A 
ATOM      9  C   UNL A   1      33.829  24.217  26.149  1.00  0.00     0.029 A 
ATOM     10  C   UNL A   1      34.320  21.932  24.618  1.00  0.00     0.016 A 
ATOM     11  C   UNL A   1      35.096  23.986  25.629  1.00  0.00     0.016 A 
BRANCH   7  12
ATOM     12  N   UNL A   1      31.491  23.710  26.114  1.00  0.00    -0.187 N 
ATOM     13  C   UNL A   1      30.863  24.896  25.776  1.00  0.00     0.215 A 
ATOM     14  N   UNL A   1      29.749  24.980  26.470  1.00  0.00    -0.101 NA
ATOM     15  N   UNL A   1      29.696  23.849  27.248  1.00  0.00    -0.022 NA
ATOM     16  N   UNL A   1      30.743  23.065  27.030  1.00  0.00    -0.039 NA
BRANCH  13  17
ATOM     17  S   UNL A   1      31.222  25.887  24.391  1.00  0.00    -0.069 SA
BRANCH  17  18
ATOM     18  C   UNL A   1      29.708  26.798  23.972  1.00  0.00     0.198 C 
BRANCH  18  19
ATOM     19  C   UNL A   1      29.885  27.835  22.874  1.00  0.00     0.074 C 
ATOM     20  N   UNL A   1      30.032  28.694  21.964  1.00  0.00    -0.197 NA
ENDBRANCH  18  19
ENDBRANCH  17  18
ENDBRANCH  13  17
ENDBRANCH   7  12
ENDBRANCH   3   6
ENDBRANCH   1   2
BRANCH   1  21
ATOM     21  C   UNL A   1      39.516  21.561  26.131  1.00  0.00     0.042 C 
BRANCH  21  22
ATOM     22  C   UNL A   1      40.611  22.533  26.528  1.00  0.00     0.118 C 
BRANCH  22  23
ATOM     23  N   UNL A   1      41.844  22.337  25.765  1.00  0.00    -0.352 N 
ATOM     24  C   UNL A   1      42.741  23.305  25.336  1.00  0.00     0.251 C 
ATOM     25  H   UNL A   1      42.064  21.408  25.528  1.00  0.00     0.163 HD
ATOM     26  O   UNL A   1      43.511  23.076  24.423  1.00  0.00    -0.269 OA
BRANCH  24  27
ATOM     27  C   UNL A   1      42.732  24.614  26.018  1.00  0.00     0.039 A 
ATOM     28  C   UNL A   1      42.025  25.709  25.512  1.00  0.00     0.014 A 
ATOM     29  C   UNL A   1      43.421  24.707  27.220  1.00  0.00     0.014 A 
ATOM     30  C   UNL A   1      41.957  26.872  26.277  1.00  0.00     0.010 A 
ATOM     31  C   UNL A   1      43.181  25.763  28.055  1.00  0.00     0.010 A 
ATOM     32  C   UNL A   1      42.524  26.882  27.561  1.00  0.00    -0.014 A 
BRANCH  32  33
ATOM     33  C   UNL A   1      42.339  28.002  28.479  1.00  0.00     0.031 A 
ATOM     34  C   UNL A   1      43.439  29.006  28.421  1.00  0.00     0.074 A 
ATOM     35  C   UNL A   1      41.154  28.229  29.093  1.00  0.00     0.049 A 
ATOM     36  N   UNL A   1      44.291  29.308  29.346  1.00  0.00    -0.248 NA
ATOM     37  C   UNL A   1      43.747  29.624  27.116  1.00  0.00     0.031 C 
ATOM     38  C   UNL A   1      39.905  27.463  28.953  1.00  0.00     0.029 A 
ATOM     39  N   UNL A   1      40.761  29.269  29.874  1.00  0.00    -0.354 N 
ATOM     40  C   UNL A   1      45.056  30.349  28.825  1.00  0.00     0.074 A 
ATOM     41  C   UNL A   1      44.846  30.324  27.403  1.00  0.00     0.031 C 
ATOM     42  C   UNL A   1      38.863  28.197  29.402  1.00  0.00     0.029 A 
ATOM     43  C   UNL A   1      39.380  29.398  30.026  1.00  0.00     0.049 A 
ATOM     44  H   UNL A   1      41.401  29.883  30.302  1.00  0.00     0.167 HD
ATOM     45  C   UNL A   1      45.549  31.328  29.635  1.00  0.00     0.037 A 
ATOM     46  C   UNL A   1      38.711  30.433  30.599  1.00  0.00     0.037 A 
ATOM     47  C   UNL A   1      45.522  30.909  31.016  1.00  0.00     0.049 A 
ATOM     48  C   UNL A   1      39.697  31.160  31.439  1.00  0.00     0.074 A 
ATOM     49  C   UNL A   1      46.060  29.850  31.721  1.00  0.00     0.029 A 
ATOM     50  N   UNL A   1      44.516  31.413  31.807  1.00  0.00    -0.354 N 
ATOM     51  N   UNL A   1      40.273  30.643  32.491  1.00  0.00    -0.248 NA
ATOM     52  C   UNL A   1      40.404  32.273  30.827  1.00  0.00     0.031 C 
ATOM     53  C   UNL A   1      45.048  29.474  32.652  1.00  0.00     0.029 A 
ATOM     54  C   UNL A   1      43.988  30.375  32.531  1.00  0.00     0.049 A 
ATOM     55  H   UNL A   1      44.228  32.354  31.846  1.00  0.00     0.167 HD
ATOM     56  C   UNL A   1      41.595  31.058  32.414  1.00  0.00     0.074 A 
ATOM     57  C   UNL A   1      41.596  32.124  31.411  1.00  0.00     0.031 C 
ATOM     58  C   UNL A   1      42.603  30.304  32.946  1.00  0.00     0.037 A 
BRANCH  45  59
ATOM     59  C   UNL A   1      45.660  32.788  29.241  1.00  0.00     0.058 A 
ATOM     60  C   UNL A   1      44.497  33.478  28.836  1.00  0.00     0.135 A 
ATOM     61  C   UNL A   1      46.878  33.454  28.970  1.00  0.00     0.135 A 
ATOM     62  F   UNL A   1      43.282  32.945  29.038  1.00  0.00    -0.206 F 
ATOM     63  C   UNL A   1      44.545  34.688  28.140  1.00  0.00     0.059 A 
ATOM     64  C   UNL A   1      46.946  34.685  28.328  1.00  0.00     0.059 A 
ATOM     65  F   UNL A   1      48.072  32.910  29.224  1.00  0.00    -0.206 F 
ATOM     66  C   UNL A   1      45.778  35.275  27.878  1.00  0.00     0.060 A 
BRANCH  66  67
ATOM     67  S   UNL A   1      45.854  36.784  26.899  1.00  0.00     0.124 S 
ATOM     68  O   UNL A   1      46.691  36.362  25.782  1.00  0.00    -0.237 OA
ATOM     69  O   UNL A   1      44.446  37.015  26.596  1.00  0.00    -0.237 OA
ATOM     70  O   UNL A   1      46.458  37.747  27.816  1.00  0.00    -0.744 OA
ENDBRANCH  66  67
ENDBRANCH  45  59
BRANCH  46  71
ATOM     71  C   UNL A   1      37.404  31.031  30.200  1.00  0.00     0.058 A 
ATOM     72  C   UNL A   1      36.528  31.582  31.155  1.00  0.00     0.135 A 
ATOM     73  C   UNL A   1      37.117  31.337  28.855  1.00  0.00     0.135 A 
ATOM     74  F   UNL A   1      36.733  31.361  32.463  1.00  0.00    -0.206 F 
ATOM     75  C   UNL A   1      35.466  32.426  30.802  1.00  0.00     0.059 A 
ATOM     76  C   UNL A   1      36.061  32.169  28.478  1.00  0.00     0.059 A 
ATOM     77  F   UNL A   1      37.914  30.910  27.865  1.00  0.00    -0.206 F 
ATOM     78  C   UNL A   1      35.254  32.732  29.459  1.00  0.00     0.060 A 
BRANCH  78  79
ATOM     79  S   UNL A   1      33.999  33.958  29.008  1.00  0.00     0.124 S 
ATOM     80  O   UNL A   1      33.162  33.206  28.078  1.00  0.00    -0.237 OA
ATOM     81  O   UNL A   1      33.393  34.271  30.298  1.00  0.00    -0.237 OA
ATOM     82  O   UNL A   1      34.778  35.038  28.411  1.00  0.00    -0.744 OA
ENDBRANCH  78  79
ENDBRANCH  46  71
BRANCH  58  83
ATOM     83  C   UNL A   1      42.239  29.181  33.888  1.00  0.00     0.058 A 
ATOM     84  C   UNL A   1      42.077  27.834  33.516  1.00  0.00     0.135 A 
ATOM     85  C   UNL A   1      42.207  29.470  35.260  1.00  0.00     0.135 A 
ATOM     86  F   UNL A   1      42.191  27.449  32.238  1.00  0.00    -0.206 F 
ATOM     87  C   UNL A   1      41.857  26.828  34.463  1.00  0.00     0.059 A 
ATOM     88  C   UNL A   1      42.022  28.482  36.222  1.00  0.00     0.059 A 
ATOM     89  F   UNL A   1      42.415  30.727  35.686  1.00  0.00    -0.206 F 
ATOM     90  C   UNL A   1      41.834  27.164  35.817  1.00  0.00     0.060 A 
BRANCH  90  91
ATOM     91  S   UNL A   1      41.617  25.860  37.049  1.00  0.00     0.124 S 
ATOM     92  O   UNL A   1      40.297  26.165  37.590  1.00  0.00    -0.237 OA
ATOM     93  O   UNL A   1      41.709  24.644  36.246  1.00  0.00    -0.237 OA
ATOM     94  O   UNL A   1      42.733  26.072  37.969  1.00  0.00    -0.744 OA
ENDBRANCH  90  91
ENDBRANCH  58  83
ENDBRANCH  32  33
ENDBRANCH  24  27
ENDBRANCH  22  23
ENDBRANCH  21  22
ENDBRANCH   1  21
TORSDOF 17
ENDMDL
MODEL 3
REMARK VINA RESULT:     -11.4      3.374      8.131
REMARK SMILES N#CCSc1nnnn1-c1ccc(C(=O)NCCCNC(=O)c2ccc(-c3c4nc(c(-c5c(F)cc(S(=O)(=O)[O-])cc5F)c5ccc([nH]5)c(-c5c(F)cc(S(=O)(=O)[O-])cc5F)c5nc(c(-c6c(F)cc(S(=O)(=O)[O-])cc6F)c6ccc3[nH]6)C=C5)C=C4)cc2)cc1
REMARK SMILES IDX 17 1 16 2 14 3 15 4 13 6 10 7 11 8 90 9 12 10 89 11 9 12
REMARK SMILES IDX 5 13 6 14 7 15 8 16 4 17 3 18 2 19 1 20 18 21 19 22 20 23
REMARK SMILES IDX 21 24 22 26 23 27 24 28 88 29 25 30 87 31 26 32 27 33 28 34
REMARK SMILES IDX 81 35 29 36 86 37 80 38 82 39 30 40 85 41 79 42 78 43 31 45
REMARK SMILES IDX 65 46 44 47 64 48 45 49 48 50 63 51 83 52 46 53 47 54 62 56
REMARK SMILES IDX 84 57 49 58 32 59 33 60 42 61 34 62 35 63 41 64 43 65 36 66
REMARK SMILES IDX 37 67 38 68 39 69 40 70 66 71 67 72 76 73 68 74 69 75 75 76
REMARK SMILES IDX 77 77 70 78 71 79 72 80 73 81 74 82 50 83 51 84 60 85 52 86
REMARK SMILES IDX 53 87 59 88 61 89 54 90 55 91 56 92 57 93 58 94
REMARK H PARENT 16 5 20 25 82 44 48 55
REMARK Flexibility Score: inf
ROOT
ATOM      1  C   UNL A   1      37.800  21.718  25.362  1.00  0.00     0.118 C 
ENDROOT
BRANCH   1   2
ATOM      2  N   UNL A   1      36.606  21.536  26.178  1.00  0.00    -0.352 N 
ATOM      3  C   UNL A   1      35.310  21.974  26.023  1.00  0.00     0.251 C 
ATOM      4  O   UNL A   1      34.445  21.544  26.781  1.00  0.00    -0.269 OA
ATOM      5  H   UNL A   1      36.753  20.999  26.991  1.00  0.00     0.163 HD
BRANCH   3   6
ATOM      6  C   UNL A   1      34.911  22.866  24.906  1.00  0.00     0.039 A 
ATOM      7  C   UNL A   1      33.796  24.621  23.077  1.00  0.00     0.069 A 
ATOM      8  C   UNL A   1      34.482  25.144  24.171  1.00  0.00     0.029 A 
ATOM      9  C   UNL A   1      33.804  23.256  22.792  1.00  0.00     0.029 A 
ATOM     10  C   UNL A   1      35.036  24.253  25.092  1.00  0.00     0.016 A 
ATOM     11  C   UNL A   1      34.388  22.385  23.702  1.00  0.00     0.016 A 
BRANCH   7  12
ATOM     12  N   UNL A   1      32.959  25.446  22.324  1.00  0.00    -0.187 N 
ATOM     13  C   UNL A   1      31.801  26.087  22.727  1.00  0.00     0.215 A 
ATOM     14  N   UNL A   1      31.169  26.503  21.651  1.00  0.00    -0.101 NA
ATOM     15  N   UNL A   1      31.932  26.104  20.580  1.00  0.00    -0.022 NA
ATOM     16  N   UNL A   1      33.027  25.472  20.979  1.00  0.00    -0.039 NA
BRANCH  13  17
ATOM     17  S   UNL A   1      31.445  26.642  24.338  1.00  0.00    -0.069 SA
BRANCH  17  18
ATOM     18  C   UNL A   1      30.343  25.417  25.101  1.00  0.00     0.198 C 
BRANCH  18  19
ATOM     19  C   UNL A   1      30.974  24.631  26.239  1.00  0.00     0.074 C 
ATOM     20  N   UNL A   1      31.497  23.979  27.182  1.00  0.00    -0.197 NA
ENDBRANCH  18  19
ENDBRANCH  17  18
ENDBRANCH  13  17
ENDBRANCH   7  12
ENDBRANCH   3   6
ENDBRANCH   1   2
BRANCH   1  21
ATOM     21  C   UNL A   1      38.674  22.882  25.846  1.00  0.00     0.042 C 
BRANCH  21  22
ATOM     22  C   UNL A   1      39.765  22.434  26.798  1.00  0.00     0.118 C 
BRANCH  22  23
ATOM     23  N   UNL A   1      40.999  22.059  26.106  1.00  0.00    -0.352 N 
ATOM     24  C   UNL A   1      42.010  22.896  25.657  1.00  0.00     0.251 C 
ATOM     25  H   UNL A   1      41.127  21.098  25.941  1.00  0.00     0.163 HD
ATOM     26  O   UNL A   1      42.787  22.525  24.797  1.00  0.00    -0.269 OA
BRANCH  24  27
ATOM     27  C   UNL A   1      42.116  24.243  26.251  1.00  0.00     0.039 A 
ATOM     28  C   UNL A   1      41.495  25.357  25.677  1.00  0.00     0.014 A 
ATOM     29  C   UNL A   1      42.821  24.358  27.442  1.00  0.00     0.014 A 
ATOM     30  C   UNL A   1      41.530  26.569  26.364  1.00  0.00     0.010 A 
ATOM     31  C   UNL A   1      42.676  25.482  28.206  1.00  0.00     0.010 A 
ATOM     32  C   UNL A   1      42.109  26.617  27.642  1.00  0.00    -0.014 A 
BRANCH  32  33
ATOM     33  C   UNL A   1      42.025  27.805  28.485  1.00  0.00     0.031 A 
ATOM     34  C   UNL A   1      43.162  28.750  28.296  1.00  0.00     0.074 A 
ATOM     35  C   UNL A   1      40.887  28.130  29.143  1.00  0.00     0.049 A 
ATOM     36  N   UNL A   1      44.077  29.075  29.149  1.00  0.00    -0.248 NA
ATOM     37  C   UNL A   1      43.422  29.260  26.935  1.00  0.00     0.031 C 
ATOM     38  C   UNL A   1      39.600  27.417  29.126  1.00  0.00     0.029 A 
ATOM     39  N   UNL A   1      40.584  29.240  29.867  1.00  0.00    -0.354 N 
ATOM     40  C   UNL A   1      44.855  30.040  28.514  1.00  0.00     0.074 A 
ATOM     41  C   UNL A   1      44.565  29.925  27.111  1.00  0.00     0.031 C 
ATOM     42  C   UNL A   1      38.618  28.229  29.576  1.00  0.00     0.029 A 
ATOM     43  C   UNL A   1      39.221  29.445  30.082  1.00  0.00     0.049 A 
ATOM     44  H   UNL A   1      41.274  29.852  30.214  1.00  0.00     0.167 HD
ATOM     45  C   UNL A   1      45.436  31.048  29.224  1.00  0.00     0.037 A 
ATOM     46  C   UNL A   1      38.631  30.548  30.614  1.00  0.00     0.037 A 
ATOM     47  C   UNL A   1      45.469  30.729  30.631  1.00  0.00     0.049 A 
ATOM     48  C   UNL A   1      39.694  31.284  31.345  1.00  0.00     0.074 A 
ATOM     49  C   UNL A   1      46.000  29.698  31.382  1.00  0.00     0.029 A 
ATOM     50  N   UNL A   1      44.532  31.334  31.436  1.00  0.00    -0.354 N 
ATOM     51  N   UNL A   1      40.305  30.816  32.400  1.00  0.00    -0.248 NA
ATOM     52  C   UNL A   1      40.413  32.317  30.617  1.00  0.00     0.031 C 
ATOM     53  C   UNL A   1      45.027  29.437  32.390  1.00  0.00     0.029 A 
ATOM     54  C   UNL A   1      44.001  30.376  32.260  1.00  0.00     0.049 A 
ATOM     55  H   UNL A   1      44.288  32.288  31.423  1.00  0.00     0.167 HD
ATOM     56  C   UNL A   1      41.637  31.161  32.222  1.00  0.00     0.074 A 
ATOM     57  C   UNL A   1      41.629  32.153  31.146  1.00  0.00     0.031 C 
ATOM     58  C   UNL A   1      42.641  30.399  32.753  1.00  0.00     0.037 A 
BRANCH  45  59
ATOM     59  C   UNL A   1      45.588  32.471  28.720  1.00  0.00     0.058 A 
ATOM     60  C   UNL A   1      46.856  33.089  28.786  1.00  0.00     0.135 A 
ATOM     61  C   UNL A   1      44.509  33.343  28.446  1.00  0.00     0.135 A 
ATOM     62  F   UNL A   1      47.956  32.363  29.041  1.00  0.00    -0.206 F 
ATOM     63  C   UNL A   1      47.025  34.470  28.677  1.00  0.00     0.059 A 
ATOM     64  C   UNL A   1      44.662  34.714  28.279  1.00  0.00     0.059 A 
ATOM     65  F   UNL A   1      43.237  32.934  28.419  1.00  0.00    -0.206 F 
ATOM     66  C   UNL A   1      45.917  35.276  28.438  1.00  0.00     0.060 A 
BRANCH  66  67
ATOM     67  S   UNL A   1      46.111  37.065  28.392  1.00  0.00     0.124 S 
ATOM     68  O   UNL A   1      46.661  37.330  29.716  1.00  0.00    -0.237 OA
ATOM     69  O   UNL A   1      47.027  37.238  27.270  1.00  0.00    -0.237 OA
ATOM     70  O   UNL A   1      44.751  37.543  28.163  1.00  0.00    -0.744 OA
ENDBRANCH  66  67
ENDBRANCH  45  59
BRANCH  46  71
ATOM     71  C   UNL A   1      37.330  31.177  30.244  1.00  0.00     0.058 A 
ATOM     72  C   UNL A   1      36.485  31.741  31.218  1.00  0.00     0.135 A 
ATOM     73  C   UNL A   1      37.026  31.500  28.905  1.00  0.00     0.135 A 
ATOM     74  F   UNL A   1      36.708  31.506  32.520  1.00  0.00    -0.206 F 
ATOM     75  C   UNL A   1      35.436  32.611  30.890  1.00  0.00     0.059 A 
ATOM     76  C   UNL A   1      35.983  32.358  28.553  1.00  0.00     0.059 A 
ATOM     77  F   UNL A   1      37.796  31.062  27.898  1.00  0.00    -0.206 F 
ATOM     78  C   UNL A   1      35.206  32.932  29.554  1.00  0.00     0.060 A 
BRANCH  78  79
ATOM     79  S   UNL A   1      33.971  34.188  29.133  1.00  0.00     0.124 S 
ATOM     80  O   UNL A   1      33.111  33.466  28.201  1.00  0.00    -0.237 OA
ATOM     81  O   UNL A   1      33.384  34.492  30.434  1.00  0.00    -0.237 OA
ATOM     82  O   UNL A   1      34.765  35.262  28.546  1.00  0.00    -0.744 OA
ENDBRANCH  78  79
ENDBRANCH  46  71
BRANCH  58  83
ATOM     83  C   UNL A   1      42.282  29.363  33.792  1.00  0.00     0.058 A 
ATOM     84  C   UNL A   1      41.811  28.067  33.513  1.00  0.00     0.135 A 
ATOM     85  C   UNL A   1      42.583  29.656  35.130  1.00  0.00     0.135 A 
ATOM     86  F   UNL A   1      41.591  27.666  32.254  1.00  0.00    -0.206 F 
ATOM     87  C   UNL A   1      41.612  27.121  34.524  1.00  0.00     0.059 A 
ATOM     88  C   UNL A   1      42.425  28.720  36.148  1.00  0.00     0.059 A 
ATOM     89  F   UNL A   1      43.094  30.855  35.456  1.00  0.00    -0.206 F 
ATOM     90  C   UNL A   1      41.926  27.458  35.841  1.00  0.00     0.060 A 
BRANCH  90  91
ATOM     91  S   UNL A   1      41.737  26.219  37.141  1.00  0.00     0.124 S 
ATOM     92  O   UNL A   1      41.868  24.971  36.398  1.00  0.00    -0.237 OA
ATOM     93  O   UNL A   1      42.837  26.537  38.047  1.00  0.00    -0.237 OA
ATOM     94  O   UNL A   1      40.404  26.488  37.678  1.00  0.00    -0.744 OA
ENDBRANCH  90  91
ENDBRANCH  58  83
ENDBRANCH  32  33
ENDBRANCH  24  27
ENDBRANCH  22  23
ENDBRANCH  21  22
ENDBRANCH   1  21
TORSDOF 17
ENDMDL
