MODEL 1
REMARK VINA RESULT:     -10.9      0.000      0.000
REMARK SMILES O=C(CSc1ccnc(C(=O)NCCCNC(=O)c2ccc(-c3c4nc(c(-c5c(F)cc(S(=O)(=O)[O-])cc5F)c5ccc([nH]5)c(-c5c(F)cc(S(=O)(=O)[O-])cc5F)c5nc(c(-c6c(F)cc(S(=O)(=O)[O-])cc6F)c6ccc3[nH]6)C=C5)C=C4)cc2)c1)NCC(F)(F)F
REMARK SMILES IDX 13 1 12 2 10 3 11 4 9 6 5 7 6 8 85 9 7 10 8 11 4 12 3 13
REMARK SMILES IDX 2 14 1 15 86 16 87 18 88 19 89 20 90 21 91 22 14 23 15 24
REMARK SMILES IDX 16 25 17 26 18 28 19 29 20 30 84 31 21 32 83 33 22 34 23 35
REMARK SMILES IDX 24 36 77 37 25 38 82 39 76 40 78 41 26 42 81 43 75 44 74 45
REMARK SMILES IDX 27 47 61 48 40 49 60 50 41 51 44 52 59 53 79 54 42 55 43 56
REMARK SMILES IDX 58 58 80 59 45 60 28 61 29 62 38 63 30 64 31 65 37 66 39 67
REMARK SMILES IDX 32 68 33 69 34 70 35 71 36 72 62 73 63 74 72 75 64 76 65 77
REMARK SMILES IDX 71 78 73 79 66 80 67 81 68 82 69 83 70 84 46 85 47 86 56 87
REMARK SMILES IDX 48 88 49 89 55 90 57 91 50 92 51 93 52 94 53 95 54 96
REMARK H PARENT 12 5 86 17 16 27 78 46 44 57
REMARK Flexibility Score: inf
ROOT
ATOM      1  C   UNL A   1      41.304  21.290  26.120  1.00  0.00     0.118 C 
ENDROOT
BRANCH   1   2
ATOM      2  N   UNL A   1      41.442  19.853  26.062  1.00  0.00    -0.351 N 
ATOM      3  C   UNL A   1      42.500  19.019  25.795  1.00  0.00     0.269 C 
ATOM      4  O   UNL A   1      42.245  17.812  25.852  1.00  0.00    -0.268 OA
ATOM      5  H   UNL A   1      40.605  19.373  26.255  1.00  0.00     0.163 HD
BRANCH   3   6
ATOM      6  C   UNL A   1      43.907  19.469  25.473  1.00  0.00     0.129 A 
ATOM      7  C   UNL A   1      45.646  21.039  24.928  1.00  0.00     0.012 A 
ATOM      8  C   UNL A   1      46.546  19.979  24.857  1.00  0.00     0.035 A 
ATOM      9  C   UNL A   1      44.300  20.774  25.200  1.00  0.00     0.049 A 
ATOM     10  C   UNL A   1      46.074  18.705  25.099  1.00  0.00     0.113 A 
ATOM     11  N   UNL A   1      44.796  18.438  25.421  1.00  0.00    -0.251 NA
BRANCH   7  12
ATOM     12  S   UNL A   1      46.245  22.679  24.541  1.00  0.00    -0.116 SA
BRANCH  12  13
ATOM     13  C   UNL A   1      44.743  23.699  24.779  1.00  0.00     0.174 C 
BRANCH  13  14
ATOM     14  C   UNL A   1      44.748  24.376  26.138  1.00  0.00     0.230 C 
ATOM     15  O   UNL A   1      44.654  25.595  26.252  1.00  0.00    -0.274 OA
ATOM     16  N   UNL A   1      44.861  23.532  27.220  1.00  0.00    -0.346 N 
ATOM     17  H   UNL A   1      44.857  22.559  27.066  1.00  0.00     0.163 HD
BRANCH  16  18
ATOM     18  C   UNL A   1      44.985  24.029  28.595  1.00  0.00     0.231 C 
BRANCH  18  19
ATOM     19  C   UNL A   1      43.719  24.003  29.444  1.00  0.00     0.405 C 
ATOM     20  F   UNL A   1      43.850  23.132  30.467  1.00  0.00    -0.169 F 
ATOM     21  F   UNL A   1      43.482  25.226  29.968  1.00  0.00    -0.169 F 
ATOM     22  F   UNL A   1      42.640  23.642  28.719  1.00  0.00    -0.169 F 
ENDBRANCH  18  19
ENDBRANCH  16  18
ENDBRANCH  13  14
ENDBRANCH  12  13
ENDBRANCH   7  12
ENDBRANCH   3   6
ENDBRANCH   1   2
BRANCH   1  23
ATOM     23  C   UNL A   1      40.375  21.695  27.262  1.00  0.00     0.042 C 
BRANCH  23  24
ATOM     24  C   UNL A   1      39.775  23.093  27.133  1.00  0.00     0.118 C 
BRANCH  24  25
ATOM     25  N   UNL A   1      40.467  23.928  26.163  1.00  0.00    -0.352 N 
ATOM     26  C   UNL A   1      40.949  25.209  26.221  1.00  0.00     0.251 C 
ATOM     27  H   UNL A   1      40.619  23.486  25.296  1.00  0.00     0.163 HD
ATOM     28  O   UNL A   1      41.452  25.677  25.197  1.00  0.00    -0.269 OA
BRANCH  26  29
ATOM     29  C   UNL A   1      40.850  26.050  27.435  1.00  0.00     0.039 A 
ATOM     30  C   UNL A   1      41.818  27.044  27.615  1.00  0.00     0.014 A 
ATOM     31  C   UNL A   1      39.870  25.869  28.414  1.00  0.00     0.014 A 
ATOM     32  C   UNL A   1      41.773  27.879  28.731  1.00  0.00     0.010 A 
ATOM     33  C   UNL A   1      39.767  26.765  29.480  1.00  0.00     0.010 A 
ATOM     34  C   UNL A   1      40.722  27.775  29.655  1.00  0.00    -0.014 A 
BRANCH  34  35
ATOM     35  C   UNL A   1      40.623  28.727  30.792  1.00  0.00     0.031 A 
ATOM     36  C   UNL A   1      39.589  29.823  30.792  1.00  0.00     0.074 A 
ATOM     37  C   UNL A   1      41.486  28.610  31.820  1.00  0.00     0.049 A 
ATOM     38  N   UNL A   1      39.341  30.722  31.711  1.00  0.00    -0.248 NA
ATOM     39  C   UNL A   1      38.742  29.944  29.596  1.00  0.00     0.031 C 
ATOM     40  C   UNL A   1      42.571  27.629  31.904  1.00  0.00     0.029 A 
ATOM     41  N   UNL A   1      41.587  29.313  32.994  1.00  0.00    -0.354 N 
ATOM     42  C   UNL A   1      38.316  31.513  31.204  1.00  0.00     0.074 A 
ATOM     43  C   UNL A   1      38.033  31.030  29.870  1.00  0.00     0.031 C 
ATOM     44  C   UNL A   1      43.198  27.762  33.083  1.00  0.00     0.029 A 
ATOM     45  C   UNL A   1      42.588  28.861  33.823  1.00  0.00     0.049 A 
ATOM     46  H   UNL A   1      40.999  30.069  33.221  1.00  0.00     0.167 HD
ATOM     47  C   UNL A   1      37.652  32.530  31.805  1.00  0.00     0.037 A 
ATOM     48  C   UNL A   1      42.966  29.280  35.046  1.00  0.00     0.037 A 
ATOM     49  C   UNL A   1      37.932  32.993  33.140  1.00  0.00     0.049 A 
ATOM     50  C   UNL A   1      42.206  30.402  35.697  1.00  0.00     0.074 A 
ATOM     51  C   UNL A   1      37.282  33.979  33.864  1.00  0.00     0.029 A 
ATOM     52  N   UNL A   1      38.947  32.508  33.953  1.00  0.00    -0.354 N 
ATOM     53  N   UNL A   1      41.188  31.090  35.231  1.00  0.00    -0.248 NA
ATOM     54  C   UNL A   1      42.635  30.797  37.044  1.00  0.00     0.031 C 
ATOM     55  C   UNL A   1      37.939  34.126  35.092  1.00  0.00     0.029 A 
ATOM     56  C   UNL A   1      38.960  33.190  35.159  1.00  0.00     0.049 A 
ATOM     57  H   UNL A   1      39.568  31.784  33.707  1.00  0.00     0.167 HD
ATOM     58  C   UNL A   1      40.842  31.984  36.238  1.00  0.00     0.074 A 
ATOM     59  C   UNL A   1      41.741  31.729  37.346  1.00  0.00     0.031 C 
ATOM     60  C   UNL A   1      39.872  32.934  36.246  1.00  0.00     0.037 A 
BRANCH  47  61
ATOM     61  C   UNL A   1      36.555  33.208  31.025  1.00  0.00     0.058 A 
ATOM     62  C   UNL A   1      35.198  33.004  31.327  1.00  0.00     0.135 A 
ATOM     63  C   UNL A   1      36.863  34.101  29.985  1.00  0.00     0.135 A 
ATOM     64  F   UNL A   1      34.842  32.150  32.299  1.00  0.00    -0.206 F 
ATOM     65  C   UNL A   1      34.188  33.635  30.606  1.00  0.00     0.059 A 
ATOM     66  C   UNL A   1      35.870  34.767  29.273  1.00  0.00     0.059 A 
ATOM     67  F   UNL A   1      38.142  34.335  29.651  1.00  0.00    -0.206 F 
ATOM     68  C   UNL A   1      34.534  34.518  29.582  1.00  0.00     0.060 A 
BRANCH  68  69
ATOM     69  S   UNL A   1      33.210  35.334  28.666  1.00  0.00     0.124 S 
ATOM     70  O   UNL A   1      32.544  34.196  28.040  1.00  0.00    -0.237 OA
ATOM     71  O   UNL A   1      32.461  36.000  29.728  1.00  0.00    -0.237 OA
ATOM     72  O   UNL A   1      33.924  36.221  27.754  1.00  0.00    -0.744 OA
ENDBRANCH  68  69
ENDBRANCH  47  61
BRANCH  48  73
ATOM     73  C   UNL A   1      44.101  28.614  35.743  1.00  0.00     0.058 A 
ATOM     74  C   UNL A   1      43.884  27.544  36.624  1.00  0.00     0.135 A 
ATOM     75  C   UNL A   1      45.426  29.027  35.531  1.00  0.00     0.135 A 
ATOM     76  F   UNL A   1      42.635  27.115  36.863  1.00  0.00    -0.206 F 
ATOM     77  C   UNL A   1      44.936  26.920  37.287  1.00  0.00     0.059 A 
ATOM     78  C   UNL A   1      46.497  28.400  36.160  1.00  0.00     0.059 A 
ATOM     79  F   UNL A   1      45.691  30.033  34.683  1.00  0.00    -0.206 F 
ATOM     80  C   UNL A   1      46.241  27.354  37.046  1.00  0.00     0.060 A 
BRANCH  80  81
ATOM     81  S   UNL A   1      47.603  26.508  37.876  1.00  0.00     0.124 S 
ATOM     82  O   UNL A   1      46.970  25.259  38.282  1.00  0.00    -0.237 OA
ATOM     83  O   UNL A   1      48.594  26.405  36.809  1.00  0.00    -0.237 OA
ATOM     84  O   UNL A   1      47.955  27.421  38.960  1.00  0.00    -0.744 OA
ENDBRANCH  80  81
ENDBRANCH  48  73
BRANCH  60  85
ATOM     85  C   UNL A   1      39.728  33.749  37.504  1.00  0.00     0.058 A 
ATOM     86  C   UNL A   1      38.897  33.340  38.559  1.00  0.00     0.135 A 
ATOM     87  C   UNL A   1      40.429  34.956  37.655  1.00  0.00     0.135 A 
ATOM     88  F   UNL A   1      38.203  32.194  38.467  1.00  0.00    -0.206 F 
ATOM     89  C   UNL A   1      38.722  34.125  39.694  1.00  0.00     0.059 A 
ATOM     90  C   UNL A   1      40.297  35.741  38.797  1.00  0.00     0.059 A 
ATOM     91  F   UNL A   1      41.253  35.388  36.685  1.00  0.00    -0.206 F 
ATOM     92  C   UNL A   1      39.421  35.328  39.800  1.00  0.00     0.060 A 
BRANCH  92  93
ATOM     93  S   UNL A   1      39.169  36.350  41.266  1.00  0.00     0.124 S 
ATOM     94  O   UNL A   1      38.908  37.656  40.671  1.00  0.00    -0.237 OA
ATOM     95  O   UNL A   1      38.027  35.703  41.903  1.00  0.00    -0.237 OA
ATOM     96  O   UNL A   1      40.433  36.228  41.986  1.00  0.00    -0.744 OA
ENDBRANCH  92  93
ENDBRANCH  60  85
ENDBRANCH  34  35
ENDBRANCH  26  29
ENDBRANCH  24  25
ENDBRANCH  23  24
ENDBRANCH   1  23
TORSDOF 18
ENDMDL
MODEL 2
REMARK VINA RESULT:     -10.7      1.771      8.799
REMARK SMILES O=C(CSc1ccnc(C(=O)NCCCNC(=O)c2ccc(-c3c4nc(c(-c5c(F)cc(S(=O)(=O)[O-])cc5F)c5ccc([nH]5)c(-c5c(F)cc(S(=O)(=O)[O-])cc5F)c5nc(c(-c6c(F)cc(S(=O)(=O)[O-])cc6F)c6ccc3[nH]6)C=C5)C=C4)cc2)c1)NCC(F)(F)F
REMARK SMILES IDX 13 1 12 2 10 3 11 4 9 6 5 7 6 8 85 9 7 10 8 11 4 12 3 13
REMARK SMILES IDX 2 14 1 15 86 16 87 18 88 19 89 20 90 21 91 22 14 23 15 24
REMARK SMILES IDX 16 25 17 26 18 28 19 29 20 30 84 31 21 32 83 33 22 34 23 35
REMARK SMILES IDX 24 36 77 37 25 38 82 39 76 40 78 41 26 42 81 43 75 44 74 45
REMARK SMILES IDX 27 47 61 48 40 49 60 50 41 51 44 52 59 53 79 54 42 55 43 56
REMARK SMILES IDX 58 58 80 59 45 60 28 61 29 62 38 63 30 64 31 65 37 66 39 67
REMARK SMILES IDX 32 68 33 69 34 70 35 71 36 72 62 73 63 74 72 75 64 76 65 77
REMARK SMILES IDX 71 78 73 79 66 80 67 81 68 82 69 83 70 84 46 85 47 86 56 87
REMARK SMILES IDX 48 88 49 89 55 90 57 91 50 92 51 93 52 94 53 95 54 96
REMARK H PARENT 12 5 86 17 16 27 78 46 44 57
REMARK Flexibility Score: inf
ROOT
ATOM      1  C   UNL A   1      42.610  22.017  27.810  1.00  0.00     0.118 C 
ENDROOT
BRANCH   1   2
ATOM      2  N   UNL A   1      42.993  22.316  29.170  1.00  0.00    -0.351 N 
ATOM      3  C   UNL A   1      43.754  23.310  29.737  1.00  0.00     0.269 C 
ATOM      4  O   UNL A   1      43.856  23.257  30.966  1.00  0.00    -0.268 OA
ATOM      5  H   UNL A   1      42.634  21.677  29.827  1.00  0.00     0.163 HD
BRANCH   3   6
ATOM      6  C   UNL A   1      44.425  24.434  28.981  1.00  0.00     0.129 A 
ATOM      7  C   UNL A   1      45.337  25.560  27.060  1.00  0.00     0.012 A 
ATOM      8  C   UNL A   1      45.717  26.612  27.889  1.00  0.00     0.035 A 
ATOM      9  C   UNL A   1      44.718  24.438  27.622  1.00  0.00     0.049 A 
ATOM     10  C   UNL A   1      45.430  26.518  29.235  1.00  0.00     0.113 A 
ATOM     11  N   UNL A   1      44.784  25.475  29.784  1.00  0.00    -0.251 NA
BRANCH   7  12
ATOM     12  S   UNL A   1      45.776  25.650  25.328  1.00  0.00    -0.116 SA
BRANCH  12  13
ATOM     13  C   UNL A   1      46.759  24.121  25.105  1.00  0.00     0.174 C 
BRANCH  13  14
ATOM     14  C   UNL A   1      45.897  22.984  24.588  1.00  0.00     0.230 C 
ATOM     15  O   UNL A   1      45.283  23.070  23.528  1.00  0.00    -0.274 OA
ATOM     16  N   UNL A   1      45.855  21.861  25.384  1.00  0.00    -0.346 N 
ATOM     17  H   UNL A   1      46.428  21.827  26.186  1.00  0.00     0.163 HD
BRANCH  16  18
ATOM     18  C   UNL A   1      44.990  20.715  25.084  1.00  0.00     0.231 C 
BRANCH  18  19
ATOM     19  C   UNL A   1      45.687  19.377  24.868  1.00  0.00     0.405 C 
ATOM     20  F   UNL A   1      45.149  18.427  25.664  1.00  0.00    -0.169 F 
ATOM     21  F   UNL A   1      45.541  18.975  23.586  1.00  0.00    -0.169 F 
ATOM     22  F   UNL A   1      47.007  19.453  25.136  1.00  0.00    -0.169 F 
ENDBRANCH  18  19
ENDBRANCH  16  18
ENDBRANCH  13  14
ENDBRANCH  12  13
ENDBRANCH   7  12
ENDBRANCH   3   6
ENDBRANCH   1   2
BRANCH   1  23
ATOM     23  C   UNL A   1      41.096  21.848  27.703  1.00  0.00     0.042 C 
BRANCH  23  24
ATOM     24  C   UNL A   1      40.350  23.076  27.189  1.00  0.00     0.118 C 
BRANCH  24  25
ATOM     25  N   UNL A   1      41.084  23.808  26.168  1.00  0.00    -0.352 N 
ATOM     26  C   UNL A   1      41.529  25.102  26.097  1.00  0.00     0.251 C 
ATOM     27  H   UNL A   1      41.303  23.268  25.374  1.00  0.00     0.163 HD
ATOM     28  O   UNL A   1      42.087  25.457  25.055  1.00  0.00    -0.269 OA
BRANCH  26  29
ATOM     29  C   UNL A   1      41.328  26.082  27.188  1.00  0.00     0.039 A 
ATOM     30  C   UNL A   1      40.283  25.843  28.088  1.00  0.00     0.014 A 
ATOM     31  C   UNL A   1      42.099  27.237  27.330  1.00  0.00     0.014 A 
ATOM     32  C   UNL A   1      40.050  26.722  29.146  1.00  0.00     0.010 A 
ATOM     33  C   UNL A   1      41.929  28.064  28.442  1.00  0.00     0.010 A 
ATOM     34  C   UNL A   1      40.897  27.820  29.359  1.00  0.00    -0.014 A 
BRANCH  34  35
ATOM     35  C   UNL A   1      40.705  28.700  30.541  1.00  0.00     0.031 A 
ATOM     36  C   UNL A   1      41.565  28.543  31.767  1.00  0.00     0.074 A 
ATOM     37  C   UNL A   1      39.734  29.635  30.509  1.00  0.00     0.049 A 
ATOM     38  N   UNL A   1      41.556  29.240  32.875  1.00  0.00    -0.248 NA
ATOM     39  C   UNL A   1      42.542  27.444  31.763  1.00  0.00     0.031 C 
ATOM     40  C   UNL A   1      38.796  29.841  29.402  1.00  0.00     0.029 A 
ATOM     41  N   UNL A   1      39.375  30.590  31.426  1.00  0.00    -0.354 N 
ATOM     42  C   UNL A   1      42.519  28.665  33.696  1.00  0.00     0.074 A 
ATOM     43  C   UNL A   1      43.047  27.520  32.986  1.00  0.00     0.031 C 
ATOM     44  C   UNL A   1      38.002  30.885  29.684  1.00  0.00     0.029 A 
ATOM     45  C   UNL A   1      38.345  31.398  31.006  1.00  0.00     0.049 A 
ATOM     46  H   UNL A   1      39.815  30.688  32.301  1.00  0.00     0.167 HD
ATOM     47  C   UNL A   1      42.945  29.068  34.918  1.00  0.00     0.037 A 
ATOM     48  C   UNL A   1      37.747  32.441  31.614  1.00  0.00     0.037 A 
ATOM     49  C   UNL A   1      42.423  30.219  35.609  1.00  0.00     0.049 A 
ATOM     50  C   UNL A   1      38.247  32.878  32.964  1.00  0.00     0.074 A 
ATOM     51  C   UNL A   1      42.822  30.749  36.825  1.00  0.00     0.029 A 
ATOM     52  N   UNL A   1      41.384  31.018  35.152  1.00  0.00    -0.354 N 
ATOM     53  N   UNL A   1      39.211  32.366  33.693  1.00  0.00    -0.248 NA
ATOM     54  C   UNL A   1      37.586  34.041  33.567  1.00  0.00     0.031 C 
ATOM     55  C   UNL A   1      41.990  31.833  37.126  1.00  0.00     0.029 A 
ATOM     56  C   UNL A   1      41.111  32.019  36.070  1.00  0.00     0.049 A 
ATOM     57  H   UNL A   1      40.910  30.891  34.297  1.00  0.00     0.167 HD
ATOM     58  C   UNL A   1      39.287  33.160  34.832  1.00  0.00     0.074 A 
ATOM     59  C   UNL A   1      38.290  34.201  34.680  1.00  0.00     0.031 C 
ATOM     60  C   UNL A   1      40.104  33.038  35.910  1.00  0.00     0.037 A 
BRANCH  47  61
ATOM     61  C   UNL A   1      44.032  28.263  35.582  1.00  0.00     0.058 A 
ATOM     62  C   UNL A   1      45.393  28.512  35.335  1.00  0.00     0.135 A 
ATOM     63  C   UNL A   1      43.713  27.254  36.504  1.00  0.00     0.135 A 
ATOM     64  F   UNL A   1      45.759  29.454  34.451  1.00  0.00    -0.206 F 
ATOM     65  C   UNL A   1      46.395  27.769  35.953  1.00  0.00     0.059 A 
ATOM     66  C   UNL A   1      44.699  26.520  37.158  1.00  0.00     0.059 A 
ATOM     67  F   UNL A   1      42.430  26.971  36.781  1.00  0.00    -0.206 F 
ATOM     68  C   UNL A   1      46.037  26.776  36.866  1.00  0.00     0.060 A 
BRANCH  68  69
ATOM     69  S   UNL A   1      47.350  25.830  37.665  1.00  0.00     0.124 S 
ATOM     70  O   UNL A   1      48.060  26.876  38.396  1.00  0.00    -0.237 OA
ATOM     71  O   UNL A   1      46.598  24.884  38.484  1.00  0.00    -0.237 OA
ATOM     72  O   UNL A   1      48.079  25.244  36.544  1.00  0.00    -0.744 OA
ENDBRANCH  68  69
ENDBRANCH  47  61
BRANCH  48  73
ATOM     73  C   UNL A   1      36.633  33.159  30.937  1.00  0.00     0.058 A 
ATOM     74  C   UNL A   1      36.874  34.012  29.849  1.00  0.00     0.135 A 
ATOM     75  C   UNL A   1      35.303  32.997  31.356  1.00  0.00     0.135 A 
ATOM     76  F   UNL A   1      38.128  34.204  29.412  1.00  0.00    -0.206 F 
ATOM     77  C   UNL A   1      35.841  34.695  29.214  1.00  0.00     0.059 A 
ATOM     78  C   UNL A   1      34.251  33.646  30.719  1.00  0.00     0.059 A 
ATOM     79  F   UNL A   1      35.015  32.178  32.380  1.00  0.00    -0.206 F 
ATOM     80  C   UNL A   1      34.531  34.503  29.656  1.00  0.00     0.060 A 
BRANCH  80  81
ATOM     81  S   UNL A   1      33.192  35.357  28.796  1.00  0.00     0.124 S 
ATOM     82  O   UNL A   1      32.430  35.906  29.910  1.00  0.00    -0.237 OA
ATOM     83  O   UNL A   1      33.921  36.324  27.981  1.00  0.00    -0.237 OA
ATOM     84  O   UNL A   1      32.537  34.287  28.048  1.00  0.00    -0.744 OA
ENDBRANCH  80  81
ENDBRANCH  48  73
BRANCH  60  85
ATOM     85  C   UNL A   1      39.958  34.073  36.994  1.00  0.00     0.058 A 
ATOM     86  C   UNL A   1      39.069  33.900  38.067  1.00  0.00     0.135 A 
ATOM     87  C   UNL A   1      40.717  35.254  36.958  1.00  0.00     0.135 A 
ATOM     88  F   UNL A   1      38.318  32.790  38.149  1.00  0.00    -0.206 F 
ATOM     89  C   UNL A   1      38.895  34.884  39.034  1.00  0.00     0.059 A 
ATOM     90  C   UNL A   1      40.586  36.237  37.935  1.00  0.00     0.059 A 
ATOM     91  F   UNL A   1      41.597  35.465  35.965  1.00  0.00    -0.206 F 
ATOM     92  C   UNL A   1      39.654  36.053  38.955  1.00  0.00     0.060 A 
BRANCH  92  93
ATOM     93  S   UNL A   1      39.404  37.333  40.202  1.00  0.00     0.124 S 
ATOM     94  O   UNL A   1      38.835  36.563  41.303  1.00  0.00    -0.237 OA
ATOM     95  O   UNL A   1      40.759  37.834  40.411  1.00  0.00    -0.237 OA
ATOM     96  O   UNL A   1      38.491  38.268  39.551  1.00  0.00    -0.744 OA
ENDBRANCH  92  93
ENDBRANCH  60  85
ENDBRANCH  34  35
ENDBRANCH  26  29
ENDBRANCH  24  25
ENDBRANCH  23  24
ENDBRANCH   1  23
TORSDOF 18
ENDMDL
MODEL 3
REMARK VINA RESULT:     -10.6      6.145     11.789
REMARK SMILES O=C(CSc1ccnc(C(=O)NCCCNC(=O)c2ccc(-c3c4nc(c(-c5c(F)cc(S(=O)(=O)[O-])cc5F)c5ccc([nH]5)c(-c5c(F)cc(S(=O)(=O)[O-])cc5F)c5nc(c(-c6c(F)cc(S(=O)(=O)[O-])cc6F)c6ccc3[nH]6)C=C5)C=C4)cc2)c1)NCC(F)(F)F
REMARK SMILES IDX 13 1 12 2 10 3 11 4 9 6 5 7 6 8 85 9 7 10 8 11 4 12 3 13
REMARK SMILES IDX 2 14 1 15 86 16 87 18 88 19 89 20 90 21 91 22 14 23 15 24
REMARK SMILES IDX 16 25 17 26 18 28 19 29 20 30 84 31 21 32 83 33 22 34 23 35
REMARK SMILES IDX 24 36 77 37 25 38 82 39 76 40 78 41 26 42 81 43 75 44 74 45
REMARK SMILES IDX 27 47 61 48 40 49 60 50 41 51 44 52 59 53 79 54 42 55 43 56
REMARK SMILES IDX 58 58 80 59 45 60 28 61 29 62 38 63 30 64 31 65 37 66 39 67
REMARK SMILES IDX 32 68 33 69 34 70 35 71 36 72 62 73 63 74 72 75 64 76 65 77
REMARK SMILES IDX 71 78 73 79 66 80 67 81 68 82 69 83 70 84 46 85 47 86 56 87
REMARK SMILES IDX 48 88 49 89 55 90 57 91 50 92 51 93 52 94 53 95 54 96
REMARK H PARENT 12 5 86 17 16 27 78 46 44 57
REMARK Flexibility Score: inf
ROOT
ATOM      1  C   UNL A   1      32.976  28.497  24.704  1.00  0.00     0.118 C 
ENDROOT
BRANCH   1   2
ATOM      2  N   UNL A   1      33.436  28.210  23.365  1.00  0.00    -0.351 N 
ATOM      3  C   UNL A   1      33.440  27.072  22.595  1.00  0.00     0.269 C 
ATOM      4  O   UNL A   1      33.910  27.207  21.461  1.00  0.00    -0.268 OA
ATOM      5  H   UNL A   1      33.825  28.991  22.909  1.00  0.00     0.163 HD
BRANCH   3   6
ATOM      6  C   UNL A   1      32.901  25.726  23.023  1.00  0.00     0.129 A 
ATOM      7  C   UNL A   1      33.019  23.467  23.840  1.00  0.00     0.012 A 
ATOM      8  C   UNL A   1      31.640  23.363  23.678  1.00  0.00     0.035 A 
ATOM      9  C   UNL A   1      33.663  24.652  23.469  1.00  0.00     0.049 A 
ATOM     10  C   UNL A   1      30.957  24.457  23.190  1.00  0.00     0.113 A 
ATOM     11  N   UNL A   1      31.550  25.624  22.883  1.00  0.00    -0.251 NA
BRANCH   7  12
ATOM     12  S   UNL A   1      33.912  22.022  24.403  1.00  0.00    -0.116 SA
BRANCH  12  13
ATOM     13  C   UNL A   1      32.566  20.986  25.088  1.00  0.00     0.174 C 
BRANCH  13  14
ATOM     14  C   UNL A   1      32.665  19.556  24.588  1.00  0.00     0.230 C 
ATOM     15  O   UNL A   1      32.303  19.242  23.457  1.00  0.00    -0.274 OA
ATOM     16  N   UNL A   1      33.185  18.649  25.483  1.00  0.00    -0.346 N 
ATOM     17  H   UNL A   1      33.525  18.977  26.348  1.00  0.00     0.163 HD
BRANCH  16  18
ATOM     18  C   UNL A   1      33.253  17.211  25.197  1.00  0.00     0.231 C 
BRANCH  18  19
ATOM     19  C   UNL A   1      34.515  16.717  24.500  1.00  0.00     0.405 C 
ATOM     20  F   UNL A   1      35.411  17.719  24.373  1.00  0.00    -0.169 F 
ATOM     21  F   UNL A   1      35.094  15.732  25.224  1.00  0.00    -0.169 F 
ATOM     22  F   UNL A   1      34.248  16.231  23.270  1.00  0.00    -0.169 F 
ENDBRANCH  18  19
ENDBRANCH  16  18
ENDBRANCH  13  14
ENDBRANCH  12  13
ENDBRANCH   7  12
ENDBRANCH   3   6
ENDBRANCH   1   2
BRANCH   1  23
ATOM     23  C   UNL A   1      33.921  27.888  25.738  1.00  0.00     0.042 C 
BRANCH  23  24
ATOM     24  C   UNL A   1      33.527  28.140  27.191  1.00  0.00     0.118 C 
BRANCH  24  25
ATOM     25  N   UNL A   1      33.464  29.553  27.532  1.00  0.00    -0.352 N 
ATOM     26  C   UNL A   1      34.394  30.428  28.028  1.00  0.00     0.251 C 
ATOM     27  H   UNL A   1      32.580  29.959  27.375  1.00  0.00     0.163 HD
ATOM     28  O   UNL A   1      34.022  31.578  28.273  1.00  0.00    -0.269 OA
BRANCH  26  29
ATOM     29  C   UNL A   1      35.792  30.036  28.315  1.00  0.00     0.039 A 
ATOM     30  C   UNL A   1      36.716  30.119  27.267  1.00  0.00     0.014 A 
ATOM     31  C   UNL A   1      36.213  29.556  29.558  1.00  0.00     0.014 A 
ATOM     32  C   UNL A   1      38.052  29.776  27.477  1.00  0.00     0.010 A 
ATOM     33  C   UNL A   1      37.565  29.307  29.794  1.00  0.00     0.010 A 
ATOM     34  C   UNL A   1      38.500  29.406  28.754  1.00  0.00    -0.014 A 
BRANCH  34  35
ATOM     35  C   UNL A   1      39.940  29.135  28.997  1.00  0.00     0.031 A 
ATOM     36  C   UNL A   1      40.543  27.799  28.651  1.00  0.00     0.074 A 
ATOM     37  C   UNL A   1      40.703  30.099  29.550  1.00  0.00     0.049 A 
ATOM     38  N   UNL A   1      41.784  27.399  28.767  1.00  0.00    -0.248 NA
ATOM     39  C   UNL A   1      39.631  26.767  28.134  1.00  0.00     0.031 C 
ATOM     40  C   UNL A   1      40.219  31.413  29.986  1.00  0.00     0.029 A 
ATOM     41  N   UNL A   1      42.044  30.132  29.837  1.00  0.00    -0.354 N 
ATOM     42  C   UNL A   1      41.801  26.076  28.342  1.00  0.00     0.074 A 
ATOM     43  C   UNL A   1      40.434  25.717  28.029  1.00  0.00     0.031 C 
ATOM     44  C   UNL A   1      41.253  32.136  30.441  1.00  0.00     0.029 A 
ATOM     45  C   UNL A   1      42.466  31.328  30.368  1.00  0.00     0.049 A 
ATOM     46  H   UNL A   1      42.647  29.370  29.678  1.00  0.00     0.167 HD
ATOM     47  C   UNL A   1      42.860  25.242  28.200  1.00  0.00     0.037 A 
ATOM     48  C   UNL A   1      43.693  31.733  30.746  1.00  0.00     0.037 A 
ATOM     49  C   UNL A   1      44.219  25.614  28.501  1.00  0.00     0.049 A 
ATOM     50  C   UNL A   1      44.855  30.795  30.566  1.00  0.00     0.074 A 
ATOM     51  C   UNL A   1      45.373  24.865  28.340  1.00  0.00     0.029 A 
ATOM     52  N   UNL A   1      44.610  26.836  29.030  1.00  0.00    -0.354 N 
ATOM     53  N   UNL A   1      44.862  29.571  30.091  1.00  0.00    -0.248 NA
ATOM     54  C   UNL A   1      46.177  31.297  30.959  1.00  0.00     0.031 C 
ATOM     55  C   UNL A   1      46.453  25.615  28.821  1.00  0.00     0.029 A 
ATOM     56  C   UNL A   1      45.982  26.854  29.226  1.00  0.00     0.049 A 
ATOM     57  H   UNL A   1      44.001  27.582  29.237  1.00  0.00     0.167 HD
ATOM     58  C   UNL A   1      46.192  29.165  30.110  1.00  0.00     0.074 A 
ATOM     59  C   UNL A   1      46.961  30.285  30.615  1.00  0.00     0.031 C 
ATOM     60  C   UNL A   1      46.730  27.973  29.746  1.00  0.00     0.037 A 
BRANCH  47  61
ATOM     61  C   UNL A   1      42.592  23.849  27.693  1.00  0.00     0.058 A 
ATOM     62  C   UNL A   1      42.431  22.761  28.568  1.00  0.00     0.135 A 
ATOM     63  C   UNL A   1      42.457  23.602  26.317  1.00  0.00     0.135 A 
ATOM     64  F   UNL A   1      42.565  22.933  29.893  1.00  0.00    -0.206 F 
ATOM     65  C   UNL A   1      42.180  21.476  28.096  1.00  0.00     0.059 A 
ATOM     66  C   UNL A   1      42.174  22.331  25.825  1.00  0.00     0.059 A 
ATOM     67  F   UNL A   1      42.600  24.602  25.433  1.00  0.00    -0.206 F 
ATOM     68  C   UNL A   1      42.050  21.271  26.722  1.00  0.00     0.060 A 
BRANCH  68  69
ATOM     69  S   UNL A   1      41.713  19.600  26.129  1.00  0.00     0.124 S 
ATOM     70  O   UNL A   1      42.604  19.514  24.976  1.00  0.00    -0.237 OA
ATOM     71  O   UNL A   1      42.085  18.781  27.278  1.00  0.00    -0.237 OA
ATOM     72  O   UNL A   1      40.287  19.630  25.818  1.00  0.00    -0.744 OA
ENDBRANCH  68  69
ENDBRANCH  47  61
BRANCH  48  73
ATOM     73  C   UNL A   1      43.888  33.100  31.302  1.00  0.00     0.058 A 
ATOM     74  C   UNL A   1      43.780  33.346  32.679  1.00  0.00     0.135 A 
ATOM     75  C   UNL A   1      44.199  34.186  30.469  1.00  0.00     0.135 A 
ATOM     76  F   UNL A   1      43.481  32.342  33.518  1.00  0.00    -0.206 F 
ATOM     77  C   UNL A   1      43.952  34.621  33.209  1.00  0.00     0.059 A 
ATOM     78  C   UNL A   1      44.404  35.464  30.977  1.00  0.00     0.059 A 
ATOM     79  F   UNL A   1      44.333  34.002  29.145  1.00  0.00    -0.206 F 
ATOM     80  C   UNL A   1      44.267  35.675  32.348  1.00  0.00     0.060 A 
BRANCH  80  81
ATOM     81  S   UNL A   1      44.533  37.317  33.050  1.00  0.00     0.124 S 
ATOM     82  O   UNL A   1      45.756  37.114  33.818  1.00  0.00    -0.237 OA
ATOM     83  O   UNL A   1      44.658  38.144  31.854  1.00  0.00    -0.237 OA
ATOM     84  O   UNL A   1      43.324  37.546  33.837  1.00  0.00    -0.744 OA
ENDBRANCH  80  81
ENDBRANCH  48  73
BRANCH  60  85
ATOM     85  C   UNL A   1      48.224  27.835  29.867  1.00  0.00     0.058 A 
ATOM     86  C   UNL A   1      48.830  27.347  31.036  1.00  0.00     0.135 A 
ATOM     87  C   UNL A   1      49.062  28.200  28.800  1.00  0.00     0.135 A 
ATOM     88  F   UNL A   1      48.076  26.985  32.086  1.00  0.00    -0.206 F 
ATOM     89  C   UNL A   1      50.213  27.277  31.164  1.00  0.00     0.059 A 
ATOM     90  C   UNL A   1      50.447  28.105  28.893  1.00  0.00     0.059 A 
ATOM     91  F   UNL A   1      48.537  28.657  27.651  1.00  0.00    -0.206 F 
ATOM     92  C   UNL A   1      51.014  27.666  30.089  1.00  0.00     0.060 A 
BRANCH  92  93
ATOM     93  S   UNL A   1      52.808  27.593  30.274  1.00  0.00     0.124 S 
ATOM     94  O   UNL A   1      52.983  26.300  30.927  1.00  0.00    -0.237 OA
ATOM     95  O   UNL A   1      53.267  27.674  28.892  1.00  0.00    -0.237 OA
ATOM     96  O   UNL A   1      53.111  28.760  31.098  1.00  0.00    -0.744 OA
ENDBRANCH  92  93
ENDBRANCH  60  85
ENDBRANCH  34  35
ENDBRANCH  26  29
ENDBRANCH  24  25
ENDBRANCH  23  24
ENDBRANCH   1  23
TORSDOF 18
ENDMDL
