MODEL 1
REMARK VINA RESULT:     -13.2      0.000      0.000
REMARK SMILES O=C1C[C@H](C(=O)NCCCNC(=O)c2ccc(-c3c4nc(c(-c5c(F)cc(S(=O)(=O)[O-])cc5F)c5ccc([nH]5)c(-c5c(F)cc(S(=O)(=O)[O-])cc5F)c5nc(c(-c6c(F)cc(S(=O)(=O)[O-])cc6F)c6ccc3[nH]6)C=C5)C=C4)cc2)c2c(nc(Nc3ccc(Oc4ccccc4)cc3)[nH]c2=O)N1
REMARK SMILES IDX 8 1 7 2 5 3 6 4 4 6 1 7 2 8 3 9 101 10 81 11 80 13 82 14
REMARK SMILES IDX 99 15 83 16 98 17 100 18 84 20 85 22 86 23 97 24 87 25 96 26
REMARK SMILES IDX 88 27 89 28 90 29 91 30 95 31 92 32 94 33 93 34 9 35 10 36
REMARK SMILES IDX 11 37 12 38 13 40 14 41 15 42 79 43 16 44 78 45 17 46 18 47
REMARK SMILES IDX 19 48 72 49 20 50 77 51 71 52 73 53 21 54 76 55 70 56 69 57
REMARK SMILES IDX 22 59 56 60 35 61 55 62 36 63 39 64 54 65 74 66 37 67 38 68
REMARK SMILES IDX 53 70 75 71 40 72 23 73 24 74 33 75 25 76 26 77 32 78 34 79
REMARK SMILES IDX 27 80 28 81 29 82 30 83 31 84 57 85 58 86 67 87 59 88 60 89
REMARK SMILES IDX 66 90 68 91 61 92 62 93 63 94 64 95 65 96 41 97 42 98 51 99
REMARK SMILES IDX 43 100 44 101 50 102 52 103 45 104 46 105 47 106 48 107
REMARK SMILES IDX 49 108
REMARK H PARENT 7 5 101 12 98 19 84 21 11 39 73 58 39 69
REMARK Flexibility Score: inf
ROOT
ATOM      1  C   UNL A   1      45.496  22.823  27.145  1.00  0.00     0.117 C 
ENDROOT
BRANCH   1   2
ATOM      2  N   UNL A   1      46.048  23.305  25.888  1.00  0.00    -0.355 N 
ATOM      3  C   UNL A   1      46.129  22.734  24.655  1.00  0.00     0.228 C 
ATOM      4  O   UNL A   1      46.778  23.332  23.793  1.00  0.00    -0.274 OA
ATOM      5  H   UNL A   1      46.433  24.209  25.938  1.00  0.00     0.163 HD
BRANCH   3   6
ATOM      6  C   UNL A   1      45.495  21.378  24.344  1.00  0.00     0.127 C 
ATOM      7  O   UNL A   1      46.389  17.963  25.443  1.00  0.00    -0.275 OA
ATOM      8  C   UNL A   1      45.783  19.026  25.327  1.00  0.00     0.226 C 
ATOM      9  C   UNL A   1      46.451  20.264  24.782  1.00  0.00     0.119 C 
ATOM     10  N   UNL A   1      44.499  19.148  25.762  1.00  0.00    -0.310 N 
ATOM     11  C   UNL A   1      43.691  20.225  25.596  1.00  0.00     0.146 A 
ATOM     12  H   UNL A   1      44.119  18.379  26.244  1.00  0.00     0.171 HD
ATOM     13  C   UNL A   1      44.110  21.284  24.901  1.00  0.00     0.073 A 
ATOM     14  N   UNL A   1      42.476  20.103  26.184  1.00  0.00    -0.196 NA
ATOM     15  C   UNL A   1      43.134  22.373  24.730  1.00  0.00     0.258 A 
ATOM     16  C   UNL A   1      41.627  21.078  26.077  1.00  0.00     0.209 A 
ATOM     17  N   UNL A   1      41.939  22.202  25.367  1.00  0.00    -0.292 N 
ATOM     18  O   UNL A   1      43.360  23.374  24.060  1.00  0.00    -0.269 OA
ATOM     19  H   UNL A   1      41.271  22.921  25.311  1.00  0.00     0.173 HD
BRANCH  16  20
ATOM     20  N   UNL A   1      40.372  21.037  26.627  1.00  0.00    -0.326 N 
ATOM     21  H   UNL A   1      40.187  20.372  27.330  1.00  0.00     0.170 HD
BRANCH  20  22
ATOM     22  C   UNL A   1      39.339  21.900  26.229  1.00  0.00     0.041 A 
ATOM     23  C   UNL A   1      38.330  21.442  25.376  1.00  0.00     0.030 A 
ATOM     24  C   UNL A   1      39.220  23.178  26.788  1.00  0.00     0.030 A 
ATOM     25  C   UNL A   1      37.215  22.243  25.105  1.00  0.00     0.049 A 
ATOM     26  C   UNL A   1      38.117  23.984  26.508  1.00  0.00     0.049 A 
ATOM     27  C   UNL A   1      37.106  23.518  25.665  1.00  0.00     0.127 A 
BRANCH  27  28
ATOM     28  O   UNL A   1      35.950  24.210  25.361  1.00  0.00    -0.457 OA
BRANCH  28  29
ATOM     29  C   UNL A   1      34.791  23.773  25.952  1.00  0.00     0.127 A 
ATOM     30  C   UNL A   1      34.869  22.820  26.968  1.00  0.00     0.047 A 
ATOM     31  C   UNL A   1      33.557  24.279  25.539  1.00  0.00     0.047 A 
ATOM     32  C   UNL A   1      33.704  22.417  27.619  1.00  0.00     0.004 A 
ATOM     33  C   UNL A   1      32.396  23.877  26.196  1.00  0.00     0.004 A 
ATOM     34  C   UNL A   1      32.471  22.953  27.240  1.00  0.00     0.000 A 
ENDBRANCH  28  29
ENDBRANCH  27  28
ENDBRANCH  20  22
ENDBRANCH  16  20
ENDBRANCH   3   6
ENDBRANCH   1   2
BRANCH   1  35
ATOM     35  C   UNL A   1      44.506  23.812  27.743  1.00  0.00     0.042 C 
BRANCH  35  36
ATOM     36  C   UNL A   1      44.591  25.200  27.125  1.00  0.00     0.118 C 
BRANCH  36  37
ATOM     37  N   UNL A   1      43.677  25.360  26.002  1.00  0.00    -0.352 N 
ATOM     38  C   UNL A   1      42.463  26.001  25.964  1.00  0.00     0.251 C 
ATOM     39  H   UNL A   1      43.970  24.954  25.154  1.00  0.00     0.163 HD
ATOM     40  O   UNL A   1      41.721  25.863  24.998  1.00  0.00    -0.269 OA
BRANCH  38  41
ATOM     41  C   UNL A   1      42.056  26.838  27.110  1.00  0.00     0.039 A 
ATOM     42  C   UNL A   1      41.178  26.316  28.060  1.00  0.00     0.014 A 
ATOM     43  C   UNL A   1      42.567  28.133  27.250  1.00  0.00     0.014 A 
ATOM     44  C   UNL A   1      40.860  27.072  29.190  1.00  0.00     0.010 A 
ATOM     45  C   UNL A   1      42.310  28.853  28.411  1.00  0.00     0.010 A 
ATOM     46  C   UNL A   1      41.446  28.334  29.385  1.00  0.00    -0.014 A 
BRANCH  46  47
ATOM     47  C   UNL A   1      41.124  29.149  30.581  1.00  0.00     0.031 A 
ATOM     48  C   UNL A   1      41.935  28.974  31.834  1.00  0.00     0.074 A 
ATOM     49  C   UNL A   1      40.091  30.012  30.548  1.00  0.00     0.049 A 
ATOM     50  N   UNL A   1      41.812  29.579  32.985  1.00  0.00    -0.248 NA
ATOM     51  C   UNL A   1      43.016  27.973  31.793  1.00  0.00     0.031 C 
ATOM     52  C   UNL A   1      39.212  30.236  29.399  1.00  0.00     0.029 A 
ATOM     53  N   UNL A   1      39.606  30.863  31.509  1.00  0.00    -0.354 N 
ATOM     54  C   UNL A   1      42.800  29.042  33.800  1.00  0.00     0.074 A 
ATOM     55  C   UNL A   1      43.468  28.012  33.037  1.00  0.00     0.031 C 
ATOM     56  C   UNL A   1      38.311  31.183  29.714  1.00  0.00     0.029 A 
ATOM     57  C   UNL A   1      38.531  31.613  31.093  1.00  0.00     0.049 A 
ATOM     58  H   UNL A   1      39.990  30.929  32.413  1.00  0.00     0.167 HD
ATOM     59  C   UNL A   1      43.145  29.400  35.059  1.00  0.00     0.037 A 
ATOM     60  C   UNL A   1      37.812  32.545  31.748  1.00  0.00     0.037 A 
ATOM     61  C   UNL A   1      42.485  30.436  35.807  1.00  0.00     0.049 A 
ATOM     62  C   UNL A   1      38.188  32.898  33.164  1.00  0.00     0.074 A 
ATOM     63  C   UNL A   1      42.783  30.903  37.073  1.00  0.00     0.029 A 
ATOM     64  N   UNL A   1      41.390  31.160  35.357  1.00  0.00    -0.354 N 
ATOM     65  N   UNL A   1      39.168  32.427  33.897  1.00  0.00    -0.248 NA
ATOM     66  C   UNL A   1      37.363  33.910  33.839  1.00  0.00     0.031 C 
ATOM     67  C   UNL A   1      41.842  31.882  37.408  1.00  0.00     0.029 A 
ATOM     68  C   UNL A   1      40.986  32.056  36.332  1.00  0.00     0.049 A 
ATOM     69  H   UNL A   1      40.965  31.055  34.476  1.00  0.00     0.167 HD
ATOM     70  C   UNL A   1      39.092  33.101  35.111  1.00  0.00     0.074 A 
ATOM     71  C   UNL A   1      37.978  34.020  35.010  1.00  0.00     0.031 C 
ATOM     72  C   UNL A   1      39.875  32.969  36.210  1.00  0.00     0.037 A 
BRANCH  59  73
ATOM     73  C   UNL A   1      44.300  28.682  35.695  1.00  0.00     0.058 A 
ATOM     74  C   UNL A   1      45.620  29.135  35.530  1.00  0.00     0.135 A 
ATOM     75  C   UNL A   1      44.090  27.557  36.508  1.00  0.00     0.135 A 
ATOM     76  F   UNL A   1      45.878  30.194  34.746  1.00  0.00    -0.206 F 
ATOM     77  C   UNL A   1      46.691  28.486  36.132  1.00  0.00     0.059 A 
ATOM     78  C   UNL A   1      45.145  26.908  37.142  1.00  0.00     0.059 A 
ATOM     79  F   UNL A   1      42.849  27.080  36.694  1.00  0.00    -0.206 F 
ATOM     80  C   UNL A   1      46.444  27.375  36.938  1.00  0.00     0.060 A 
BRANCH  80  81
ATOM     81  S   UNL A   1      47.848  26.557  37.724  1.00  0.00     0.124 S 
ATOM     82  O   UNL A   1      47.514  25.151  37.527  1.00  0.00    -0.237 OA
ATOM     83  O   UNL A   1      48.974  27.056  36.942  1.00  0.00    -0.237 OA
ATOM     84  O   UNL A   1      47.789  27.027  39.104  1.00  0.00    -0.744 OA
ENDBRANCH  80  81
ENDBRANCH  59  73
BRANCH  60  85
ATOM     85  C   UNL A   1      36.690  33.238  31.059  1.00  0.00     0.058 A 
ATOM     86  C   UNL A   1      36.942  34.203  30.072  1.00  0.00     0.135 A 
ATOM     87  C   UNL A   1      35.351  32.937  31.353  1.00  0.00     0.135 A 
ATOM     88  F   UNL A   1      38.204  34.531  29.762  1.00  0.00    -0.206 F 
ATOM     89  C   UNL A   1      35.906  34.852  29.407  1.00  0.00     0.059 A 
ATOM     90  C   UNL A   1      34.299  33.556  30.684  1.00  0.00     0.059 A 
ATOM     91  F   UNL A   1      35.058  32.012  32.280  1.00  0.00    -0.206 F 
ATOM     92  C   UNL A   1      34.587  34.517  29.716  1.00  0.00     0.060 A 
BRANCH  92  93
ATOM     93  S   UNL A   1      33.256  35.329  28.804  1.00  0.00     0.124 S 
ATOM     94  O   UNL A   1      32.674  34.210  28.072  1.00  0.00    -0.237 OA
ATOM     95  O   UNL A   1      32.442  35.879  29.884  1.00  0.00    -0.237 OA
ATOM     96  O   UNL A   1      33.958  36.318  27.993  1.00  0.00    -0.744 OA
ENDBRANCH  92  93
ENDBRANCH  60  85
BRANCH  72  97
ATOM     97  C   UNL A   1      39.572  33.841  37.396  1.00  0.00     0.058 A 
ATOM     98  C   UNL A   1      38.726  33.407  38.426  1.00  0.00     0.135 A 
ATOM     99  C   UNL A   1      40.217  35.080  37.552  1.00  0.00     0.135 A 
ATOM    100  F   UNL A   1      38.082  32.234  38.322  1.00  0.00    -0.206 F 
ATOM    101  C   UNL A   1      38.526  34.171  39.571  1.00  0.00     0.059 A 
ATOM    102  C   UNL A   1      40.051  35.849  38.700  1.00  0.00     0.059 A 
ATOM    103  F   UNL A   1      41.045  35.537  36.599  1.00  0.00    -0.206 F 
ATOM    104  C   UNL A   1      39.201  35.386  39.703  1.00  0.00     0.060 A 
BRANCH 104 105
ATOM    105  S   UNL A   1      38.984  36.330  41.226  1.00  0.00     0.124 S 
ATOM    106  O   UNL A   1      37.819  35.677  41.815  1.00  0.00    -0.237 OA
ATOM    107  O   UNL A   1      40.252  36.107  41.914  1.00  0.00    -0.237 OA
ATOM    108  O   UNL A   1      38.765  37.695  40.753  1.00  0.00    -0.744 OA
ENDBRANCH 104 105
ENDBRANCH  72  97
ENDBRANCH  46  47
ENDBRANCH  38  41
ENDBRANCH  36  37
ENDBRANCH  35  36
ENDBRANCH   1  35
TORSDOF 17
ENDMDL
MODEL 2
REMARK VINA RESULT:     -13.2      6.153     12.076
REMARK SMILES O=C1C[C@H](C(=O)NCCCNC(=O)c2ccc(-c3c4nc(c(-c5c(F)cc(S(=O)(=O)[O-])cc5F)c5ccc([nH]5)c(-c5c(F)cc(S(=O)(=O)[O-])cc5F)c5nc(c(-c6c(F)cc(S(=O)(=O)[O-])cc6F)c6ccc3[nH]6)C=C5)C=C4)cc2)c2c(nc(Nc3ccc(Oc4ccccc4)cc3)[nH]c2=O)N1
REMARK SMILES IDX 8 1 7 2 5 3 6 4 4 6 1 7 2 8 3 9 101 10 81 11 80 13 82 14
REMARK SMILES IDX 99 15 83 16 98 17 100 18 84 20 85 22 86 23 97 24 87 25 96 26
REMARK SMILES IDX 88 27 89 28 90 29 91 30 95 31 92 32 94 33 93 34 9 35 10 36
REMARK SMILES IDX 11 37 12 38 13 40 14 41 15 42 79 43 16 44 78 45 17 46 18 47
REMARK SMILES IDX 19 48 72 49 20 50 77 51 71 52 73 53 21 54 76 55 70 56 69 57
REMARK SMILES IDX 22 59 56 60 35 61 55 62 36 63 39 64 54 65 74 66 37 67 38 68
REMARK SMILES IDX 53 70 75 71 40 72 23 73 24 74 33 75 25 76 26 77 32 78 34 79
REMARK SMILES IDX 27 80 28 81 29 82 30 83 31 84 57 85 58 86 67 87 59 88 60 89
REMARK SMILES IDX 66 90 68 91 61 92 62 93 63 94 64 95 65 96 41 97 42 98 51 99
REMARK SMILES IDX 43 100 44 101 50 102 52 103 45 104 46 105 47 106 48 107
REMARK SMILES IDX 49 108
REMARK H PARENT 7 5 101 12 98 19 84 21 11 39 73 58 39 69
REMARK Flexibility Score: inf
ROOT
ATOM      1  C   UNL A   1      37.879  21.467  25.039  1.00  0.00     0.117 C 
ENDROOT
BRANCH   1   2
ATOM      2  N   UNL A   1      36.818  21.721  26.001  1.00  0.00    -0.355 N 
ATOM      3  C   UNL A   1      35.466  21.584  25.916  1.00  0.00     0.228 C 
ATOM      4  O   UNL A   1      34.792  22.005  26.860  1.00  0.00    -0.274 OA
ATOM      5  H   UNL A   1      37.135  22.052  26.872  1.00  0.00     0.163 HD
BRANCH   3   6
ATOM      6  C   UNL A   1      34.785  20.984  24.686  1.00  0.00     0.127 C 
ATOM      7  O   UNL A   1      32.072  18.490  24.379  1.00  0.00    -0.275 OA
ATOM      8  C   UNL A   1      32.676  19.560  24.353  1.00  0.00     0.226 C 
ATOM      9  C   UNL A   1      33.964  19.762  25.111  1.00  0.00     0.119 C 
ATOM     10  N   UNL A   1      32.162  20.636  23.697  1.00  0.00    -0.310 N 
ATOM     11  C   UNL A   1      32.775  21.831  23.504  1.00  0.00     0.146 A 
ATOM     12  H   UNL A   1      31.256  20.538  23.325  1.00  0.00     0.171 HD
ATOM     13  C   UNL A   1      34.027  22.024  23.923  1.00  0.00     0.073 A 
ATOM     14  N   UNL A   1      32.009  22.752  22.868  1.00  0.00    -0.196 NA
ATOM     15  C   UNL A   1      34.619  23.336  23.611  1.00  0.00     0.258 A 
ATOM     16  C   UNL A   1      32.508  23.925  22.630  1.00  0.00     0.209 A 
ATOM     17  N   UNL A   1      33.790  24.226  22.993  1.00  0.00    -0.292 N 
ATOM     18  O   UNL A   1      35.779  23.625  23.876  1.00  0.00    -0.269 OA
ATOM     19  H   UNL A   1      34.132  25.128  22.799  1.00  0.00     0.173 HD
BRANCH  16  20
ATOM     20  N   UNL A   1      31.812  24.912  21.982  1.00  0.00    -0.326 N 
ATOM     21  H   UNL A   1      31.599  24.790  21.028  1.00  0.00     0.170 HD
BRANCH  20  22
ATOM     22  C   UNL A   1      31.394  26.091  22.620  1.00  0.00     0.041 A 
ATOM     23  C   UNL A   1      31.981  27.316  22.289  1.00  0.00     0.030 A 
ATOM     24  C   UNL A   1      30.292  26.085  23.484  1.00  0.00     0.030 A 
ATOM     25  C   UNL A   1      31.462  28.512  22.798  1.00  0.00     0.049 A 
ATOM     26  C   UNL A   1      29.782  27.273  24.005  1.00  0.00     0.049 A 
ATOM     27  C   UNL A   1      30.364  28.495  23.662  1.00  0.00     0.127 A 
BRANCH  27  28
ATOM     28  O   UNL A   1      29.910  29.730  24.079  1.00  0.00    -0.457 OA
BRANCH  28  29
ATOM     29  C   UNL A   1      29.244  30.493  23.151  1.00  0.00     0.127 A 
ATOM     30  C   UNL A   1      29.084  31.858  23.389  1.00  0.00     0.047 A 
ATOM     31  C   UNL A   1      28.742  29.904  21.990  1.00  0.00     0.047 A 
ATOM     32  C   UNL A   1      28.466  32.652  22.424  1.00  0.00     0.004 A 
ATOM     33  C   UNL A   1      28.130  30.703  21.025  1.00  0.00     0.004 A 
ATOM     34  C   UNL A   1      28.000  32.077  21.240  1.00  0.00     0.000 A 
ENDBRANCH  28  29
ENDBRANCH  27  28
ENDBRANCH  20  22
ENDBRANCH  16  20
ENDBRANCH   3   6
ENDBRANCH   1   2
BRANCH   1  35
ATOM     35  C   UNL A   1      38.577  20.141  25.304  1.00  0.00     0.042 C 
BRANCH  35  36
ATOM     36  C   UNL A   1      39.641  20.225  26.389  1.00  0.00     0.118 C 
BRANCH  36  37
ATOM     37  N   UNL A   1      40.661  19.196  26.242  1.00  0.00    -0.352 N 
ATOM     38  C   UNL A   1      42.019  19.344  26.093  1.00  0.00     0.251 C 
ATOM     39  H   UNL A   1      40.333  18.267  26.251  1.00  0.00     0.163 HD
ATOM     40  O   UNL A   1      42.713  18.386  25.769  1.00  0.00    -0.269 OA
BRANCH  38  41
ATOM     41  C   UNL A   1      42.625  20.672  26.308  1.00  0.00     0.039 A 
ATOM     42  C   UNL A   1      43.029  21.425  25.205  1.00  0.00     0.014 A 
ATOM     43  C   UNL A   1      42.769  21.178  27.604  1.00  0.00     0.014 A 
ATOM     44  C   UNL A   1      43.520  22.717  25.398  1.00  0.00     0.010 A 
ATOM     45  C   UNL A   1      43.186  22.490  27.790  1.00  0.00     0.010 A 
ATOM     46  C   UNL A   1      43.577  23.267  26.690  1.00  0.00    -0.014 A 
BRANCH  46  47
ATOM     47  C   UNL A   1      44.092  24.639  26.914  1.00  0.00     0.031 A 
ATOM     48  C   UNL A   1      43.144  25.723  27.344  1.00  0.00     0.074 A 
ATOM     49  C   UNL A   1      45.393  24.912  26.702  1.00  0.00     0.049 A 
ATOM     50  N   UNL A   1      43.389  26.984  27.583  1.00  0.00    -0.248 NA
ATOM     51  C   UNL A   1      41.729  25.344  27.507  1.00  0.00     0.031 C 
ATOM     52  C   UNL A   1      46.397  23.948  26.247  1.00  0.00     0.029 A 
ATOM     53  N   UNL A   1      46.096  26.083  26.838  1.00  0.00    -0.354 N 
ATOM     54  C   UNL A   1      42.167  27.545  27.934  1.00  0.00     0.074 A 
ATOM     55  C   UNL A   1      41.170  26.506  27.805  1.00  0.00     0.031 C 
ATOM     56  C   UNL A   1      47.591  24.560  26.170  1.00  0.00     0.029 A 
ATOM     57  C   UNL A   1      47.433  25.964  26.541  1.00  0.00     0.049 A 
ATOM     58  H   UNL A   1      45.681  26.929  27.122  1.00  0.00     0.167 HD
ATOM     59  C   UNL A   1      41.906  28.803  28.359  1.00  0.00     0.037 A 
ATOM     60  C   UNL A   1      48.418  26.882  26.572  1.00  0.00     0.037 A 
ATOM     61  C   UNL A   1      42.906  29.826  28.496  1.00  0.00     0.049 A 
ATOM     62  C   UNL A   1      48.096  28.288  27.008  1.00  0.00     0.074 A 
ATOM     63  C   UNL A   1      42.752  31.121  28.957  1.00  0.00     0.029 A 
ATOM     64  N   UNL A   1      44.245  29.672  28.169  1.00  0.00    -0.354 N 
ATOM     65  N   UNL A   1      46.946  28.785  27.400  1.00  0.00    -0.248 NA
ATOM     66  C   UNL A   1      49.202  29.255  27.011  1.00  0.00     0.031 C 
ATOM     67  C   UNL A   1      43.990  31.764  28.869  1.00  0.00     0.029 A 
ATOM     68  C   UNL A   1      44.925  30.856  28.396  1.00  0.00     0.049 A 
ATOM     69  H   UNL A   1      44.652  28.844  27.827  1.00  0.00     0.167 HD
ATOM     70  C   UNL A   1      47.196  30.116  27.717  1.00  0.00     0.074 A 
ATOM     71  C   UNL A   1      48.606  30.344  27.482  1.00  0.00     0.031 C 
ATOM     72  C   UNL A   1      46.333  31.063  28.162  1.00  0.00     0.037 A 
BRANCH  59  73
ATOM     73  C   UNL A   1      40.487  29.132  28.726  1.00  0.00     0.058 A 
ATOM     74  C   UNL A   1      40.083  29.217  30.069  1.00  0.00     0.135 A 
ATOM     75  C   UNL A   1      39.531  29.404  27.735  1.00  0.00     0.135 A 
ATOM     76  F   UNL A   1      40.953  28.948  31.055  1.00  0.00    -0.206 F 
ATOM     77  C   UNL A   1      38.777  29.541  30.415  1.00  0.00     0.059 A 
ATOM     78  C   UNL A   1      38.224  29.755  28.060  1.00  0.00     0.059 A 
ATOM     79  F   UNL A   1      39.863  29.330  26.437  1.00  0.00    -0.206 F 
ATOM     80  C   UNL A   1      37.855  29.811  29.404  1.00  0.00     0.060 A 
BRANCH  80  81
ATOM     81  S   UNL A   1      36.168  30.244  29.876  1.00  0.00     0.124 S 
ATOM     82  O   UNL A   1      36.034  29.549  31.152  1.00  0.00    -0.237 OA
ATOM     83  O   UNL A   1      36.232  31.700  29.952  1.00  0.00    -0.237 OA
ATOM     84  O   UNL A   1      35.359  29.710  28.785  1.00  0.00    -0.744 OA
ENDBRANCH  80  81
ENDBRANCH  59  73
BRANCH  60  85
ATOM     85  C   UNL A   1      49.809  26.492  26.216  1.00  0.00     0.058 A 
ATOM     86  C   UNL A   1      50.647  25.885  27.163  1.00  0.00     0.135 A 
ATOM     87  C   UNL A   1      50.321  26.696  24.925  1.00  0.00     0.135 A 
ATOM     88  F   UNL A   1      50.207  25.676  28.412  1.00  0.00    -0.206 F 
ATOM     89  C   UNL A   1      51.946  25.500  26.845  1.00  0.00     0.059 A 
ATOM     90  C   UNL A   1      51.608  26.299  24.577  1.00  0.00     0.059 A 
ATOM     91  F   UNL A   1      49.554  27.262  23.980  1.00  0.00    -0.206 F 
ATOM     92  C   UNL A   1      52.416  25.706  25.548  1.00  0.00     0.060 A 
BRANCH  92  93
ATOM     93  S   UNL A   1      54.086  25.152  25.137  1.00  0.00     0.124 S 
ATOM     94  O   UNL A   1      54.834  25.575  26.316  1.00  0.00    -0.237 OA
ATOM     95  O   UNL A   1      53.897  23.713  24.983  1.00  0.00    -0.237 OA
ATOM     96  O   UNL A   1      54.387  25.873  23.906  1.00  0.00    -0.744 OA
ENDBRANCH  92  93
ENDBRANCH  60  85
BRANCH  72  97
ATOM     97  C   UNL A   1      46.880  32.435  28.438  1.00  0.00     0.058 A 
ATOM     98  C   UNL A   1      47.464  32.755  29.672  1.00  0.00     0.135 A 
ATOM     99  C   UNL A   1      46.913  33.406  27.423  1.00  0.00     0.135 A 
ATOM    100  F   UNL A   1      47.452  31.864  30.676  1.00  0.00    -0.206 F 
ATOM    101  C   UNL A   1      48.060  33.992  29.893  1.00  0.00     0.059 A 
ATOM    102  C   UNL A   1      47.527  34.640  27.614  1.00  0.00     0.059 A 
ATOM    103  F   UNL A   1      46.376  33.146  26.220  1.00  0.00    -0.206 F 
ATOM    104  C   UNL A   1      48.096  34.924  28.854  1.00  0.00     0.060 A 
BRANCH 104 105
ATOM    105  S   UNL A   1      48.936  36.496  29.138  1.00  0.00     0.124 S 
ATOM    106  O   UNL A   1      50.103  36.368  28.271  1.00  0.00    -0.237 OA
ATOM    107  O   UNL A   1      47.932  37.466  28.711  1.00  0.00    -0.237 OA
ATOM    108  O   UNL A   1      49.215  36.480  30.571  1.00  0.00    -0.744 OA
ENDBRANCH 104 105
ENDBRANCH  72  97
ENDBRANCH  46  47
ENDBRANCH  38  41
ENDBRANCH  36  37
ENDBRANCH  35  36
ENDBRANCH   1  35
TORSDOF 17
ENDMDL
MODEL 3
REMARK VINA RESULT:     -13.0      0.439      7.861
REMARK SMILES O=C1C[C@H](C(=O)NCCCNC(=O)c2ccc(-c3c4nc(c(-c5c(F)cc(S(=O)(=O)[O-])cc5F)c5ccc([nH]5)c(-c5c(F)cc(S(=O)(=O)[O-])cc5F)c5nc(c(-c6c(F)cc(S(=O)(=O)[O-])cc6F)c6ccc3[nH]6)C=C5)C=C4)cc2)c2c(nc(Nc3ccc(Oc4ccccc4)cc3)[nH]c2=O)N1
REMARK SMILES IDX 8 1 7 2 5 3 6 4 4 6 1 7 2 8 3 9 101 10 81 11 80 13 82 14
REMARK SMILES IDX 99 15 83 16 98 17 100 18 84 20 85 22 86 23 97 24 87 25 96 26
REMARK SMILES IDX 88 27 89 28 90 29 91 30 95 31 92 32 94 33 93 34 9 35 10 36
REMARK SMILES IDX 11 37 12 38 13 40 14 41 15 42 79 43 16 44 78 45 17 46 18 47
REMARK SMILES IDX 19 48 72 49 20 50 77 51 71 52 73 53 21 54 76 55 70 56 69 57
REMARK SMILES IDX 22 59 56 60 35 61 55 62 36 63 39 64 54 65 74 66 37 67 38 68
REMARK SMILES IDX 53 70 75 71 40 72 23 73 24 74 33 75 25 76 26 77 32 78 34 79
REMARK SMILES IDX 27 80 28 81 29 82 30 83 31 84 57 85 58 86 67 87 59 88 60 89
REMARK SMILES IDX 66 90 68 91 61 92 62 93 63 94 64 95 65 96 41 97 42 98 51 99
REMARK SMILES IDX 43 100 44 101 50 102 52 103 45 104 46 105 47 106 48 107
REMARK SMILES IDX 49 108
REMARK H PARENT 7 5 101 12 98 19 84 21 11 39 73 58 39 69
REMARK Flexibility Score: inf
ROOT
ATOM      1  C   UNL A   1      45.575  22.835  27.109  1.00  0.00     0.117 C 
ENDROOT
BRANCH   1   2
ATOM      2  N   UNL A   1      46.109  23.307  25.841  1.00  0.00    -0.355 N 
ATOM      3  C   UNL A   1      46.160  22.731  24.608  1.00  0.00     0.228 C 
ATOM      4  O   UNL A   1      46.800  23.320  23.732  1.00  0.00    -0.274 OA
ATOM      5  H   UNL A   1      46.506  24.207  25.881  1.00  0.00     0.163 HD
BRANCH   3   6
ATOM      6  C   UNL A   1      45.506  21.382  24.313  1.00  0.00     0.127 C 
ATOM      7  O   UNL A   1      46.373  17.962  25.417  1.00  0.00    -0.275 OA
ATOM      8  C   UNL A   1      45.779  19.031  25.305  1.00  0.00     0.226 C 
ATOM      9  C   UNL A   1      46.454  20.258  24.744  1.00  0.00     0.119 C 
ATOM     10  N   UNL A   1      44.503  19.172  25.757  1.00  0.00    -0.310 N 
ATOM     11  C   UNL A   1      43.705  20.258  25.597  1.00  0.00     0.146 A 
ATOM     12  H   UNL A   1      44.120  18.409  26.248  1.00  0.00     0.171 HD
ATOM     13  C   UNL A   1      44.128  21.307  24.890  1.00  0.00     0.073 A 
ATOM     14  N   UNL A   1      42.497  20.154  26.203  1.00  0.00    -0.196 NA
ATOM     15  C   UNL A   1      43.163  22.408  24.727  1.00  0.00     0.258 A 
ATOM     16  C   UNL A   1      41.659  21.138  26.102  1.00  0.00     0.209 A 
ATOM     17  N   UNL A   1      41.975  22.255  25.382  1.00  0.00    -0.292 N 
ATOM     18  O   UNL A   1      43.391  23.402  24.049  1.00  0.00    -0.269 OA
ATOM     19  H   UNL A   1      41.315  22.982  25.332  1.00  0.00     0.173 HD
BRANCH  16  20
ATOM     20  N   UNL A   1      40.412  21.116  26.671  1.00  0.00    -0.326 N 
ATOM     21  H   UNL A   1      40.242  20.488  27.409  1.00  0.00     0.170 HD
BRANCH  20  22
ATOM     22  C   UNL A   1      39.366  21.948  26.241  1.00  0.00     0.041 A 
ATOM     23  C   UNL A   1      38.382  21.452  25.379  1.00  0.00     0.030 A 
ATOM     24  C   UNL A   1      39.207  23.232  26.776  1.00  0.00     0.030 A 
ATOM     25  C   UNL A   1      37.253  22.222  25.076  1.00  0.00     0.049 A 
ATOM     26  C   UNL A   1      38.091  24.007  26.464  1.00  0.00     0.049 A 
ATOM     27  C   UNL A   1      37.105  23.503  25.613  1.00  0.00     0.127 A 
BRANCH  27  28
ATOM     28  O   UNL A   1      35.939  24.163  25.278  1.00  0.00    -0.457 OA
BRANCH  28  29
ATOM     29  C   UNL A   1      34.760  23.574  25.664  1.00  0.00     0.127 A 
ATOM     30  C   UNL A   1      33.732  23.448  24.730  1.00  0.00     0.047 A 
ATOM     31  C   UNL A   1      34.602  23.110  26.970  1.00  0.00     0.047 A 
ATOM     32  C   UNL A   1      32.555  22.794  25.093  1.00  0.00     0.004 A 
ATOM     33  C   UNL A   1      33.426  22.452  27.327  1.00  0.00     0.004 A 
ATOM     34  C   UNL A   1      32.408  22.288  26.386  1.00  0.00     0.000 A 
ENDBRANCH  28  29
ENDBRANCH  27  28
ENDBRANCH  20  22
ENDBRANCH  16  20
ENDBRANCH   3   6
ENDBRANCH   1   2
BRANCH   1  35
ATOM     35  C   UNL A   1      44.535  23.790  27.675  1.00  0.00     0.042 C 
BRANCH  35  36
ATOM     36  C   UNL A   1      44.640  25.200  27.112  1.00  0.00     0.118 C 
BRANCH  36  37
ATOM     37  N   UNL A   1      43.722  25.420  26.003  1.00  0.00    -0.352 N 
ATOM     38  C   UNL A   1      42.526  26.097  25.996  1.00  0.00     0.251 C 
ATOM     39  H   UNL A   1      43.996  25.031  25.140  1.00  0.00     0.163 HD
ATOM     40  O   UNL A   1      41.772  26.009  25.032  1.00  0.00    -0.269 OA
BRANCH  38  41
ATOM     41  C   UNL A   1      42.154  26.911  27.169  1.00  0.00     0.039 A 
ATOM     42  C   UNL A   1      41.294  26.374  28.128  1.00  0.00     0.014 A 
ATOM     43  C   UNL A   1      42.680  28.197  27.328  1.00  0.00     0.014 A 
ATOM     44  C   UNL A   1      41.010  27.106  29.282  1.00  0.00     0.010 A 
ATOM     45  C   UNL A   1      42.458  28.893  28.510  1.00  0.00     0.010 A 
ATOM     46  C   UNL A   1      41.611  28.358  29.492  1.00  0.00    -0.014 A 
BRANCH  46  47
ATOM     47  C   UNL A   1      41.325  29.148  30.713  1.00  0.00     0.031 A 
ATOM     48  C   UNL A   1      40.189  30.132  30.708  1.00  0.00     0.074 A 
ATOM     49  C   UNL A   1      42.100  29.003  31.805  1.00  0.00     0.049 A 
ATOM     50  N   UNL A   1      39.781  30.923  31.664  1.00  0.00    -0.248 NA
ATOM     51  C   UNL A   1      39.424  30.258  29.455  1.00  0.00     0.031 C 
ATOM     52  C   UNL A   1      43.253  28.106  31.911  1.00  0.00     0.029 A 
ATOM     53  N   UNL A   1      42.037  29.610  33.034  1.00  0.00    -0.354 N 
ATOM     54  C   UNL A   1      38.709  31.631  31.135  1.00  0.00     0.074 A 
ATOM     55  C   UNL A   1      38.575  31.230  29.752  1.00  0.00     0.031 C 
ATOM     56  C   UNL A   1      43.770  28.201  33.148  1.00  0.00     0.029 A 
ATOM     57  C   UNL A   1      43.006  29.184  33.912  1.00  0.00     0.049 A 
ATOM     58  H   UNL A   1      41.361  30.287  33.266  1.00  0.00     0.167 HD
ATOM     59  C   UNL A   1      37.886  32.508  31.756  1.00  0.00     0.037 A 
ATOM     60  C   UNL A   1      43.244  29.542  35.188  1.00  0.00     0.037 A 
ATOM     61  C   UNL A   1      38.017  32.891  33.135  1.00  0.00     0.049 A 
ATOM     62  C   UNL A   1      42.341  30.553  35.846  1.00  0.00     0.074 A 
ATOM     63  C   UNL A   1      37.212  33.742  33.870  1.00  0.00     0.029 A 
ATOM     64  N   UNL A   1      39.021  32.452  33.986  1.00  0.00    -0.354 N 
ATOM     65  N   UNL A   1      41.291  31.164  35.351  1.00  0.00    -0.248 NA
ATOM     66  C   UNL A   1      42.652  30.920  37.235  1.00  0.00     0.031 C 
ATOM     67  C   UNL A   1      37.753  33.850  35.155  1.00  0.00     0.029 A 
ATOM     68  C   UNL A   1      38.870  33.032  35.233  1.00  0.00     0.049 A 
ATOM     69  H   UNL A   1      39.735  31.821  33.740  1.00  0.00     0.167 HD
ATOM     70  C   UNL A   1      40.802  31.969  36.374  1.00  0.00     0.074 A 
ATOM     71  C   UNL A   1      41.664  31.760  37.518  1.00  0.00     0.031 C 
ATOM     72  C   UNL A   1      39.736  32.807  36.365  1.00  0.00     0.037 A 
BRANCH  59  73
ATOM     73  C   UNL A   1      36.761  33.095  30.952  1.00  0.00     0.058 A 
ATOM     74  C   UNL A   1      35.440  32.647  31.113  1.00  0.00     0.135 A 
ATOM     75  C   UNL A   1      36.994  34.139  30.043  1.00  0.00     0.135 A 
ATOM     76  F   UNL A   1      35.166  31.637  31.955  1.00  0.00    -0.206 F 
ATOM     77  C   UNL A   1      34.391  33.199  30.387  1.00  0.00     0.059 A 
ATOM     78  C   UNL A   1      35.955  34.725  29.325  1.00  0.00     0.059 A 
ATOM     79  F   UNL A   1      38.238  34.600  29.847  1.00  0.00    -0.206 F 
ATOM     80  C   UNL A   1      34.658  34.239  29.497  1.00  0.00     0.060 A 
BRANCH  80  81
ATOM     81  S   UNL A   1      33.280  34.953  28.576  1.00  0.00     0.124 S 
ATOM     82  O   UNL A   1      33.977  35.826  27.638  1.00  0.00    -0.237 OA
ATOM     83  O   UNL A   1      32.651  33.772  27.994  1.00  0.00    -0.237 OA
ATOM     84  O   UNL A   1      32.499  35.635  29.603  1.00  0.00    -0.744 OA
ENDBRANCH  80  81
ENDBRANCH  59  73
BRANCH  60  85
ATOM     85  C   UNL A   1      44.362  28.911  35.941  1.00  0.00     0.058 A 
ATOM     86  C   UNL A   1      45.665  29.427  35.855  1.00  0.00     0.135 A 
ATOM     87  C   UNL A   1      44.153  27.801  36.773  1.00  0.00     0.135 A 
ATOM     88  F   UNL A   1      45.917  30.482  35.067  1.00  0.00    -0.206 F 
ATOM     89  C   UNL A   1      46.721  28.860  36.562  1.00  0.00     0.059 A 
ATOM     90  C   UNL A   1      45.188  27.231  37.508  1.00  0.00     0.059 A 
ATOM     91  F   UNL A   1      42.923  27.278  36.899  1.00  0.00    -0.206 F 
ATOM     92  C   UNL A   1      46.471  27.765  37.390  1.00  0.00     0.060 A 
BRANCH  92  93
ATOM     93  S   UNL A   1      47.842  27.075  38.342  1.00  0.00     0.124 S 
ATOM     94  O   UNL A   1      47.450  25.674  38.452  1.00  0.00    -0.237 OA
ATOM     95  O   UNL A   1      48.983  27.353  37.474  1.00  0.00    -0.237 OA
ATOM     96  O   UNL A   1      47.809  27.839  39.584  1.00  0.00    -0.744 OA
ENDBRANCH  92  93
ENDBRANCH  60  85
BRANCH  72  97
ATOM     97  C   UNL A   1      39.424  33.559  37.628  1.00  0.00     0.058 A 
ATOM     98  C   UNL A   1      38.540  33.044  38.586  1.00  0.00     0.135 A 
ATOM     99  C   UNL A   1      40.095  34.757  37.927  1.00  0.00     0.135 A 
ATOM    100  F   UNL A   1      37.869  31.906  38.345  1.00  0.00    -0.206 F 
ATOM    101  C   UNL A   1      38.329  33.691  39.799  1.00  0.00     0.059 A 
ATOM    102  C   UNL A   1      39.919  35.406  39.145  1.00  0.00     0.059 A 
ATOM    103  F   UNL A   1      40.959  35.287  37.047  1.00  0.00    -0.206 F 
ATOM    104  C   UNL A   1      39.031  34.866  40.074  1.00  0.00     0.060 A 
BRANCH 104 105
ATOM    105  S   UNL A   1      38.797  35.652  41.682  1.00  0.00     0.124 S 
ATOM    106  O   UNL A   1      37.405  35.328  41.969  1.00  0.00    -0.237 OA
ATOM    107  O   UNL A   1      39.791  34.973  42.508  1.00  0.00    -0.237 OA
ATOM    108  O   UNL A   1      39.071  37.062  41.415  1.00  0.00    -0.744 OA
ENDBRANCH 104 105
ENDBRANCH  72  97
ENDBRANCH  46  47
ENDBRANCH  38  41
ENDBRANCH  36  37
ENDBRANCH  35  36
ENDBRANCH   1  35
TORSDOF 17
ENDMDL
