MODEL 1
REMARK VINA RESULT:     -12.6      0.000      0.000
REMARK SMILES O=C(Cc1ccc(F)cc1F)Nc1sccc1C(=O)NCCCNC(=O)c1ccc(-c2c3nc(c(-c4c(F)cc(S(=O)(=O)[O-])cc4F)c4ccc([nH]4)c(-c4c(F)cc(S(=O)(=O)[O-])cc4F)c4nc(c(-c5c(F)cc(S(=O)(=O)[O-])cc5F)c5ccc2[nH]5)C=C4)C=C3)cc1
REMARK SMILES IDX 22 1 21 2 20 3 18 4 19 5 17 7 13 8 14 9 15 10 16 11 12 12
REMARK SMILES IDX 1 13 2 14 3 16 4 17 5 18 10 19 6 20 9 21 11 22 7 23 8 24
REMARK SMILES IDX 23 25 24 26 25 27 26 29 27 30 28 31 92 32 29 33 91 34 30 35
REMARK SMILES IDX 31 36 32 37 85 38 33 39 90 40 84 41 86 42 34 43 89 44 83 45
REMARK SMILES IDX 82 46 35 48 69 49 48 50 68 51 49 52 52 53 67 54 87 55 50 56
REMARK SMILES IDX 51 57 66 59 88 60 53 61 36 62 37 63 46 64 38 65 39 66 45 67
REMARK SMILES IDX 47 68 40 69 41 70 42 71 43 72 44 73 70 74 71 75 80 76 72 77
REMARK SMILES IDX 73 78 79 79 81 80 74 81 75 82 76 83 77 84 78 85 54 86 55 87
REMARK SMILES IDX 64 88 56 89 57 90 63 91 65 92 58 93 59 94 60 95 61 96 62 97
REMARK H PARENT 20 6 12 15 24 28 86 47 52 58
REMARK Flexibility Score: inf
ROOT
ATOM      1  C   UNL A   1      37.397  23.315  25.184  1.00  0.00     0.042 C 
ENDROOT
BRANCH   1   2
ATOM      2  C   UNL A   1      36.634  22.023  25.394  1.00  0.00     0.118 C 
BRANCH   2   3
ATOM      3  N   UNL A   1      35.600  22.048  26.401  1.00  0.00    -0.352 N 
ATOM      4  C   UNL A   1      34.398  22.719  26.381  1.00  0.00     0.254 C 
ATOM      5  O   UNL A   1      33.633  22.540  27.333  1.00  0.00    -0.269 OA
ATOM      6  H   UNL A   1      35.777  21.514  27.209  1.00  0.00     0.163 HD
BRANCH   4   7
ATOM      7  C   UNL A   1      34.125  23.755  25.382  1.00  0.00     0.074 A 
ATOM      8  C   UNL A   1      33.807  23.652  24.035  1.00  0.00     0.108 A 
ATOM      9  S   UNL A   1      33.860  25.158  23.225  1.00  0.00    -0.126 S 
ATOM     10  C   UNL A   1      34.067  26.012  24.685  1.00  0.00     0.068 A 
ATOM     11  C   UNL A   1      34.191  25.155  25.752  1.00  0.00     0.028 A 
BRANCH   8  12
ATOM     12  N   UNL A   1      33.501  22.631  23.158  1.00  0.00    -0.317 N 
ATOM     13  O   UNL A   1      31.205  22.800  23.246  1.00  0.00    -0.274 OA
ATOM     14  C   UNL A   1      32.220  22.187  22.916  1.00  0.00     0.229 C 
ATOM     15  H   UNL A   1      34.241  22.196  22.676  1.00  0.00     0.170 HD
BRANCH  14  16
ATOM     16  C   UNL A   1      32.112  20.774  22.353  1.00  0.00     0.139 C 
BRANCH  16  17
ATOM     17  C   UNL A   1      32.341  19.623  23.292  1.00  0.00    -0.003 A 
ATOM     18  C   UNL A   1      32.471  19.845  24.668  1.00  0.00     0.010 A 
ATOM     19  C   UNL A   1      32.523  18.325  22.796  1.00  0.00     0.129 A 
ATOM     20  C   UNL A   1      32.803  18.787  25.515  1.00  0.00     0.040 A 
ATOM     21  C   UNL A   1      32.850  17.267  23.632  1.00  0.00     0.078 A 
ATOM     22  F   UNL A   1      32.376  18.095  21.483  1.00  0.00    -0.207 F 
ATOM     23  C   UNL A   1      32.995  17.512  24.989  1.00  0.00     0.126 A 
ATOM     24  F   UNL A   1      33.327  16.508  25.811  1.00  0.00    -0.207 F 
ENDBRANCH  16  17
ENDBRANCH  14  16
ENDBRANCH   8  12
ENDBRANCH   4   7
ENDBRANCH   2   3
ENDBRANCH   1   2
BRANCH   1  25
ATOM     25  C   UNL A   1      38.201  23.776  26.395  1.00  0.00     0.118 C 
BRANCH  25  26
ATOM     26  N   UNL A   1      39.653  23.713  26.221  1.00  0.00    -0.352 N 
ATOM     27  C   UNL A   1      40.683  24.517  26.658  1.00  0.00     0.251 C 
ATOM     28  H   UNL A   1      39.953  22.944  25.684  1.00  0.00     0.163 HD
ATOM     29  O   UNL A   1      41.819  24.295  26.242  1.00  0.00    -0.269 OA
BRANCH  27  30
ATOM     30  C   UNL A   1      40.448  25.659  27.574  1.00  0.00     0.039 A 
ATOM     31  C   UNL A   1      39.516  25.529  28.611  1.00  0.00     0.014 A 
ATOM     32  C   UNL A   1      41.123  26.867  27.421  1.00  0.00     0.014 A 
ATOM     33  C   UNL A   1      39.364  26.555  29.552  1.00  0.00     0.010 A 
ATOM     34  C   UNL A   1      41.075  27.824  28.427  1.00  0.00     0.010 A 
ATOM     35  C   UNL A   1      40.195  27.685  29.508  1.00  0.00    -0.014 A 
BRANCH  35  36
ATOM     36  C   UNL A   1      40.177  28.740  30.559  1.00  0.00     0.031 A 
ATOM     37  C   UNL A   1      41.117  28.648  31.736  1.00  0.00     0.074 A 
ATOM     38  C   UNL A   1      39.246  29.714  30.522  1.00  0.00     0.049 A 
ATOM     39  N   UNL A   1      41.126  29.339  32.847  1.00  0.00    -0.248 NA
ATOM     40  C   UNL A   1      42.150  27.601  31.675  1.00  0.00     0.031 C 
ATOM     41  C   UNL A   1      38.241  29.893  29.471  1.00  0.00     0.029 A 
ATOM     42  N   UNL A   1      38.983  30.736  31.403  1.00  0.00    -0.354 N 
ATOM     43  C   UNL A   1      42.130  28.782  33.631  1.00  0.00     0.074 A 
ATOM     44  C   UNL A   1      42.668  27.659  32.893  1.00  0.00     0.031 C 
ATOM     45  C   UNL A   1      37.505  30.981  29.743  1.00  0.00     0.029 A 
ATOM     46  C   UNL A   1      37.945  31.548  31.013  1.00  0.00     0.049 A 
ATOM     47  H   UNL A   1      39.491  30.873  32.234  1.00  0.00     0.167 HD
ATOM     48  C   UNL A   1      42.585  29.184  34.842  1.00  0.00     0.037 A 
ATOM     49  C   UNL A   1      37.404  32.628  31.611  1.00  0.00     0.037 A 
ATOM     50  C   UNL A   1      42.091  30.339  35.543  1.00  0.00     0.049 A 
ATOM     51  C   UNL A   1      37.951  33.087  32.932  1.00  0.00     0.074 A 
ATOM     52  C   UNL A   1      42.521  30.865  36.749  1.00  0.00     0.029 A 
ATOM     53  N   UNL A   1      41.071  31.161  35.089  1.00  0.00    -0.354 N 
ATOM     54  N   UNL A   1      38.910  32.555  33.654  1.00  0.00    -0.248 NA
ATOM     55  C   UNL A   1      37.347  34.287  33.524  1.00  0.00     0.031 C 
ATOM     56  C   UNL A   1      41.746  31.995  37.032  1.00  0.00     0.029 A 
ATOM     57  C   UNL A   1      40.856  32.191  35.988  1.00  0.00     0.049 A 
ATOM     58  H   UNL A   1      40.572  31.030  34.250  1.00  0.00     0.167 HD
ATOM     59  C   UNL A   1      39.039  33.369  34.773  1.00  0.00     0.074 A 
ATOM     60  C   UNL A   1      38.064  34.432  34.630  1.00  0.00     0.031 C 
ATOM     61  C   UNL A   1      39.888  33.247  35.822  1.00  0.00     0.037 A 
BRANCH  48  62
ATOM     62  C   UNL A   1      43.686  28.371  35.468  1.00  0.00     0.058 A 
ATOM     63  C   UNL A   1      45.033  28.641  35.178  1.00  0.00     0.135 A 
ATOM     64  C   UNL A   1      43.408  27.327  36.368  1.00  0.00     0.135 A 
ATOM     65  F   UNL A   1      45.358  29.623  34.323  1.00  0.00    -0.206 F 
ATOM     66  C   UNL A   1      46.067  27.922  35.773  1.00  0.00     0.059 A 
ATOM     67  C   UNL A   1      44.425  26.617  36.996  1.00  0.00     0.059 A 
ATOM     68  F   UNL A   1      42.139  27.036  36.693  1.00  0.00    -0.206 F 
ATOM     69  C   UNL A   1      45.753  26.928  36.698  1.00  0.00     0.060 A 
BRANCH  69  70
ATOM     70  S   UNL A   1      47.061  26.022  37.550  1.00  0.00     0.124 S 
ATOM     71  O   UNL A   1      47.920  27.113  38.003  1.00  0.00    -0.237 OA
ATOM     72  O   UNL A   1      46.325  25.321  38.598  1.00  0.00    -0.237 OA
ATOM     73  O   UNL A   1      47.622  25.173  36.506  1.00  0.00    -0.744 OA
ENDBRANCH  69  70
ENDBRANCH  48  62
BRANCH  49  74
ATOM     74  C   UNL A   1      36.320  33.379  30.926  1.00  0.00     0.058 A 
ATOM     75  C   UNL A   1      36.572  34.175  29.798  1.00  0.00     0.135 A 
ATOM     76  C   UNL A   1      35.013  33.359  31.436  1.00  0.00     0.135 A 
ATOM     77  F   UNL A   1      37.809  34.240  29.283  1.00  0.00    -0.206 F 
ATOM     78  C   UNL A   1      35.571  34.944  29.211  1.00  0.00     0.059 A 
ATOM     79  C   UNL A   1      33.993  34.105  30.856  1.00  0.00     0.059 A 
ATOM     80  F   UNL A   1      34.725  32.608  32.509  1.00  0.00    -0.206 F 
ATOM     81  C   UNL A   1      34.285  34.904  29.748  1.00  0.00     0.060 A 
BRANCH  81  82
ATOM     82  S   UNL A   1      32.969  35.934  29.061  1.00  0.00     0.124 S 
ATOM     83  O   UNL A   1      33.732  37.009  28.436  1.00  0.00    -0.237 OA
ATOM     84  O   UNL A   1      32.304  35.009  28.149  1.00  0.00    -0.237 OA
ATOM     85  O   UNL A   1      32.190  36.312  30.236  1.00  0.00    -0.744 OA
ENDBRANCH  81  82
ENDBRANCH  49  74
BRANCH  61  86
ATOM     86  C   UNL A   1      39.829  34.303  36.888  1.00  0.00     0.058 A 
ATOM     87  C   UNL A   1      38.972  34.148  37.990  1.00  0.00     0.135 A 
ATOM     88  C   UNL A   1      40.560  35.494  36.783  1.00  0.00     0.135 A 
ATOM     89  F   UNL A   1      38.245  33.028  38.130  1.00  0.00    -0.206 F 
ATOM     90  C   UNL A   1      38.831  35.146  38.948  1.00  0.00     0.059 A 
ATOM     91  C   UNL A   1      40.450  36.497  37.741  1.00  0.00     0.059 A 
ATOM     92  F   UNL A   1      41.398  35.685  35.752  1.00  0.00    -0.206 F 
ATOM     93  C   UNL A   1      39.579  36.316  38.817  1.00  0.00     0.060 A 
BRANCH  93  94
ATOM     94  S   UNL A   1      39.410  37.647  40.025  1.00  0.00     0.124 S 
ATOM     95  O   UNL A   1      39.216  36.900  41.262  1.00  0.00    -0.237 OA
ATOM     96  O   UNL A   1      40.686  38.345  39.898  1.00  0.00    -0.237 OA
ATOM     97  O   UNL A   1      38.246  38.389  39.551  1.00  0.00    -0.744 OA
ENDBRANCH  93  94
ENDBRANCH  61  86
ENDBRANCH  35  36
ENDBRANCH  27  30
ENDBRANCH  25  26
ENDBRANCH   1  25
TORSDOF 16
ENDMDL
MODEL 2
REMARK VINA RESULT:     -12.4      2.100      3.752
REMARK SMILES O=C(Cc1ccc(F)cc1F)Nc1sccc1C(=O)NCCCNC(=O)c1ccc(-c2c3nc(c(-c4c(F)cc(S(=O)(=O)[O-])cc4F)c4ccc([nH]4)c(-c4c(F)cc(S(=O)(=O)[O-])cc4F)c4nc(c(-c5c(F)cc(S(=O)(=O)[O-])cc5F)c5ccc2[nH]5)C=C4)C=C3)cc1
REMARK SMILES IDX 22 1 21 2 20 3 18 4 19 5 17 7 13 8 14 9 15 10 16 11 12 12
REMARK SMILES IDX 1 13 2 14 3 16 4 17 5 18 10 19 6 20 9 21 11 22 7 23 8 24
REMARK SMILES IDX 23 25 24 26 25 27 26 29 27 30 28 31 92 32 29 33 91 34 30 35
REMARK SMILES IDX 31 36 32 37 85 38 33 39 90 40 84 41 86 42 34 43 89 44 83 45
REMARK SMILES IDX 82 46 35 48 69 49 48 50 68 51 49 52 52 53 67 54 87 55 50 56
REMARK SMILES IDX 51 57 66 59 88 60 53 61 36 62 37 63 46 64 38 65 39 66 45 67
REMARK SMILES IDX 47 68 40 69 41 70 42 71 43 72 44 73 70 74 71 75 80 76 72 77
REMARK SMILES IDX 73 78 79 79 81 80 74 81 75 82 76 83 77 84 78 85 54 86 55 87
REMARK SMILES IDX 64 88 56 89 57 90 63 91 65 92 58 93 59 94 60 95 61 96 62 97
REMARK H PARENT 20 6 12 15 24 28 86 47 52 58
REMARK Flexibility Score: inf
ROOT
ATOM      1  C   UNL A   1      37.795  22.650  25.842  1.00  0.00     0.042 C 
ENDROOT
BRANCH   1   2
ATOM      2  C   UNL A   1      36.302  22.846  25.670  1.00  0.00     0.118 C 
BRANCH   2   3
ATOM      3  N   UNL A   1      35.467  22.390  26.756  1.00  0.00    -0.352 N 
ATOM      4  C   UNL A   1      34.203  21.849  26.697  1.00  0.00     0.254 C 
ATOM      5  O   UNL A   1      33.701  21.465  27.757  1.00  0.00    -0.269 OA
ATOM      6  H   UNL A   1      35.853  22.477  27.657  1.00  0.00     0.163 HD
BRANCH   4   7
ATOM      7  C   UNL A   1      33.407  21.914  25.469  1.00  0.00     0.074 A 
ATOM      8  C   UNL A   1      32.663  22.952  24.927  1.00  0.00     0.108 A 
ATOM      9  S   UNL A   1      31.681  22.451  23.619  1.00  0.00    -0.126 S 
ATOM     10  C   UNL A   1      32.399  20.906  23.585  1.00  0.00     0.068 A 
ATOM     11  C   UNL A   1      33.297  20.749  24.614  1.00  0.00     0.028 A 
BRANCH   8  12
ATOM     12  N   UNL A   1      32.470  24.291  25.203  1.00  0.00    -0.317 N 
ATOM     13  O   UNL A   1      31.420  24.058  27.240  1.00  0.00    -0.274 OA
ATOM     14  C   UNL A   1      31.749  24.755  26.280  1.00  0.00     0.229 C 
ATOM     15  H   UNL A   1      32.872  24.953  24.595  1.00  0.00     0.170 HD
BRANCH  14  16
ATOM     16  C   UNL A   1      31.214  26.177  26.147  1.00  0.00     0.139 C 
BRANCH  16  17
ATOM     17  C   UNL A   1      32.182  27.312  26.331  1.00  0.00    -0.003 A 
ATOM     18  C   UNL A   1      33.355  27.375  25.569  1.00  0.00     0.010 A 
ATOM     19  C   UNL A   1      31.973  28.271  27.332  1.00  0.00     0.129 A 
ATOM     20  C   UNL A   1      34.303  28.365  25.832  1.00  0.00     0.040 A 
ATOM     21  C   UNL A   1      32.909  29.260  27.598  1.00  0.00     0.078 A 
ATOM     22  F   UNL A   1      30.842  28.236  28.051  1.00  0.00    -0.207 F 
ATOM     23  C   UNL A   1      34.074  29.292  26.846  1.00  0.00     0.126 A 
ATOM     24  F   UNL A   1      34.998  30.228  27.097  1.00  0.00    -0.207 F 
ENDBRANCH  16  17
ENDBRANCH  14  16
ENDBRANCH   8  12
ENDBRANCH   4   7
ENDBRANCH   2   3
ENDBRANCH   1   2
BRANCH   1  25
ATOM     25  C   UNL A   1      38.571  23.932  26.123  1.00  0.00     0.118 C 
BRANCH  25  26
ATOM     26  N   UNL A   1      40.026  23.775  26.125  1.00  0.00    -0.352 N 
ATOM     27  C   UNL A   1      41.045  24.505  26.696  1.00  0.00     0.251 C 
ATOM     28  H   UNL A   1      40.339  22.991  25.617  1.00  0.00     0.163 HD
ATOM     29  O   UNL A   1      42.206  24.212  26.418  1.00  0.00    -0.269 OA
BRANCH  27  30
ATOM     30  C   UNL A   1      40.774  25.654  27.595  1.00  0.00     0.039 A 
ATOM     31  C   UNL A   1      39.769  25.547  28.564  1.00  0.00     0.014 A 
ATOM     32  C   UNL A   1      41.488  26.844  27.491  1.00  0.00     0.014 A 
ATOM     33  C   UNL A   1      39.577  26.577  29.493  1.00  0.00     0.010 A 
ATOM     34  C   UNL A   1      41.393  27.803  28.493  1.00  0.00     0.010 A 
ATOM     35  C   UNL A   1      40.437  27.685  29.509  1.00  0.00    -0.014 A 
BRANCH  35  36
ATOM     36  C   UNL A   1      40.371  28.741  30.558  1.00  0.00     0.031 A 
ATOM     37  C   UNL A   1      41.290  28.676  31.752  1.00  0.00     0.074 A 
ATOM     38  C   UNL A   1      39.415  29.690  30.502  1.00  0.00     0.049 A 
ATOM     39  N   UNL A   1      41.260  29.368  32.861  1.00  0.00    -0.248 NA
ATOM     40  C   UNL A   1      42.353  27.657  31.713  1.00  0.00     0.031 C 
ATOM     41  C   UNL A   1      38.425  29.841  29.432  1.00  0.00     0.029 A 
ATOM     42  N   UNL A   1      39.108  30.706  31.375  1.00  0.00    -0.354 N 
ATOM     43  C   UNL A   1      42.264  28.839  33.665  1.00  0.00     0.074 A 
ATOM     44  C   UNL A   1      42.845  27.731  32.939  1.00  0.00     0.031 C 
ATOM     45  C   UNL A   1      37.655  30.909  29.688  1.00  0.00     0.029 A 
ATOM     46  C   UNL A   1      38.056  31.490  30.965  1.00  0.00     0.049 A 
ATOM     47  H   UNL A   1      39.597  30.858  32.216  1.00  0.00     0.167 HD
ATOM     48  C   UNL A   1      42.687  29.256  34.884  1.00  0.00     0.037 A 
ATOM     49  C   UNL A   1      37.476  32.555  31.551  1.00  0.00     0.037 A 
ATOM     50  C   UNL A   1      42.149  30.398  35.573  1.00  0.00     0.049 A 
ATOM     51  C   UNL A   1      37.986  33.030  32.881  1.00  0.00     0.074 A 
ATOM     52  C   UNL A   1      42.542  30.937  36.786  1.00  0.00     0.029 A 
ATOM     53  N   UNL A   1      41.115  31.192  35.098  1.00  0.00    -0.354 N 
ATOM     54  N   UNL A   1      38.945  32.525  33.622  1.00  0.00    -0.248 NA
ATOM     55  C   UNL A   1      37.339  34.215  33.459  1.00  0.00     0.031 C 
ATOM     56  C   UNL A   1      41.732  32.046  37.053  1.00  0.00     0.029 A 
ATOM     57  C   UNL A   1      40.857  32.217  35.992  1.00  0.00     0.049 A 
ATOM     58  H   UNL A   1      40.635  31.046  34.251  1.00  0.00     0.167 HD
ATOM     59  C   UNL A   1      39.031  33.344  34.741  1.00  0.00     0.074 A 
ATOM     60  C   UNL A   1      38.032  34.380  34.578  1.00  0.00     0.031 C 
ATOM     61  C   UNL A   1      39.864  33.246  35.806  1.00  0.00     0.037 A 
BRANCH  48  62
ATOM     62  C   UNL A   1      43.797  28.473  35.532  1.00  0.00     0.058 A 
ATOM     63  C   UNL A   1      43.512  27.434  36.432  1.00  0.00     0.135 A 
ATOM     64  C   UNL A   1      45.147  28.743  35.252  1.00  0.00     0.135 A 
ATOM     65  F   UNL A   1      42.241  27.134  36.741  1.00  0.00    -0.206 F 
ATOM     66  C   UNL A   1      44.524  26.676  37.017  1.00  0.00     0.059 A 
ATOM     67  C   UNL A   1      46.172  27.979  35.800  1.00  0.00     0.059 A 
ATOM     68  F   UNL A   1      45.476  29.715  34.386  1.00  0.00    -0.206 F 
ATOM     69  C   UNL A   1      45.849  26.941  36.675  1.00  0.00     0.060 A 
BRANCH  69  70
ATOM     70  S   UNL A   1      47.188  25.936  37.349  1.00  0.00     0.124 S 
ATOM     71  O   UNL A   1      48.302  26.327  36.489  1.00  0.00    -0.237 OA
ATOM     72  O   UNL A   1      47.264  26.400  38.731  1.00  0.00    -0.237 OA
ATOM     73  O   UNL A   1      46.709  24.570  37.174  1.00  0.00    -0.744 OA
ENDBRANCH  69  70
ENDBRANCH  48  62
BRANCH  49  74
ATOM     74  C   UNL A   1      36.385  33.276  30.845  1.00  0.00     0.058 A 
ATOM     75  C   UNL A   1      36.638  34.086  29.727  1.00  0.00     0.135 A 
ATOM     76  C   UNL A   1      35.068  33.212  31.323  1.00  0.00     0.135 A 
ATOM     77  F   UNL A   1      37.884  34.193  29.242  1.00  0.00    -0.206 F 
ATOM     78  C   UNL A   1      35.627  34.828  29.121  1.00  0.00     0.059 A 
ATOM     79  C   UNL A   1      34.039  33.930  30.724  1.00  0.00     0.059 A 
ATOM     80  F   UNL A   1      34.778  32.446  32.385  1.00  0.00    -0.206 F 
ATOM     81  C   UNL A   1      34.331  34.743  29.627  1.00  0.00     0.060 A 
BRANCH  81  82
ATOM     82  S   UNL A   1      33.000  35.736  28.914  1.00  0.00     0.124 S 
ATOM     83  O   UNL A   1      33.747  36.791  28.239  1.00  0.00    -0.237 OA
ATOM     84  O   UNL A   1      32.332  34.771  28.047  1.00  0.00    -0.237 OA
ATOM     85  O   UNL A   1      32.231  36.155  30.083  1.00  0.00    -0.744 OA
ENDBRANCH  81  82
ENDBRANCH  49  74
BRANCH  61  86
ATOM     86  C   UNL A   1      39.757  34.301  36.869  1.00  0.00     0.058 A 
ATOM     87  C   UNL A   1      40.480  35.500  36.752  1.00  0.00     0.135 A 
ATOM     88  C   UNL A   1      39.000  34.099  38.032  1.00  0.00     0.135 A 
ATOM     89  F   UNL A   1      41.225  35.736  35.660  1.00  0.00    -0.206 F 
ATOM     90  C   UNL A   1      40.468  36.459  37.759  1.00  0.00     0.059 A 
ATOM     91  C   UNL A   1      38.957  35.053  39.042  1.00  0.00     0.059 A 
ATOM     92  F   UNL A   1      38.285  32.973  38.185  1.00  0.00    -0.206 F 
ATOM     93  C   UNL A   1      39.699  36.228  38.899  1.00  0.00     0.060 A 
BRANCH  93  94
ATOM     94  S   UNL A   1      39.672  37.435  40.241  1.00  0.00     0.124 S 
ATOM     95  O   UNL A   1      39.917  36.588  41.404  1.00  0.00    -0.237 OA
ATOM     96  O   UNL A   1      40.759  38.335  39.871  1.00  0.00    -0.237 OA
ATOM     97  O   UNL A   1      38.333  38.009  40.155  1.00  0.00    -0.744 OA
ENDBRANCH  93  94
ENDBRANCH  61  86
ENDBRANCH  35  36
ENDBRANCH  27  30
ENDBRANCH  25  26
ENDBRANCH   1  25
TORSDOF 16
ENDMDL
MODEL 3
REMARK VINA RESULT:     -12.4      3.759      9.203
REMARK SMILES O=C(Cc1ccc(F)cc1F)Nc1sccc1C(=O)NCCCNC(=O)c1ccc(-c2c3nc(c(-c4c(F)cc(S(=O)(=O)[O-])cc4F)c4ccc([nH]4)c(-c4c(F)cc(S(=O)(=O)[O-])cc4F)c4nc(c(-c5c(F)cc(S(=O)(=O)[O-])cc5F)c5ccc2[nH]5)C=C4)C=C3)cc1
REMARK SMILES IDX 22 1 21 2 20 3 18 4 19 5 17 7 13 8 14 9 15 10 16 11 12 12
REMARK SMILES IDX 1 13 2 14 3 16 4 17 5 18 10 19 6 20 9 21 11 22 7 23 8 24
REMARK SMILES IDX 23 25 24 26 25 27 26 29 27 30 28 31 92 32 29 33 91 34 30 35
REMARK SMILES IDX 31 36 32 37 85 38 33 39 90 40 84 41 86 42 34 43 89 44 83 45
REMARK SMILES IDX 82 46 35 48 69 49 48 50 68 51 49 52 52 53 67 54 87 55 50 56
REMARK SMILES IDX 51 57 66 59 88 60 53 61 36 62 37 63 46 64 38 65 39 66 45 67
REMARK SMILES IDX 47 68 40 69 41 70 42 71 43 72 44 73 70 74 71 75 80 76 72 77
REMARK SMILES IDX 73 78 79 79 81 80 74 81 75 82 76 83 77 84 78 85 54 86 55 87
REMARK SMILES IDX 64 88 56 89 57 90 63 91 65 92 58 93 59 94 60 95 61 96 62 97
REMARK H PARENT 20 6 12 15 24 28 86 47 52 58
REMARK Flexibility Score: inf
ROOT
ATOM      1  C   UNL A   1      31.846  31.596  26.647  1.00  0.00     0.042 C 
ENDROOT
BRANCH   1   2
ATOM      2  C   UNL A   1      32.216  30.176  26.273  1.00  0.00     0.118 C 
BRANCH   2   3
ATOM      3  N   UNL A   1      33.003  30.015  25.073  1.00  0.00    -0.352 N 
ATOM      4  C   UNL A   1      33.137  28.898  24.278  1.00  0.00     0.254 C 
ATOM      5  O   UNL A   1      33.818  29.011  23.255  1.00  0.00    -0.269 OA
ATOM      6  H   UNL A   1      33.510  30.808  24.784  1.00  0.00     0.163 HD
BRANCH   4   7
ATOM      7  C   UNL A   1      32.669  27.586  24.730  1.00  0.00     0.074 A 
ATOM      8  C   UNL A   1      31.401  27.023  24.714  1.00  0.00     0.108 A 
ATOM      9  S   UNL A   1      31.310  25.571  25.614  1.00  0.00    -0.126 S 
ATOM     10  C   UNL A   1      32.999  25.527  25.841  1.00  0.00     0.068 A 
ATOM     11  C   UNL A   1      33.601  26.649  25.325  1.00  0.00     0.028 A 
BRANCH   8  12
ATOM     12  N   UNL A   1      30.167  27.359  24.195  1.00  0.00    -0.317 N 
ATOM     13  O   UNL A   1      30.774  27.504  21.977  1.00  0.00    -0.274 OA
ATOM     14  C   UNL A   1      29.959  27.702  22.878  1.00  0.00     0.229 C 
ATOM     15  H   UNL A   1      29.391  27.353  24.800  1.00  0.00     0.170 HD
BRANCH  14  16
ATOM     16  C   UNL A   1      28.699  28.517  22.605  1.00  0.00     0.139 C 
BRANCH  16  17
ATOM     17  C   UNL A   1      28.797  30.014  22.698  1.00  0.00    -0.003 A 
ATOM     18  C   UNL A   1      29.327  30.621  23.843  1.00  0.00     0.010 A 
ATOM     19  C   UNL A   1      28.271  30.826  21.684  1.00  0.00     0.129 A 
ATOM     20  C   UNL A   1      29.301  32.010  23.969  1.00  0.00     0.040 A 
ATOM     21  C   UNL A   1      28.244  32.209  21.800  1.00  0.00     0.078 A 
ATOM     22  F   UNL A   1      27.783  30.258  20.572  1.00  0.00    -0.207 F 
ATOM     23  C   UNL A   1      28.756  32.789  22.951  1.00  0.00     0.126 A 
ATOM     24  F   UNL A   1      28.724  34.120  23.092  1.00  0.00    -0.207 F 
ENDBRANCH  16  17
ENDBRANCH  14  16
ENDBRANCH   8  12
ENDBRANCH   4   7
ENDBRANCH   2   3
ENDBRANCH   1   2
BRANCH   1  25
ATOM     25  C   UNL A   1      32.963  32.378  27.331  1.00  0.00     0.118 C 
BRANCH  25  26
ATOM     26  N   UNL A   1      32.624  33.764  27.655  1.00  0.00    -0.352 N 
ATOM     27  C   UNL A   1      33.119  34.656  28.582  1.00  0.00     0.251 C 
ATOM     28  H   UNL A   1      31.898  34.133  27.102  1.00  0.00     0.163 HD
ATOM     29  O   UNL A   1      32.544  35.734  28.727  1.00  0.00    -0.269 OA
BRANCH  27  30
ATOM     30  C   UNL A   1      34.291  34.331  29.431  1.00  0.00     0.039 A 
ATOM     31  C   UNL A   1      34.088  33.878  30.740  1.00  0.00     0.014 A 
ATOM     32  C   UNL A   1      35.593  34.474  28.961  1.00  0.00     0.014 A 
ATOM     33  C   UNL A   1      35.176  33.458  31.515  1.00  0.00     0.010 A 
ATOM     34  C   UNL A   1      36.655  33.931  29.674  1.00  0.00     0.010 A 
ATOM     35  C   UNL A   1      36.464  33.415  30.962  1.00  0.00    -0.014 A 
BRANCH  35  36
ATOM     36  C   UNL A   1      37.635  32.847  31.688  1.00  0.00     0.031 A 
ATOM     37  C   UNL A   1      38.378  31.667  31.114  1.00  0.00     0.074 A 
ATOM     38  C   UNL A   1      37.961  33.312  32.911  1.00  0.00     0.049 A 
ATOM     39  N   UNL A   1      39.283  30.905  31.672  1.00  0.00    -0.248 NA
ATOM     40  C   UNL A   1      38.015  31.259  29.747  1.00  0.00     0.031 C 
ATOM     41  C   UNL A   1      37.294  34.413  33.610  1.00  0.00     0.029 A 
ATOM     42  N   UNL A   1      38.931  32.904  33.795  1.00  0.00    -0.354 N 
ATOM     43  C   UNL A   1      39.560  29.905  30.746  1.00  0.00     0.074 A 
ATOM     44  C   UNL A   1      38.685  30.125  29.614  1.00  0.00     0.031 C 
ATOM     45  C   UNL A   1      37.901  34.623  34.788  1.00  0.00     0.029 A 
ATOM     46  C   UNL A   1      38.965  33.639  34.956  1.00  0.00     0.049 A 
ATOM     47  H   UNL A   1      39.545  32.157  33.612  1.00  0.00     0.167 HD
ATOM     48  C   UNL A   1      40.479  28.912  30.815  1.00  0.00     0.037 A 
ATOM     49  C   UNL A   1      39.761  33.532  36.038  1.00  0.00     0.037 A 
ATOM     50  C   UNL A   1      41.390  28.736  31.914  1.00  0.00     0.049 A 
ATOM     51  C   UNL A   1      40.804  32.453  36.079  1.00  0.00     0.074 A 
ATOM     52  C   UNL A   1      42.396  27.796  32.058  1.00  0.00     0.029 A 
ATOM     53  N   UNL A   1      41.421  29.533  33.049  1.00  0.00    -0.354 N 
ATOM     54  N   UNL A   1      41.061  31.524  35.188  1.00  0.00    -0.248 NA
ATOM     55  C   UNL A   1      41.666  32.402  37.267  1.00  0.00     0.031 C 
ATOM     56  C   UNL A   1      43.022  28.014  33.289  1.00  0.00     0.029 A 
ATOM     57  C   UNL A   1      42.429  29.108  33.898  1.00  0.00     0.049 A 
ATOM     58  H   UNL A   1      40.815  30.288  33.224  1.00  0.00     0.167 HD
ATOM     59  C   UNL A   1      42.127  30.793  35.698  1.00  0.00     0.074 A 
ATOM     60  C   UNL A   1      42.472  31.391  36.972  1.00  0.00     0.031 C 
ATOM     61  C   UNL A   1      42.763  29.724  35.158  1.00  0.00     0.037 A 
BRANCH  48  62
ATOM     62  C   UNL A   1      40.546  27.955  29.655  1.00  0.00     0.058 A 
ATOM     63  C   UNL A   1      41.528  28.099  28.662  1.00  0.00     0.135 A 
ATOM     64  C   UNL A   1      39.644  26.885  29.532  1.00  0.00     0.135 A 
ATOM     65  F   UNL A   1      42.414  29.105  28.725  1.00  0.00    -0.206 F 
ATOM     66  C   UNL A   1      41.629  27.204  27.599  1.00  0.00     0.059 A 
ATOM     67  C   UNL A   1      39.744  25.963  28.496  1.00  0.00     0.059 A 
ATOM     68  F   UNL A   1      38.694  26.691  30.461  1.00  0.00    -0.206 F 
ATOM     69  C   UNL A   1      40.747  26.126  27.539  1.00  0.00     0.060 A 
BRANCH  69  70
ATOM     70  S   UNL A   1      40.886  24.899  26.222  1.00  0.00     0.124 S 
ATOM     71  O   UNL A   1      41.932  24.028  26.749  1.00  0.00    -0.237 OA
ATOM     72  O   UNL A   1      39.545  24.326  26.184  1.00  0.00    -0.237 OA
ATOM     73  O   UNL A   1      41.259  25.693  25.056  1.00  0.00    -0.744 OA
ENDBRANCH  69  70
ENDBRANCH  48  62
BRANCH  49  74
ATOM     74  C   UNL A   1      39.633  34.519  37.142  1.00  0.00     0.058 A 
ATOM     75  C   UNL A   1      40.345  35.728  37.139  1.00  0.00     0.135 A 
ATOM     76  C   UNL A   1      38.835  34.232  38.259  1.00  0.00     0.135 A 
ATOM     77  F   UNL A   1      41.135  36.040  36.100  1.00  0.00    -0.206 F 
ATOM     78  C   UNL A   1      40.289  36.610  38.214  1.00  0.00     0.059 A 
ATOM     79  C   UNL A   1      38.748  35.105  39.338  1.00  0.00     0.059 A 
ATOM     80  F   UNL A   1      38.131  33.091  38.304  1.00  0.00    -0.206 F 
ATOM     81  C   UNL A   1      39.488  36.289  39.310  1.00  0.00     0.060 A 
BRANCH  81  82
ATOM     82  S   UNL A   1      39.434  37.371  40.756  1.00  0.00     0.124 S 
ATOM     83  O   UNL A   1      38.930  36.467  41.783  1.00  0.00    -0.237 OA
ATOM     84  O   UNL A   1      40.832  37.772  40.888  1.00  0.00    -0.237 OA
ATOM     85  O   UNL A   1      38.522  38.434  40.346  1.00  0.00    -0.744 OA
ENDBRANCH  81  82
ENDBRANCH  49  74
BRANCH  61  86
ATOM     86  C   UNL A   1      43.918  29.146  35.924  1.00  0.00     0.058 A 
ATOM     87  C   UNL A   1      43.718  28.063  36.795  1.00  0.00     0.135 A 
ATOM     88  C   UNL A   1      45.201  29.707  35.853  1.00  0.00     0.135 A 
ATOM     89  F   UNL A   1      42.506  27.498  36.904  1.00  0.00    -0.206 F 
ATOM     90  C   UNL A   1      44.750  27.562  37.581  1.00  0.00     0.059 A 
ATOM     91  C   UNL A   1      46.252  29.208  36.614  1.00  0.00     0.059 A 
ATOM     92  F   UNL A   1      45.443  30.738  35.027  1.00  0.00    -0.206 F 
ATOM     93  C   UNL A   1      46.015  28.138  37.480  1.00  0.00     0.060 A 
BRANCH  93  94
ATOM     94  S   UNL A   1      47.378  27.535  38.500  1.00  0.00     0.124 S 
ATOM     95  O   UNL A   1      48.427  28.500  38.191  1.00  0.00    -0.237 OA
ATOM     96  O   UNL A   1      46.818  27.613  39.845  1.00  0.00    -0.237 OA
ATOM     97  O   UNL A   1      47.603  26.182  37.998  1.00  0.00    -0.744 OA
ENDBRANCH  93  94
ENDBRANCH  61  86
ENDBRANCH  35  36
ENDBRANCH  27  30
ENDBRANCH  25  26
ENDBRANCH   1  25
TORSDOF 16
ENDMDL
