MODEL 1
REMARK VINA RESULT:     -11.7      0.000      0.000
REMARK SMILES O=C(NCCCNC(=O)[C@H]1CCCN(C(=O)c2cc(Br)ccc2Cl)C1)c1ccc(-c2c3nc(c(-c4c(F)cc(S(=O)(=O)[O-])cc4F)c4ccc([nH]4)c(-c4c(F)cc(S(=O)(=O)[O-])cc4F)c4nc(c(-c5c(F)cc(S(=O)(=O)[O-])cc5F)c5ccc2[nH]5)C=C4)C=C3)cc1
REMARK SMILES IDX 4 1 3 2 1 3 2 4 26 6 27 7 91 8 28 9 90 10 29 11 30 12 31 13
REMARK SMILES IDX 84 14 32 15 89 16 83 17 85 18 33 19 88 20 82 21 81 22 34 24
REMARK SMILES IDX 68 25 47 26 67 27 48 28 51 29 66 30 86 31 49 32 50 33 65 35
REMARK SMILES IDX 87 36 52 37 35 38 36 39 45 40 37 41 38 42 44 43 46 44 39 45
REMARK SMILES IDX 40 46 41 47 42 48 43 49 69 50 70 51 79 52 71 53 72 54 78 55
REMARK SMILES IDX 80 56 73 57 74 58 75 59 76 60 77 61 53 62 54 63 63 64 55 65
REMARK SMILES IDX 56 66 62 67 64 68 57 69 58 70 59 71 60 72 61 73 5 74 6 75
REMARK SMILES IDX 7 76 8 77 9 79 10 80 11 81 25 82 12 83 14 84 13 85 15 86
REMARK SMILES IDX 16 87 17 88 18 89 23 90 19 91 22 92 24 93 20 94 21 95
REMARK H PARENT 3 5 85 23 51 34 7 78
REMARK Flexibility Score: inf
ROOT
ATOM      1  C   UNL A   1      33.536  28.533  27.174  1.00  0.00     0.118 C 
ENDROOT
BRANCH   1   2
ATOM      2  N   UNL A   1      33.499  29.931  27.565  1.00  0.00    -0.352 N 
ATOM      3  O   UNL A   1      34.095  31.761  28.717  1.00  0.00    -0.269 OA
ATOM      4  C   UNL A   1      34.430  30.672  28.245  1.00  0.00     0.251 C 
ATOM      5  H   UNL A   1      32.685  30.419  27.302  1.00  0.00     0.163 HD
BRANCH   4   6
ATOM      6  C   UNL A   1      35.819  30.191  28.419  1.00  0.00     0.039 A 
ATOM      7  C   UNL A   1      36.745  30.239  27.370  1.00  0.00     0.014 A 
ATOM      8  C   UNL A   1      36.231  29.775  29.689  1.00  0.00     0.014 A 
ATOM      9  C   UNL A   1      38.055  29.802  27.571  1.00  0.00     0.010 A 
ATOM     10  C   UNL A   1      37.557  29.393  29.904  1.00  0.00     0.010 A 
ATOM     11  C   UNL A   1      38.479  29.395  28.845  1.00  0.00    -0.014 A 
BRANCH  11  12
ATOM     12  C   UNL A   1      39.902  29.052  29.095  1.00  0.00     0.031 A 
ATOM     13  C   UNL A   1      40.861  30.085  29.607  1.00  0.00     0.074 A 
ATOM     14  C   UNL A   1      40.335  27.810  28.805  1.00  0.00     0.049 A 
ATOM     15  N   UNL A   1      42.154  29.994  29.789  1.00  0.00    -0.248 NA
ATOM     16  C   UNL A   1      40.296  31.399  29.950  1.00  0.00     0.031 C 
ATOM     17  C   UNL A   1      39.497  26.726  28.289  1.00  0.00     0.029 A 
ATOM     18  N   UNL A   1      41.586  27.254  28.884  1.00  0.00    -0.354 N 
ATOM     19  C   UNL A   1      42.564  31.241  30.242  1.00  0.00     0.074 A 
ATOM     20  C   UNL A   1      41.383  32.079  30.293  1.00  0.00     0.031 C 
ATOM     21  C   UNL A   1      40.255  25.637  28.097  1.00  0.00     0.029 A 
ATOM     22  C   UNL A   1      41.639  25.958  28.428  1.00  0.00     0.049 A 
ATOM     23  H   UNL A   1      42.371  27.736  29.233  1.00  0.00     0.167 HD
ATOM     24  C   UNL A   1      43.812  31.648  30.582  1.00  0.00     0.037 A 
ATOM     25  C   UNL A   1      42.687  25.128  28.263  1.00  0.00     0.037 A 
ATOM     26  C   UNL A   1      44.978  30.804  30.533  1.00  0.00     0.049 A 
ATOM     27  C   UNL A   1      44.063  25.600  28.638  1.00  0.00     0.074 A 
ATOM     28  C   UNL A   1      46.279  31.112  30.890  1.00  0.00     0.029 A 
ATOM     29  N   UNL A   1      44.986  29.490  30.089  1.00  0.00    -0.354 N 
ATOM     30  N   UNL A   1      44.430  26.772  29.098  1.00  0.00    -0.248 NA
ATOM     31  C   UNL A   1      45.165  24.644  28.471  1.00  0.00     0.031 C 
ATOM     32  C   UNL A   1      47.080  29.993  30.629  1.00  0.00     0.029 A 
ATOM     33  C   UNL A   1      46.271  28.976  30.147  1.00  0.00     0.049 A 
ATOM     34  H   UNL A   1      44.194  28.994  29.778  1.00  0.00     0.167 HD
ATOM     35  C   UNL A   1      45.802  26.689  29.298  1.00  0.00     0.074 A 
ATOM     36  C   UNL A   1      46.201  25.351  28.908  1.00  0.00     0.031 C 
ATOM     37  C   UNL A   1      46.650  27.637  29.765  1.00  0.00     0.037 A 
BRANCH  24  38
ATOM     38  C   UNL A   1      43.975  33.080  31.009  1.00  0.00     0.058 A 
ATOM     39  C   UNL A   1      43.894  33.465  32.358  1.00  0.00     0.135 A 
ATOM     40  C   UNL A   1      44.211  34.084  30.056  1.00  0.00     0.135 A 
ATOM     41  F   UNL A   1      43.660  32.547  33.309  1.00  0.00    -0.206 F 
ATOM     42  C   UNL A   1      43.996  34.799  32.741  1.00  0.00     0.059 A 
ATOM     43  C   UNL A   1      44.337  35.422  30.419  1.00  0.00     0.059 A 
ATOM     44  F   UNL A   1      44.302  33.771  28.754  1.00  0.00    -0.206 F 
ATOM     45  C   UNL A   1      44.204  35.772  31.762  1.00  0.00     0.060 A 
BRANCH  45  46
ATOM     46  S   UNL A   1      44.288  37.504  32.265  1.00  0.00     0.124 S 
ATOM     47  O   UNL A   1      45.691  37.628  32.645  1.00  0.00    -0.237 OA
ATOM     48  O   UNL A   1      43.899  38.208  31.047  1.00  0.00    -0.237 OA
ATOM     49  O   UNL A   1      43.329  37.585  33.364  1.00  0.00    -0.744 OA
ENDBRANCH  45  46
ENDBRANCH  24  38
BRANCH  25  50
ATOM     50  C   UNL A   1      42.450  23.769  27.715  1.00  0.00     0.058 A 
ATOM     51  C   UNL A   1      42.404  23.545  26.333  1.00  0.00     0.135 A 
ATOM     52  C   UNL A   1      42.359  22.654  28.565  1.00  0.00     0.135 A 
ATOM     53  F   UNL A   1      42.482  24.580  25.483  1.00  0.00    -0.206 F 
ATOM     54  C   UNL A   1      42.292  22.262  25.809  1.00  0.00     0.059 A 
ATOM     55  C   UNL A   1      42.267  21.359  28.064  1.00  0.00     0.059 A 
ATOM     56  F   UNL A   1      42.415  22.817  29.896  1.00  0.00    -0.206 F 
ATOM     57  C   UNL A   1      42.236  21.173  26.682  1.00  0.00     0.060 A 
BRANCH  57  58
ATOM     58  S   UNL A   1      42.203  19.506  25.989  1.00  0.00     0.124 S 
ATOM     59  O   UNL A   1      42.657  18.707  27.122  1.00  0.00    -0.237 OA
ATOM     60  O   UNL A   1      40.798  19.354  25.621  1.00  0.00    -0.237 OA
ATOM     61  O   UNL A   1      43.129  19.593  24.864  1.00  0.00    -0.744 OA
ENDBRANCH  57  58
ENDBRANCH  25  50
BRANCH  37  62
ATOM     62  C   UNL A   1      48.096  27.260  29.920  1.00  0.00     0.058 A 
ATOM     63  C   UNL A   1      49.038  27.536  28.919  1.00  0.00     0.135 A 
ATOM     64  C   UNL A   1      48.554  26.697  31.122  1.00  0.00     0.135 A 
ATOM     65  F   UNL A   1      48.648  28.064  27.749  1.00  0.00    -0.206 F 
ATOM     66  C   UNL A   1      50.391  27.270  29.106  1.00  0.00     0.059 A 
ATOM     67  C   UNL A   1      49.904  26.439  31.337  1.00  0.00     0.059 A 
ATOM     68  F   UNL A   1      47.690  26.419  32.111  1.00  0.00    -0.206 F 
ATOM     69  C   UNL A   1      50.816  26.728  30.321  1.00  0.00     0.060 A 
BRANCH  69  70
ATOM     70  S   UNL A   1      52.582  26.456  30.582  1.00  0.00     0.124 S 
ATOM     71  O   UNL A   1      52.993  27.731  31.161  1.00  0.00    -0.237 OA
ATOM     72  O   UNL A   1      52.593  25.314  31.491  1.00  0.00    -0.237 OA
ATOM     73  O   UNL A   1      53.084  26.184  29.239  1.00  0.00    -0.744 OA
ENDBRANCH  69  70
ENDBRANCH  37  62
ENDBRANCH  11  12
ENDBRANCH   4   6
ENDBRANCH   1   2
BRANCH   1  74
ATOM     74  C   UNL A   1      34.021  28.361  25.737  1.00  0.00     0.042 C 
BRANCH  74  75
ATOM     75  C   UNL A   1      33.025  28.855  24.685  1.00  0.00     0.117 C 
BRANCH  75  76
ATOM     76  N   UNL A   1      33.407  28.421  23.353  1.00  0.00    -0.356 N 
ATOM     77  C   UNL A   1      33.383  27.196  22.766  1.00  0.00     0.224 C 
ATOM     78  H   UNL A   1      33.743  29.143  22.772  1.00  0.00     0.163 HD
ATOM     79  O   UNL A   1      33.831  27.134  21.617  1.00  0.00    -0.275 OA
BRANCH  77  80
ATOM     80  C   UNL A   1      32.752  25.977  23.446  1.00  0.00     0.098 C 
ATOM     81  C   UNL A   1      31.386  25.674  22.779  1.00  0.00     0.017 C 
ATOM     82  C   UNL A   1      33.609  24.714  23.384  1.00  0.00     0.133 C 
ATOM     83  C   UNL A   1      30.719  24.407  23.322  1.00  0.00     0.022 C 
ATOM     84  N   UNL A   1      32.907  23.577  23.970  1.00  0.00    -0.338 N 
ATOM     85  C   UNL A   1      31.669  23.213  23.293  1.00  0.00     0.120 C 
BRANCH  84  86
ATOM     86  C   UNL A   1      33.353  23.061  25.183  1.00  0.00     0.255 C 
ATOM     87  O   UNL A   1      32.755  23.208  26.248  1.00  0.00    -0.269 OA
BRANCH  86  88
ATOM     88  C   UNL A   1      34.576  22.243  25.208  1.00  0.00     0.059 A 
ATOM     89  C   UNL A   1      35.767  22.878  25.582  1.00  0.00     0.031 A 
ATOM     90  C   UNL A   1      34.577  20.896  24.827  1.00  0.00     0.053 A 
ATOM     91  C   UNL A   1      36.951  22.146  25.613  1.00  0.00     0.018 A 
ATOM     92  C   UNL A   1      35.773  20.174  24.863  1.00  0.00     0.022 A 
ATOM     93  Cl  UNL A   1      33.153  20.078  24.296  1.00  0.00    -0.083 Cl
ATOM     94  Br  UNL A   1      38.560  22.989  26.137  1.00  0.00    -0.051 Br
ATOM     95  C   UNL A   1      36.959  20.796  25.263  1.00  0.00     0.017 A 
ENDBRANCH  86  88
ENDBRANCH  84  86
ENDBRANCH  77  80
ENDBRANCH  75  76
ENDBRANCH  74  75
ENDBRANCH   1  74
TORSDOF 15
ENDMDL
MODEL 2
REMARK VINA RESULT:     -11.7      3.644      6.489
REMARK SMILES O=C(NCCCNC(=O)[C@H]1CCCN(C(=O)c2cc(Br)ccc2Cl)C1)c1ccc(-c2c3nc(c(-c4c(F)cc(S(=O)(=O)[O-])cc4F)c4ccc([nH]4)c(-c4c(F)cc(S(=O)(=O)[O-])cc4F)c4nc(c(-c5c(F)cc(S(=O)(=O)[O-])cc5F)c5ccc2[nH]5)C=C4)C=C3)cc1
REMARK SMILES IDX 4 1 3 2 1 3 2 4 26 6 27 7 91 8 28 9 90 10 29 11 30 12 31 13
REMARK SMILES IDX 84 14 32 15 89 16 83 17 85 18 33 19 88 20 82 21 81 22 34 24
REMARK SMILES IDX 68 25 47 26 67 27 48 28 51 29 66 30 86 31 49 32 50 33 65 35
REMARK SMILES IDX 87 36 52 37 35 38 36 39 45 40 37 41 38 42 44 43 46 44 39 45
REMARK SMILES IDX 40 46 41 47 42 48 43 49 69 50 70 51 79 52 71 53 72 54 78 55
REMARK SMILES IDX 80 56 73 57 74 58 75 59 76 60 77 61 53 62 54 63 63 64 55 65
REMARK SMILES IDX 56 66 62 67 64 68 57 69 58 70 59 71 60 72 61 73 5 74 6 75
REMARK SMILES IDX 7 76 8 77 9 79 10 80 11 81 25 82 12 83 14 84 13 85 15 86
REMARK SMILES IDX 16 87 17 88 18 89 23 90 19 91 22 92 24 93 20 94 21 95
REMARK H PARENT 3 5 85 23 51 34 7 78
REMARK Flexibility Score: inf
ROOT
ATOM      1  C   UNL A   1      34.436  32.574  28.299  1.00  0.00     0.118 C 
ENDROOT
BRANCH   1   2
ATOM      2  N   UNL A   1      33.844  31.276  28.031  1.00  0.00    -0.352 N 
ATOM      3  O   UNL A   1      33.800  29.133  27.370  1.00  0.00    -0.269 OA
ATOM      4  C   UNL A   1      34.451  30.059  27.858  1.00  0.00     0.251 C 
ATOM      5  H   UNL A   1      32.862  31.268  27.963  1.00  0.00     0.163 HD
BRANCH   4   6
ATOM      6  C   UNL A   1      35.863  29.841  28.247  1.00  0.00     0.039 A 
ATOM      7  C   UNL A   1      36.205  29.381  29.525  1.00  0.00     0.014 A 
ATOM      8  C   UNL A   1      36.858  30.005  27.280  1.00  0.00     0.014 A 
ATOM      9  C   UNL A   1      37.543  29.161  29.855  1.00  0.00     0.010 A 
ATOM     10  C   UNL A   1      38.191  29.728  27.593  1.00  0.00     0.010 A 
ATOM     11  C   UNL A   1      38.546  29.311  28.886  1.00  0.00    -0.014 A 
BRANCH  11  12
ATOM     12  C   UNL A   1      39.954  28.954  29.193  1.00  0.00     0.031 A 
ATOM     13  C   UNL A   1      40.888  29.964  29.792  1.00  0.00     0.074 A 
ATOM     14  C   UNL A   1      40.401  27.724  28.875  1.00  0.00     0.049 A 
ATOM     15  N   UNL A   1      42.170  29.863  30.033  1.00  0.00    -0.248 NA
ATOM     16  C   UNL A   1      40.307  31.265  30.158  1.00  0.00     0.031 C 
ATOM     17  C   UNL A   1      39.589  26.663  28.275  1.00  0.00     0.029 A 
ATOM     18  N   UNL A   1      41.647  27.162  28.993  1.00  0.00    -0.354 N 
ATOM     19  C   UNL A   1      42.558  31.090  30.556  1.00  0.00     0.074 A 
ATOM     20  C   UNL A   1      41.376  31.927  30.582  1.00  0.00     0.031 C 
ATOM     21  C   UNL A   1      40.356  25.581  28.077  1.00  0.00     0.029 A 
ATOM     22  C   UNL A   1      41.722  25.886  28.489  1.00  0.00     0.049 A 
ATOM     23  H   UNL A   1      42.414  27.628  29.399  1.00  0.00     0.167 HD
ATOM     24  C   UNL A   1      43.787  31.480  30.973  1.00  0.00     0.037 A 
ATOM     25  C   UNL A   1      42.777  25.060  28.343  1.00  0.00     0.037 A 
ATOM     26  C   UNL A   1      44.954  30.636  30.948  1.00  0.00     0.049 A 
ATOM     27  C   UNL A   1      44.132  25.514  28.804  1.00  0.00     0.074 A 
ATOM     28  C   UNL A   1      46.236  30.927  31.381  1.00  0.00     0.029 A 
ATOM     29  N   UNL A   1      44.984  29.341  30.453  1.00  0.00    -0.354 N 
ATOM     30  N   UNL A   1      44.476  26.665  29.328  1.00  0.00    -0.248 NA
ATOM     31  C   UNL A   1      45.241  24.563  28.654  1.00  0.00     0.031 C 
ATOM     32  C   UNL A   1      47.048  29.818  31.115  1.00  0.00     0.029 A 
ATOM     33  C   UNL A   1      46.265  28.822  30.554  1.00  0.00     0.049 A 
ATOM     34  H   UNL A   1      44.208  28.860  30.083  1.00  0.00     0.167 HD
ATOM     35  C   UNL A   1      45.837  26.572  29.592  1.00  0.00     0.074 A 
ATOM     36  C   UNL A   1      46.254  25.250  29.170  1.00  0.00     0.031 C 
ATOM     37  C   UNL A   1      46.661  27.499  30.138  1.00  0.00     0.037 A 
BRANCH  24  38
ATOM     38  C   UNL A   1      43.929  32.894  31.465  1.00  0.00     0.058 A 
ATOM     39  C   UNL A   1      43.724  33.234  32.812  1.00  0.00     0.135 A 
ATOM     40  C   UNL A   1      44.271  33.925  30.575  1.00  0.00     0.135 A 
ATOM     41  F   UNL A   1      43.385  32.289  33.703  1.00  0.00    -0.206 F 
ATOM     42  C   UNL A   1      43.807  34.552  33.250  1.00  0.00     0.059 A 
ATOM     43  C   UNL A   1      44.382  35.248  30.996  1.00  0.00     0.059 A 
ATOM     44  F   UNL A   1      44.485  33.655  29.278  1.00  0.00    -0.206 F 
ATOM     45  C   UNL A   1      44.124  35.554  32.331  1.00  0.00     0.060 A 
BRANCH  45  46
ATOM     46  S   UNL A   1      44.184  37.266  32.900  1.00  0.00     0.124 S 
ATOM     47  O   UNL A   1      45.439  37.280  33.647  1.00  0.00    -0.237 OA
ATOM     48  O   UNL A   1      44.186  38.018  31.649  1.00  0.00    -0.237 OA
ATOM     49  O   UNL A   1      42.973  37.399  33.705  1.00  0.00    -0.744 OA
ENDBRANCH  45  46
ENDBRANCH  24  38
BRANCH  25  50
ATOM     50  C   UNL A   1      42.566  23.725  27.731  1.00  0.00     0.058 A 
ATOM     51  C   UNL A   1      42.606  23.553  26.341  1.00  0.00     0.135 A 
ATOM     52  C   UNL A   1      42.417  22.580  28.530  1.00  0.00     0.135 A 
ATOM     53  F   UNL A   1      42.742  24.619  25.537  1.00  0.00    -0.206 F 
ATOM     54  C   UNL A   1      42.519  22.292  25.762  1.00  0.00     0.059 A 
ATOM     55  C   UNL A   1      42.349  21.305  27.975  1.00  0.00     0.059 A 
ATOM     56  F   UNL A   1      42.390  22.692  29.867  1.00  0.00    -0.206 F 
ATOM     57  C   UNL A   1      42.403  21.171  26.588  1.00  0.00     0.060 A 
BRANCH  57  58
ATOM     58  S   UNL A   1      42.403  19.531  25.832  1.00  0.00     0.124 S 
ATOM     59  O   UNL A   1      43.418  19.685  24.796  1.00  0.00    -0.237 OA
ATOM     60  O   UNL A   1      42.762  18.673  26.957  1.00  0.00    -0.237 OA
ATOM     61  O   UNL A   1      41.031  19.383  25.356  1.00  0.00    -0.744 OA
ENDBRANCH  57  58
ENDBRANCH  25  50
BRANCH  37  62
ATOM     62  C   UNL A   1      48.097  27.113  30.348  1.00  0.00     0.058 A 
ATOM     63  C   UNL A   1      49.093  27.450  29.420  1.00  0.00     0.135 A 
ATOM     64  C   UNL A   1      48.490  26.476  31.537  1.00  0.00     0.135 A 
ATOM     65  F   UNL A   1      48.766  28.049  28.265  1.00  0.00    -0.206 F 
ATOM     66  C   UNL A   1      50.434  27.172  29.665  1.00  0.00     0.059 A 
ATOM     67  C   UNL A   1      49.828  26.205  31.810  1.00  0.00     0.059 A 
ATOM     68  F   UNL A   1      47.574  26.138  32.458  1.00  0.00    -0.206 F 
ATOM     69  C   UNL A   1      50.793  26.556  30.866  1.00  0.00     0.060 A 
BRANCH  69  70
ATOM     70  S   UNL A   1      52.542  26.268  31.207  1.00  0.00     0.124 S 
ATOM     71  O   UNL A   1      52.884  27.441  32.005  1.00  0.00    -0.237 OA
ATOM     72  O   UNL A   1      52.518  24.998  31.926  1.00  0.00    -0.237 OA
ATOM     73  O   UNL A   1      53.142  26.216  29.877  1.00  0.00    -0.744 OA
ENDBRANCH  69  70
ENDBRANCH  37  62
ENDBRANCH  11  12
ENDBRANCH   4   6
ENDBRANCH   1   2
BRANCH   1  74
ATOM     74  C   UNL A   1      34.482  32.877  29.793  1.00  0.00     0.042 C 
BRANCH  74  75
ATOM     75  C   UNL A   1      35.708  33.686  30.224  1.00  0.00     0.117 C 
BRANCH  75  76
ATOM     76  N   UNL A   1      35.379  34.618  31.287  1.00  0.00    -0.356 N 
ATOM     77  C   UNL A   1      35.887  34.769  32.539  1.00  0.00     0.224 C 
ATOM     78  H   UNL A   1      34.660  35.253  31.061  1.00  0.00     0.163 HD
ATOM     79  O   UNL A   1      35.353  35.632  33.242  1.00  0.00    -0.275 OA
BRANCH  77  80
ATOM     80  C   UNL A   1      37.110  33.985  33.023  1.00  0.00     0.098 C 
ATOM     81  C   UNL A   1      38.397  34.711  32.554  1.00  0.00     0.017 C 
ATOM     82  C   UNL A   1      37.181  33.812  34.539  1.00  0.00     0.133 C 
ATOM     83  C   UNL A   1      39.681  34.060  33.076  1.00  0.00     0.022 C 
ATOM     84  N   UNL A   1      38.415  33.137  34.931  1.00  0.00    -0.338 N 
ATOM     85  C   UNL A   1      39.635  33.856  34.587  1.00  0.00     0.120 C 
BRANCH  84  86
ATOM     86  C   UNL A   1      38.347  31.835  35.418  1.00  0.00     0.255 C 
ATOM     87  O   UNL A   1      37.626  31.494  36.354  1.00  0.00    -0.269 OA
BRANCH  86  88
ATOM     88  C   UNL A   1      39.130  30.781  34.755  1.00  0.00     0.059 A 
ATOM     89  C   UNL A   1      40.381  30.467  35.303  1.00  0.00     0.031 A 
ATOM     90  C   UNL A   1      38.682  30.142  33.592  1.00  0.00     0.053 A 
ATOM     91  C   UNL A   1      41.161  29.481  34.705  1.00  0.00     0.018 A 
ATOM     92  C   UNL A   1      39.476  29.154  33.004  1.00  0.00     0.022 A 
ATOM     93  Cl  UNL A   1      37.181  30.531  32.837  1.00  0.00    -0.083 Cl
ATOM     94  Br  UNL A   1      42.841  29.037  35.449  1.00  0.00    -0.051 Br
ATOM     95  C   UNL A   1      40.712  28.817  33.563  1.00  0.00     0.017 A 
ENDBRANCH  86  88
ENDBRANCH  84  86
ENDBRANCH  77  80
ENDBRANCH  75  76
ENDBRANCH  74  75
ENDBRANCH   1  74
TORSDOF 15
ENDMDL
MODEL 3
REMARK VINA RESULT:     -11.6      5.209     10.636
REMARK SMILES O=C(NCCCNC(=O)[C@H]1CCCN(C(=O)c2cc(Br)ccc2Cl)C1)c1ccc(-c2c3nc(c(-c4c(F)cc(S(=O)(=O)[O-])cc4F)c4ccc([nH]4)c(-c4c(F)cc(S(=O)(=O)[O-])cc4F)c4nc(c(-c5c(F)cc(S(=O)(=O)[O-])cc5F)c5ccc2[nH]5)C=C4)C=C3)cc1
REMARK SMILES IDX 4 1 3 2 1 3 2 4 26 6 27 7 91 8 28 9 90 10 29 11 30 12 31 13
REMARK SMILES IDX 84 14 32 15 89 16 83 17 85 18 33 19 88 20 82 21 81 22 34 24
REMARK SMILES IDX 68 25 47 26 67 27 48 28 51 29 66 30 86 31 49 32 50 33 65 35
REMARK SMILES IDX 87 36 52 37 35 38 36 39 45 40 37 41 38 42 44 43 46 44 39 45
REMARK SMILES IDX 40 46 41 47 42 48 43 49 69 50 70 51 79 52 71 53 72 54 78 55
REMARK SMILES IDX 80 56 73 57 74 58 75 59 76 60 77 61 53 62 54 63 63 64 55 65
REMARK SMILES IDX 56 66 62 67 64 68 57 69 58 70 59 71 60 72 61 73 5 74 6 75
REMARK SMILES IDX 7 76 8 77 9 79 10 80 11 81 25 82 12 83 14 84 13 85 15 86
REMARK SMILES IDX 16 87 17 88 18 89 23 90 19 91 22 92 24 93 20 94 21 95
REMARK H PARENT 3 5 85 23 51 34 7 78
REMARK Flexibility Score: inf
ROOT
ATOM      1  C   UNL A   1      38.196  24.191  26.199  1.00  0.00     0.118 C 
ENDROOT
BRANCH   1   2
ATOM      2  N   UNL A   1      39.604  23.839  26.163  1.00  0.00    -0.352 N 
ATOM      3  O   UNL A   1      41.815  24.187  26.300  1.00  0.00    -0.269 OA
ATOM      4  C   UNL A   1      40.684  24.511  26.671  1.00  0.00     0.251 C 
ATOM      5  H   UNL A   1      39.813  22.992  25.707  1.00  0.00     0.163 HD
BRANCH   4   6
ATOM      6  C   UNL A   1      40.518  25.608  27.652  1.00  0.00     0.039 A 
ATOM      7  C   UNL A   1      39.560  25.537  28.670  1.00  0.00     0.014 A 
ATOM      8  C   UNL A   1      41.407  26.686  27.610  1.00  0.00     0.014 A 
ATOM      9  C   UNL A   1      39.443  26.576  29.596  1.00  0.00     0.010 A 
ATOM     10  C   UNL A   1      41.328  27.696  28.571  1.00  0.00     0.010 A 
ATOM     11  C   UNL A   1      40.340  27.654  29.568  1.00  0.00    -0.014 A 
BRANCH  11  12
ATOM     12  C   UNL A   1      40.303  28.696  30.625  1.00  0.00     0.031 A 
ATOM     13  C   UNL A   1      41.184  28.592  31.835  1.00  0.00     0.074 A 
ATOM     14  C   UNL A   1      39.428  29.712  30.510  1.00  0.00     0.049 A 
ATOM     15  N   UNL A   1      41.216  29.350  32.901  1.00  0.00    -0.248 NA
ATOM     16  C   UNL A   1      42.149  27.482  31.856  1.00  0.00     0.031 C 
ATOM     17  C   UNL A   1      38.511  29.910  29.386  1.00  0.00     0.029 A 
ATOM     18  N   UNL A   1      39.150  30.759  31.353  1.00  0.00    -0.354 N 
ATOM     19  C   UNL A   1      42.183  28.799  33.732  1.00  0.00     0.074 A 
ATOM     20  C   UNL A   1      42.705  27.631  33.052  1.00  0.00     0.031 C 
ATOM     21  C   UNL A   1      37.773  31.008  29.608  1.00  0.00     0.029 A 
ATOM     22  C   UNL A   1      38.128  31.563  30.909  1.00  0.00     0.049 A 
ATOM     23  H   UNL A   1      39.635  30.918  32.195  1.00  0.00     0.167 HD
ATOM     24  C   UNL A   1      42.596  29.229  34.949  1.00  0.00     0.037 A 
ATOM     25  C   UNL A   1      37.519  32.613  31.495  1.00  0.00     0.037 A 
ATOM     26  C   UNL A   1      42.074  30.396  35.613  1.00  0.00     0.049 A 
ATOM     27  C   UNL A   1      37.984  33.069  32.848  1.00  0.00     0.074 A 
ATOM     28  C   UNL A   1      42.450  30.934  36.832  1.00  0.00     0.029 A 
ATOM     29  N   UNL A   1      41.056  31.199  35.119  1.00  0.00    -0.354 N 
ATOM     30  N   UNL A   1      38.924  32.558  33.606  1.00  0.00    -0.248 NA
ATOM     31  C   UNL A   1      37.311  34.239  33.426  1.00  0.00     0.031 C 
ATOM     32  C   UNL A   1      41.635  32.043  37.089  1.00  0.00     0.029 A 
ATOM     33  C   UNL A   1      40.778  32.220  36.014  1.00  0.00     0.049 A 
ATOM     34  H   UNL A   1      40.597  31.064  34.258  1.00  0.00     0.167 HD
ATOM     35  C   UNL A   1      38.972  33.355  34.743  1.00  0.00     0.074 A 
ATOM     36  C   UNL A   1      37.965  34.384  34.573  1.00  0.00     0.031 C 
ATOM     37  C   UNL A   1      39.780  33.243  35.824  1.00  0.00     0.037 A 
BRANCH  24  38
ATOM     38  C   UNL A   1      43.644  28.409  35.649  1.00  0.00     0.058 A 
ATOM     39  C   UNL A   1      43.305  27.389  36.553  1.00  0.00     0.135 A 
ATOM     40  C   UNL A   1      45.008  28.651  35.418  1.00  0.00     0.135 A 
ATOM     41  F   UNL A   1      42.016  27.123  36.819  1.00  0.00    -0.206 F 
ATOM     42  C   UNL A   1      44.280  26.669  37.235  1.00  0.00     0.059 A 
ATOM     43  C   UNL A   1      46.000  27.927  36.073  1.00  0.00     0.059 A 
ATOM     44  F   UNL A   1      45.387  29.611  34.560  1.00  0.00    -0.206 F 
ATOM     45  C   UNL A   1      45.626  26.955  36.998  1.00  0.00     0.060 A 
BRANCH  45  46
ATOM     46  S   UNL A   1      46.882  26.046  37.923  1.00  0.00     0.124 S 
ATOM     47  O   UNL A   1      47.993  26.042  36.977  1.00  0.00    -0.237 OA
ATOM     48  O   UNL A   1      47.067  26.877  39.110  1.00  0.00    -0.237 OA
ATOM     49  O   UNL A   1      46.256  24.749  38.163  1.00  0.00    -0.744 OA
ENDBRANCH  45  46
ENDBRANCH  24  38
BRANCH  25  50
ATOM     50  C   UNL A   1      36.405  33.288  30.783  1.00  0.00     0.058 A 
ATOM     51  C   UNL A   1      35.085  33.178  31.239  1.00  0.00     0.135 A 
ATOM     52  C   UNL A   1      36.654  34.132  29.689  1.00  0.00     0.135 A 
ATOM     53  F   UNL A   1      34.798  32.378  32.279  1.00  0.00    -0.206 F 
ATOM     54  C   UNL A   1      34.050  33.893  30.647  1.00  0.00     0.059 A 
ATOM     55  C   UNL A   1      35.638  34.874  29.093  1.00  0.00     0.059 A 
ATOM     56  F   UNL A   1      37.905  34.282  29.227  1.00  0.00    -0.206 F 
ATOM     57  C   UNL A   1      34.338  34.749  29.581  1.00  0.00     0.060 A 
BRANCH  57  58
ATOM     58  S   UNL A   1      33.007  35.755  28.892  1.00  0.00     0.124 S 
ATOM     59  O   UNL A   1      33.754  36.814  28.224  1.00  0.00    -0.237 OA
ATOM     60  O   UNL A   1      32.323  34.806  28.018  1.00  0.00    -0.237 OA
ATOM     61  O   UNL A   1      32.250  36.162  30.072  1.00  0.00    -0.744 OA
ENDBRANCH  57  58
ENDBRANCH  25  50
BRANCH  37  62
ATOM     62  C   UNL A   1      39.642  34.278  36.904  1.00  0.00     0.058 A 
ATOM     63  C   UNL A   1      38.904  34.031  38.071  1.00  0.00     0.135 A 
ATOM     64  C   UNL A   1      40.332  35.498  36.805  1.00  0.00     0.135 A 
ATOM     65  F   UNL A   1      38.219  32.885  38.207  1.00  0.00    -0.206 F 
ATOM     66  C   UNL A   1      38.857  34.957  39.108  1.00  0.00     0.059 A 
ATOM     67  C   UNL A   1      40.313  36.430  37.838  1.00  0.00     0.059 A 
ATOM     68  F   UNL A   1      41.055  35.778  35.710  1.00  0.00    -0.206 F 
ATOM     69  C   UNL A   1      39.571  36.152  38.985  1.00  0.00     0.060 A 
BRANCH  69  70
ATOM     70  S   UNL A   1      39.564  37.314  40.367  1.00  0.00     0.124 S 
ATOM     71  O   UNL A   1      40.992  37.511  40.592  1.00  0.00    -0.237 OA
ATOM     72  O   UNL A   1      38.846  38.457  39.813  1.00  0.00    -0.237 OA
ATOM     73  O   UNL A   1      38.857  36.587  41.417  1.00  0.00    -0.744 OA
ENDBRANCH  69  70
ENDBRANCH  37  62
ENDBRANCH  11  12
ENDBRANCH   4   6
ENDBRANCH   1   2
BRANCH   1  74
ATOM     74  C   UNL A   1      37.322  23.088  25.609  1.00  0.00     0.042 C 
BRANCH  74  75
ATOM     75  C   UNL A   1      36.013  22.862  26.371  1.00  0.00     0.117 C 
BRANCH  75  76
ATOM     76  N   UNL A   1      35.339  21.659  25.916  1.00  0.00    -0.356 N 
ATOM     77  C   UNL A   1      34.126  21.476  25.330  1.00  0.00     0.224 C 
ATOM     78  H   UNL A   1      35.851  20.829  26.058  1.00  0.00     0.163 HD
ATOM     79  O   UNL A   1      33.802  20.307  25.105  1.00  0.00    -0.275 OA
BRANCH  77  80
ATOM     80  C   UNL A   1      33.249  22.650  24.885  1.00  0.00     0.098 C 
ATOM     81  C   UNL A   1      33.220  22.703  23.335  1.00  0.00     0.017 C 
ATOM     82  C   UNL A   1      31.810  22.582  25.392  1.00  0.00     0.133 C 
ATOM     83  C   UNL A   1      32.284  23.784  22.787  1.00  0.00     0.022 C 
ATOM     84  N   UNL A   1      31.014  23.682  24.855  1.00  0.00    -0.338 N 
ATOM     85  C   UNL A   1      30.891  23.689  23.403  1.00  0.00     0.120 C 
BRANCH  84  86
ATOM     86  C   UNL A   1      30.603  24.698  25.711  1.00  0.00     0.255 C 
ATOM     87  O   UNL A   1      29.945  24.505  26.733  1.00  0.00    -0.269 OA
BRANCH  86  88
ATOM     88  C   UNL A   1      31.012  26.083  25.429  1.00  0.00     0.059 A 
ATOM     89  C   UNL A   1      32.167  26.554  26.065  1.00  0.00     0.031 A 
ATOM     90  C   UNL A   1      30.262  26.926  24.601  1.00  0.00     0.053 A 
ATOM     91  C   UNL A   1      32.590  27.861  25.835  1.00  0.00     0.018 A 
ATOM     92  C   UNL A   1      30.699  28.234  24.378  1.00  0.00     0.022 A 
ATOM     93  Cl  UNL A   1      28.797  26.420  23.841  1.00  0.00    -0.083 Cl
ATOM     94  Br  UNL A   1      34.159  28.500  26.672  1.00  0.00    -0.051 Br
ATOM     95  C   UNL A   1      31.866  28.701  24.988  1.00  0.00     0.017 A 
ENDBRANCH  86  88
ENDBRANCH  84  86
ENDBRANCH  77  80
ENDBRANCH  75  76
ENDBRANCH  74  75
ENDBRANCH   1  74
TORSDOF 15
ENDMDL
