MODEL 1
REMARK VINA RESULT:      -9.8      0.000      0.000
REMARK SMILES Cc1ccc([C@H]2C[C@]2([NH3+])C(=O)NCCCNC(=O)c2ccc(-c3c4nc(c(-c5c(F)cc(S(=O)(=O)[O-])cc5F)c5ccc([nH]5)c(-c5c(F)cc(S(=O)(=O)[O-])cc5F)c5nc(c(-c6c(F)cc(S(=O)(=O)[O-])cc6F)c6ccc3[nH]6)C=C5)C=C4)cc2)cc1C
REMARK SMILES IDX 15 1 14 2 13 3 12 4 10 5 11 6 8 8 6 9 7 10 5 11 1 12 2 13
REMARK SMILES IDX 3 14 86 15 4 16 85 17 87 18 9 19 16 23 17 24 18 26 19 27
REMARK SMILES IDX 20 28 84 29 21 30 83 31 22 32 23 33 24 34 77 35 25 36 82 37
REMARK SMILES IDX 76 38 78 39 26 40 81 41 75 42 74 43 27 45 61 46 40 47 60 48
REMARK SMILES IDX 41 49 44 50 59 51 79 52 42 53 43 54 58 56 80 57 45 58 28 59
REMARK SMILES IDX 29 60 38 61 30 62 31 63 37 64 39 65 32 66 33 67 34 68 35 69
REMARK SMILES IDX 36 70 62 71 63 72 72 73 64 74 65 75 71 76 73 77 66 78 67 79
REMARK SMILES IDX 68 80 69 81 70 82 46 83 47 84 56 85 48 86 49 87 55 88 57 89
REMARK SMILES IDX 50 90 51 91 52 92 53 93 54 94
REMARK H PARENT 12 7 9 20 9 21 9 22 16 25 78 44 44 55
REMARK Flexibility Score: inf
ROOT
ATOM      1  C   UNL A   1      34.456  32.527  28.123  1.00  0.00     0.118 C 
ENDROOT
BRANCH   1   2
ATOM      2  C   UNL A   1      34.188  33.087  29.516  1.00  0.00     0.042 C 
BRANCH   2   3
ATOM      3  C   UNL A   1      35.428  33.487  30.307  1.00  0.00     0.118 C 
BRANCH   3   4
ATOM      4  N   UNL A   1      35.148  34.401  31.398  1.00  0.00    -0.351 N 
ATOM      5  C   UNL A   1      35.963  34.858  32.403  1.00  0.00     0.281 C 
ATOM      6  O   UNL A   1      35.520  35.689  33.195  1.00  0.00    -0.268 OA
ATOM      7  H   UNL A   1      34.228  34.748  31.421  1.00  0.00     0.163 HD
BRANCH   5   8
ATOM      8  C   UNL A   1      37.378  34.326  32.548  1.00  0.00     0.181 C 
ATOM      9  C   UNL A   1      37.569  33.187  33.542  1.00  0.00     0.097 C 
ATOM     10  C   UNL A   1      38.093  34.556  33.869  1.00  0.00     0.095 C 
BRANCH   9  11
ATOM     11  C   UNL A   1      38.531  32.034  33.381  1.00  0.00    -0.038 A 
ATOM     12  C   UNL A   1      41.291  28.668  33.479  1.00  0.00     0.044 C 
ATOM     13  C   UNL A   1      40.322  29.815  33.392  1.00  0.00    -0.048 A 
ATOM     14  C   UNL A   1      40.768  31.104  33.710  1.00  0.00     0.004 A 
ATOM     15  C   UNL A   1      38.974  29.633  33.034  1.00  0.00    -0.048 A 
ATOM     16  C   UNL A   1      39.887  32.188  33.703  1.00  0.00     0.004 A 
ATOM     17  C   UNL A   1      38.102  30.742  33.042  1.00  0.00     0.008 A 
ATOM     18  C   UNL A   1      38.397  28.291  32.671  1.00  0.00     0.044 C 
ENDBRANCH   9  11
BRANCH   8  19
ATOM     19  N   UNL A   1      38.258  34.551  31.371  1.00  0.00    -0.344 N 
ATOM     20  H   UNL A   1      39.190  34.816  31.689  1.00  0.00     0.345 HD
ATOM     21  H   UNL A   1      37.870  35.299  30.795  1.00  0.00     0.345 HD
ATOM     22  H   UNL A   1      38.316  33.694  30.821  1.00  0.00     0.345 HD
ENDBRANCH   8  19
ENDBRANCH   5   8
ENDBRANCH   3   4
ENDBRANCH   2   3
ENDBRANCH   1   2
BRANCH   1  23
ATOM     23  N   UNL A   1      33.883  31.205  27.908  1.00  0.00    -0.352 N 
ATOM     24  C   UNL A   1      34.476  29.966  27.861  1.00  0.00     0.251 C 
ATOM     25  H   UNL A   1      32.908  31.199  27.772  1.00  0.00     0.163 HD
ATOM     26  O   UNL A   1      33.799  28.996  27.529  1.00  0.00    -0.269 OA
BRANCH  24  27
ATOM     27  C   UNL A   1      35.913  29.787  28.174  1.00  0.00     0.039 A 
ATOM     28  C   UNL A   1      36.275  29.385  29.465  1.00  0.00     0.014 A 
ATOM     29  C   UNL A   1      36.909  30.034  27.226  1.00  0.00     0.014 A 
ATOM     30  C   UNL A   1      37.618  29.156  29.777  1.00  0.00     0.010 A 
ATOM     31  C   UNL A   1      38.239  29.727  27.513  1.00  0.00     0.010 A 
ATOM     32  C   UNL A   1      38.609  29.283  28.790  1.00  0.00    -0.014 A 
BRANCH  32  33
ATOM     33  C   UNL A   1      40.032  28.949  29.071  1.00  0.00     0.031 A 
ATOM     34  C   UNL A   1      40.956  29.985  29.653  1.00  0.00     0.074 A 
ATOM     35  C   UNL A   1      40.511  27.733  28.736  1.00  0.00     0.049 A 
ATOM     36  N   UNL A   1      42.243  29.914  29.875  1.00  0.00    -0.248 NA
ATOM     37  C   UNL A   1      40.358  31.284  30.004  1.00  0.00     0.031 C 
ATOM     38  C   UNL A   1      39.734  26.656  28.120  1.00  0.00     0.029 A 
ATOM     39  N   UNL A   1      41.773  27.204  28.852  1.00  0.00    -0.354 N 
ATOM     40  C   UNL A   1      42.612  31.157  30.379  1.00  0.00     0.074 A 
ATOM     41  C   UNL A   1      41.422  31.981  30.377  1.00  0.00     0.031 C 
ATOM     42  C   UNL A   1      40.530  25.593  27.925  1.00  0.00     0.029 A 
ATOM     43  C   UNL A   1      41.882  25.922  28.367  1.00  0.00     0.049 A 
ATOM     44  H   UNL A   1      42.530  27.696  29.247  1.00  0.00     0.167 HD
ATOM     45  C   UNL A   1      43.824  31.568  30.824  1.00  0.00     0.037 A 
ATOM     46  C   UNL A   1      42.950  25.105  28.275  1.00  0.00     0.037 A 
ATOM     47  C   UNL A   1      45.001  30.737  30.847  1.00  0.00     0.049 A 
ATOM     48  C   UNL A   1      44.284  25.581  28.783  1.00  0.00     0.074 A 
ATOM     49  C   UNL A   1      46.264  31.048  31.319  1.00  0.00     0.029 A 
ATOM     50  N   UNL A   1      45.060  29.432  30.383  1.00  0.00    -0.354 N 
ATOM     51  N   UNL A   1      44.602  26.742  29.302  1.00  0.00    -0.248 NA
ATOM     52  C   UNL A   1      45.404  24.632  28.702  1.00  0.00     0.031 C 
ATOM     53  C   UNL A   1      47.095  29.942  31.111  1.00  0.00     0.029 A 
ATOM     54  C   UNL A   1      46.339  28.927  30.547  1.00  0.00     0.049 A 
ATOM     55  H   UNL A   1      44.303  28.937  29.993  1.00  0.00     0.167 HD
ATOM     56  C   UNL A   1      45.949  26.655  29.633  1.00  0.00     0.074 A 
ATOM     57  C   UNL A   1      46.385  25.323  29.267  1.00  0.00     0.031 C 
ATOM     58  C   UNL A   1      46.754  27.594  30.189  1.00  0.00     0.037 A 
BRANCH  45  59
ATOM     59  C   UNL A   1      43.934  32.977  31.336  1.00  0.00     0.058 A 
ATOM     60  C   UNL A   1      43.893  33.263  32.712  1.00  0.00     0.135 A 
ATOM     61  C   UNL A   1      44.114  34.052  30.451  1.00  0.00     0.135 A 
ATOM     62  F   UNL A   1      43.707  32.275  33.601  1.00  0.00    -0.206 F 
ATOM     63  C   UNL A   1      43.992  34.566  33.188  1.00  0.00     0.059 A 
ATOM     64  C   UNL A   1      44.244  35.361  30.908  1.00  0.00     0.059 A 
ATOM     65  F   UNL A   1      44.164  33.837  29.127  1.00  0.00    -0.206 F 
ATOM     66  C   UNL A   1      44.165  35.609  32.277  1.00  0.00     0.060 A 
BRANCH  66  67
ATOM     67  S   UNL A   1      44.291  37.294  32.912  1.00  0.00     0.124 S 
ATOM     68  O   UNL A   1      44.339  38.068  31.674  1.00  0.00    -0.237 OA
ATOM     69  O   UNL A   1      43.066  37.428  33.693  1.00  0.00    -0.237 OA
ATOM     70  O   UNL A   1      45.527  37.273  33.688  1.00  0.00    -0.744 OA
ENDBRANCH  66  67
ENDBRANCH  45  59
BRANCH  46  71
ATOM     71  C   UNL A   1      42.798  23.746  27.690  1.00  0.00     0.058 A 
ATOM     72  C   UNL A   1      42.935  23.533  26.311  1.00  0.00     0.135 A 
ATOM     73  C   UNL A   1      42.519  22.633  28.500  1.00  0.00     0.135 A 
ATOM     74  F   UNL A   1      43.196  24.566  25.496  1.00  0.00    -0.206 F 
ATOM     75  C   UNL A   1      42.785  22.269  25.750  1.00  0.00     0.059 A 
ATOM     76  C   UNL A   1      42.389  21.356  27.965  1.00  0.00     0.059 A 
ATOM     77  F   UNL A   1      42.397  22.782  29.828  1.00  0.00    -0.206 F 
ATOM     78  C   UNL A   1      42.512  21.185  26.587  1.00  0.00     0.060 A 
BRANCH  78  79
ATOM     79  S   UNL A   1      42.363  19.540  25.857  1.00  0.00     0.124 S 
ATOM     80  O   UNL A   1      42.743  18.687  26.976  1.00  0.00    -0.237 OA
ATOM     81  O   UNL A   1      40.955  19.501  25.471  1.00  0.00    -0.237 OA
ATOM     82  O   UNL A   1      43.307  19.583  24.743  1.00  0.00    -0.744 OA
ENDBRANCH  78  79
ENDBRANCH  46  71
BRANCH  58  83
ATOM     83  C   UNL A   1      48.178  27.205  30.471  1.00  0.00     0.058 A 
ATOM     84  C   UNL A   1      49.216  27.497  29.571  1.00  0.00     0.135 A 
ATOM     85  C   UNL A   1      48.515  26.574  31.679  1.00  0.00     0.135 A 
ATOM     86  F   UNL A   1      48.945  28.093  28.399  1.00  0.00    -0.206 F 
ATOM     87  C   UNL A   1      50.535  27.156  29.850  1.00  0.00     0.059 A 
ATOM     88  C   UNL A   1      49.831  26.247  31.990  1.00  0.00     0.059 A 
ATOM     89  F   UNL A   1      47.563  26.281  32.578  1.00  0.00    -0.206 F 
ATOM     90  C   UNL A   1      50.833  26.531  31.062  1.00  0.00     0.060 A 
BRANCH  90  91
ATOM     91  S   UNL A   1      52.554  26.123  31.427  1.00  0.00     0.124 S 
ATOM     92  O   UNL A   1      52.922  27.198  32.344  1.00  0.00    -0.237 OA
ATOM     93  O   UNL A   1      52.443  24.795  32.019  1.00  0.00    -0.237 OA
ATOM     94  O   UNL A   1      53.199  26.168  30.117  1.00  0.00    -0.744 OA
ENDBRANCH  90  91
ENDBRANCH  58  83
ENDBRANCH  32  33
ENDBRANCH  24  27
ENDBRANCH   1  23
TORSDOF 15
ENDMDL
MODEL 2
REMARK VINA RESULT:      -9.7      2.832      5.642
REMARK SMILES Cc1ccc([C@H]2C[C@]2([NH3+])C(=O)NCCCNC(=O)c2ccc(-c3c4nc(c(-c5c(F)cc(S(=O)(=O)[O-])cc5F)c5ccc([nH]5)c(-c5c(F)cc(S(=O)(=O)[O-])cc5F)c5nc(c(-c6c(F)cc(S(=O)(=O)[O-])cc6F)c6ccc3[nH]6)C=C5)C=C4)cc2)cc1C
REMARK SMILES IDX 15 1 14 2 13 3 12 4 10 5 11 6 8 8 6 9 7 10 5 11 1 12 2 13
REMARK SMILES IDX 3 14 86 15 4 16 85 17 87 18 9 19 16 23 17 24 18 26 19 27
REMARK SMILES IDX 20 28 84 29 21 30 83 31 22 32 23 33 24 34 77 35 25 36 82 37
REMARK SMILES IDX 76 38 78 39 26 40 81 41 75 42 74 43 27 45 61 46 40 47 60 48
REMARK SMILES IDX 41 49 44 50 59 51 79 52 42 53 43 54 58 56 80 57 45 58 28 59
REMARK SMILES IDX 29 60 38 61 30 62 31 63 37 64 39 65 32 66 33 67 34 68 35 69
REMARK SMILES IDX 36 70 62 71 63 72 72 73 64 74 65 75 71 76 73 77 66 78 67 79
REMARK SMILES IDX 68 80 69 81 70 82 46 83 47 84 56 85 48 86 49 87 55 88 57 89
REMARK SMILES IDX 50 90 51 91 52 92 53 93 54 94
REMARK H PARENT 12 7 9 20 9 21 9 22 16 25 78 44 44 55
REMARK Flexibility Score: inf
ROOT
ATOM      1  C   UNL A   1      33.490  28.211  27.188  1.00  0.00     0.118 C 
ENDROOT
BRANCH   1   2
ATOM      2  C   UNL A   1      32.170  27.668  26.649  1.00  0.00     0.042 C 
BRANCH   2   3
ATOM      3  C   UNL A   1      32.113  26.156  26.467  1.00  0.00     0.118 C 
BRANCH   3   4
ATOM      4  N   UNL A   1      31.291  25.739  25.348  1.00  0.00    -0.351 N 
ATOM      5  C   UNL A   1      31.317  24.581  24.611  1.00  0.00     0.281 C 
ATOM      6  O   UNL A   1      30.470  24.417  23.733  1.00  0.00    -0.268 OA
ATOM      7  H   UNL A   1      30.606  26.389  25.073  1.00  0.00     0.163 HD
BRANCH   5   8
ATOM      8  C   UNL A   1      32.389  23.535  24.860  1.00  0.00     0.181 C 
ATOM      9  C   UNL A   1      33.655  23.657  24.022  1.00  0.00     0.097 C 
ATOM     10  C   UNL A   1      32.686  22.542  23.749  1.00  0.00     0.095 C 
BRANCH   9  11
ATOM     11  C   UNL A   1      35.054  23.338  24.493  1.00  0.00    -0.038 A 
ATOM     12  C   UNL A   1      38.862  22.370  26.369  1.00  0.00     0.044 C 
ATOM     13  C   UNL A   1      37.567  22.682  25.671  1.00  0.00    -0.048 A 
ATOM     14  C   UNL A   1      37.030  23.971  25.786  1.00  0.00     0.004 A 
ATOM     15  C   UNL A   1      36.858  21.716  24.935  1.00  0.00    -0.048 A 
ATOM     16  C   UNL A   1      35.799  24.288  25.207  1.00  0.00     0.004 A 
ATOM     17  C   UNL A   1      35.613  22.058  24.365  1.00  0.00     0.008 A 
ATOM     18  C   UNL A   1      37.350  20.306  24.748  1.00  0.00     0.044 C 
ENDBRANCH   9  11
BRANCH   8  19
ATOM     19  N   UNL A   1      32.346  22.898  26.204  1.00  0.00    -0.344 N 
ATOM     20  H   UNL A   1      31.897  23.531  26.865  1.00  0.00     0.345 HD
ATOM     21  H   UNL A   1      33.296  22.698  26.516  1.00  0.00     0.345 HD
ATOM     22  H   UNL A   1      31.815  22.028  26.151  1.00  0.00     0.345 HD
ENDBRANCH   8  19
ENDBRANCH   5   8
ENDBRANCH   3   4
ENDBRANCH   2   3
ENDBRANCH   1   2
BRANCH   1  23
ATOM     23  N   UNL A   1      33.452  29.635  27.491  1.00  0.00    -0.352 N 
ATOM     24  C   UNL A   1      34.407  30.466  28.026  1.00  0.00     0.251 C 
ATOM     25  H   UNL A   1      32.598  30.077  27.278  1.00  0.00     0.163 HD
ATOM     26  O   UNL A   1      34.096  31.619  28.318  1.00  0.00    -0.269 OA
BRANCH  24  27
ATOM     27  C   UNL A   1      35.787  29.989  28.282  1.00  0.00     0.039 A 
ATOM     28  C   UNL A   1      36.723  30.056  27.243  1.00  0.00     0.014 A 
ATOM     29  C   UNL A   1      36.163  29.454  29.515  1.00  0.00     0.014 A 
ATOM     30  C   UNL A   1      38.047  29.664  27.467  1.00  0.00     0.010 A 
ATOM     31  C   UNL A   1      37.500  29.141  29.762  1.00  0.00     0.010 A 
ATOM     32  C   UNL A   1      38.458  29.244  28.743  1.00  0.00    -0.014 A 
BRANCH  32  33
ATOM     33  C   UNL A   1      39.880  28.916  29.031  1.00  0.00     0.031 A 
ATOM     34  C   UNL A   1      40.802  29.962  29.600  1.00  0.00     0.074 A 
ATOM     35  C   UNL A   1      40.362  27.696  28.715  1.00  0.00     0.049 A 
ATOM     36  N   UNL A   1      42.089  29.895  29.826  1.00  0.00    -0.248 NA
ATOM     37  C   UNL A   1      40.202  31.265  29.931  1.00  0.00     0.031 C 
ATOM     38  C   UNL A   1      39.587  26.609  28.112  1.00  0.00     0.029 A 
ATOM     39  N   UNL A   1      41.623  27.170  28.841  1.00  0.00    -0.354 N 
ATOM     40  C   UNL A   1      42.456  31.145  30.313  1.00  0.00     0.074 A 
ATOM     41  C   UNL A   1      41.265  31.968  30.297  1.00  0.00     0.031 C 
ATOM     42  C   UNL A   1      40.384  25.545  27.935  1.00  0.00     0.029 A 
ATOM     43  C   UNL A   1      41.734  25.881  28.374  1.00  0.00     0.049 A 
ATOM     44  H   UNL A   1      42.379  27.668  29.230  1.00  0.00     0.167 HD
ATOM     45  C   UNL A   1      43.666  31.564  30.755  1.00  0.00     0.037 A 
ATOM     46  C   UNL A   1      42.804  25.065  28.296  1.00  0.00     0.037 A 
ATOM     47  C   UNL A   1      44.844  30.735  30.792  1.00  0.00     0.049 A 
ATOM     48  C   UNL A   1      44.136  25.549  28.801  1.00  0.00     0.074 A 
ATOM     49  C   UNL A   1      46.106  31.054  31.262  1.00  0.00     0.029 A 
ATOM     50  N   UNL A   1      44.905  29.423  30.347  1.00  0.00    -0.354 N 
ATOM     51  N   UNL A   1      44.452  26.717  29.303  1.00  0.00    -0.248 NA
ATOM     52  C   UNL A   1      45.257  24.600  28.735  1.00  0.00     0.031 C 
ATOM     53  C   UNL A   1      46.938  29.945  31.072  1.00  0.00     0.029 A 
ATOM     54  C   UNL A   1      46.184  28.922  30.521  1.00  0.00     0.049 A 
ATOM     55  H   UNL A   1      44.149  28.922  29.962  1.00  0.00     0.167 HD
ATOM     56  C   UNL A   1      45.799  26.637  29.638  1.00  0.00     0.074 A 
ATOM     57  C   UNL A   1      46.236  25.300  29.292  1.00  0.00     0.031 C 
ATOM     58  C   UNL A   1      46.601  27.584  30.182  1.00  0.00     0.037 A 
BRANCH  45  59
ATOM     59  C   UNL A   1      43.774  32.980  31.247  1.00  0.00     0.058 A 
ATOM     60  C   UNL A   1      44.091  34.037  30.377  1.00  0.00     0.135 A 
ATOM     61  C   UNL A   1      43.530  33.294  32.594  1.00  0.00     0.135 A 
ATOM     62  F   UNL A   1      44.348  33.791  29.083  1.00  0.00    -0.206 F 
ATOM     63  C   UNL A   1      44.194  35.347  30.830  1.00  0.00     0.059 A 
ATOM     64  C   UNL A   1      43.601  34.603  33.063  1.00  0.00     0.059 A 
ATOM     65  F   UNL A   1      43.221  32.325  33.469  1.00  0.00    -0.206 F 
ATOM     66  C   UNL A   1      43.949  35.620  32.177  1.00  0.00     0.060 A 
BRANCH  66  67
ATOM     67  S   UNL A   1      44.089  37.327  32.748  1.00  0.00     0.124 S 
ATOM     68  O   UNL A   1      43.907  38.066  31.503  1.00  0.00    -0.237 OA
ATOM     69  O   UNL A   1      42.994  37.427  33.708  1.00  0.00    -0.237 OA
ATOM     70  O   UNL A   1      45.429  37.384  33.322  1.00  0.00    -0.744 OA
ENDBRANCH  66  67
ENDBRANCH  45  59
BRANCH  46  71
ATOM     71  C   UNL A   1      42.655  23.697  27.730  1.00  0.00     0.058 A 
ATOM     72  C   UNL A   1      42.710  23.477  26.347  1.00  0.00     0.135 A 
ATOM     73  C   UNL A   1      42.460  22.583  28.563  1.00  0.00     0.135 A 
ATOM     74  F   UNL A   1      42.888  24.511  25.510  1.00  0.00    -0.206 F 
ATOM     75  C   UNL A   1      42.560  22.205  25.804  1.00  0.00     0.059 A 
ATOM     76  C   UNL A   1      42.333  21.299  28.045  1.00  0.00     0.059 A 
ATOM     77  F   UNL A   1      42.418  22.739  29.895  1.00  0.00    -0.206 F 
ATOM     78  C   UNL A   1      42.373  21.120  26.663  1.00  0.00     0.060 A 
BRANCH  78  79
ATOM     79  S   UNL A   1      42.225  19.466  25.954  1.00  0.00     0.124 S 
ATOM     80  O   UNL A   1      43.108  19.563  24.798  1.00  0.00    -0.237 OA
ATOM     81  O   UNL A   1      42.693  18.620  27.048  1.00  0.00    -0.237 OA
ATOM     82  O   UNL A   1      40.800  19.357  25.655  1.00  0.00    -0.744 OA
ENDBRANCH  78  79
ENDBRANCH  46  71
BRANCH  58  83
ATOM     83  C   UNL A   1      48.025  27.201  30.473  1.00  0.00     0.058 A 
ATOM     84  C   UNL A   1      49.057  27.439  29.551  1.00  0.00     0.135 A 
ATOM     85  C   UNL A   1      48.368  26.631  31.709  1.00  0.00     0.135 A 
ATOM     86  F   UNL A   1      48.781  27.975  28.351  1.00  0.00    -0.206 F 
ATOM     87  C   UNL A   1      50.377  27.104  29.837  1.00  0.00     0.059 A 
ATOM     88  C   UNL A   1      49.685  26.312  32.026  1.00  0.00     0.059 A 
ATOM     89  F   UNL A   1      47.421  26.391  32.630  1.00  0.00    -0.206 F 
ATOM     90  C   UNL A   1      50.681  26.541  31.077  1.00  0.00     0.060 A 
BRANCH  90  91
ATOM     91  S   UNL A   1      52.402  26.141  31.449  1.00  0.00     0.124 S 
ATOM     92  O   UNL A   1      52.758  27.209  32.377  1.00  0.00    -0.237 OA
ATOM     93  O   UNL A   1      52.296  24.806  32.029  1.00  0.00    -0.237 OA
ATOM     94  O   UNL A   1      53.054  26.200  30.144  1.00  0.00    -0.744 OA
ENDBRANCH  90  91
ENDBRANCH  58  83
ENDBRANCH  32  33
ENDBRANCH  24  27
ENDBRANCH   1  23
TORSDOF 15
ENDMDL
MODEL 3
REMARK VINA RESULT:      -9.7      4.540     11.805
REMARK SMILES Cc1ccc([C@H]2C[C@]2([NH3+])C(=O)NCCCNC(=O)c2ccc(-c3c4nc(c(-c5c(F)cc(S(=O)(=O)[O-])cc5F)c5ccc([nH]5)c(-c5c(F)cc(S(=O)(=O)[O-])cc5F)c5nc(c(-c6c(F)cc(S(=O)(=O)[O-])cc6F)c6ccc3[nH]6)C=C5)C=C4)cc2)cc1C
REMARK SMILES IDX 15 1 14 2 13 3 12 4 10 5 11 6 8 8 6 9 7 10 5 11 1 12 2 13
REMARK SMILES IDX 3 14 86 15 4 16 85 17 87 18 9 19 16 23 17 24 18 26 19 27
REMARK SMILES IDX 20 28 84 29 21 30 83 31 22 32 23 33 24 34 77 35 25 36 82 37
REMARK SMILES IDX 76 38 78 39 26 40 81 41 75 42 74 43 27 45 61 46 40 47 60 48
REMARK SMILES IDX 41 49 44 50 59 51 79 52 42 53 43 54 58 56 80 57 45 58 28 59
REMARK SMILES IDX 29 60 38 61 30 62 31 63 37 64 39 65 32 66 33 67 34 68 35 69
REMARK SMILES IDX 36 70 62 71 63 72 72 73 64 74 65 75 71 76 73 77 66 78 67 79
REMARK SMILES IDX 68 80 69 81 70 82 46 83 47 84 56 85 48 86 49 87 55 88 57 89
REMARK SMILES IDX 50 90 51 91 52 92 53 93 54 94
REMARK H PARENT 12 7 9 20 9 21 9 22 16 25 78 44 44 55
REMARK Flexibility Score: inf
ROOT
ATOM      1  C   UNL A   1      40.540  23.018  27.444  1.00  0.00     0.118 C 
ENDROOT
BRANCH   1   2
ATOM      2  C   UNL A   1      40.835  21.545  27.177  1.00  0.00     0.042 C 
BRANCH   2   3
ATOM      3  C   UNL A   1      42.277  21.226  26.805  1.00  0.00     0.118 C 
BRANCH   3   4
ATOM      4  N   UNL A   1      42.631  21.632  25.459  1.00  0.00    -0.351 N 
ATOM      5  C   UNL A   1      43.691  22.379  25.007  1.00  0.00     0.281 C 
ATOM      6  O   UNL A   1      43.824  22.549  23.796  1.00  0.00    -0.268 OA
ATOM      7  H   UNL A   1      42.014  21.324  24.758  1.00  0.00     0.163 HD
BRANCH   5   8
ATOM      8  C   UNL A   1      44.664  23.005  25.990  1.00  0.00     0.181 C 
ATOM      9  C   UNL A   1      44.201  24.287  26.672  1.00  0.00     0.097 C 
ATOM     10  C   UNL A   1      45.278  24.347  25.626  1.00  0.00     0.095 C 
BRANCH   9  11
ATOM     11  C   UNL A   1      44.512  24.685  28.095  1.00  0.00    -0.038 A 
ATOM     12  C   UNL A   1      45.551  25.294  32.279  1.00  0.00     0.044 C 
ATOM     13  C   UNL A   1      45.205  25.140  30.824  1.00  0.00    -0.048 A 
ATOM     14  C   UNL A   1      43.982  24.550  30.478  1.00  0.00     0.004 A 
ATOM     15  C   UNL A   1      46.080  25.536  29.797  1.00  0.00    -0.048 A 
ATOM     16  C   UNL A   1      43.647  24.329  29.140  1.00  0.00     0.004 A 
ATOM     17  C   UNL A   1      45.722  25.297  28.453  1.00  0.00     0.008 A 
ATOM     18  C   UNL A   1      47.413  26.183  30.062  1.00  0.00     0.044 C 
ENDBRANCH   9  11
BRANCH   8  19
ATOM     19  N   UNL A   1      45.651  22.064  26.584  1.00  0.00    -0.344 N 
ATOM     20  H   UNL A   1      45.461  21.955  27.580  1.00  0.00     0.345 HD
ATOM     21  H   UNL A   1      46.593  22.433  26.456  1.00  0.00     0.345 HD
ATOM     22  H   UNL A   1      45.576  21.157  26.121  1.00  0.00     0.345 HD
ENDBRANCH   8  19
ENDBRANCH   5   8
ENDBRANCH   3   4
ENDBRANCH   2   3
ENDBRANCH   1   2
BRANCH   1  23
ATOM     23  N   UNL A   1      40.769  23.875  26.289  1.00  0.00    -0.352 N 
ATOM     24  C   UNL A   1      40.836  25.244  26.185  1.00  0.00     0.251 C 
ATOM     25  H   UNL A   1      40.897  23.393  25.440  1.00  0.00     0.163 HD
ATOM     26  O   UNL A   1      40.907  25.752  25.068  1.00  0.00    -0.269 OA
BRANCH  24  27
ATOM     27  C   UNL A   1      40.794  26.111  27.386  1.00  0.00     0.039 A 
ATOM     28  C   UNL A   1      41.779  27.093  27.540  1.00  0.00     0.014 A 
ATOM     29  C   UNL A   1      39.818  25.954  28.372  1.00  0.00     0.014 A 
ATOM     30  C   UNL A   1      41.737  27.962  28.635  1.00  0.00     0.010 A 
ATOM     31  C   UNL A   1      39.728  26.871  29.419  1.00  0.00     0.010 A 
ATOM     32  C   UNL A   1      40.685  27.887  29.562  1.00  0.00    -0.014 A 
BRANCH  32  33
ATOM     33  C   UNL A   1      40.563  28.862  30.679  1.00  0.00     0.031 A 
ATOM     34  C   UNL A   1      41.421  28.722  31.908  1.00  0.00     0.074 A 
ATOM     35  C   UNL A   1      39.630  29.835  30.618  1.00  0.00     0.049 A 
ATOM     36  N   UNL A   1      41.392  29.411  33.020  1.00  0.00    -0.248 NA
ATOM     37  C   UNL A   1      42.425  27.646  31.897  1.00  0.00     0.031 C 
ATOM     38  C   UNL A   1      38.701  30.049  29.507  1.00  0.00     0.029 A 
ATOM     39  N   UNL A   1      39.296  30.815  31.519  1.00  0.00    -0.354 N 
ATOM     40  C   UNL A   1      42.360  28.847  33.844  1.00  0.00     0.074 A 
ATOM     41  C   UNL A   1      42.921  27.724  33.123  1.00  0.00     0.031 C 
ATOM     42  C   UNL A   1      37.915  31.101  29.785  1.00  0.00     0.029 A 
ATOM     43  C   UNL A   1      38.255  31.614  31.108  1.00  0.00     0.049 A 
ATOM     44  H   UNL A   1      39.760  30.936  32.380  1.00  0.00     0.167 HD
ATOM     45  C   UNL A   1      42.763  29.241  35.075  1.00  0.00     0.037 A 
ATOM     46  C   UNL A   1      37.634  32.636  31.730  1.00  0.00     0.037 A 
ATOM     47  C   UNL A   1      42.220  30.375  35.780  1.00  0.00     0.049 A 
ATOM     48  C   UNL A   1      38.104  33.061  33.094  1.00  0.00     0.074 A 
ATOM     49  C   UNL A   1      42.591  30.880  37.013  1.00  0.00     0.029 A 
ATOM     50  N   UNL A   1      41.193  31.181  35.312  1.00  0.00    -0.354 N 
ATOM     51  N   UNL A   1      39.055  32.546  33.835  1.00  0.00    -0.248 NA
ATOM     52  C   UNL A   1      37.423  34.212  33.704  1.00  0.00     0.031 C 
ATOM     53  C   UNL A   1      41.768  31.973  37.305  1.00  0.00     0.029 A 
ATOM     54  C   UNL A   1      40.911  32.174  36.235  1.00  0.00     0.049 A 
ATOM     55  H   UNL A   1      40.732  31.064  34.449  1.00  0.00     0.167 HD
ATOM     56  C   UNL A   1      39.104  33.325  34.986  1.00  0.00     0.074 A 
ATOM     57  C   UNL A   1      38.095  34.353  34.838  1.00  0.00     0.031 C 
ATOM     58  C   UNL A   1      39.911  33.199  36.068  1.00  0.00     0.037 A 
BRANCH  45  59
ATOM     59  C   UNL A   1      43.855  28.447  35.737  1.00  0.00     0.058 A 
ATOM     60  C   UNL A   1      43.564  27.395  36.621  1.00  0.00     0.135 A 
ATOM     61  C   UNL A   1      45.206  28.716  35.464  1.00  0.00     0.135 A 
ATOM     62  F   UNL A   1      42.290  27.105  36.928  1.00  0.00    -0.206 F 
ATOM     63  C   UNL A   1      44.572  26.660  37.236  1.00  0.00     0.059 A 
ATOM     64  C   UNL A   1      46.231  27.975  36.047  1.00  0.00     0.059 A 
ATOM     65  F   UNL A   1      45.542  29.708  34.625  1.00  0.00    -0.206 F 
ATOM     66  C   UNL A   1      45.903  26.960  36.944  1.00  0.00     0.060 A 
BRANCH  66  67
ATOM     67  S   UNL A   1      47.199  25.998  37.752  1.00  0.00     0.124 S 
ATOM     68  O   UNL A   1      48.280  26.976  37.833  1.00  0.00    -0.237 OA
ATOM     69  O   UNL A   1      46.578  25.637  39.022  1.00  0.00    -0.237 OA
ATOM     70  O   UNL A   1      47.424  24.889  36.830  1.00  0.00    -0.744 OA
ENDBRANCH  66  67
ENDBRANCH  45  59
BRANCH  46  71
ATOM     71  C   UNL A   1      36.508  33.340  31.058  1.00  0.00     0.058 A 
ATOM     72  C   UNL A   1      36.738  34.201  29.976  1.00  0.00     0.135 A 
ATOM     73  C   UNL A   1      35.182  33.160  31.482  1.00  0.00     0.135 A 
ATOM     74  F   UNL A   1      37.989  34.410  29.539  1.00  0.00    -0.206 F 
ATOM     75  C   UNL A   1      35.697  34.874  29.346  1.00  0.00     0.059 A 
ATOM     76  C   UNL A   1      34.122  33.803  30.852  1.00  0.00     0.059 A 
ATOM     77  F   UNL A   1      34.908  32.332  32.501  1.00  0.00    -0.206 F 
ATOM     78  C   UNL A   1      34.390  34.668  29.792  1.00  0.00     0.060 A 
BRANCH  78  79
ATOM     79  S   UNL A   1      33.038  35.510  28.940  1.00  0.00     0.124 S 
ATOM     80  O   UNL A   1      32.244  35.998  30.060  1.00  0.00    -0.237 OA
ATOM     81  O   UNL A   1      33.747  36.525  28.167  1.00  0.00    -0.237 OA
ATOM     82  O   UNL A   1      32.428  34.445  28.148  1.00  0.00    -0.744 OA
ENDBRANCH  78  79
ENDBRANCH  46  71
BRANCH  58  83
ATOM     83  C   UNL A   1      39.765  34.218  37.163  1.00  0.00     0.058 A 
ATOM     84  C   UNL A   1      38.889  34.022  38.243  1.00  0.00     0.135 A 
ATOM     85  C   UNL A   1      40.545  35.385  37.155  1.00  0.00     0.135 A 
ATOM     86  F   UNL A   1      38.115  32.926  38.294  1.00  0.00    -0.206 F 
ATOM     87  C   UNL A   1      38.777  34.958  39.265  1.00  0.00     0.059 A 
ATOM     88  C   UNL A   1      40.468  36.322  38.180  1.00  0.00     0.059 A 
ATOM     89  F   UNL A   1      41.405  35.617  36.151  1.00  0.00    -0.206 F 
ATOM     90  C   UNL A   1      39.570  36.105  39.225  1.00  0.00     0.060 A 
BRANCH  90  91
ATOM     91  S   UNL A   1      39.439  37.298  40.575  1.00  0.00     0.124 S 
ATOM     92  O   UNL A   1      40.763  37.913  40.553  1.00  0.00    -0.237 OA
ATOM     93  O   UNL A   1      38.337  38.148  40.137  1.00  0.00    -0.237 OA
ATOM     94  O   UNL A   1      39.154  36.463  41.739  1.00  0.00    -0.744 OA
ENDBRANCH  90  91
ENDBRANCH  58  83
ENDBRANCH  32  33
ENDBRANCH  24  27
ENDBRANCH   1  23
TORSDOF 15
ENDMDL
