MODEL 1
REMARK VINA RESULT:     -10.2      0.000      0.000
REMARK SMILES CC(=O)/C=C(/C)NCC(=O)NCCCNC(=O)c1ccc(-c2c3nc(c(-c4c(F)cc(S(=O)(=O)[O-])cc4F)c4ccc([nH]4)c(-c4c(F)cc(S(=O)(=O)[O-])cc4F)c4nc(c(-c5c(F)cc(S(=O)(=O)[O-])cc5F)c5ccc2[nH]5)C=C4)C=C3)cc1
REMARK SMILES IDX 13 1 12 2 11 3 9 4 10 5 8 7 7 8 5 10 4 11 6 12 2 13 1 14
REMARK SMILES IDX 3 15 14 16 15 17 16 18 17 20 18 21 19 22 83 23 20 24 82 25
REMARK SMILES IDX 21 26 22 27 23 28 76 29 24 30 81 31 75 32 77 33 25 34 80 35
REMARK SMILES IDX 74 36 73 37 26 39 60 40 39 41 59 42 40 43 43 44 58 45 78 46
REMARK SMILES IDX 41 47 42 48 57 50 79 51 44 52 27 53 28 54 37 55 29 56 30 57
REMARK SMILES IDX 36 58 38 59 31 60 32 61 33 62 34 63 35 64 61 65 62 66 71 67
REMARK SMILES IDX 63 68 64 69 70 70 72 71 65 72 66 73 67 74 68 75 69 76 45 77
REMARK SMILES IDX 46 78 55 79 47 80 48 81 54 82 56 83 49 84 50 85 51 86 52 87
REMARK SMILES IDX 53 88
REMARK H PARENT 11 6 7 9 15 19 77 38 43 49
REMARK Flexibility Score: inf
ROOT
ATOM      1  C   UNL A   1      34.209  33.427  28.105  1.00  0.00     0.042 C 
ENDROOT
BRANCH   1   2
ATOM      2  C   UNL A   1      35.213  34.530  28.413  1.00  0.00     0.117 C 
BRANCH   2   3
ATOM      3  N   UNL A   1      34.618  35.851  28.392  1.00  0.00    -0.355 N 
ATOM      4  C   UNL A   1      33.557  36.358  29.081  1.00  0.00     0.239 C 
ATOM      5  O   UNL A   1      33.281  37.547  28.879  1.00  0.00    -0.273 OA
ATOM      6  H   UNL A   1      35.051  36.488  27.779  1.00  0.00     0.163 HD
BRANCH   4   7
ATOM      7  C   UNL A   1      32.771  35.559  30.132  1.00  0.00     0.213 C 
BRANCH   7   8
ATOM      8  N   UNL A   1      32.814  36.094  31.476  1.00  0.00    -0.380 N 
ATOM      9  H   UNL A   1      31.921  36.262  31.855  1.00  0.00     0.160 HD
BRANCH   8  10
ATOM     10  C   UNL A   1      33.842  36.423  32.342  1.00  0.00     0.011 C 
ATOM     11  C   UNL A   1      34.689  35.694  33.100  1.00  0.00     0.067 C 
ATOM     12  C   UNL A   1      33.953  37.940  32.525  1.00  0.00     0.064 C 
BRANCH  11  13
ATOM     13  C   UNL A   1      34.977  34.266  33.432  1.00  0.00     0.154 C 
ATOM     14  C   UNL A   1      34.338  33.113  32.725  1.00  0.00     0.093 C 
ATOM     15  O   UNL A   1      35.806  34.048  34.323  1.00  0.00    -0.295 OA
ENDBRANCH  11  13
ENDBRANCH   8  10
ENDBRANCH   7   8
ENDBRANCH   4   7
ENDBRANCH   2   3
ENDBRANCH   1   2
BRANCH   1  16
ATOM     16  C   UNL A   1      34.403  32.185  28.965  1.00  0.00     0.118 C 
BRANCH  16  17
ATOM     17  N   UNL A   1      33.923  30.972  28.315  1.00  0.00    -0.352 N 
ATOM     18  C   UNL A   1      34.619  29.865  27.890  1.00  0.00     0.251 C 
ATOM     19  H   UNL A   1      32.952  30.940  28.156  1.00  0.00     0.163 HD
ATOM     20  O   UNL A   1      34.052  29.016  27.216  1.00  0.00    -0.269 OA
BRANCH  18  21
ATOM     21  C   UNL A   1      36.052  29.718  28.227  1.00  0.00     0.039 A 
ATOM     22  C   UNL A   1      36.401  29.305  29.515  1.00  0.00     0.014 A 
ATOM     23  C   UNL A   1      37.045  29.983  27.281  1.00  0.00     0.014 A 
ATOM     24  C   UNL A   1      37.744  29.087  29.831  1.00  0.00     0.010 A 
ATOM     25  C   UNL A   1      38.373  29.688  27.572  1.00  0.00     0.010 A 
ATOM     26  C   UNL A   1      38.736  29.234  28.849  1.00  0.00    -0.014 A 
BRANCH  26  27
ATOM     27  C   UNL A   1      40.156  28.900  29.128  1.00  0.00     0.031 A 
ATOM     28  C   UNL A   1      41.085  29.944  29.684  1.00  0.00     0.074 A 
ATOM     29  C   UNL A   1      40.626  27.680  28.801  1.00  0.00     0.049 A 
ATOM     30  N   UNL A   1      42.371  29.868  29.909  1.00  0.00    -0.248 NA
ATOM     31  C   UNL A   1      40.497  31.255  30.002  1.00  0.00     0.031 C 
ATOM     32  C   UNL A   1      39.833  26.601  28.205  1.00  0.00     0.029 A 
ATOM     33  N   UNL A   1      41.885  27.145  28.906  1.00  0.00    -0.354 N 
ATOM     34  C   UNL A   1      42.750  31.121  30.376  1.00  0.00     0.074 A 
ATOM     35  C   UNL A   1      41.566  31.953  30.354  1.00  0.00     0.031 C 
ATOM     36  C   UNL A   1      40.621  25.530  28.013  1.00  0.00     0.029 A 
ATOM     37  C   UNL A   1      41.980  25.858  28.429  1.00  0.00     0.049 A 
ATOM     38  H   UNL A   1      42.649  27.636  29.286  1.00  0.00     0.167 HD
ATOM     39  C   UNL A   1      43.967  31.534  30.802  1.00  0.00     0.037 A 
ATOM     40  C   UNL A   1      43.045  25.039  28.324  1.00  0.00     0.037 A 
ATOM     41  C   UNL A   1      45.134  30.690  30.839  1.00  0.00     0.049 A 
ATOM     42  C   UNL A   1      44.388  25.518  28.802  1.00  0.00     0.074 A 
ATOM     43  C   UNL A   1      46.396  30.990  31.321  1.00  0.00     0.029 A 
ATOM     44  N   UNL A   1      45.186  29.385  30.371  1.00  0.00    -0.354 N 
ATOM     45  N   UNL A   1      44.712  26.683  29.313  1.00  0.00    -0.248 NA
ATOM     46  C   UNL A   1      45.509  24.575  28.695  1.00  0.00     0.031 C 
ATOM     47  C   UNL A   1      47.224  29.886  31.094  1.00  0.00     0.029 A 
ATOM     48  C   UNL A   1      46.465  28.877  30.523  1.00  0.00     0.049 A 
ATOM     49  H   UNL A   1      44.425  28.893  29.986  1.00  0.00     0.167 HD
ATOM     50  C   UNL A   1      46.068  26.604  29.607  1.00  0.00     0.074 A 
ATOM     51  C   UNL A   1      46.500  25.274  29.231  1.00  0.00     0.031 C 
ATOM     52  C   UNL A   1      46.881  27.549  30.143  1.00  0.00     0.037 A 
BRANCH  39  53
ATOM     53  C   UNL A   1      44.101  32.962  31.256  1.00  0.00     0.058 A 
ATOM     54  C   UNL A   1      43.867  33.341  32.588  1.00  0.00     0.135 A 
ATOM     55  C   UNL A   1      44.498  33.963  30.354  1.00  0.00     0.135 A 
ATOM     56  F   UNL A   1      43.474  32.430  33.491  1.00  0.00    -0.206 F 
ATOM     57  C   UNL A   1      43.987  34.664  33.000  1.00  0.00     0.059 A 
ATOM     58  C   UNL A   1      44.654  35.287  30.751  1.00  0.00     0.059 A 
ATOM     59  F   UNL A   1      44.736  33.658  29.068  1.00  0.00    -0.206 F 
ATOM     60  C   UNL A   1      44.379  35.631  32.074  1.00  0.00     0.060 A 
BRANCH  60  61
ATOM     61  S   UNL A   1      44.524  37.344  32.625  1.00  0.00     0.124 S 
ATOM     62  O   UNL A   1      43.661  37.345  33.802  1.00  0.00    -0.237 OA
ATOM     63  O   UNL A   1      45.954  37.467  32.889  1.00  0.00    -0.237 OA
ATOM     64  O   UNL A   1      44.032  38.112  31.485  1.00  0.00    -0.744 OA
ENDBRANCH  60  61
ENDBRANCH  39  53
BRANCH  40  65
ATOM     65  C   UNL A   1      42.873  23.677  27.751  1.00  0.00     0.058 A 
ATOM     66  C   UNL A   1      42.609  22.574  28.576  1.00  0.00     0.135 A 
ATOM     67  C   UNL A   1      42.934  23.457  26.366  1.00  0.00     0.135 A 
ATOM     68  F   UNL A   1      42.548  22.731  29.907  1.00  0.00    -0.206 F 
ATOM     69  C   UNL A   1      42.420  21.300  28.051  1.00  0.00     0.059 A 
ATOM     70  C   UNL A   1      42.723  22.197  25.815  1.00  0.00     0.059 A 
ATOM     71  F   UNL A   1      43.167  24.482  25.532  1.00  0.00    -0.206 F 
ATOM     72  C   UNL A   1      42.472  21.122  26.667  1.00  0.00     0.060 A 
BRANCH  72  73
ATOM     73  S   UNL A   1      42.159  19.477  25.992  1.00  0.00     0.124 S 
ATOM     74  O   UNL A   1      42.583  18.622  27.094  1.00  0.00    -0.237 OA
ATOM     75  O   UNL A   1      40.724  19.522  25.732  1.00  0.00    -0.237 OA
ATOM     76  O   UNL A   1      43.004  19.438  24.801  1.00  0.00    -0.744 OA
ENDBRANCH  72  73
ENDBRANCH  40  65
BRANCH  52  77
ATOM     77  C   UNL A   1      48.319  27.175  30.378  1.00  0.00     0.058 A 
ATOM     78  C   UNL A   1      49.322  27.473  29.442  1.00  0.00     0.135 A 
ATOM     79  C   UNL A   1      48.708  26.569  31.584  1.00  0.00     0.135 A 
ATOM     80  F   UNL A   1      49.004  28.044  28.270  1.00  0.00    -0.206 F 
ATOM     81  C   UNL A   1      50.657  27.168  29.686  1.00  0.00     0.059 A 
ATOM     82  C   UNL A   1      50.040  26.281  31.862  1.00  0.00     0.059 A 
ATOM     83  F   UNL A   1      47.790  26.271  32.517  1.00  0.00    -0.206 F 
ATOM     84  C   UNL A   1      51.008  26.577  30.902  1.00  0.00     0.060 A 
BRANCH  84  85
ATOM     85  S   UNL A   1      52.749  26.229  31.224  1.00  0.00     0.124 S 
ATOM     86  O   UNL A   1      52.672  24.943  31.907  1.00  0.00    -0.237 OA
ATOM     87  O   UNL A   1      53.315  26.199  29.879  1.00  0.00    -0.237 OA
ATOM     88  O   UNL A   1      53.173  27.355  32.052  1.00  0.00    -0.744 OA
ENDBRANCH  84  85
ENDBRANCH  52  77
ENDBRANCH  26  27
ENDBRANCH  18  21
ENDBRANCH  16  17
ENDBRANCH   1  16
TORSDOF 16
ENDMDL
MODEL 2
REMARK VINA RESULT:     -10.1      5.759     12.527
REMARK SMILES CC(=O)/C=C(/C)NCC(=O)NCCCNC(=O)c1ccc(-c2c3nc(c(-c4c(F)cc(S(=O)(=O)[O-])cc4F)c4ccc([nH]4)c(-c4c(F)cc(S(=O)(=O)[O-])cc4F)c4nc(c(-c5c(F)cc(S(=O)(=O)[O-])cc5F)c5ccc2[nH]5)C=C4)C=C3)cc1
REMARK SMILES IDX 13 1 12 2 11 3 9 4 10 5 8 7 7 8 5 10 4 11 6 12 2 13 1 14
REMARK SMILES IDX 3 15 14 16 15 17 16 18 17 20 18 21 19 22 83 23 20 24 82 25
REMARK SMILES IDX 21 26 22 27 23 28 76 29 24 30 81 31 75 32 77 33 25 34 80 35
REMARK SMILES IDX 74 36 73 37 26 39 60 40 39 41 59 42 40 43 43 44 58 45 78 46
REMARK SMILES IDX 41 47 42 48 57 50 79 51 44 52 27 53 28 54 37 55 29 56 30 57
REMARK SMILES IDX 36 58 38 59 31 60 32 61 33 62 34 63 35 64 61 65 62 66 71 67
REMARK SMILES IDX 63 68 64 69 70 70 72 71 65 72 66 73 67 74 68 75 69 76 45 77
REMARK SMILES IDX 46 78 55 79 47 80 48 81 54 82 56 83 49 84 50 85 51 86 52 87
REMARK SMILES IDX 53 88
REMARK H PARENT 11 6 7 9 15 19 77 38 43 49
REMARK Flexibility Score: inf
ROOT
ATOM      1  C   UNL A   1      38.370  23.556  26.064  1.00  0.00     0.042 C 
ENDROOT
BRANCH   1   2
ATOM      2  C   UNL A   1      37.630  22.280  25.682  1.00  0.00     0.117 C 
BRANCH   2   3
ATOM      3  N   UNL A   1      36.387  22.116  26.407  1.00  0.00    -0.355 N 
ATOM      4  C   UNL A   1      35.237  21.470  26.063  1.00  0.00     0.239 C 
ATOM      5  O   UNL A   1      34.328  21.470  26.902  1.00  0.00    -0.273 OA
ATOM      6  H   UNL A   1      36.368  22.541  27.295  1.00  0.00     0.163 HD
BRANCH   4   7
ATOM      7  C   UNL A   1      35.066  20.690  24.750  1.00  0.00     0.213 C 
BRANCH   7   8
ATOM      8  N   UNL A   1      34.517  19.357  24.889  1.00  0.00    -0.380 N 
ATOM      9  H   UNL A   1      35.188  18.688  25.159  1.00  0.00     0.160 HD
BRANCH   8  10
ATOM     10  C   UNL A   1      33.252  18.822  24.723  1.00  0.00     0.011 C 
ATOM     11  C   UNL A   1      32.777  17.560  24.655  1.00  0.00     0.067 C 
ATOM     12  C   UNL A   1      32.211  19.919  24.477  1.00  0.00     0.064 C 
BRANCH  11  13
ATOM     13  C   UNL A   1      33.277  16.153  24.694  1.00  0.00     0.154 C 
ATOM     14  C   UNL A   1      32.595  15.059  25.455  1.00  0.00     0.093 C 
ATOM     15  O   UNL A   1      34.293  15.895  24.040  1.00  0.00    -0.295 OA
ENDBRANCH  11  13
ENDBRANCH   8  10
ENDBRANCH   7   8
ENDBRANCH   4   7
ENDBRANCH   2   3
ENDBRANCH   1   2
BRANCH   1  16
ATOM     16  C   UNL A   1      39.613  23.297  26.907  1.00  0.00     0.118 C 
BRANCH  16  17
ATOM     17  N   UNL A   1      40.848  23.580  26.187  1.00  0.00    -0.352 N 
ATOM     18  C   UNL A   1      41.655  24.693  26.226  1.00  0.00     0.251 C 
ATOM     19  H   UNL A   1      41.151  22.866  25.581  1.00  0.00     0.163 HD
ATOM     20  O   UNL A   1      42.568  24.805  25.418  1.00  0.00    -0.269 OA
BRANCH  18  21
ATOM     21  C   UNL A   1      41.402  25.756  27.222  1.00  0.00     0.039 A 
ATOM     22  C   UNL A   1      40.420  25.546  28.194  1.00  0.00     0.014 A 
ATOM     23  C   UNL A   1      42.126  26.950  27.201  1.00  0.00     0.014 A 
ATOM     24  C   UNL A   1      40.218  26.504  29.190  1.00  0.00     0.010 A 
ATOM     25  C   UNL A   1      41.980  27.865  28.238  1.00  0.00     0.010 A 
ATOM     26  C   UNL A   1      41.026  27.651  29.245  1.00  0.00    -0.014 A 
BRANCH  26  27
ATOM     27  C   UNL A   1      40.907  28.629  30.357  1.00  0.00     0.031 A 
ATOM     28  C   UNL A   1      41.777  28.500  31.576  1.00  0.00     0.074 A 
ATOM     29  C   UNL A   1      39.955  29.582  30.301  1.00  0.00     0.049 A 
ATOM     30  N   UNL A   1      41.758  29.198  32.681  1.00  0.00    -0.248 NA
ATOM     31  C   UNL A   1      42.782  27.424  31.564  1.00  0.00     0.031 C 
ATOM     32  C   UNL A   1      39.015  29.774  29.194  1.00  0.00     0.029 A 
ATOM     33  N   UNL A   1      39.609  30.558  31.201  1.00  0.00    -0.354 N 
ATOM     34  C   UNL A   1      42.731  28.640  33.501  1.00  0.00     0.074 A 
ATOM     35  C   UNL A   1      43.287  27.511  32.786  1.00  0.00     0.031 C 
ATOM     36  C   UNL A   1      38.211  30.812  29.474  1.00  0.00     0.029 A 
ATOM     37  C   UNL A   1      38.547  31.332  30.795  1.00  0.00     0.049 A 
ATOM     38  H   UNL A   1      40.075  30.691  32.058  1.00  0.00     0.167 HD
ATOM     39  C   UNL A   1      43.137  29.042  34.729  1.00  0.00     0.037 A 
ATOM     40  C   UNL A   1      37.905  32.337  31.422  1.00  0.00     0.037 A 
ATOM     41  C   UNL A   1      42.592  30.180  35.423  1.00  0.00     0.049 A 
ATOM     42  C   UNL A   1      38.371  32.767  32.786  1.00  0.00     0.074 A 
ATOM     43  C   UNL A   1      42.983  30.714  36.638  1.00  0.00     0.029 A 
ATOM     44  N   UNL A   1      41.533  30.954  34.969  1.00  0.00    -0.354 N 
ATOM     45  N   UNL A   1      39.345  32.275  33.515  1.00  0.00    -0.248 NA
ATOM     46  C   UNL A   1      37.658  33.888  33.411  1.00  0.00     0.031 C 
ATOM     47  C   UNL A   1      42.127  31.777  36.944  1.00  0.00     0.029 A 
ATOM     48  C   UNL A   1      41.237  31.942  35.894  1.00  0.00     0.049 A 
ATOM     49  H   UNL A   1      41.062  30.820  34.115  1.00  0.00     0.167 HD
ATOM     50  C   UNL A   1      39.375  33.040  34.675  1.00  0.00     0.074 A 
ATOM     51  C   UNL A   1      38.332  34.036  34.544  1.00  0.00     0.031 C 
ATOM     52  C   UNL A   1      40.194  32.928  35.750  1.00  0.00     0.037 A 
BRANCH  39  53
ATOM     53  C   UNL A   1      44.219  28.243  35.404  1.00  0.00     0.058 A 
ATOM     54  C   UNL A   1      43.922  27.168  36.258  1.00  0.00     0.135 A 
ATOM     55  C   UNL A   1      45.573  28.536  35.171  1.00  0.00     0.135 A 
ATOM     56  F   UNL A   1      42.646  26.850  36.527  1.00  0.00    -0.206 F 
ATOM     57  C   UNL A   1      44.927  26.437  36.884  1.00  0.00     0.059 A 
ATOM     58  C   UNL A   1      46.594  27.799  35.762  1.00  0.00     0.059 A 
ATOM     59  F   UNL A   1      45.916  29.552  34.362  1.00  0.00    -0.206 F 
ATOM     60  C   UNL A   1      46.261  26.761  36.631  1.00  0.00     0.060 A 
BRANCH  60  61
ATOM     61  S   UNL A   1      47.551  25.806  37.457  1.00  0.00     0.124 S 
ATOM     62  O   UNL A   1      48.045  24.977  36.362  1.00  0.00    -0.237 OA
ATOM     63  O   UNL A   1      48.460  26.848  37.922  1.00  0.00    -0.237 OA
ATOM     64  O   UNL A   1      46.829  25.094  38.507  1.00  0.00    -0.744 OA
ENDBRANCH  60  61
ENDBRANCH  39  53
BRANCH  40  65
ATOM     65  C   UNL A   1      36.759  33.010  30.753  1.00  0.00     0.058 A 
ATOM     66  C   UNL A   1      35.437  32.726  31.124  1.00  0.00     0.135 A 
ATOM     67  C   UNL A   1      36.964  33.975  29.754  1.00  0.00     0.135 A 
ATOM     68  F   UNL A   1      35.189  31.806  32.069  1.00  0.00    -0.206 F 
ATOM     69  C   UNL A   1      34.358  33.367  30.525  1.00  0.00     0.059 A 
ATOM     70  C   UNL A   1      35.903  34.648  29.158  1.00  0.00     0.059 A 
ATOM     71  F   UNL A   1      38.211  34.296  29.374  1.00  0.00    -0.206 F 
ATOM     72  C   UNL A   1      34.601  34.333  29.547  1.00  0.00     0.060 A 
BRANCH  72  73
ATOM     73  S   UNL A   1      33.197  35.207  28.823  1.00  0.00     0.124 S 
ATOM     74  O   UNL A   1      32.477  35.643  30.014  1.00  0.00    -0.237 OA
ATOM     75  O   UNL A   1      33.854  36.257  28.053  1.00  0.00    -0.237 OA
ATOM     76  O   UNL A   1      32.535  34.177  28.028  1.00  0.00    -0.744 OA
ENDBRANCH  72  73
ENDBRANCH  40  65
BRANCH  52  77
ATOM     77  C   UNL A   1      40.015  33.921  36.866  1.00  0.00     0.058 A 
ATOM     78  C   UNL A   1      40.651  35.172  36.850  1.00  0.00     0.135 A 
ATOM     79  C   UNL A   1      39.145  33.641  37.934  1.00  0.00     0.135 A 
ATOM     80  F   UNL A   1      41.499  35.486  35.859  1.00  0.00    -0.206 F 
ATOM     81  C   UNL A   1      40.444  36.104  37.861  1.00  0.00     0.059 A 
ATOM     82  C   UNL A   1      38.901  34.569  38.940  1.00  0.00     0.059 A 
ATOM     83  F   UNL A   1      38.505  32.462  37.992  1.00  0.00    -0.206 F 
ATOM     84  C   UNL A   1      39.563  35.796  38.900  1.00  0.00     0.060 A 
BRANCH  84  85
ATOM     85  S   UNL A   1      39.269  37.034  40.181  1.00  0.00     0.124 S 
ATOM     86  O   UNL A   1      38.529  38.051  39.442  1.00  0.00    -0.237 OA
ATOM     87  O   UNL A   1      38.501  36.284  41.169  1.00  0.00    -0.237 OA
ATOM     88  O   UNL A   1      40.615  37.417  40.599  1.00  0.00    -0.744 OA
ENDBRANCH  84  85
ENDBRANCH  52  77
ENDBRANCH  26  27
ENDBRANCH  18  21
ENDBRANCH  16  17
ENDBRANCH   1  16
TORSDOF 16
ENDMDL
MODEL 3
REMARK VINA RESULT:     -10.1      5.108     12.963
REMARK SMILES CC(=O)/C=C(/C)NCC(=O)NCCCNC(=O)c1ccc(-c2c3nc(c(-c4c(F)cc(S(=O)(=O)[O-])cc4F)c4ccc([nH]4)c(-c4c(F)cc(S(=O)(=O)[O-])cc4F)c4nc(c(-c5c(F)cc(S(=O)(=O)[O-])cc5F)c5ccc2[nH]5)C=C4)C=C3)cc1
REMARK SMILES IDX 13 1 12 2 11 3 9 4 10 5 8 7 7 8 5 10 4 11 6 12 2 13 1 14
REMARK SMILES IDX 3 15 14 16 15 17 16 18 17 20 18 21 19 22 83 23 20 24 82 25
REMARK SMILES IDX 21 26 22 27 23 28 76 29 24 30 81 31 75 32 77 33 25 34 80 35
REMARK SMILES IDX 74 36 73 37 26 39 60 40 39 41 59 42 40 43 43 44 58 45 78 46
REMARK SMILES IDX 41 47 42 48 57 50 79 51 44 52 27 53 28 54 37 55 29 56 30 57
REMARK SMILES IDX 36 58 38 59 31 60 32 61 33 62 34 63 35 64 61 65 62 66 71 67
REMARK SMILES IDX 63 68 64 69 70 70 72 71 65 72 66 73 67 74 68 75 69 76 45 77
REMARK SMILES IDX 46 78 55 79 47 80 48 81 54 82 56 83 49 84 50 85 51 86 52 87
REMARK SMILES IDX 53 88
REMARK H PARENT 11 6 7 9 15 19 77 38 43 49
REMARK Flexibility Score: inf
ROOT
ATOM      1  C   UNL A   1      43.819  25.458  26.091  1.00  0.00     0.042 C 
ENDROOT
BRANCH   1   2
ATOM      2  C   UNL A   1      44.958  24.795  25.328  1.00  0.00     0.117 C 
BRANCH   2   3
ATOM      3  N   UNL A   1      44.490  23.885  24.303  1.00  0.00    -0.355 N 
ATOM      4  C   UNL A   1      44.916  22.635  23.964  1.00  0.00     0.239 C 
ATOM      5  O   UNL A   1      44.306  22.071  23.047  1.00  0.00    -0.273 OA
ATOM      6  H   UNL A   1      43.743  24.225  23.760  1.00  0.00     0.163 HD
BRANCH   4   7
ATOM      7  C   UNL A   1      46.030  21.888  24.714  1.00  0.00     0.213 C 
BRANCH   7   8
ATOM      8  N   UNL A   1      45.579  20.853  25.621  1.00  0.00    -0.380 N 
ATOM      9  H   UNL A   1      45.961  20.937  26.525  1.00  0.00     0.160 HD
BRANCH   8  10
ATOM     10  C   UNL A   1      44.729  19.770  25.488  1.00  0.00     0.011 C 
ATOM     11  C   UNL A   1      43.398  19.607  25.647  1.00  0.00     0.067 C 
ATOM     12  C   UNL A   1      45.506  18.485  25.188  1.00  0.00     0.064 C 
BRANCH  11  13
ATOM     13  C   UNL A   1      42.192  20.401  26.033  1.00  0.00     0.154 C 
ATOM     14  C   UNL A   1      41.253  19.992  27.123  1.00  0.00     0.093 C 
ATOM     15  O   UNL A   1      41.993  21.459  25.426  1.00  0.00    -0.295 OA
ENDBRANCH  11  13
ENDBRANCH   8  10
ENDBRANCH   7   8
ENDBRANCH   4   7
ENDBRANCH   2   3
ENDBRANCH   1   2
BRANCH   1  16
ATOM     16  C   UNL A   1      42.975  24.469  26.885  1.00  0.00     0.118 C 
BRANCH  16  17
ATOM     17  N   UNL A   1      41.692  24.191  26.252  1.00  0.00    -0.352 N 
ATOM     18  C   UNL A   1      40.443  24.688  26.538  1.00  0.00     0.251 C 
ATOM     19  H   UNL A   1      41.725  23.549  25.506  1.00  0.00     0.163 HD
ATOM     20  O   UNL A   1      39.460  24.203  25.992  1.00  0.00    -0.269 OA
BRANCH  18  21
ATOM     21  C   UNL A   1      40.290  25.785  27.519  1.00  0.00     0.039 A 
ATOM     22  C   UNL A   1      39.453  25.588  28.621  1.00  0.00     0.014 A 
ATOM     23  C   UNL A   1      40.966  26.995  27.357  1.00  0.00     0.014 A 
ATOM     24  C   UNL A   1      39.353  26.581  29.598  1.00  0.00     0.010 A 
ATOM     25  C   UNL A   1      40.930  27.949  28.369  1.00  0.00     0.010 A 
ATOM     26  C   UNL A   1      40.125  27.750  29.502  1.00  0.00    -0.014 A 
BRANCH  26  27
ATOM     27  C   UNL A   1      40.123  28.769  30.582  1.00  0.00     0.031 A 
ATOM     28  C   UNL A   1      41.020  28.608  31.778  1.00  0.00     0.074 A 
ATOM     29  C   UNL A   1      39.251  29.796  30.523  1.00  0.00     0.049 A 
ATOM     30  N   UNL A   1      41.095  29.341  32.859  1.00  0.00    -0.248 NA
ATOM     31  C   UNL A   1      41.933  27.454  31.773  1.00  0.00     0.031 C 
ATOM     32  C   UNL A   1      38.293  30.029  29.439  1.00  0.00     0.029 A 
ATOM     33  N   UNL A   1      39.015  30.825  31.399  1.00  0.00    -0.354 N 
ATOM     34  C   UNL A   1      42.046  28.730  33.667  1.00  0.00     0.074 A 
ATOM     35  C   UNL A   1      42.484  27.538  32.974  1.00  0.00     0.031 C 
ATOM     36  C   UNL A   1      37.586  31.139  29.708  1.00  0.00     0.029 A 
ATOM     37  C   UNL A   1      38.007  31.671  30.999  1.00  0.00     0.049 A 
ATOM     38  H   UNL A   1      39.519  30.947  32.236  1.00  0.00     0.167 HD
ATOM     39  C   UNL A   1      42.524  29.137  34.867  1.00  0.00     0.037 A 
ATOM     40  C   UNL A   1      37.470  32.745  31.610  1.00  0.00     0.037 A 
ATOM     41  C   UNL A   1      42.096  30.338  35.538  1.00  0.00     0.049 A 
ATOM     42  C   UNL A   1      38.015  33.179  32.943  1.00  0.00     0.074 A 
ATOM     43  C   UNL A   1      42.570  30.876  36.721  1.00  0.00     0.029 A 
ATOM     44  N   UNL A   1      41.090  31.181  35.091  1.00  0.00    -0.354 N 
ATOM     45  N   UNL A   1      38.970  32.631  33.659  1.00  0.00    -0.248 NA
ATOM     46  C   UNL A   1      37.417  34.374  33.551  1.00  0.00     0.031 C 
ATOM     47  C   UNL A   1      41.814  32.015  37.016  1.00  0.00     0.029 A 
ATOM     48  C   UNL A   1      40.907  32.219  35.989  1.00  0.00     0.049 A 
ATOM     49  H   UNL A   1      40.581  31.060  34.257  1.00  0.00     0.167 HD
ATOM     50  C   UNL A   1      39.100  33.428  34.791  1.00  0.00     0.074 A 
ATOM     51  C   UNL A   1      38.138  34.502  34.658  1.00  0.00     0.031 C 
ATOM     52  C   UNL A   1      39.943  33.283  35.843  1.00  0.00     0.037 A 
BRANCH  39  53
ATOM     53  C   UNL A   1      43.559  28.273  35.536  1.00  0.00     0.058 A 
ATOM     54  C   UNL A   1      44.932  28.434  35.285  1.00  0.00     0.135 A 
ATOM     55  C   UNL A   1      43.177  27.289  36.462  1.00  0.00     0.135 A 
ATOM     56  F   UNL A   1      45.355  29.350  34.400  1.00  0.00    -0.206 F 
ATOM     57  C   UNL A   1      45.884  27.629  35.902  1.00  0.00     0.059 A 
ATOM     58  C   UNL A   1      44.114  26.492  37.114  1.00  0.00     0.059 A 
ATOM     59  F   UNL A   1      41.879  27.091  36.741  1.00  0.00    -0.206 F 
ATOM     60  C   UNL A   1      45.465  26.659  36.814  1.00  0.00     0.060 A 
BRANCH  60  61
ATOM     61  S   UNL A   1      46.714  25.618  37.599  1.00  0.00     0.124 S 
ATOM     62  O   UNL A   1      46.003  24.349  37.717  1.00  0.00    -0.237 OA
ATOM     63  O   UNL A   1      47.800  25.647  36.626  1.00  0.00    -0.237 OA
ATOM     64  O   UNL A   1      46.986  26.304  38.858  1.00  0.00    -0.744 OA
ENDBRANCH  60  61
ENDBRANCH  39  53
BRANCH  40  65
ATOM     65  C   UNL A   1      36.362  33.489  30.954  1.00  0.00     0.058 A 
ATOM     66  C   UNL A   1      35.065  33.472  31.487  1.00  0.00     0.135 A 
ATOM     67  C   UNL A   1      36.583  34.258  29.801  1.00  0.00     0.135 A 
ATOM     68  F   UNL A   1      34.800  32.745  32.584  1.00  0.00    -0.206 F 
ATOM     69  C   UNL A   1      34.025  34.184  30.898  1.00  0.00     0.059 A 
ATOM     70  C   UNL A   1      35.567  34.999  29.208  1.00  0.00     0.059 A 
ATOM     71  F   UNL A   1      37.811  34.322  29.260  1.00  0.00    -0.206 F 
ATOM     72  C   UNL A   1      34.287  34.951  29.762  1.00  0.00     0.060 A 
BRANCH  72  73
ATOM     73  S   UNL A   1      32.946  35.924  29.044  1.00  0.00     0.124 S 
ATOM     74  O   UNL A   1      32.308  34.946  28.172  1.00  0.00    -0.237 OA
ATOM     75  O   UNL A   1      32.188  36.318  30.227  1.00  0.00    -0.237 OA
ATOM     76  O   UNL A   1      33.647  37.012  28.367  1.00  0.00    -0.744 OA
ENDBRANCH  72  73
ENDBRANCH  40  65
BRANCH  52  77
ATOM     77  C   UNL A   1      39.883  34.322  36.930  1.00  0.00     0.058 A 
ATOM     78  C   UNL A   1      40.547  35.553  36.811  1.00  0.00     0.135 A 
ATOM     79  C   UNL A   1      39.098  34.108  38.075  1.00  0.00     0.135 A 
ATOM     80  F   UNL A   1      41.317  35.805  35.742  1.00  0.00    -0.206 F 
ATOM     81  C   UNL A   1      40.449  36.529  37.798  1.00  0.00     0.059 A 
ATOM     82  C   UNL A   1      38.962  35.080  39.060  1.00  0.00     0.059 A 
ATOM     83  F   UNL A   1      38.434  32.951  38.233  1.00  0.00    -0.206 F 
ATOM     84  C   UNL A   1      39.649  36.286  38.917  1.00  0.00     0.060 A 
BRANCH  84  85
ATOM     85  S   UNL A   1      39.494  37.579  40.166  1.00  0.00     0.124 S 
ATOM     86  O   UNL A   1      40.869  38.054  40.270  1.00  0.00    -0.237 OA
ATOM     87  O   UNL A   1      38.550  38.502  39.544  1.00  0.00    -0.237 OA
ATOM     88  O   UNL A   1      38.986  36.865  41.334  1.00  0.00    -0.744 OA
ENDBRANCH  84  85
ENDBRANCH  52  77
ENDBRANCH  26  27
ENDBRANCH  18  21
ENDBRANCH  16  17
ENDBRANCH   1  16
TORSDOF 16
ENDMDL
