MODEL 1
REMARK VINA RESULT:     -12.2      0.000      0.000
REMARK SMILES CCc1nc(Oc2ccc(C(=O)NCCCNC(=O)c3ccc(-c4c5nc(c(-c6c(F)cc(S(=O)(=O)[O-])cc6F)c6ccc([nH]6)c(-c6c(F)cc(S(=O)(=O)[O-])cc6F)c6nc(c(-c7c(F)cc(S(=O)(=O)[O-])cc7F)c7ccc4[nH]7)C=C6)C=C5)cc3)cc2)cc(C(C)C)n1
REMARK SMILES IDX 15 1 14 2 13 3 11 4 12 5 10 7 7 8 8 9 87 10 9 11 86 12 6 13
REMARK SMILES IDX 5 14 3 15 4 16 93 17 89 18 88 19 2 20 1 21 90 22 91 23 92 24
REMARK SMILES IDX 16 25 17 26 18 27 19 29 20 30 21 31 85 32 22 33 84 34 23 35
REMARK SMILES IDX 24 36 25 37 78 38 26 39 83 40 77 41 79 42 27 43 82 44 76 45
REMARK SMILES IDX 75 46 28 48 62 49 41 50 61 51 42 52 45 53 60 54 80 55 43 56
REMARK SMILES IDX 44 57 59 59 81 60 46 61 29 62 30 63 39 64 31 65 32 66 38 67
REMARK SMILES IDX 40 68 33 69 34 70 35 71 36 72 37 73 63 74 64 75 73 76 65 77
REMARK SMILES IDX 66 78 72 79 74 80 67 81 68 82 69 83 70 84 71 85 47 86 48 87
REMARK SMILES IDX 57 88 49 89 50 90 56 91 58 92 51 93 52 94 53 95 54 96 55 97
REMARK H PARENT 13 6 17 28 79 47 45 58
REMARK Flexibility Score: inf
ROOT
ATOM      1  C   UNL A   1      37.438  23.484  25.490  1.00  0.00     0.042 C 
ENDROOT
BRANCH   1   2
ATOM      2  C   UNL A   1      36.019  23.205  25.980  1.00  0.00     0.118 C 
BRANCH   2   3
ATOM      3  N   UNL A   1      35.569  21.886  25.571  1.00  0.00    -0.352 N 
ATOM      4  C   UNL A   1      34.442  21.465  24.916  1.00  0.00     0.251 C 
ATOM      5  O   UNL A   1      34.358  20.277  24.610  1.00  0.00    -0.269 OA
ATOM      6  H   UNL A   1      36.189  21.159  25.810  1.00  0.00     0.163 HD
BRANCH   4   7
ATOM      7  C   UNL A   1      33.361  22.395  24.500  1.00  0.00     0.040 A 
ATOM      8  C   UNL A   1      31.465  24.262  23.636  1.00  0.00     0.129 A 
ATOM      9  C   UNL A   1      32.681  24.155  22.965  1.00  0.00     0.048 A 
ATOM     10  C   UNL A   1      31.150  23.384  24.673  1.00  0.00     0.048 A 
ATOM     11  C   UNL A   1      33.628  23.228  23.401  1.00  0.00     0.017 A 
ATOM     12  C   UNL A   1      32.097  22.447  25.098  1.00  0.00     0.017 A 
BRANCH   8  13
ATOM     13  O   UNL A   1      30.572  25.200  23.189  1.00  0.00    -0.439 OA
BRANCH  13  14
ATOM     14  C   UNL A   1      30.727  26.511  23.594  1.00  0.00     0.222 A 
ATOM     15  C   UNL A   1      30.374  28.696  23.003  1.00  0.00     0.132 A 
ATOM     16  N   UNL A   1      30.248  27.395  22.702  1.00  0.00    -0.198 NA
ATOM     17  N   UNL A   1      30.952  29.163  24.126  1.00  0.00    -0.237 NA
ATOM     18  C   UNL A   1      31.435  28.256  24.999  1.00  0.00     0.050 A 
ATOM     19  C   UNL A   1      31.358  26.898  24.760  1.00  0.00     0.093 A 
BRANCH  15  20
ATOM     20  C   UNL A   1      29.889  29.726  22.017  1.00  0.00     0.074 C 
ATOM     21  C   UNL A   1      28.392  30.001  22.066  1.00  0.00     0.012 C 
ENDBRANCH  15  20
BRANCH  18  22
ATOM     22  C   UNL A   1      32.084  28.777  26.267  1.00  0.00     0.032 C 
ATOM     23  C   UNL A   1      32.060  30.305  26.298  1.00  0.00     0.014 C 
ATOM     24  C   UNL A   1      31.402  28.198  27.509  1.00  0.00     0.014 C 
ENDBRANCH  18  22
ENDBRANCH  13  14
ENDBRANCH   8  13
ENDBRANCH   4   7
ENDBRANCH   2   3
ENDBRANCH   1   2
BRANCH   1  25
ATOM     25  C   UNL A   1      38.384  23.956  26.592  1.00  0.00     0.118 C 
BRANCH  25  26
ATOM     26  N   UNL A   1      39.780  23.868  26.190  1.00  0.00    -0.352 N 
ATOM     27  C   UNL A   1      40.837  24.693  26.488  1.00  0.00     0.251 C 
ATOM     28  H   UNL A   1      40.001  23.099  25.616  1.00  0.00     0.163 HD
ATOM     29  O   UNL A   1      41.889  24.565  25.870  1.00  0.00    -0.269 OA
BRANCH  27  30
ATOM     30  C   UNL A   1      40.713  25.734  27.534  1.00  0.00     0.039 A 
ATOM     31  C   UNL A   1      39.709  25.604  28.499  1.00  0.00     0.014 A 
ATOM     32  C   UNL A   1      41.545  26.858  27.543  1.00  0.00     0.014 A 
ATOM     33  C   UNL A   1      39.573  26.571  29.499  1.00  0.00     0.010 A 
ATOM     34  C   UNL A   1      41.452  27.786  28.579  1.00  0.00     0.010 A 
ATOM     35  C   UNL A   1      40.462  27.655  29.564  1.00  0.00    -0.014 A 
BRANCH  35  36
ATOM     36  C   UNL A   1      40.370  28.663  30.651  1.00  0.00     0.031 A 
ATOM     37  C   UNL A   1      41.258  28.559  31.862  1.00  0.00     0.074 A 
ATOM     38  C   UNL A   1      39.440  29.636  30.579  1.00  0.00     0.049 A 
ATOM     39  N   UNL A   1      41.282  29.305  32.937  1.00  0.00    -0.248 NA
ATOM     40  C   UNL A   1      42.230  27.455  31.877  1.00  0.00     0.031 C 
ATOM     41  C   UNL A   1      38.494  29.819  29.476  1.00  0.00     0.029 A 
ATOM     42  N   UNL A   1      39.130  30.648  31.453  1.00  0.00    -0.354 N 
ATOM     43  C   UNL A   1      42.249  28.746  33.765  1.00  0.00     0.074 A 
ATOM     44  C   UNL A   1      42.760  27.576  33.085  1.00  0.00     0.031 C 
ATOM     45  C   UNL A   1      37.730  30.895  29.727  1.00  0.00     0.029 A 
ATOM     46  C   UNL A   1      38.105  31.455  31.022  1.00  0.00     0.049 A 
ATOM     47  H   UNL A   1      39.600  30.783  32.308  1.00  0.00     0.167 HD
ATOM     48  C   UNL A   1      42.682  29.179  34.974  1.00  0.00     0.037 A 
ATOM     49  C   UNL A   1      37.528  32.524  31.606  1.00  0.00     0.037 A 
ATOM     50  C   UNL A   1      42.190  30.363  35.631  1.00  0.00     0.049 A 
ATOM     51  C   UNL A   1      38.027  32.987  32.946  1.00  0.00     0.074 A 
ATOM     52  C   UNL A   1      42.619  30.931  36.817  1.00  0.00     0.029 A 
ATOM     53  N   UNL A   1      41.154  31.157  35.160  1.00  0.00    -0.354 N 
ATOM     54  N   UNL A   1      38.990  32.489  33.684  1.00  0.00    -0.248 NA
ATOM     55  C   UNL A   1      37.362  34.158  33.532  1.00  0.00     0.031 C 
ATOM     56  C   UNL A   1      41.813  32.043  37.086  1.00  0.00     0.029 A 
ATOM     57  C   UNL A   1      40.912  32.195  36.045  1.00  0.00     0.049 A 
ATOM     58  H   UNL A   1      40.663  31.005  34.321  1.00  0.00     0.167 HD
ATOM     59  C   UNL A   1      39.067  33.302  34.809  1.00  0.00     0.074 A 
ATOM     60  C   UNL A   1      38.055  34.328  34.651  1.00  0.00     0.031 C 
ATOM     61  C   UNL A   1      39.902  33.210  35.873  1.00  0.00     0.037 A 
BRANCH  48  62
ATOM     62  C   UNL A   1      43.734  28.357  35.670  1.00  0.00     0.058 A 
ATOM     63  C   UNL A   1      45.105  28.567  35.446  1.00  0.00     0.135 A 
ATOM     64  C   UNL A   1      43.367  27.351  36.577  1.00  0.00     0.135 A 
ATOM     65  F   UNL A   1      45.513  29.508  34.579  1.00  0.00    -0.206 F 
ATOM     66  C   UNL A   1      46.071  27.779  36.062  1.00  0.00     0.059 A 
ATOM     67  C   UNL A   1      44.318  26.569  37.227  1.00  0.00     0.059 A 
ATOM     68  F   UNL A   1      42.072  27.110  36.832  1.00  0.00    -0.206 F 
ATOM     69  C   UNL A   1      45.668  26.777  36.945  1.00  0.00     0.060 A 
BRANCH  69  70
ATOM     70  S   UNL A   1      46.931  25.743  37.718  1.00  0.00     0.124 S 
ATOM     71  O   UNL A   1      46.853  24.534  36.903  1.00  0.00    -0.237 OA
ATOM     72  O   UNL A   1      48.139  26.543  37.548  1.00  0.00    -0.237 OA
ATOM     73  O   UNL A   1      46.462  25.604  39.093  1.00  0.00    -0.744 OA
ENDBRANCH  69  70
ENDBRANCH  48  62
BRANCH  49  74
ATOM     74  C   UNL A   1      36.443  33.253  30.898  1.00  0.00     0.058 A 
ATOM     75  C   UNL A   1      35.113  33.143  31.327  1.00  0.00     0.135 A 
ATOM     76  C   UNL A   1      36.714  34.097  29.810  1.00  0.00     0.135 A 
ATOM     77  F   UNL A   1      34.805  32.341  32.358  1.00  0.00    -0.206 F 
ATOM     78  C   UNL A   1      34.085  33.842  30.702  1.00  0.00     0.059 A 
ATOM     79  C   UNL A   1      35.706  34.825  29.183  1.00  0.00     0.059 A 
ATOM     80  F   UNL A   1      37.974  34.249  29.373  1.00  0.00    -0.206 F 
ATOM     81  C   UNL A   1      34.394  34.687  29.635  1.00  0.00     0.060 A 
BRANCH  81  82
ATOM     82  S   UNL A   1      33.063  35.645  28.879  1.00  0.00     0.124 S 
ATOM     83  O   UNL A   1      33.806  36.710  28.216  1.00  0.00    -0.237 OA
ATOM     84  O   UNL A   1      32.438  34.660  28.001  1.00  0.00    -0.237 OA
ATOM     85  O   UNL A   1      32.254  36.055  30.023  1.00  0.00    -0.744 OA
ENDBRANCH  81  82
ENDBRANCH  49  74
BRANCH  61  86
ATOM     86  C   UNL A   1      39.780  34.264  36.939  1.00  0.00     0.058 A 
ATOM     87  C   UNL A   1      40.488  35.472  36.865  1.00  0.00     0.135 A 
ATOM     88  C   UNL A   1      38.906  34.079  38.022  1.00  0.00     0.135 A 
ATOM     89  F   UNL A   1      41.343  35.695  35.853  1.00  0.00    -0.206 F 
ATOM     90  C   UNL A   1      40.350  36.455  37.840  1.00  0.00     0.059 A 
ATOM     91  C   UNL A   1      38.734  35.058  38.995  1.00  0.00     0.059 A 
ATOM     92  F   UNL A   1      38.200  32.944  38.135  1.00  0.00    -0.206 F 
ATOM     93  C   UNL A   1      39.469  36.239  38.901  1.00  0.00     0.060 A 
BRANCH  93  94
ATOM     94  S   UNL A   1      39.270  37.536  40.142  1.00  0.00     0.124 S 
ATOM     95  O   UNL A   1      38.990  36.753  41.341  1.00  0.00    -0.237 OA
ATOM     96  O   UNL A   1      40.568  38.203  40.110  1.00  0.00    -0.237 OA
ATOM     97  O   UNL A   1      38.154  38.326  39.631  1.00  0.00    -0.744 OA
ENDBRANCH  93  94
ENDBRANCH  61  86
ENDBRANCH  35  36
ENDBRANCH  27  30
ENDBRANCH  25  26
ENDBRANCH   1  25
TORSDOF 17
ENDMDL
MODEL 2
REMARK VINA RESULT:     -12.1      4.589     10.611
REMARK SMILES CCc1nc(Oc2ccc(C(=O)NCCCNC(=O)c3ccc(-c4c5nc(c(-c6c(F)cc(S(=O)(=O)[O-])cc6F)c6ccc([nH]6)c(-c6c(F)cc(S(=O)(=O)[O-])cc6F)c6nc(c(-c7c(F)cc(S(=O)(=O)[O-])cc7F)c7ccc4[nH]7)C=C6)C=C5)cc3)cc2)cc(C(C)C)n1
REMARK SMILES IDX 15 1 14 2 13 3 11 4 12 5 10 7 7 8 8 9 87 10 9 11 86 12 6 13
REMARK SMILES IDX 5 14 3 15 4 16 93 17 89 18 88 19 2 20 1 21 90 22 91 23 92 24
REMARK SMILES IDX 16 25 17 26 18 27 19 29 20 30 21 31 85 32 22 33 84 34 23 35
REMARK SMILES IDX 24 36 25 37 78 38 26 39 83 40 77 41 79 42 27 43 82 44 76 45
REMARK SMILES IDX 75 46 28 48 62 49 41 50 61 51 42 52 45 53 60 54 80 55 43 56
REMARK SMILES IDX 44 57 59 59 81 60 46 61 29 62 30 63 39 64 31 65 32 66 38 67
REMARK SMILES IDX 40 68 33 69 34 70 35 71 36 72 37 73 63 74 64 75 73 76 65 77
REMARK SMILES IDX 66 78 72 79 74 80 67 81 68 82 69 83 70 84 71 85 47 86 48 87
REMARK SMILES IDX 57 88 49 89 50 90 56 91 58 92 51 93 52 94 53 95 54 96 55 97
REMARK H PARENT 13 6 17 28 79 47 45 58
REMARK Flexibility Score: inf
ROOT
ATOM      1  C   UNL A   1      32.525  27.656  26.126  1.00  0.00     0.042 C 
ENDROOT
BRANCH   1   2
ATOM      2  C   UNL A   1      32.328  27.641  24.612  1.00  0.00     0.118 C 
BRANCH   2   3
ATOM      3  N   UNL A   1      30.922  27.538  24.263  1.00  0.00    -0.352 N 
ATOM      4  C   UNL A   1      30.050  26.482  24.278  1.00  0.00     0.251 C 
ATOM      5  O   UNL A   1      28.868  26.702  24.016  1.00  0.00    -0.269 OA
ATOM      6  H   UNL A   1      30.521  28.386  23.959  1.00  0.00     0.163 HD
BRANCH   4   7
ATOM      7  C   UNL A   1      30.459  25.108  24.667  1.00  0.00     0.040 A 
ATOM      8  C   UNL A   1      31.192  22.464  25.213  1.00  0.00     0.129 A 
ATOM      9  C   UNL A   1      31.286  22.950  23.911  1.00  0.00     0.048 A 
ATOM     10  C   UNL A   1      30.826  23.312  26.259  1.00  0.00     0.048 A 
ATOM     11  C   UNL A   1      30.914  24.267  23.639  1.00  0.00     0.017 A 
ATOM     12  C   UNL A   1      30.466  24.636  25.984  1.00  0.00     0.017 A 
BRANCH   8  13
ATOM     13  O   UNL A   1      31.547  21.159  25.434  1.00  0.00    -0.439 OA
BRANCH  13  14
ATOM     14  C   UNL A   1      32.871  20.797  25.285  1.00  0.00     0.222 A 
ATOM     15  C   UNL A   1      34.278  19.111  24.634  1.00  0.00     0.132 A 
ATOM     16  N   UNL A   1      33.022  19.557  24.792  1.00  0.00    -0.198 NA
ATOM     17  N   UNL A   1      35.380  19.820  24.942  1.00  0.00    -0.237 NA
ATOM     18  C   UNL A   1      35.201  21.058  25.444  1.00  0.00     0.050 A 
ATOM     19  C   UNL A   1      33.942  21.587  25.653  1.00  0.00     0.093 A 
BRANCH  15  20
ATOM     20  C   UNL A   1      34.499  17.711  24.122  1.00  0.00     0.074 C 
ATOM     21  C   UNL A   1      33.240  16.860  24.029  1.00  0.00     0.012 C 
ENDBRANCH  15  20
BRANCH  18  22
ATOM     22  C   UNL A   1      36.439  21.863  25.791  1.00  0.00     0.032 C 
ATOM     23  C   UNL A   1      37.531  21.653  24.741  1.00  0.00     0.014 C 
ATOM     24  C   UNL A   1      36.104  23.349  25.935  1.00  0.00     0.014 C 
ENDBRANCH  18  22
ENDBRANCH  13  14
ENDBRANCH   8  13
ENDBRANCH   4   7
ENDBRANCH   2   3
ENDBRANCH   1   2
BRANCH   1  25
ATOM     25  C   UNL A   1      33.835  28.305  26.567  1.00  0.00     0.118 C 
BRANCH  25  26
ATOM     26  N   UNL A   1      33.643  29.673  27.024  1.00  0.00    -0.352 N 
ATOM     27  C   UNL A   1      34.441  30.457  27.821  1.00  0.00     0.251 C 
ATOM     28  H   UNL A   1      32.812  30.103  26.716  1.00  0.00     0.163 HD
ATOM     29  O   UNL A   1      33.992  31.507  28.270  1.00  0.00    -0.269 OA
BRANCH  27  30
ATOM     30  C   UNL A   1      35.824  30.041  28.150  1.00  0.00     0.039 A 
ATOM     31  C   UNL A   1      36.816  30.170  27.173  1.00  0.00     0.014 A 
ATOM     32  C   UNL A   1      36.139  29.483  29.392  1.00  0.00     0.014 A 
ATOM     33  C   UNL A   1      38.131  29.789  27.458  1.00  0.00     0.010 A 
ATOM     34  C   UNL A   1      37.462  29.166  29.699  1.00  0.00     0.010 A 
ATOM     35  C   UNL A   1      38.470  29.310  28.733  1.00  0.00    -0.014 A 
BRANCH  35  36
ATOM     36  C   UNL A   1      39.871  28.953  29.075  1.00  0.00     0.031 A 
ATOM     37  C   UNL A   1      40.764  29.951  29.761  1.00  0.00     0.074 A 
ATOM     38  C   UNL A   1      40.359  27.752  28.707  1.00  0.00     0.049 A 
ATOM     39  N   UNL A   1      42.028  29.845  30.084  1.00  0.00    -0.248 NA
ATOM     40  C   UNL A   1      40.164  31.249  30.108  1.00  0.00     0.031 C 
ATOM     41  C   UNL A   1      39.604  26.714  28.002  1.00  0.00     0.029 A 
ATOM     42  N   UNL A   1      41.607  27.204  28.867  1.00  0.00    -0.354 N 
ATOM     43  C   UNL A   1      42.380  31.067  30.645  1.00  0.00     0.074 A 
ATOM     44  C   UNL A   1      41.208  31.913  30.583  1.00  0.00     0.031 C 
ATOM     45  C   UNL A   1      40.396  25.645  27.815  1.00  0.00     0.029 A 
ATOM     46  C   UNL A   1      41.722  25.934  28.353  1.00  0.00     0.049 A 
ATOM     47  H   UNL A   1      42.349  27.676  29.310  1.00  0.00     0.167 HD
ATOM     48  C   UNL A   1      43.568  31.444  31.179  1.00  0.00     0.037 A 
ATOM     49  C   UNL A   1      42.778  25.099  28.315  1.00  0.00     0.037 A 
ATOM     50  C   UNL A   1      44.721  30.586  31.266  1.00  0.00     0.049 A 
ATOM     51  C   UNL A   1      44.084  25.537  28.915  1.00  0.00     0.074 A 
ATOM     52  C   UNL A   1      45.944  30.844  31.861  1.00  0.00     0.029 A 
ATOM     53  N   UNL A   1      44.797  29.305  30.738  1.00  0.00    -0.354 N 
ATOM     54  N   UNL A   1      44.381  26.670  29.505  1.00  0.00    -0.248 NA
ATOM     55  C   UNL A   1      45.199  24.583  28.847  1.00  0.00     0.031 C 
ATOM     56  C   UNL A   1      46.774  29.737  31.653  1.00  0.00     0.029 A 
ATOM     57  C   UNL A   1      46.055  28.770  30.970  1.00  0.00     0.049 A 
ATOM     58  H   UNL A   1      44.066  28.844  30.269  1.00  0.00     0.167 HD
ATOM     59  C   UNL A   1      45.707  26.556  29.904  1.00  0.00     0.074 A 
ATOM     60  C   UNL A   1      46.154  25.240  29.492  1.00  0.00     0.031 C 
ATOM     61  C   UNL A   1      46.484  27.457  30.555  1.00  0.00     0.037 A 
BRANCH  48  62
ATOM     62  C   UNL A   1      43.680  32.852  31.699  1.00  0.00     0.058 A 
ATOM     63  C   UNL A   1      43.342  33.182  33.022  1.00  0.00     0.135 A 
ATOM     64  C   UNL A   1      44.137  33.885  30.865  1.00  0.00     0.135 A 
ATOM     65  F   UNL A   1      42.887  32.237  33.860  1.00  0.00    -0.206 F 
ATOM     66  C   UNL A   1      43.411  34.492  33.485  1.00  0.00     0.059 A 
ATOM     67  C   UNL A   1      44.240  35.198  31.316  1.00  0.00     0.059 A 
ATOM     68  F   UNL A   1      44.477  33.626  29.593  1.00  0.00    -0.206 F 
ATOM     69  C   UNL A   1      43.854  35.495  32.622  1.00  0.00     0.060 A 
BRANCH  69  70
ATOM     70  S   UNL A   1      43.913  37.195  33.228  1.00  0.00     0.124 S 
ATOM     71  O   UNL A   1      42.709  37.249  34.053  1.00  0.00    -0.237 OA
ATOM     72  O   UNL A   1      45.178  37.226  33.954  1.00  0.00    -0.237 OA
ATOM     73  O   UNL A   1      43.873  37.992  32.007  1.00  0.00    -0.744 OA
ENDBRANCH  69  70
ENDBRANCH  48  62
BRANCH  49  74
ATOM     74  C   UNL A   1      42.623  23.744  27.723  1.00  0.00     0.058 A 
ATOM     75  C   UNL A   1      42.697  23.559  26.335  1.00  0.00     0.135 A 
ATOM     76  C   UNL A   1      42.436  22.608  28.527  1.00  0.00     0.135 A 
ATOM     77  F   UNL A   1      42.868  24.616  25.527  1.00  0.00    -0.206 F 
ATOM     78  C   UNL A   1      42.590  22.296  25.761  1.00  0.00     0.059 A 
ATOM     79  C   UNL A   1      42.348  21.332  27.978  1.00  0.00     0.059 A 
ATOM     80  F   UNL A   1      42.375  22.731  29.862  1.00  0.00    -0.206 F 
ATOM     81  C   UNL A   1      42.422  21.188  26.592  1.00  0.00     0.060 A 
BRANCH  81  82
ATOM     82  S   UNL A   1      42.357  19.546  25.841  1.00  0.00     0.124 S 
ATOM     83  O   UNL A   1      43.314  19.683  24.751  1.00  0.00    -0.237 OA
ATOM     84  O   UNL A   1      42.768  18.687  26.948  1.00  0.00    -0.237 OA
ATOM     85  O   UNL A   1      40.959  19.416  25.443  1.00  0.00    -0.744 OA
ENDBRANCH  81  82
ENDBRANCH  49  74
BRANCH  61  86
ATOM     86  C   UNL A   1      47.889  27.042  30.893  1.00  0.00     0.058 A 
ATOM     87  C   UNL A   1      48.951  27.244  29.999  1.00  0.00     0.135 A 
ATOM     88  C   UNL A   1      48.181  26.479  32.145  1.00  0.00     0.135 A 
ATOM     89  F   UNL A   1      48.724  27.771  28.786  1.00  0.00    -0.206 F 
ATOM     90  C   UNL A   1      50.255  26.883  30.328  1.00  0.00     0.059 A 
ATOM     91  C   UNL A   1      49.480  26.134  32.505  1.00  0.00     0.059 A 
ATOM     92  F   UNL A   1      47.201  26.273  33.039  1.00  0.00    -0.206 F 
ATOM     93  C   UNL A   1      50.509  26.330  31.585  1.00  0.00     0.060 A 
BRANCH  93  94
ATOM     94  S   UNL A   1      52.209  25.898  32.016  1.00  0.00     0.124 S 
ATOM     95  O   UNL A   1      52.944  26.426  30.871  1.00  0.00    -0.237 OA
ATOM     96  O   UNL A   1      52.403  26.609  33.276  1.00  0.00    -0.237 OA
ATOM     97  O   UNL A   1      52.172  24.443  32.124  1.00  0.00    -0.744 OA
ENDBRANCH  93  94
ENDBRANCH  61  86
ENDBRANCH  35  36
ENDBRANCH  27  30
ENDBRANCH  25  26
ENDBRANCH   1  25
TORSDOF 17
ENDMDL
MODEL 3
REMARK VINA RESULT:     -12.0      6.543     12.116
REMARK SMILES CCc1nc(Oc2ccc(C(=O)NCCCNC(=O)c3ccc(-c4c5nc(c(-c6c(F)cc(S(=O)(=O)[O-])cc6F)c6ccc([nH]6)c(-c6c(F)cc(S(=O)(=O)[O-])cc6F)c6nc(c(-c7c(F)cc(S(=O)(=O)[O-])cc7F)c7ccc4[nH]7)C=C6)C=C5)cc3)cc2)cc(C(C)C)n1
REMARK SMILES IDX 15 1 14 2 13 3 11 4 12 5 10 7 7 8 8 9 87 10 9 11 86 12 6 13
REMARK SMILES IDX 5 14 3 15 4 16 93 17 89 18 88 19 2 20 1 21 90 22 91 23 92 24
REMARK SMILES IDX 16 25 17 26 18 27 19 29 20 30 21 31 85 32 22 33 84 34 23 35
REMARK SMILES IDX 24 36 25 37 78 38 26 39 83 40 77 41 79 42 27 43 82 44 76 45
REMARK SMILES IDX 75 46 28 48 62 49 41 50 61 51 42 52 45 53 60 54 80 55 43 56
REMARK SMILES IDX 44 57 59 59 81 60 46 61 29 62 30 63 39 64 31 65 32 66 38 67
REMARK SMILES IDX 40 68 33 69 34 70 35 71 36 72 37 73 63 74 64 75 73 76 65 77
REMARK SMILES IDX 66 78 72 79 74 80 67 81 68 82 69 83 70 84 71 85 47 86 48 87
REMARK SMILES IDX 57 88 49 89 50 90 56 91 58 92 51 93 52 94 53 95 54 96 55 97
REMARK H PARENT 13 6 17 28 79 47 45 58
REMARK Flexibility Score: inf
ROOT
ATOM      1  C   UNL A   1      34.103  30.073  26.947  1.00  0.00     0.042 C 
ENDROOT
BRANCH   1   2
ATOM      2  C   UNL A   1      32.984  29.054  26.747  1.00  0.00     0.118 C 
BRANCH   2   3
ATOM      3  N   UNL A   1      31.944  29.574  25.877  1.00  0.00    -0.352 N 
ATOM      4  C   UNL A   1      31.485  29.165  24.653  1.00  0.00     0.251 C 
ATOM      5  O   UNL A   1      30.512  29.745  24.174  1.00  0.00    -0.269 OA
ATOM      6  H   UNL A   1      31.484  30.369  26.232  1.00  0.00     0.163 HD
BRANCH   4   7
ATOM      7  C   UNL A   1      32.068  28.009  23.922  1.00  0.00     0.040 A 
ATOM      8  C   UNL A   1      33.109  25.719  22.701  1.00  0.00     0.129 A 
ATOM      9  C   UNL A   1      32.082  25.595  23.632  1.00  0.00     0.048 A 
ATOM     10  C   UNL A   1      33.557  26.980  22.305  1.00  0.00     0.048 A 
ATOM     11  C   UNL A   1      31.567  26.738  24.245  1.00  0.00     0.017 A 
ATOM     12  C   UNL A   1      33.029  28.124  22.913  1.00  0.00     0.017 A 
BRANCH   8  13
ATOM     13  O   UNL A   1      33.601  24.570  22.138  1.00  0.00    -0.439 OA
BRANCH  13  14
ATOM     14  C   UNL A   1      33.984  23.535  22.968  1.00  0.00     0.222 A 
ATOM     15  C   UNL A   1      33.382  21.480  23.780  1.00  0.00     0.132 A 
ATOM     16  N   UNL A   1      33.102  22.522  22.983  1.00  0.00    -0.198 NA
ATOM     17  N   UNL A   1      34.476  21.393  24.559  1.00  0.00    -0.237 NA
ATOM     18  C   UNL A   1      35.341  22.427  24.534  1.00  0.00     0.050 A 
ATOM     19  C   UNL A   1      35.120  23.545  23.753  1.00  0.00     0.093 A 
BRANCH  15  20
ATOM     20  C   UNL A   1      32.404  20.337  23.863  1.00  0.00     0.074 C 
ATOM     21  C   UNL A   1      33.040  18.964  24.031  1.00  0.00     0.012 C 
ENDBRANCH  15  20
BRANCH  18  22
ATOM     22  C   UNL A   1      36.577  22.333  25.408  1.00  0.00     0.032 C 
ATOM     23  C   UNL A   1      37.503  21.221  24.916  1.00  0.00     0.014 C 
ATOM     24  C   UNL A   1      37.315  23.672  25.457  1.00  0.00     0.014 C 
ENDBRANCH  18  22
ENDBRANCH  13  14
ENDBRANCH   8  13
ENDBRANCH   4   7
ENDBRANCH   2   3
ENDBRANCH   1   2
BRANCH   1  25
ATOM     25  C   UNL A   1      35.202  29.598  27.895  1.00  0.00     0.118 C 
BRANCH  25  26
ATOM     26  N   UNL A   1      35.229  30.366  29.131  1.00  0.00    -0.352 N 
ATOM     27  C   UNL A   1      36.258  30.572  30.018  1.00  0.00     0.251 C 
ATOM     28  H   UNL A   1      34.381  30.805  29.368  1.00  0.00     0.163 HD
ATOM     29  O   UNL A   1      36.013  31.070  31.113  1.00  0.00    -0.269 OA
BRANCH  27  30
ATOM     30  C   UNL A   1      37.646  30.189  29.671  1.00  0.00     0.039 A 
ATOM     31  C   UNL A   1      38.543  29.900  30.705  1.00  0.00     0.014 A 
ATOM     32  C   UNL A   1      38.081  30.158  28.343  1.00  0.00     0.014 A 
ATOM     33  C   UNL A   1      39.858  29.532  30.405  1.00  0.00     0.010 A 
ATOM     34  C   UNL A   1      39.372  29.727  28.043  1.00  0.00     0.010 A 
ATOM     35  C   UNL A   1      40.275  29.415  29.070  1.00  0.00    -0.014 A 
BRANCH  35  36
ATOM     36  C   UNL A   1      41.651  28.971  28.729  1.00  0.00     0.031 A 
ATOM     37  C   UNL A   1      42.790  29.954  28.730  1.00  0.00     0.074 A 
ATOM     38  C   UNL A   1      41.863  27.694  28.353  1.00  0.00     0.049 A 
ATOM     39  N   UNL A   1      44.043  29.768  28.402  1.00  0.00    -0.248 NA
ATOM     40  C   UNL A   1      42.473  31.334  29.128  1.00  0.00     0.031 C 
ATOM     41  C   UNL A   1      40.833  26.655  28.273  1.00  0.00     0.029 A 
ATOM     42  N   UNL A   1      43.011  27.053  27.959  1.00  0.00    -0.354 N 
ATOM     43  C   UNL A   1      44.657  31.010  28.529  1.00  0.00     0.074 A 
ATOM     44  C   UNL A   1      43.629  31.948  28.924  1.00  0.00     0.031 C 
ATOM     45  C   UNL A   1      41.401  25.502  27.884  1.00  0.00     0.029 A 
ATOM     46  C   UNL A   1      42.825  25.727  27.651  1.00  0.00     0.049 A 
ATOM     47  H   UNL A   1      43.886  27.502  27.904  1.00  0.00     0.167 HD
ATOM     48  C   UNL A   1      45.960  31.334  28.347  1.00  0.00     0.037 A 
ATOM     49  C   UNL A   1      43.701  24.797  27.225  1.00  0.00     0.037 A 
ATOM     50  C   UNL A   1      46.983  30.386  27.984  1.00  0.00     0.049 A 
ATOM     51  C   UNL A   1      45.142  25.178  27.032  1.00  0.00     0.074 A 
ATOM     52  C   UNL A   1      48.345  30.597  27.855  1.00  0.00     0.029 A 
ATOM     53  N   UNL A   1      46.757  29.051  27.685  1.00  0.00    -0.354 N 
ATOM     54  N   UNL A   1      45.720  26.340  27.225  1.00  0.00    -0.248 NA
ATOM     55  C   UNL A   1      46.052  24.122  26.569  1.00  0.00     0.031 C 
ATOM     56  C   UNL A   1      48.935  29.400  27.434  1.00  0.00     0.029 A 
ATOM     57  C   UNL A   1      47.948  28.431  27.346  1.00  0.00     0.049 A 
ATOM     58  H   UNL A   1      45.878  28.609  27.710  1.00  0.00     0.167 HD
ATOM     59  C   UNL A   1      47.065  26.149  26.932  1.00  0.00     0.074 A 
ATOM     60  C   UNL A   1      47.216  24.757  26.555  1.00  0.00     0.031 C 
ATOM     61  C   UNL A   1      48.083  27.044  26.975  1.00  0.00     0.037 A 
BRANCH  48  62
ATOM     62  C   UNL A   1      46.349  32.776  28.528  1.00  0.00     0.058 A 
ATOM     63  C   UNL A   1      46.331  33.688  27.461  1.00  0.00     0.135 A 
ATOM     64  C   UNL A   1      46.741  33.255  29.789  1.00  0.00     0.135 A 
ATOM     65  F   UNL A   1      45.976  33.283  26.230  1.00  0.00    -0.206 F 
ATOM     66  C   UNL A   1      46.728  35.011  27.627  1.00  0.00     0.059 A 
ATOM     67  C   UNL A   1      47.115  34.581  29.984  1.00  0.00     0.059 A 
ATOM     68  F   UNL A   1      46.773  32.428  30.846  1.00  0.00    -0.206 F 
ATOM     69  C   UNL A   1      47.127  35.446  28.891  1.00  0.00     0.060 A 
BRANCH  69  70
ATOM     70  S   UNL A   1      47.666  37.158  29.087  1.00  0.00     0.124 S 
ATOM     71  O   UNL A   1      48.234  37.130  30.432  1.00  0.00    -0.237 OA
ATOM     72  O   UNL A   1      48.626  37.312  27.999  1.00  0.00    -0.237 OA
ATOM     73  O   UNL A   1      46.431  37.922  28.943  1.00  0.00    -0.744 OA
ENDBRANCH  69  70
ENDBRANCH  48  62
BRANCH  49  74
ATOM     74  C   UNL A   1      43.241  23.402  26.995  1.00  0.00     0.058 A 
ATOM     75  C   UNL A   1      43.073  22.911  25.692  1.00  0.00     0.135 A 
ATOM     76  C   UNL A   1      42.996  22.524  28.063  1.00  0.00     0.135 A 
ATOM     77  F   UNL A   1      43.289  23.716  24.641  1.00  0.00    -0.206 F 
ATOM     78  C   UNL A   1      42.677  21.600  25.453  1.00  0.00     0.059 A 
ATOM     79  C   UNL A   1      42.619  21.201  27.848  1.00  0.00     0.059 A 
ATOM     80  F   UNL A   1      43.158  22.942  29.328  1.00  0.00    -0.206 F 
ATOM     81  C   UNL A   1      42.459  20.750  26.538  1.00  0.00     0.060 A 
BRANCH  81  82
ATOM     82  S   UNL A   1      42.015  19.029  26.214  1.00  0.00     0.124 S 
ATOM     83  O   UNL A   1      40.608  19.150  25.857  1.00  0.00    -0.237 OA
ATOM     84  O   UNL A   1      42.923  18.681  25.124  1.00  0.00    -0.237 OA
ATOM     85  O   UNL A   1      42.292  18.367  27.485  1.00  0.00    -0.744 OA
ENDBRANCH  81  82
ENDBRANCH  49  74
BRANCH  61  86
ATOM     86  C   UNL A   1      49.459  26.540  26.637  1.00  0.00     0.058 A 
ATOM     87  C   UNL A   1      49.991  26.662  25.345  1.00  0.00     0.135 A 
ATOM     88  C   UNL A   1      50.272  25.974  27.632  1.00  0.00     0.135 A 
ATOM     89  F   UNL A   1      49.252  27.189  24.356  1.00  0.00    -0.206 F 
ATOM     90  C   UNL A   1      51.276  26.220  25.044  1.00  0.00     0.059 A 
ATOM     91  C   UNL A   1      51.568  25.548  27.359  1.00  0.00     0.059 A 
ATOM     92  F   UNL A   1      49.813  25.843  28.886  1.00  0.00    -0.206 F 
ATOM     93  C   UNL A   1      52.057  25.666  26.059  1.00  0.00     0.060 A 
BRANCH  93  94
ATOM     94  S   UNL A   1      53.736  25.128  25.667  1.00  0.00     0.124 S 
ATOM     95  O   UNL A   1      54.074  26.010  24.555  1.00  0.00    -0.237 OA
ATOM     96  O   UNL A   1      54.447  25.384  26.916  1.00  0.00    -0.237 OA
ATOM     97  O   UNL A   1      53.570  23.719  25.326  1.00  0.00    -0.744 OA
ENDBRANCH  93  94
ENDBRANCH  61  86
ENDBRANCH  35  36
ENDBRANCH  27  30
ENDBRANCH  25  26
ENDBRANCH   1  25
TORSDOF 17
ENDMDL
