MODEL 1
REMARK VINA RESULT:      -9.3      0.000      0.000
REMARK SMILES CCC[C@H](c1ccccc1)[C@@](C)(O)C(=O)NCCCNC(=O)c1ccc(-c2c3nc(c(-c4c(F)cc(S(=O)(=O)[O-])cc4F)c4ccc([nH]4)c(-c4c(F)cc(S(=O)(=O)[O-])cc4F)c4nc(c(-c5c(F)cc(S(=O)(=O)[O-])cc5F)c5ccc2[nH]5)C=C4)C=C3)cc1
REMARK SMILES IDX 18 1 17 2 16 3 14 4 15 5 11 7 12 8 4 9 3 10 2 11 1 12 5 13
REMARK SMILES IDX 6 14 10 15 7 16 9 17 8 18 13 19 19 21 20 22 21 23 22 25
REMARK SMILES IDX 23 26 24 27 88 28 25 29 87 30 26 31 27 32 28 33 81 34 29 35
REMARK SMILES IDX 86 36 80 37 82 38 30 39 85 40 79 41 78 42 31 44 65 45 44 46
REMARK SMILES IDX 64 47 45 48 48 49 63 50 83 51 46 52 47 53 62 55 84 56 49 57
REMARK SMILES IDX 32 58 33 59 42 60 34 61 35 62 41 63 43 64 36 65 37 66 38 67
REMARK SMILES IDX 39 68 40 69 66 70 67 71 76 72 68 73 69 74 75 75 77 76 70 77
REMARK SMILES IDX 71 78 72 79 73 80 74 81 50 82 51 83 60 84 52 85 53 86 59 87
REMARK SMILES IDX 61 88 54 89 55 90 56 91 57 92 58 93
REMARK H PARENT 16 6 13 20 20 24 82 43 48 54
REMARK Flexibility Score: inf
ROOT
ATOM      1  C   UNL A   1      41.725  20.477  26.763  1.00  0.00     0.042 C 
ENDROOT
BRANCH   1   2
ATOM      2  C   UNL A   1      43.156  20.397  26.242  1.00  0.00     0.117 C 
BRANCH   2   3
ATOM      3  N   UNL A   1      43.306  21.135  25.004  1.00  0.00    -0.354 N 
ATOM      4  C   UNL A   1      44.049  22.246  24.745  1.00  0.00     0.252 C 
ATOM      5  O   UNL A   1      43.582  22.987  23.878  1.00  0.00    -0.272 OA
ATOM      6  H   UNL A   1      42.797  20.782  24.239  1.00  0.00     0.163 HD
BRANCH   4   7
ATOM      7  C   UNL A   1      45.383  22.519  25.484  1.00  0.00     0.147 C 
ATOM      8  C   UNL A   1      46.425  23.126  24.520  1.00  0.00     0.053 C 
BRANCH   7   9
ATOM      9  C   UNL A   1      45.237  23.467  26.743  1.00  0.00     0.060 C 
BRANCH   9  10
ATOM     10  C   UNL A   1      44.340  22.910  27.891  1.00  0.00     0.011 C 
BRANCH  10  11
ATOM     11  C   UNL A   1      44.585  23.334  29.345  1.00  0.00    -0.003 C 
ATOM     12  C   UNL A   1      43.395  23.156  30.270  1.00  0.00     0.004 C 
ENDBRANCH  10  11
ENDBRANCH   9  10
BRANCH   9  13
ATOM     13  C   UNL A   1      45.160  24.975  26.498  1.00  0.00    -0.042 A 
ATOM     14  C   UNL A   1      46.158  25.875  26.900  1.00  0.00     0.004 A 
ATOM     15  C   UNL A   1      44.033  25.510  25.849  1.00  0.00     0.004 A 
ATOM     16  C   UNL A   1      46.035  27.249  26.680  1.00  0.00     0.000 A 
ATOM     17  C   UNL A   1      43.905  26.885  25.631  1.00  0.00     0.000 A 
ATOM     18  C   UNL A   1      44.907  27.755  26.048  1.00  0.00     0.000 A 
ENDBRANCH   9  13
ENDBRANCH   7   9
BRANCH   7  19
ATOM     19  O   UNL A   1      45.898  21.244  25.917  1.00  0.00    -0.380 OA
ATOM     20  H   UNL A   1      45.270  20.544  25.682  1.00  0.00     0.212 HD
ENDBRANCH   7  19
ENDBRANCH   4   7
ENDBRANCH   2   3
ENDBRANCH   1   2
BRANCH   1  21
ATOM     21  C   UNL A   1      41.153  21.890  26.826  1.00  0.00     0.118 C 
BRANCH  21  22
ATOM     22  N   UNL A   1      39.884  22.025  26.122  1.00  0.00    -0.352 N 
ATOM     23  C   UNL A   1      38.978  23.056  26.121  1.00  0.00     0.251 C 
ATOM     24  H   UNL A   1      39.638  21.257  25.558  1.00  0.00     0.163 HD
ATOM     25  O   UNL A   1      37.881  22.899  25.591  1.00  0.00    -0.269 OA
BRANCH  23  26
ATOM     26  C   UNL A   1      39.310  24.333  26.783  1.00  0.00     0.039 A 
ATOM     27  C   UNL A   1      38.910  24.531  28.105  1.00  0.00     0.014 A 
ATOM     28  C   UNL A   1      40.019  25.329  26.107  1.00  0.00     0.014 A 
ATOM     29  C   UNL A   1      39.285  25.698  28.774  1.00  0.00     0.010 A 
ATOM     30  C   UNL A   1      40.467  26.449  26.800  1.00  0.00     0.010 A 
ATOM     31  C   UNL A   1      40.102  26.648  28.139  1.00  0.00    -0.014 A 
BRANCH  31  32
ATOM     32  C   UNL A   1      40.586  27.853  28.864  1.00  0.00     0.031 A 
ATOM     33  C   UNL A   1      41.968  27.870  29.461  1.00  0.00     0.074 A 
ATOM     34  C   UNL A   1      39.755  28.899  29.043  1.00  0.00     0.049 A 
ATOM     35  N   UNL A   1      42.541  28.800  30.181  1.00  0.00    -0.248 NA
ATOM     36  C   UNL A   1      42.807  26.679  29.248  1.00  0.00     0.031 C 
ATOM     37  C   UNL A   1      38.370  28.972  28.568  1.00  0.00     0.029 A 
ATOM     38  N   UNL A   1      39.944  30.097  29.686  1.00  0.00    -0.354 N 
ATOM     39  C   UNL A   1      43.791  28.296  30.527  1.00  0.00     0.074 A 
ATOM     40  C   UNL A   1      43.878  26.964  29.974  1.00  0.00     0.031 C 
ATOM     41  C   UNL A   1      37.842  30.155  28.922  1.00  0.00     0.029 A 
ATOM     42  C   UNL A   1      38.833  30.910  29.683  1.00  0.00     0.049 A 
ATOM     43  H   UNL A   1      40.795  30.352  30.110  1.00  0.00     0.167 HD
ATOM     44  C   UNL A   1      44.780  28.898  31.228  1.00  0.00     0.037 A 
ATOM     45  C   UNL A   1      38.629  32.118  30.244  1.00  0.00     0.037 A 
ATOM     46  C   UNL A   1      44.701  30.244  31.735  1.00  0.00     0.049 A 
ATOM     47  C   UNL A   1      39.759  32.776  30.991  1.00  0.00     0.074 A 
ATOM     48  C   UNL A   1      45.687  30.978  32.372  1.00  0.00     0.029 A 
ATOM     49  N   UNL A   1      43.577  31.052  31.673  1.00  0.00    -0.354 N 
ATOM     50  N   UNL A   1      40.969  32.322  31.222  1.00  0.00    -0.248 NA
ATOM     51  C   UNL A   1      39.503  34.112  31.546  1.00  0.00     0.031 C 
ATOM     52  C   UNL A   1      45.140  32.208  32.747  1.00  0.00     0.029 A 
ATOM     53  C   UNL A   1      43.834  32.266  32.288  1.00  0.00     0.049 A 
ATOM     54  H   UNL A   1      42.722  30.800  31.254  1.00  0.00     0.167 HD
ATOM     55  C   UNL A   1      41.625  33.330  31.922  1.00  0.00     0.074 A 
ATOM     56  C   UNL A   1      40.684  34.422  32.060  1.00  0.00     0.031 C 
ATOM     57  C   UNL A   1      42.892  33.350  32.405  1.00  0.00     0.037 A 
BRANCH  44  58
ATOM     58  C   UNL A   1      46.041  28.123  31.490  1.00  0.00     0.058 A 
ATOM     59  C   UNL A   1      46.217  27.367  32.660  1.00  0.00     0.135 A 
ATOM     60  C   UNL A   1      47.053  28.069  30.517  1.00  0.00     0.135 A 
ATOM     61  F   UNL A   1      45.291  27.395  33.631  1.00  0.00    -0.206 F 
ATOM     62  C   UNL A   1      47.354  26.590  32.859  1.00  0.00     0.059 A 
ATOM     63  C   UNL A   1      48.186  27.277  30.682  1.00  0.00     0.059 A 
ATOM     64  F   UNL A   1      46.938  28.777  29.383  1.00  0.00    -0.206 F 
ATOM     65  C   UNL A   1      48.329  26.544  31.859  1.00  0.00     0.060 A 
BRANCH  65  66
ATOM     66  S   UNL A   1      49.772  25.488  32.112  1.00  0.00     0.124 S 
ATOM     67  O   UNL A   1      50.703  26.414  32.749  1.00  0.00    -0.237 OA
ATOM     68  O   UNL A   1      49.239  24.435  32.969  1.00  0.00    -0.237 OA
ATOM     69  O   UNL A   1      50.129  25.071  30.759  1.00  0.00    -0.744 OA
ENDBRANCH  65  66
ENDBRANCH  44  58
BRANCH  45  70
ATOM     70  C   UNL A   1      37.304  32.788  30.128  1.00  0.00     0.058 A 
ATOM     71  C   UNL A   1      36.955  33.521  28.984  1.00  0.00     0.135 A 
ATOM     72  C   UNL A   1      36.367  32.729  31.172  1.00  0.00     0.135 A 
ATOM     73  F   UNL A   1      37.816  33.611  27.957  1.00  0.00    -0.206 F 
ATOM     74  C   UNL A   1      35.746  34.204  28.892  1.00  0.00     0.059 A 
ATOM     75  C   UNL A   1      35.138  33.376  31.092  1.00  0.00     0.059 A 
ATOM     76  F   UNL A   1      36.639  32.025  32.282  1.00  0.00    -0.206 F 
ATOM     77  C   UNL A   1      34.844  34.128  29.955  1.00  0.00     0.060 A 
BRANCH  77  78
ATOM     78  S   UNL A   1      33.272  35.007  29.825  1.00  0.00     0.124 S 
ATOM     79  O   UNL A   1      32.780  34.931  31.195  1.00  0.00    -0.237 OA
ATOM     80  O   UNL A   1      33.696  36.328  29.370  1.00  0.00    -0.237 OA
ATOM     81  O   UNL A   1      32.530  34.222  28.843  1.00  0.00    -0.744 OA
ENDBRANCH  77  78
ENDBRANCH  45  70
BRANCH  57  82
ATOM     82  C   UNL A   1      43.355  34.608  33.088  1.00  0.00     0.058 A 
ATOM     83  C   UNL A   1      43.879  35.693  32.370  1.00  0.00     0.135 A 
ATOM     84  C   UNL A   1      43.223  34.746  34.480  1.00  0.00     0.135 A 
ATOM     85  F   UNL A   1      44.030  35.613  31.038  1.00  0.00    -0.206 F 
ATOM     86  C   UNL A   1      44.285  36.859  33.010  1.00  0.00     0.059 A 
ATOM     87  C   UNL A   1      43.592  35.914  35.137  1.00  0.00     0.059 A 
ATOM     88  F   UNL A   1      42.716  33.742  35.214  1.00  0.00    -0.206 F 
ATOM     89  C   UNL A   1      44.136  36.961  34.395  1.00  0.00     0.060 A 
BRANCH  89  90
ATOM     90  S   UNL A   1      44.642  38.489  35.209  1.00  0.00     0.124 S 
ATOM     91  O   UNL A   1      43.868  39.485  34.476  1.00  0.00    -0.237 OA
ATOM     92  O   UNL A   1      44.231  38.258  36.591  1.00  0.00    -0.237 OA
ATOM     93  O   UNL A   1      46.085  38.531  34.990  1.00  0.00    -0.744 OA
ENDBRANCH  89  90
ENDBRANCH  57  82
ENDBRANCH  31  32
ENDBRANCH  23  26
ENDBRANCH  21  22
ENDBRANCH   1  21
TORSDOF 18
ENDMDL
MODEL 2
REMARK VINA RESULT:      -9.3      4.138     10.802
REMARK SMILES CCC[C@H](c1ccccc1)[C@@](C)(O)C(=O)NCCCNC(=O)c1ccc(-c2c3nc(c(-c4c(F)cc(S(=O)(=O)[O-])cc4F)c4ccc([nH]4)c(-c4c(F)cc(S(=O)(=O)[O-])cc4F)c4nc(c(-c5c(F)cc(S(=O)(=O)[O-])cc5F)c5ccc2[nH]5)C=C4)C=C3)cc1
REMARK SMILES IDX 18 1 17 2 16 3 14 4 15 5 11 7 12 8 4 9 3 10 2 11 1 12 5 13
REMARK SMILES IDX 6 14 10 15 7 16 9 17 8 18 13 19 19 21 20 22 21 23 22 25
REMARK SMILES IDX 23 26 24 27 88 28 25 29 87 30 26 31 27 32 28 33 81 34 29 35
REMARK SMILES IDX 86 36 80 37 82 38 30 39 85 40 79 41 78 42 31 44 65 45 44 46
REMARK SMILES IDX 64 47 45 48 48 49 63 50 83 51 46 52 47 53 62 55 84 56 49 57
REMARK SMILES IDX 32 58 33 59 42 60 34 61 35 62 41 63 43 64 36 65 37 66 38 67
REMARK SMILES IDX 39 68 40 69 66 70 67 71 76 72 68 73 69 74 75 75 77 76 70 77
REMARK SMILES IDX 71 78 72 79 73 80 74 81 50 82 51 83 60 84 52 85 53 86 59 87
REMARK SMILES IDX 61 88 54 89 55 90 56 91 57 92 58 93
REMARK H PARENT 16 6 13 20 20 24 82 43 48 54
REMARK Flexibility Score: inf
ROOT
ATOM      1  C   UNL A   1      33.800  28.172  25.647  1.00  0.00     0.042 C 
ENDROOT
BRANCH   1   2
ATOM      2  C   UNL A   1      32.571  28.429  24.781  1.00  0.00     0.117 C 
BRANCH   2   3
ATOM      3  N   UNL A   1      32.918  28.465  23.374  1.00  0.00    -0.354 N 
ATOM      4  C   UNL A   1      33.254  27.443  22.541  1.00  0.00     0.252 C 
ATOM      5  O   UNL A   1      34.036  27.749  21.639  1.00  0.00    -0.272 OA
ATOM      6  H   UNL A   1      32.909  29.359  22.962  1.00  0.00     0.163 HD
BRANCH   4   7
ATOM      7  C   UNL A   1      32.665  26.021  22.724  1.00  0.00     0.147 C 
ATOM      8  C   UNL A   1      32.721  25.234  21.397  1.00  0.00     0.053 C 
BRANCH   7   9
ATOM      9  C   UNL A   1      33.379  25.172  23.853  1.00  0.00     0.060 C 
BRANCH   9  10
ATOM     10  C   UNL A   1      34.740  24.533  23.441  1.00  0.00     0.011 C 
BRANCH  10  11
ATOM     11  C   UNL A   1      35.542  23.694  24.444  1.00  0.00    -0.003 C 
ATOM     12  C   UNL A   1      35.434  22.193  24.251  1.00  0.00     0.004 C 
ENDBRANCH  10  11
ENDBRANCH   9  10
BRANCH   9  13
ATOM     13  C   UNL A   1      32.498  24.342  24.788  1.00  0.00    -0.042 A 
ATOM     14  C   UNL A   1      31.831  23.176  24.388  1.00  0.00     0.004 A 
ATOM     15  C   UNL A   1      32.324  24.760  26.120  1.00  0.00     0.004 A 
ATOM     16  C   UNL A   1      31.014  22.462  25.267  1.00  0.00     0.000 A 
ATOM     17  C   UNL A   1      31.502  24.050  27.001  1.00  0.00     0.000 A 
ATOM     18  C   UNL A   1      30.846  22.901  26.574  1.00  0.00     0.000 A 
ENDBRANCH   9  13
ENDBRANCH   7   9
BRANCH   7  19
ATOM     19  O   UNL A   1      31.273  26.178  23.067  1.00  0.00    -0.380 OA
ATOM     20  H   UNL A   1      30.730  26.072  22.271  1.00  0.00     0.212 HD
ENDBRANCH   7  19
ENDBRANCH   4   7
ENDBRANCH   2   3
ENDBRANCH   1   2
BRANCH   1  21
ATOM     21  C   UNL A   1      33.578  28.388  27.141  1.00  0.00     0.118 C 
BRANCH  21  22
ATOM     22  N   UNL A   1      33.528  29.797  27.513  1.00  0.00    -0.352 N 
ATOM     23  C   UNL A   1      34.472  30.585  28.121  1.00  0.00     0.251 C 
ATOM     24  H   UNL A   1      32.685  30.255  27.293  1.00  0.00     0.163 HD
ATOM     25  O   UNL A   1      34.166  31.712  28.505  1.00  0.00    -0.269 OA
BRANCH  23  26
ATOM     26  C   UNL A   1      35.837  30.068  28.342  1.00  0.00     0.039 A 
ATOM     27  C   UNL A   1      36.748  30.100  27.285  1.00  0.00     0.014 A 
ATOM     28  C   UNL A   1      36.221  29.562  29.586  1.00  0.00     0.014 A 
ATOM     29  C   UNL A   1      38.066  29.691  27.497  1.00  0.00     0.010 A 
ATOM     30  C   UNL A   1      37.554  29.241  29.820  1.00  0.00     0.010 A 
ATOM     31  C   UNL A   1      38.491  29.298  28.777  1.00  0.00    -0.014 A 
BRANCH  31  32
ATOM     32  C   UNL A   1      39.911  28.947  29.042  1.00  0.00     0.031 A 
ATOM     33  C   UNL A   1      40.857  29.986  29.583  1.00  0.00     0.074 A 
ATOM     34  C   UNL A   1      40.361  27.715  28.729  1.00  0.00     0.049 A 
ATOM     35  N   UNL A   1      42.140  29.888  29.817  1.00  0.00    -0.248 NA
ATOM     36  C   UNL A   1      40.298  31.317  29.874  1.00  0.00     0.031 C 
ATOM     37  C   UNL A   1      39.554  26.644  28.137  1.00  0.00     0.029 A 
ATOM     38  N   UNL A   1      41.609  27.157  28.848  1.00  0.00    -0.354 N 
ATOM     39  C   UNL A   1      42.545  31.145  30.253  1.00  0.00     0.074 A 
ATOM     40  C   UNL A   1      41.380  32.001  30.215  1.00  0.00     0.031 C 
ATOM     41  C   UNL A   1      40.323  25.557  27.959  1.00  0.00     0.029 A 
ATOM     42  C   UNL A   1      41.686  25.863  28.385  1.00  0.00     0.049 A 
ATOM     43  H   UNL A   1      42.380  27.638  29.228  1.00  0.00     0.167 HD
ATOM     44  C   UNL A   1      43.771  31.542  30.665  1.00  0.00     0.037 A 
ATOM     45  C   UNL A   1      42.736  25.024  28.298  1.00  0.00     0.037 A 
ATOM     46  C   UNL A   1      44.914  30.669  30.745  1.00  0.00     0.049 A 
ATOM     47  C   UNL A   1      44.082  25.484  28.793  1.00  0.00     0.074 A 
ATOM     48  C   UNL A   1      46.175  30.952  31.241  1.00  0.00     0.029 A 
ATOM     49  N   UNL A   1      44.941  29.354  30.310  1.00  0.00    -0.354 N 
ATOM     50  N   UNL A   1      44.421  26.648  29.296  1.00  0.00    -0.248 NA
ATOM     51  C   UNL A   1      45.186  24.517  28.719  1.00  0.00     0.031 C 
ATOM     52  C   UNL A   1      46.980  29.826  31.054  1.00  0.00     0.029 A 
ATOM     53  C   UNL A   1      46.205  28.820  30.499  1.00  0.00     0.049 A 
ATOM     54  H   UNL A   1      44.175  28.870  29.925  1.00  0.00     0.167 HD
ATOM     55  C   UNL A   1      45.768  26.541  29.626  1.00  0.00     0.074 A 
ATOM     56  C   UNL A   1      46.176  25.195  29.281  1.00  0.00     0.031 C 
ATOM     57  C   UNL A   1      46.593  27.473  30.165  1.00  0.00     0.037 A 
BRANCH  44  58
ATOM     58  C   UNL A   1      43.957  32.978  31.071  1.00  0.00     0.058 A 
ATOM     59  C   UNL A   1      44.296  33.974  30.142  1.00  0.00     0.135 A 
ATOM     60  C   UNL A   1      43.707  33.376  32.395  1.00  0.00     0.135 A 
ATOM     61  F   UNL A   1      44.563  33.649  28.867  1.00  0.00    -0.206 F 
ATOM     62  C   UNL A   1      44.388  35.312  30.511  1.00  0.00     0.059 A 
ATOM     63  C   UNL A   1      43.766  34.713  32.781  1.00  0.00     0.059 A 
ATOM     64  F   UNL A   1      43.385  32.464  33.325  1.00  0.00    -0.206 F 
ATOM     65  C   UNL A   1      44.112  35.672  31.832  1.00  0.00     0.060 A 
BRANCH  65  66
ATOM     66  S   UNL A   1      44.183  37.420  32.281  1.00  0.00     0.124 S 
ATOM     67  O   UNL A   1      43.817  38.060  31.021  1.00  0.00    -0.237 OA
ATOM     68  O   UNL A   1      43.192  37.507  33.347  1.00  0.00    -0.237 OA
ATOM     69  O   UNL A   1      45.570  37.608  32.699  1.00  0.00    -0.744 OA
ENDBRANCH  65  66
ENDBRANCH  44  58
BRANCH  45  70
ATOM     70  C   UNL A   1      42.566  23.663  27.716  1.00  0.00     0.058 A 
ATOM     71  C   UNL A   1      42.391  22.537  28.535  1.00  0.00     0.135 A 
ATOM     72  C   UNL A   1      42.600  23.458  26.328  1.00  0.00     0.135 A 
ATOM     73  F   UNL A   1      42.355  22.678  29.870  1.00  0.00    -0.206 F 
ATOM     74  C   UNL A   1      42.296  21.254  28.005  1.00  0.00     0.059 A 
ATOM     75  C   UNL A   1      42.474  22.189  25.772  1.00  0.00     0.059 A 
ATOM     76  F   UNL A   1      42.743  24.501  25.497  1.00  0.00    -0.206 F 
ATOM     77  C   UNL A   1      42.342  21.090  26.619  1.00  0.00     0.060 A 
BRANCH  77  78
ATOM     78  S   UNL A   1      42.207  19.423  25.937  1.00  0.00     0.124 S 
ATOM     79  O   UNL A   1      43.049  19.523  24.751  1.00  0.00    -0.237 OA
ATOM     80  O   UNL A   1      42.730  18.603  27.025  1.00  0.00    -0.237 OA
ATOM     81  O   UNL A   1      40.776  19.280  25.686  1.00  0.00    -0.744 OA
ENDBRANCH  77  78
ENDBRANCH  45  70
BRANCH  57  82
ATOM     82  C   UNL A   1      48.008  27.059  30.462  1.00  0.00     0.058 A 
ATOM     83  C   UNL A   1      49.052  27.277  29.550  1.00  0.00     0.135 A 
ATOM     84  C   UNL A   1      48.331  26.482  31.701  1.00  0.00     0.135 A 
ATOM     85  F   UNL A   1      48.798  27.821  28.348  1.00  0.00    -0.206 F 
ATOM     86  C   UNL A   1      50.361  26.909  29.842  1.00  0.00     0.059 A 
ATOM     87  C   UNL A   1      49.638  26.137  32.029  1.00  0.00     0.059 A 
ATOM     88  F   UNL A   1      47.373  26.263  32.616  1.00  0.00    -0.206 F 
ATOM     89  C   UNL A   1      50.644  26.341  31.086  1.00  0.00     0.060 A 
BRANCH  89  90
ATOM     90  S   UNL A   1      52.351  25.893  31.464  1.00  0.00     0.124 S 
ATOM     91  O   UNL A   1      52.727  26.937  32.412  1.00  0.00    -0.237 OA
ATOM     92  O   UNL A   1      52.206  24.553  32.023  1.00  0.00    -0.237 OA
ATOM     93  O   UNL A   1      53.015  25.955  30.165  1.00  0.00    -0.744 OA
ENDBRANCH  89  90
ENDBRANCH  57  82
ENDBRANCH  31  32
ENDBRANCH  23  26
ENDBRANCH  21  22
ENDBRANCH   1  21
TORSDOF 18
ENDMDL
MODEL 3
REMARK VINA RESULT:      -9.3      3.934      9.589
REMARK SMILES CCC[C@H](c1ccccc1)[C@@](C)(O)C(=O)NCCCNC(=O)c1ccc(-c2c3nc(c(-c4c(F)cc(S(=O)(=O)[O-])cc4F)c4ccc([nH]4)c(-c4c(F)cc(S(=O)(=O)[O-])cc4F)c4nc(c(-c5c(F)cc(S(=O)(=O)[O-])cc5F)c5ccc2[nH]5)C=C4)C=C3)cc1
REMARK SMILES IDX 18 1 17 2 16 3 14 4 15 5 11 7 12 8 4 9 3 10 2 11 1 12 5 13
REMARK SMILES IDX 6 14 10 15 7 16 9 17 8 18 13 19 19 21 20 22 21 23 22 25
REMARK SMILES IDX 23 26 24 27 88 28 25 29 87 30 26 31 27 32 28 33 81 34 29 35
REMARK SMILES IDX 86 36 80 37 82 38 30 39 85 40 79 41 78 42 31 44 65 45 44 46
REMARK SMILES IDX 64 47 45 48 48 49 63 50 83 51 46 52 47 53 62 55 84 56 49 57
REMARK SMILES IDX 32 58 33 59 42 60 34 61 35 62 41 63 43 64 36 65 37 66 38 67
REMARK SMILES IDX 39 68 40 69 66 70 67 71 76 72 68 73 69 74 75 75 77 76 70 77
REMARK SMILES IDX 71 78 72 79 73 80 74 81 50 82 51 83 60 84 52 85 53 86 59 87
REMARK SMILES IDX 61 88 54 89 55 90 56 91 57 92 58 93
REMARK H PARENT 16 6 13 20 20 24 82 43 48 54
REMARK Flexibility Score: inf
ROOT
ATOM      1  C   UNL A   1      32.894  28.116  25.639  1.00  0.00     0.042 C 
ENDROOT
BRANCH   1   2
ATOM      2  C   UNL A   1      31.634  27.283  25.854  1.00  0.00     0.117 C 
BRANCH   2   3
ATOM      3  N   UNL A   1      31.916  26.098  26.640  1.00  0.00    -0.354 N 
ATOM      4  C   UNL A   1      31.700  24.789  26.337  1.00  0.00     0.252 C 
ATOM      5  O   UNL A   1      31.464  24.068  27.308  1.00  0.00    -0.272 OA
ATOM      6  H   UNL A   1      32.322  26.265  27.521  1.00  0.00     0.163 HD
BRANCH   4   7
ATOM      7  C   UNL A   1      31.775  24.272  24.879  1.00  0.00     0.147 C 
ATOM      8  C   UNL A   1      30.458  24.564  24.129  1.00  0.00     0.053 C 
BRANCH   7   9
ATOM      9  C   UNL A   1      32.982  24.871  24.047  1.00  0.00     0.060 C 
BRANCH   9  10
ATOM     10  C   UNL A   1      32.654  25.227  22.565  1.00  0.00     0.011 C 
BRANCH  10  11
ATOM     11  C   UNL A   1      32.476  26.689  22.137  1.00  0.00    -0.003 C 
ATOM     12  C   UNL A   1      33.739  27.529  22.196  1.00  0.00     0.004 C 
ENDBRANCH  10  11
ENDBRANCH   9  10
BRANCH   9  13
ATOM     13  C   UNL A   1      34.381  24.312  24.314  1.00  0.00    -0.042 A 
ATOM     14  C   UNL A   1      35.061  24.479  25.528  1.00  0.00     0.004 A 
ATOM     15  C   UNL A   1      35.043  23.602  23.296  1.00  0.00     0.004 A 
ATOM     16  C   UNL A   1      36.349  23.975  25.720  1.00  0.00     0.000 A 
ATOM     17  C   UNL A   1      36.335  23.101  23.483  1.00  0.00     0.000 A 
ATOM     18  C   UNL A   1      36.989  23.288  24.696  1.00  0.00     0.000 A 
ENDBRANCH   9  13
ENDBRANCH   7   9
BRANCH   7  19
ATOM     19  O   UNL A   1      31.918  22.838  24.942  1.00  0.00    -0.380 OA
ATOM     20  H   UNL A   1      31.682  22.451  24.085  1.00  0.00     0.212 HD
ENDBRANCH   7  19
ENDBRANCH   4   7
ENDBRANCH   2   3
ENDBRANCH   1   2
BRANCH   1  21
ATOM     21  C   UNL A   1      33.714  28.359  26.902  1.00  0.00     0.118 C 
BRANCH  21  22
ATOM     22  N   UNL A   1      33.564  29.709  27.430  1.00  0.00    -0.352 N 
ATOM     23  C   UNL A   1      34.444  30.482  28.145  1.00  0.00     0.251 C 
ATOM     24  H   UNL A   1      32.696  30.134  27.245  1.00  0.00     0.163 HD
ATOM     25  O   UNL A   1      34.059  31.535  28.647  1.00  0.00    -0.269 OA
BRANCH  23  26
ATOM     26  C   UNL A   1      35.838  30.032  28.337  1.00  0.00     0.039 A 
ATOM     27  C   UNL A   1      36.724  30.106  27.261  1.00  0.00     0.014 A 
ATOM     28  C   UNL A   1      36.272  29.548  29.573  1.00  0.00     0.014 A 
ATOM     29  C   UNL A   1      38.064  29.762  27.445  1.00  0.00     0.010 A 
ATOM     30  C   UNL A   1      37.624  29.292  29.778  1.00  0.00     0.010 A 
ATOM     31  C   UNL A   1      38.534  29.392  28.716  1.00  0.00    -0.014 A 
BRANCH  31  32
ATOM     32  C   UNL A   1      39.976  29.111  28.951  1.00  0.00     0.031 A 
ATOM     33  C   UNL A   1      40.555  27.774  28.573  1.00  0.00     0.074 A 
ATOM     34  C   UNL A   1      40.740  30.034  29.568  1.00  0.00     0.049 A 
ATOM     35  N   UNL A   1      41.769  27.322  28.758  1.00  0.00    -0.248 NA
ATOM     36  C   UNL A   1      39.650  26.808  27.929  1.00  0.00     0.031 C 
ATOM     37  C   UNL A   1      40.275  31.341  30.042  1.00  0.00     0.029 A 
ATOM     38  N   UNL A   1      42.067  30.012  29.920  1.00  0.00    -0.354 N 
ATOM     39  C   UNL A   1      41.764  26.016  28.280  1.00  0.00     0.074 A 
ATOM     40  C   UNL A   1      40.419  25.733  27.833  1.00  0.00     0.031 C 
ATOM     41  C   UNL A   1      41.301  31.999  30.606  1.00  0.00     0.029 A 
ATOM     42  C   UNL A   1      42.488  31.148  30.573  1.00  0.00     0.049 A 
ATOM     43  H   UNL A   1      42.664  29.254  29.723  1.00  0.00     0.167 HD
ATOM     44  C   UNL A   1      42.794  25.140  28.205  1.00  0.00     0.037 A 
ATOM     45  C   UNL A   1      43.687  31.464  31.101  1.00  0.00     0.037 A 
ATOM     46  C   UNL A   1      44.141  25.448  28.609  1.00  0.00     0.049 A 
ATOM     47  C   UNL A   1      44.821  30.481  30.975  1.00  0.00     0.074 A 
ATOM     48  C   UNL A   1      45.274  24.662  28.482  1.00  0.00     0.029 A 
ATOM     49  N   UNL A   1      44.537  26.625  29.224  1.00  0.00    -0.354 N 
ATOM     50  N   UNL A   1      44.820  29.287  30.429  1.00  0.00    -0.248 NA
ATOM     51  C   UNL A   1      46.121  30.888  31.525  1.00  0.00     0.031 C 
ATOM     52  C   UNL A   1      46.343  25.340  29.072  1.00  0.00     0.029 A 
ATOM     53  C   UNL A   1      45.891  26.575  29.511  1.00  0.00     0.049 A 
ATOM     54  H   UNL A   1      43.944  27.384  29.427  1.00  0.00     0.167 HD
ATOM     55  C   UNL A   1      46.124  28.816  30.543  1.00  0.00     0.074 A 
ATOM     56  C   UNL A   1      46.888  29.860  31.194  1.00  0.00     0.031 C 
ATOM     57  C   UNL A   1      46.643  27.628  30.146  1.00  0.00     0.037 A 
BRANCH  44  58
ATOM     58  C   UNL A   1      42.521  23.765  27.663  1.00  0.00     0.058 A 
ATOM     59  C   UNL A   1      42.500  23.501  26.283  1.00  0.00     0.135 A 
ATOM     60  C   UNL A   1      42.365  22.678  28.539  1.00  0.00     0.135 A 
ATOM     61  F   UNL A   1      42.626  24.504  25.400  1.00  0.00    -0.206 F 
ATOM     62  C   UNL A   1      42.326  22.211  25.793  1.00  0.00     0.059 A 
ATOM     63  C   UNL A   1      42.218  21.375  28.070  1.00  0.00     0.059 A 
ATOM     64  F   UNL A   1      42.373  22.874  29.866  1.00  0.00    -0.206 F 
ATOM     65  C   UNL A   1      42.195  21.153  26.695  1.00  0.00     0.060 A 
BRANCH  65  66
ATOM     66  S   UNL A   1      42.025  19.479  26.039  1.00  0.00     0.124 S 
ATOM     67  O   UNL A   1      42.911  19.528  24.881  1.00  0.00    -0.237 OA
ATOM     68  O   UNL A   1      42.486  18.661  27.156  1.00  0.00    -0.237 OA
ATOM     69  O   UNL A   1      40.600  19.376  25.735  1.00  0.00    -0.744 OA
ENDBRANCH  65  66
ENDBRANCH  44  58
BRANCH  45  70
ATOM     70  C   UNL A   1      43.883  32.763  31.801  1.00  0.00     0.058 A 
ATOM     71  C   UNL A   1      43.673  32.885  33.183  1.00  0.00     0.135 A 
ATOM     72  C   UNL A   1      44.261  33.917  31.097  1.00  0.00     0.135 A 
ATOM     73  F   UNL A   1      43.307  31.813  33.903  1.00  0.00    -0.206 F 
ATOM     74  C   UNL A   1      43.791  34.109  33.836  1.00  0.00     0.059 A 
ATOM     75  C   UNL A   1      44.418  35.145  31.732  1.00  0.00     0.059 A 
ATOM     76  F   UNL A   1      44.496  33.854  29.777  1.00  0.00    -0.206 F 
ATOM     77  C   UNL A   1      44.160  35.235  33.099  1.00  0.00     0.060 A 
BRANCH  77  78
ATOM     78  S   UNL A   1      44.322  36.818  33.955  1.00  0.00     0.124 S 
ATOM     79  O   UNL A   1      45.115  36.441  35.119  1.00  0.00    -0.237 OA
ATOM     80  O   UNL A   1      45.001  37.638  32.957  1.00  0.00    -0.237 OA
ATOM     81  O   UNL A   1      42.938  37.193  34.228  1.00  0.00    -0.744 OA
ENDBRANCH  77  78
ENDBRANCH  45  70
BRANCH  57  82
ATOM     82  C   UNL A   1      48.115  27.406  30.359  1.00  0.00     0.058 A 
ATOM     83  C   UNL A   1      49.065  27.734  29.380  1.00  0.00     0.135 A 
ATOM     84  C   UNL A   1      48.585  26.904  31.584  1.00  0.00     0.135 A 
ATOM     85  F   UNL A   1      48.670  28.214  28.189  1.00  0.00    -0.206 F 
ATOM     86  C   UNL A   1      50.425  27.544  29.595  1.00  0.00     0.059 A 
ATOM     87  C   UNL A   1      49.942  26.736  31.834  1.00  0.00     0.059 A 
ATOM     88  F   UNL A   1      47.719  26.586  32.561  1.00  0.00    -0.206 F 
ATOM     89  C   UNL A   1      50.855  27.046  30.827  1.00  0.00     0.060 A 
BRANCH  89  90
ATOM     90  S   UNL A   1      52.625  26.829  31.103  1.00  0.00     0.124 S 
ATOM     91  O   UNL A   1      52.701  25.406  31.418  1.00  0.00    -0.237 OA
ATOM     92  O   UNL A   1      53.192  27.225  29.818  1.00  0.00    -0.237 OA
ATOM     93  O   UNL A   1      52.910  27.734  32.213  1.00  0.00    -0.744 OA
ENDBRANCH  89  90
ENDBRANCH  57  82
ENDBRANCH  31  32
ENDBRANCH  23  26
ENDBRANCH  21  22
ENDBRANCH   1  21
TORSDOF 18
ENDMDL
