MODEL 1
REMARK VINA RESULT:     -13.0      0.000      0.000
REMARK SMILES O=C1Nc2ccccc2/C1=C/c1cccc(C(=O)NCCCNC(=O)c2ccc(-c3c4nc(c(-c5c(F)cc(S(=O)(=O)[O-])cc5F)c5ccc([nH]5)c(-c5c(F)cc(S(=O)(=O)[O-])cc5F)c5nc(c(-c6c(F)cc(S(=O)(=O)[O-])cc6F)c6ccc3[nH]6)C=C5)C=C4)cc2)c1
REMARK SMILES IDX 22 1 21 2 20 3 19 4 17 5 18 6 16 8 12 9 13 10 92 11 14 12
REMARK SMILES IDX 15 13 11 14 1 15 2 16 3 17 10 18 4 19 9 21 5 22 8 23 6 24
REMARK SMILES IDX 7 25 23 26 24 27 25 29 26 30 27 31 91 32 28 33 90 34 29 35
REMARK SMILES IDX 30 36 31 37 84 38 32 39 89 40 83 41 85 42 33 43 88 44 82 45
REMARK SMILES IDX 81 46 34 48 68 49 47 50 67 51 48 52 51 53 66 54 86 55 49 56
REMARK SMILES IDX 50 57 65 59 87 60 52 61 35 62 36 63 45 64 37 65 38 66 44 67
REMARK SMILES IDX 46 68 39 69 40 70 41 71 42 72 43 73 69 74 70 75 79 76 71 77
REMARK SMILES IDX 72 78 78 79 80 80 73 81 74 82 75 83 76 84 77 85 53 86 54 87
REMARK SMILES IDX 63 88 55 89 56 90 62 91 64 92 57 93 58 94 59 95 60 96 61 97
REMARK H PARENT 19 7 3 20 23 28 85 47 51 58
REMARK Flexibility Score: inf
ROOT
ATOM      1  C   UNL A   1      35.568  31.226  28.148  1.00  0.00     0.118 C 
ENDROOT
BRANCH   1   2
ATOM      2  C   UNL A   1      34.859  30.062  27.462  1.00  0.00     0.042 C 
BRANCH   2   3
ATOM      3  C   UNL A   1      33.433  30.409  27.031  1.00  0.00     0.118 C 
BRANCH   3   4
ATOM      4  N   UNL A   1      32.472  29.488  27.614  1.00  0.00    -0.352 N 
ATOM      5  C   UNL A   1      31.879  28.337  27.156  1.00  0.00     0.251 C 
ATOM      6  O   UNL A   1      31.130  27.746  27.937  1.00  0.00    -0.269 OA
ATOM      7  H   UNL A   1      32.188  29.740  28.522  1.00  0.00     0.163 HD
BRANCH   5   8
ATOM      8  C   UNL A   1      32.128  27.745  25.808  1.00  0.00     0.040 A 
ATOM      9  C   UNL A   1      33.296  26.264  24.268  1.00  0.00    -0.024 A 
ATOM     10  C   UNL A   1      32.344  26.514  23.281  1.00  0.00     0.008 A 
ATOM     11  C   UNL A   1      33.227  26.953  25.487  1.00  0.00     0.022 A 
ATOM     12  C   UNL A   1      31.300  27.402  23.541  1.00  0.00     0.001 A 
ATOM     13  C   UNL A   1      31.178  27.990  24.806  1.00  0.00     0.014 A 
BRANCH   9  14
ATOM     14  C   UNL A   1      34.346  25.253  24.104  1.00  0.00     0.022 C 
ATOM     15  O   UNL A   1      31.800  23.766  25.066  1.00  0.00    -0.269 OA
ATOM     16  C   UNL A   1      32.911  23.298  24.941  1.00  0.00     0.256 C 
ATOM     17  N   UNL A   1      33.276  21.990  25.221  1.00  0.00    -0.321 N 
ATOM     18  C   UNL A   1      34.186  23.966  24.460  1.00  0.00     0.050 C 
ATOM     19  C   UNL A   1      34.625  21.773  24.971  1.00  0.00     0.049 A 
ATOM     20  H   UNL A   1      32.658  21.301  25.555  1.00  0.00     0.170 HD
ATOM     21  C   UNL A   1      35.235  22.941  24.499  1.00  0.00     0.011 A 
ATOM     22  C   UNL A   1      35.318  20.597  25.175  1.00  0.00     0.027 A 
ATOM     23  C   UNL A   1      36.592  22.959  24.236  1.00  0.00     0.011 A 
ATOM     24  C   UNL A   1      36.687  20.608  24.904  1.00  0.00     0.002 A 
ATOM     25  C   UNL A   1      37.318  21.779  24.443  1.00  0.00     0.001 A 
ENDBRANCH   9  14
ENDBRANCH   5   8
ENDBRANCH   3   4
ENDBRANCH   2   3
ENDBRANCH   1   2
BRANCH   1  26
ATOM     26  N   UNL A   1      35.493  31.120  29.600  1.00  0.00    -0.352 N 
ATOM     27  C   UNL A   1      36.363  30.550  30.494  1.00  0.00     0.251 C 
ATOM     28  H   UNL A   1      34.691  31.523  30.005  1.00  0.00     0.163 HD
ATOM     29  O   UNL A   1      35.986  30.326  31.640  1.00  0.00    -0.269 OA
BRANCH  27  30
ATOM     30  C   UNL A   1      37.741  30.204  30.084  1.00  0.00     0.039 A 
ATOM     31  C   UNL A   1      38.672  29.855  31.066  1.00  0.00     0.014 A 
ATOM     32  C   UNL A   1      38.131  30.268  28.744  1.00  0.00     0.014 A 
ATOM     33  C   UNL A   1      39.976  29.521  30.698  1.00  0.00     0.010 A 
ATOM     34  C   UNL A   1      39.404  29.852  28.371  1.00  0.00     0.010 A 
ATOM     35  C   UNL A   1      40.344  29.484  29.342  1.00  0.00    -0.014 A 
BRANCH  35  36
ATOM     36  C   UNL A   1      41.707  29.068  28.925  1.00  0.00     0.031 A 
ATOM     37  C   UNL A   1      42.827  30.072  28.889  1.00  0.00     0.074 A 
ATOM     38  C   UNL A   1      41.916  27.801  28.517  1.00  0.00     0.049 A 
ATOM     39  N   UNL A   1      44.065  29.914  28.496  1.00  0.00    -0.248 NA
ATOM     40  C   UNL A   1      42.507  31.441  29.325  1.00  0.00     0.031 C 
ATOM     41  C   UNL A   1      40.895  26.751  28.466  1.00  0.00     0.029 A 
ATOM     42  N   UNL A   1      43.051  27.180  28.064  1.00  0.00    -0.354 N 
ATOM     43  C   UNL A   1      44.665  31.162  28.625  1.00  0.00     0.074 A 
ATOM     44  C   UNL A   1      43.640  32.078  29.073  1.00  0.00     0.031 C 
ATOM     45  C   UNL A   1      41.458  25.611  28.038  1.00  0.00     0.029 A 
ATOM     46  C   UNL A   1      42.866  25.857  27.740  1.00  0.00     0.049 A 
ATOM     47  H   UNL A   1      43.918  27.640  27.978  1.00  0.00     0.167 HD
ATOM     48  C   UNL A   1      45.960  31.505  28.417  1.00  0.00     0.037 A 
ATOM     49  C   UNL A   1      43.730  24.947  27.252  1.00  0.00     0.037 A 
ATOM     50  C   UNL A   1      46.973  30.580  27.981  1.00  0.00     0.049 A 
ATOM     51  C   UNL A   1      45.156  25.355  27.005  1.00  0.00     0.074 A 
ATOM     52  C   UNL A   1      48.324  30.811  27.785  1.00  0.00     0.029 A 
ATOM     53  N   UNL A   1      46.747  29.246  27.667  1.00  0.00    -0.354 N 
ATOM     54  N   UNL A   1      45.724  26.523  27.194  1.00  0.00    -0.248 NA
ATOM     55  C   UNL A   1      46.061  24.321  26.487  1.00  0.00     0.031 C 
ATOM     56  C   UNL A   1      48.901  29.634  27.297  1.00  0.00     0.029 A 
ATOM     57  C   UNL A   1      47.926  28.649  27.251  1.00  0.00     0.049 A 
ATOM     58  H   UNL A   1      45.876  28.792  27.728  1.00  0.00     0.167 HD
ATOM     59  C   UNL A   1      47.060  26.358  26.845  1.00  0.00     0.074 A 
ATOM     60  C   UNL A   1      47.216  24.973  26.446  1.00  0.00     0.031 C 
ATOM     61  C   UNL A   1      48.065  27.268  26.857  1.00  0.00     0.037 A 
BRANCH  48  62
ATOM     62  C   UNL A   1      46.344  32.943  28.654  1.00  0.00     0.058 A 
ATOM     63  C   UNL A   1      46.309  33.899  27.624  1.00  0.00     0.135 A 
ATOM     64  C   UNL A   1      46.743  33.376  29.930  1.00  0.00     0.135 A 
ATOM     65  F   UNL A   1      45.949  33.541  26.381  1.00  0.00    -0.206 F 
ATOM     66  C   UNL A   1      46.700  35.217  27.838  1.00  0.00     0.059 A 
ATOM     67  C   UNL A   1      47.104  34.699  30.175  1.00  0.00     0.059 A 
ATOM     68  F   UNL A   1      46.793  32.510  30.954  1.00  0.00    -0.206 F 
ATOM     69  C   UNL A   1      47.099  35.607  29.117  1.00  0.00     0.060 A 
BRANCH  69  70
ATOM     70  S   UNL A   1      47.618  37.317  29.372  1.00  0.00     0.124 S 
ATOM     71  O   UNL A   1      48.978  37.290  28.842  1.00  0.00    -0.237 OA
ATOM     72  O   UNL A   1      46.643  38.059  28.578  1.00  0.00    -0.237 OA
ATOM     73  O   UNL A   1      47.511  37.494  30.817  1.00  0.00    -0.744 OA
ENDBRANCH  69  70
ENDBRANCH  48  62
BRANCH  49  74
ATOM     74  C   UNL A   1      43.272  23.553  26.999  1.00  0.00     0.058 A 
ATOM     75  C   UNL A   1      42.978  23.118  25.699  1.00  0.00     0.135 A 
ATOM     76  C   UNL A   1      43.154  22.621  28.042  1.00  0.00     0.135 A 
ATOM     77  F   UNL A   1      43.069  23.974  24.669  1.00  0.00    -0.206 F 
ATOM     78  C   UNL A   1      42.575  21.812  25.440  1.00  0.00     0.059 A 
ATOM     79  C   UNL A   1      42.781  21.301  27.805  1.00  0.00     0.059 A 
ATOM     80  F   UNL A   1      43.441  22.981  29.302  1.00  0.00    -0.206 F 
ATOM     81  C   UNL A   1      42.487  20.909  26.500  1.00  0.00     0.060 A 
BRANCH  81  82
ATOM     82  S   UNL A   1      42.030  19.198  26.141  1.00  0.00     0.124 S 
ATOM     83  O   UNL A   1      42.414  18.525  27.376  1.00  0.00    -0.237 OA
ATOM     84  O   UNL A   1      40.597  19.311  25.892  1.00  0.00    -0.237 OA
ATOM     85  O   UNL A   1      42.837  18.874  24.968  1.00  0.00    -0.744 OA
ENDBRANCH  81  82
ENDBRANCH  49  74
BRANCH  61  86
ATOM     86  C   UNL A   1      49.437  26.790  26.462  1.00  0.00     0.058 A 
ATOM     87  C   UNL A   1      50.326  26.233  27.394  1.00  0.00     0.135 A 
ATOM     88  C   UNL A   1      49.847  26.845  25.119  1.00  0.00     0.135 A 
ATOM     89  F   UNL A   1      49.989  26.163  28.693  1.00  0.00    -0.206 F 
ATOM     90  C   UNL A   1      51.582  25.771  27.015  1.00  0.00     0.059 A 
ATOM     91  C   UNL A   1      51.085  26.359  24.711  1.00  0.00     0.059 A 
ATOM     92  F   UNL A   1      49.032  27.358  24.184  1.00  0.00    -0.206 F 
ATOM     93  C   UNL A   1      51.951  25.834  25.669  1.00  0.00     0.060 A 
BRANCH  93  94
ATOM     94  S   UNL A   1      53.570  25.202  25.187  1.00  0.00     0.124 S 
ATOM     95  O   UNL A   1      53.363  23.760  25.279  1.00  0.00    -0.237 OA
ATOM     96  O   UNL A   1      53.723  25.736  23.836  1.00  0.00    -0.237 OA
ATOM     97  O   UNL A   1      54.471  25.772  26.184  1.00  0.00    -0.744 OA
ENDBRANCH  93  94
ENDBRANCH  61  86
ENDBRANCH  35  36
ENDBRANCH  27  30
ENDBRANCH   1  26
TORSDOF 14
ENDMDL
MODEL 2
REMARK VINA RESULT:     -12.9      6.520     12.211
REMARK SMILES O=C1Nc2ccccc2/C1=C/c1cccc(C(=O)NCCCNC(=O)c2ccc(-c3c4nc(c(-c5c(F)cc(S(=O)(=O)[O-])cc5F)c5ccc([nH]5)c(-c5c(F)cc(S(=O)(=O)[O-])cc5F)c5nc(c(-c6c(F)cc(S(=O)(=O)[O-])cc6F)c6ccc3[nH]6)C=C5)C=C4)cc2)c1
REMARK SMILES IDX 22 1 21 2 20 3 19 4 17 5 18 6 16 8 12 9 13 10 92 11 14 12
REMARK SMILES IDX 15 13 11 14 1 15 2 16 3 17 10 18 4 19 9 21 5 22 8 23 6 24
REMARK SMILES IDX 7 25 23 26 24 27 25 29 26 30 27 31 91 32 28 33 90 34 29 35
REMARK SMILES IDX 30 36 31 37 84 38 32 39 89 40 83 41 85 42 33 43 88 44 82 45
REMARK SMILES IDX 81 46 34 48 68 49 47 50 67 51 48 52 51 53 66 54 86 55 49 56
REMARK SMILES IDX 50 57 65 59 87 60 52 61 35 62 36 63 45 64 37 65 38 66 44 67
REMARK SMILES IDX 46 68 39 69 40 70 41 71 42 72 43 73 69 74 70 75 79 76 71 77
REMARK SMILES IDX 72 78 78 79 80 80 73 81 74 82 75 83 76 84 77 85 53 86 54 87
REMARK SMILES IDX 63 88 55 89 56 90 62 91 64 92 57 93 58 94 59 95 60 96 61 97
REMARK H PARENT 19 7 3 20 23 28 85 47 51 58
REMARK Flexibility Score: inf
ROOT
ATOM      1  C   UNL A   1      38.519  23.980  26.525  1.00  0.00     0.118 C 
ENDROOT
BRANCH   1   2
ATOM      2  C   UNL A   1      37.643  23.237  25.520  1.00  0.00     0.042 C 
BRANCH   2   3
ATOM      3  C   UNL A   1      36.223  23.801  25.442  1.00  0.00     0.118 C 
BRANCH   3   4
ATOM      4  N   UNL A   1      35.647  23.586  24.125  1.00  0.00    -0.352 N 
ATOM      5  C   UNL A   1      34.421  23.876  23.579  1.00  0.00     0.251 C 
ATOM      6  O   UNL A   1      34.263  23.605  22.387  1.00  0.00    -0.269 OA
ATOM      7  H   UNL A   1      36.261  23.141  23.497  1.00  0.00     0.163 HD
BRANCH   5   8
ATOM      8  C   UNL A   1      33.308  24.537  24.323  1.00  0.00     0.040 A 
ATOM      9  C   UNL A   1      31.368  26.001  24.479  1.00  0.00    -0.024 A 
ATOM     10  C   UNL A   1      31.098  25.532  25.764  1.00  0.00     0.008 A 
ATOM     11  C   UNL A   1      32.520  25.566  23.811  1.00  0.00     0.022 A 
ATOM     12  C   UNL A   1      31.946  24.589  26.344  1.00  0.00     0.001 A 
ATOM     13  C   UNL A   1      33.027  24.076  25.617  1.00  0.00     0.014 A 
BRANCH   9  14
ATOM     14  C   UNL A   1      30.452  26.897  23.765  1.00  0.00     0.022 C 
ATOM     15  O   UNL A   1      32.391  28.691  25.390  1.00  0.00    -0.269 OA
ATOM     16  C   UNL A   1      31.412  29.052  24.773  1.00  0.00     0.256 C 
ATOM     17  N   UNL A   1      30.947  30.356  24.680  1.00  0.00    -0.321 N 
ATOM     18  C   UNL A   1      30.440  28.229  23.948  1.00  0.00     0.050 C 
ATOM     19  C   UNL A   1      29.801  30.433  23.898  1.00  0.00     0.049 A 
ATOM     20  H   UNL A   1      31.373  31.128  25.115  1.00  0.00     0.170 HD
ATOM     21  C   UNL A   1      29.445  29.168  23.416  1.00  0.00     0.011 A 
ATOM     22  C   UNL A   1      29.067  31.570  23.630  1.00  0.00     0.027 A 
ATOM     23  C   UNL A   1      28.301  29.011  22.655  1.00  0.00     0.011 A 
ATOM     24  C   UNL A   1      27.916  31.418  22.856  1.00  0.00     0.002 A 
ATOM     25  C   UNL A   1      27.535  30.150  22.377  1.00  0.00     0.001 A 
ENDBRANCH   9  14
ENDBRANCH   5   8
ENDBRANCH   3   4
ENDBRANCH   2   3
ENDBRANCH   1   2
BRANCH   1  26
ATOM     26  N   UNL A   1      39.929  23.915  26.159  1.00  0.00    -0.352 N 
ATOM     27  C   UNL A   1      40.960  24.773  26.445  1.00  0.00     0.251 C 
ATOM     28  H   UNL A   1      40.182  23.129  25.622  1.00  0.00     0.163 HD
ATOM     29  O   UNL A   1      42.010  24.680  25.817  1.00  0.00    -0.269 OA
BRANCH  27  30
ATOM     30  C   UNL A   1      40.811  25.801  27.497  1.00  0.00     0.039 A 
ATOM     31  C   UNL A   1      39.826  25.633  28.474  1.00  0.00     0.014 A 
ATOM     32  C   UNL A   1      41.604  26.951  27.495  1.00  0.00     0.014 A 
ATOM     33  C   UNL A   1      39.674  26.591  29.477  1.00  0.00     0.010 A 
ATOM     34  C   UNL A   1      41.509  27.861  28.543  1.00  0.00     0.010 A 
ATOM     35  C   UNL A   1      40.538  27.698  29.539  1.00  0.00    -0.014 A 
BRANCH  35  36
ATOM     36  C   UNL A   1      40.436  28.695  30.635  1.00  0.00     0.031 A 
ATOM     37  C   UNL A   1      41.324  28.581  31.845  1.00  0.00     0.074 A 
ATOM     38  C   UNL A   1      39.500  29.660  30.567  1.00  0.00     0.049 A 
ATOM     39  N   UNL A   1      41.341  29.315  32.928  1.00  0.00    -0.248 NA
ATOM     40  C   UNL A   1      42.302  27.481  31.852  1.00  0.00     0.031 C 
ATOM     41  C   UNL A   1      38.553  29.842  29.463  1.00  0.00     0.029 A 
ATOM     42  N   UNL A   1      39.185  30.668  31.442  1.00  0.00    -0.354 N 
ATOM     43  C   UNL A   1      42.319  28.760  33.746  1.00  0.00     0.074 A 
ATOM     44  C   UNL A   1      42.826  27.591  33.062  1.00  0.00     0.031 C 
ATOM     45  C   UNL A   1      37.786  30.914  29.714  1.00  0.00     0.029 A 
ATOM     46  C   UNL A   1      38.152  31.469  31.013  1.00  0.00     0.049 A 
ATOM     47  H   UNL A   1      39.653  30.805  32.297  1.00  0.00     0.167 HD
ATOM     48  C   UNL A   1      42.770  29.201  34.945  1.00  0.00     0.037 A 
ATOM     49  C   UNL A   1      37.564  32.527  31.603  1.00  0.00     0.037 A 
ATOM     50  C   UNL A   1      42.263  30.372  35.611  1.00  0.00     0.049 A 
ATOM     51  C   UNL A   1      38.065  32.985  32.945  1.00  0.00     0.074 A 
ATOM     52  C   UNL A   1      42.681  30.934  36.805  1.00  0.00     0.029 A 
ATOM     53  N   UNL A   1      41.219  31.160  35.144  1.00  0.00    -0.354 N 
ATOM     54  N   UNL A   1      39.033  32.487  33.678  1.00  0.00    -0.248 NA
ATOM     55  C   UNL A   1      37.399  34.151  33.539  1.00  0.00     0.031 C 
ATOM     56  C   UNL A   1      41.853  32.026  37.087  1.00  0.00     0.029 A 
ATOM     57  C   UNL A   1      40.960  32.186  36.038  1.00  0.00     0.049 A 
ATOM     58  H   UNL A   1      40.733  31.010  34.301  1.00  0.00     0.167 HD
ATOM     59  C   UNL A   1      39.113  33.297  34.806  1.00  0.00     0.074 A 
ATOM     60  C   UNL A   1      38.102  34.324  34.651  1.00  0.00     0.031 C 
ATOM     61  C   UNL A   1      39.949  33.201  35.869  1.00  0.00     0.037 A 
BRANCH  48  62
ATOM     62  C   UNL A   1      43.863  28.405  35.611  1.00  0.00     0.058 A 
ATOM     63  C   UNL A   1      45.222  28.636  35.336  1.00  0.00     0.135 A 
ATOM     64  C   UNL A   1      43.551  27.404  36.547  1.00  0.00     0.135 A 
ATOM     65  F   UNL A   1      45.581  29.571  34.441  1.00  0.00    -0.206 F 
ATOM     66  C   UNL A   1      46.226  27.875  35.925  1.00  0.00     0.059 A 
ATOM     67  C   UNL A   1      44.542  26.654  37.176  1.00  0.00     0.059 A 
ATOM     68  F   UNL A   1      42.271  27.140  36.854  1.00  0.00    -0.206 F 
ATOM     69  C   UNL A   1      45.876  26.884  36.842  1.00  0.00     0.060 A 
BRANCH  69  70
ATOM     70  S   UNL A   1      47.192  25.895  37.585  1.00  0.00     0.124 S 
ATOM     71  O   UNL A   1      46.485  25.255  38.690  1.00  0.00    -0.237 OA
ATOM     72  O   UNL A   1      47.578  25.016  36.486  1.00  0.00    -0.237 OA
ATOM     73  O   UNL A   1      48.189  26.889  37.969  1.00  0.00    -0.744 OA
ENDBRANCH  69  70
ENDBRANCH  48  62
BRANCH  49  74
ATOM     74  C   UNL A   1      36.459  33.242  30.908  1.00  0.00     0.058 A 
ATOM     75  C   UNL A   1      35.138  33.145  31.370  1.00  0.00     0.135 A 
ATOM     76  C   UNL A   1      36.703  34.061  29.795  1.00  0.00     0.135 A 
ATOM     77  F   UNL A   1      34.852  32.369  32.427  1.00  0.00    -0.206 F 
ATOM     78  C   UNL A   1      34.096  33.827  30.749  1.00  0.00     0.059 A 
ATOM     79  C   UNL A   1      35.683  34.776  29.175  1.00  0.00     0.059 A 
ATOM     80  F   UNL A   1      37.952  34.202  29.324  1.00  0.00    -0.206 F 
ATOM     81  C   UNL A   1      34.381  34.647  29.656  1.00  0.00     0.060 A 
BRANCH  81  82
ATOM     82  S   UNL A   1      33.031  35.582  28.903  1.00  0.00     0.124 S 
ATOM     83  O   UNL A   1      33.756  36.636  28.205  1.00  0.00    -0.237 OA
ATOM     84  O   UNL A   1      32.397  34.575  28.059  1.00  0.00    -0.237 OA
ATOM     85  O   UNL A   1      32.240  36.013  30.052  1.00  0.00    -0.744 OA
ENDBRANCH  81  82
ENDBRANCH  49  74
BRANCH  61  86
ATOM     86  C   UNL A   1      39.834  34.256  36.937  1.00  0.00     0.058 A 
ATOM     87  C   UNL A   1      40.445  35.513  36.807  1.00  0.00     0.135 A 
ATOM     88  C   UNL A   1      39.059  34.021  38.085  1.00  0.00     0.135 A 
ATOM     89  F   UNL A   1      41.204  35.789  35.734  1.00  0.00    -0.206 F 
ATOM     90  C   UNL A   1      40.312  36.491  37.788  1.00  0.00     0.059 A 
ATOM     91  C   UNL A   1      38.885  34.995  39.063  1.00  0.00     0.059 A 
ATOM     92  F   UNL A   1      38.444  32.840  38.255  1.00  0.00    -0.206 F 
ATOM     93  C   UNL A   1      39.526  36.223  38.911  1.00  0.00     0.060 A 
BRANCH  93  94
ATOM     94  S   UNL A   1      39.337  37.512  40.160  1.00  0.00     0.124 S 
ATOM     95  O   UNL A   1      38.952  36.733  41.332  1.00  0.00    -0.237 OA
ATOM     96  O   UNL A   1      40.671  38.103  40.201  1.00  0.00    -0.237 OA
ATOM     97  O   UNL A   1      38.295  38.372  39.607  1.00  0.00    -0.744 OA
ENDBRANCH  93  94
ENDBRANCH  61  86
ENDBRANCH  35  36
ENDBRANCH  27  30
ENDBRANCH   1  26
TORSDOF 14
ENDMDL
MODEL 3
REMARK VINA RESULT:     -12.9      3.922      6.581
REMARK SMILES O=C1Nc2ccccc2/C1=C/c1cccc(C(=O)NCCCNC(=O)c2ccc(-c3c4nc(c(-c5c(F)cc(S(=O)(=O)[O-])cc5F)c5ccc([nH]5)c(-c5c(F)cc(S(=O)(=O)[O-])cc5F)c5nc(c(-c6c(F)cc(S(=O)(=O)[O-])cc6F)c6ccc3[nH]6)C=C5)C=C4)cc2)c1
REMARK SMILES IDX 22 1 21 2 20 3 19 4 17 5 18 6 16 8 12 9 13 10 92 11 14 12
REMARK SMILES IDX 15 13 11 14 1 15 2 16 3 17 10 18 4 19 9 21 5 22 8 23 6 24
REMARK SMILES IDX 7 25 23 26 24 27 25 29 26 30 27 31 91 32 28 33 90 34 29 35
REMARK SMILES IDX 30 36 31 37 84 38 32 39 89 40 83 41 85 42 33 43 88 44 82 45
REMARK SMILES IDX 81 46 34 48 68 49 47 50 67 51 48 52 51 53 66 54 86 55 49 56
REMARK SMILES IDX 50 57 65 59 87 60 52 61 35 62 36 63 45 64 37 65 38 66 44 67
REMARK SMILES IDX 46 68 39 69 40 70 41 71 42 72 43 73 69 74 70 75 79 76 71 77
REMARK SMILES IDX 72 78 78 79 80 80 73 81 74 82 75 83 76 84 77 85 53 86 54 87
REMARK SMILES IDX 63 88 55 89 56 90 62 91 64 92 57 93 58 94 59 95 60 96 61 97
REMARK H PARENT 19 7 3 20 23 28 85 47 51 58
REMARK Flexibility Score: inf
ROOT
ATOM      1  C   UNL A   1      34.721  32.648  28.814  1.00  0.00     0.118 C 
ENDROOT
BRANCH   1   2
ATOM      2  C   UNL A   1      34.289  33.869  28.007  1.00  0.00     0.042 C 
BRANCH   2   3
ATOM      3  C   UNL A   1      32.915  34.397  28.420  1.00  0.00     0.118 C 
BRANCH   3   4
ATOM      4  N   UNL A   1      32.929  35.845  28.549  1.00  0.00    -0.352 N 
ATOM      5  C   UNL A   1      33.233  36.692  29.587  1.00  0.00     0.251 C 
ATOM      6  O   UNL A   1      33.197  37.901  29.349  1.00  0.00    -0.269 OA
ATOM      7  H   UNL A   1      32.666  36.314  27.724  1.00  0.00     0.163 HD
BRANCH   5   8
ATOM      8  C   UNL A   1      33.648  36.236  30.946  1.00  0.00     0.040 A 
ATOM      9  C   UNL A   1      35.196  35.189  32.508  1.00  0.00    -0.024 A 
ATOM     10  C   UNL A   1      34.438  35.643  33.587  1.00  0.00     0.008 A 
ATOM     11  C   UNL A   1      34.742  35.413  31.201  1.00  0.00     0.022 A 
ATOM     12  C   UNL A   1      33.269  36.366  33.351  1.00  0.00     0.001 A 
ATOM     13  C   UNL A   1      32.893  36.684  32.040  1.00  0.00     0.014 A 
BRANCH   9  14
ATOM     14  C   UNL A   1      36.494  34.531  32.686  1.00  0.00     0.022 C 
ATOM     15  O   UNL A   1      34.404  32.292  32.201  1.00  0.00    -0.269 OA
ATOM     16  C   UNL A   1      35.564  32.146  32.517  1.00  0.00     0.256 C 
ATOM     17  N   UNL A   1      36.197  30.932  32.743  1.00  0.00    -0.321 N 
ATOM     18  C   UNL A   1      36.636  33.195  32.749  1.00  0.00     0.050 C 
ATOM     19  C   UNL A   1      37.531  31.110  33.089  1.00  0.00     0.049 A 
ATOM     20  H   UNL A   1      35.757  30.056  32.668  1.00  0.00     0.170 HD
ATOM     21  C   UNL A   1      37.861  32.470  33.105  1.00  0.00     0.011 A 
ATOM     22  C   UNL A   1      38.433  30.117  33.411  1.00  0.00     0.027 A 
ATOM     23  C   UNL A   1      39.131  32.873  33.475  1.00  0.00     0.011 A 
ATOM     24  C   UNL A   1      39.718  30.518  33.779  1.00  0.00     0.002 A 
ATOM     25  C   UNL A   1      40.062  31.883  33.814  1.00  0.00     0.001 A 
ENDBRANCH   9  14
ENDBRANCH   5   8
ENDBRANCH   3   4
ENDBRANCH   2   3
ENDBRANCH   1   2
BRANCH   1  26
ATOM     26  N   UNL A   1      34.004  31.449  28.399  1.00  0.00    -0.352 N 
ATOM     27  C   UNL A   1      34.477  30.218  28.023  1.00  0.00     0.251 C 
ATOM     28  H   UNL A   1      33.023  31.536  28.387  1.00  0.00     0.163 HD
ATOM     29  O   UNL A   1      33.725  29.435  27.450  1.00  0.00    -0.269 OA
BRANCH  27  30
ATOM     30  C   UNL A   1      35.878  29.835  28.300  1.00  0.00     0.039 A 
ATOM     31  C   UNL A   1      36.822  29.933  27.273  1.00  0.00     0.014 A 
ATOM     32  C   UNL A   1      36.254  29.336  29.549  1.00  0.00     0.014 A 
ATOM     33  C   UNL A   1      38.150  29.581  27.518  1.00  0.00     0.010 A 
ATOM     34  C   UNL A   1      37.592  29.068  29.815  1.00  0.00     0.010 A 
ATOM     35  C   UNL A   1      38.553  29.176  28.801  1.00  0.00    -0.014 A 
BRANCH  35  36
ATOM     36  C   UNL A   1      39.973  28.860  29.099  1.00  0.00     0.031 A 
ATOM     37  C   UNL A   1      40.856  29.889  29.753  1.00  0.00     0.074 A 
ATOM     38  C   UNL A   1      40.480  27.671  28.721  1.00  0.00     0.049 A 
ATOM     39  N   UNL A   1      42.131  29.823  30.036  1.00  0.00    -0.248 NA
ATOM     40  C   UNL A   1      40.230  31.172  30.110  1.00  0.00     0.031 C 
ATOM     41  C   UNL A   1      39.731  26.612  28.040  1.00  0.00     0.029 A 
ATOM     42  N   UNL A   1      41.743  27.152  28.850  1.00  0.00    -0.354 N 
ATOM     43  C   UNL A   1      42.461  31.054  30.590  1.00  0.00     0.074 A 
ATOM     44  C   UNL A   1      41.267  31.870  30.545  1.00  0.00     0.031 C 
ATOM     45  C   UNL A   1      40.540  25.561  27.840  1.00  0.00     0.029 A 
ATOM     46  C   UNL A   1      41.874  25.884  28.335  1.00  0.00     0.049 A 
ATOM     47  H   UNL A   1      42.486  27.642  29.271  1.00  0.00     0.167 HD
ATOM     48  C   UNL A   1      43.644  31.458  31.115  1.00  0.00     0.037 A 
ATOM     49  C   UNL A   1      42.949  25.077  28.264  1.00  0.00     0.037 A 
ATOM     50  C   UNL A   1      44.822  30.633  31.162  1.00  0.00     0.049 A 
ATOM     51  C   UNL A   1      44.258  25.554  28.829  1.00  0.00     0.074 A 
ATOM     52  C   UNL A   1      46.058  30.926  31.713  1.00  0.00     0.029 A 
ATOM     53  N   UNL A   1      44.915  29.352  30.633  1.00  0.00    -0.354 N 
ATOM     54  N   UNL A   1      44.538  26.698  29.408  1.00  0.00    -0.248 NA
ATOM     55  C   UNL A   1      45.396  24.630  28.740  1.00  0.00     0.031 C 
ATOM     56  C   UNL A   1      46.913  29.847  31.466  1.00  0.00     0.029 A 
ATOM     57  C   UNL A   1      46.194  28.853  30.819  1.00  0.00     0.049 A 
ATOM     58  H   UNL A   1      44.181  28.871  30.189  1.00  0.00     0.167 HD
ATOM     59  C   UNL A   1      45.877  26.620  29.779  1.00  0.00     0.074 A 
ATOM     60  C   UNL A   1      46.345  25.312  29.368  1.00  0.00     0.031 C 
ATOM     61  C   UNL A   1      46.645  27.546  30.404  1.00  0.00     0.037 A 
BRANCH  48  62
ATOM     62  C   UNL A   1      43.716  32.858  31.670  1.00  0.00     0.058 A 
ATOM     63  C   UNL A   1      43.569  33.118  33.044  1.00  0.00     0.135 A 
ATOM     64  C   UNL A   1      43.945  33.954  30.822  1.00  0.00     0.135 A 
ATOM     65  F   UNL A   1      43.335  32.112  33.902  1.00  0.00    -0.206 F 
ATOM     66  C   UNL A   1      43.600  34.414  33.548  1.00  0.00     0.059 A 
ATOM     67  C   UNL A   1      44.015  35.256  31.310  1.00  0.00     0.059 A 
ATOM     68  F   UNL A   1      44.096  33.768  29.501  1.00  0.00    -0.206 F 
ATOM     69  C   UNL A   1      43.820  35.478  32.673  1.00  0.00     0.060 A 
BRANCH  69  70
ATOM     70  S   UNL A   1      43.841  37.154  33.343  1.00  0.00     0.124 S 
ATOM     71  O   UNL A   1      43.886  37.954  32.123  1.00  0.00    -0.237 OA
ATOM     72  O   UNL A   1      42.587  37.206  34.089  1.00  0.00    -0.237 OA
ATOM     73  O   UNL A   1      45.053  37.181  34.156  1.00  0.00    -0.744 OA
ENDBRANCH  69  70
ENDBRANCH  48  62
BRANCH  49  74
ATOM     74  C   UNL A   1      42.818  23.722  27.661  1.00  0.00     0.058 A 
ATOM     75  C   UNL A   1      43.015  23.524  26.287  1.00  0.00     0.135 A 
ATOM     76  C   UNL A   1      42.531  22.596  28.448  1.00  0.00     0.135 A 
ATOM     77  F   UNL A   1      43.286  24.570  25.491  1.00  0.00    -0.206 F 
ATOM     78  C   UNL A   1      42.924  22.261  25.710  1.00  0.00     0.059 A 
ATOM     79  C   UNL A   1      42.462  21.318  27.900  1.00  0.00     0.059 A 
ATOM     80  F   UNL A   1      42.352  22.727  29.771  1.00  0.00    -0.206 F 
ATOM     81  C   UNL A   1      42.654  21.163  26.528  1.00  0.00     0.060 A 
BRANCH  81  82
ATOM     82  S   UNL A   1      42.607  19.520  25.779  1.00  0.00     0.124 S 
ATOM     83  O   UNL A   1      43.554  19.670  24.680  1.00  0.00    -0.237 OA
ATOM     84  O   UNL A   1      43.040  18.669  26.882  1.00  0.00    -0.237 OA
ATOM     85  O   UNL A   1      41.208  19.367  25.391  1.00  0.00    -0.744 OA
ENDBRANCH  81  82
ENDBRANCH  49  74
BRANCH  61  86
ATOM     86  C   UNL A   1      48.067  27.166  30.719  1.00  0.00     0.058 A 
ATOM     87  C   UNL A   1      48.392  26.342  31.808  1.00  0.00     0.135 A 
ATOM     88  C   UNL A   1      49.116  27.595  29.888  1.00  0.00     0.135 A 
ATOM     89  F   UNL A   1      47.430  25.911  32.640  1.00  0.00    -0.206 F 
ATOM     90  C   UNL A   1      49.706  25.976  32.077  1.00  0.00     0.059 A 
ATOM     91  C   UNL A   1      50.434  27.214  30.117  1.00  0.00     0.059 A 
ATOM     92  F   UNL A   1      48.861  28.376  28.827  1.00  0.00    -0.206 F 
ATOM     93  C   UNL A   1      50.721  26.415  31.222  1.00  0.00     0.060 A 
BRANCH  93  94
ATOM     94  S   UNL A   1      52.418  25.905  31.564  1.00  0.00     0.124 S 
ATOM     95  O   UNL A   1      52.220  24.569  32.114  1.00  0.00    -0.237 OA
ATOM     96  O   UNL A   1      53.032  25.963  30.240  1.00  0.00    -0.237 OA
ATOM     97  O   UNL A   1      52.892  26.911  32.510  1.00  0.00    -0.744 OA
ENDBRANCH  93  94
ENDBRANCH  61  86
ENDBRANCH  35  36
ENDBRANCH  27  30
ENDBRANCH   1  26
TORSDOF 14
ENDMDL
