MODEL 1
REMARK VINA RESULT:     -10.9      0.000      0.000
REMARK SMILES O=C(NCCCNC(=O)c1ccc(-c2c3nc(c(-c4c(F)cc(S(=O)(=O)[O-])cc4F)c4ccc([nH]4)c(-c4c(F)cc(S(=O)(=O)[O-])cc4F)c4nc(c(-c5c(F)cc(S(=O)(=O)[O-])cc5F)c5ccc2[nH]5)C=C4)C=C3)cc1)C1=Cc2cc(S(F)(F)(F)(F)F)cc(Br)c2O[C@H]1C(F)(F)F
REMARK SMILES IDX 6 1 5 2 4 3 3 4 1 5 2 6 76 8 77 9 92 10 78 11 91 12 79 13
REMARK SMILES IDX 90 14 80 15 88 16 87 17 89 18 93 19 94 20 95 21 96 22 81 23
REMARK SMILES IDX 82 24 83 25 84 26 85 27 86 28 7 29 8 30 9 32 10 33 11 34
REMARK SMILES IDX 75 35 12 36 74 37 13 38 14 39 15 40 68 41 16 42 73 43 67 44
REMARK SMILES IDX 69 45 17 46 72 47 66 48 65 49 18 51 52 52 31 53 51 54 32 55
REMARK SMILES IDX 35 56 50 57 70 58 33 59 34 60 49 62 71 63 36 64 19 65 20 66
REMARK SMILES IDX 29 67 21 68 22 69 28 70 30 71 23 72 24 73 25 74 26 75 27 76
REMARK SMILES IDX 53 77 54 78 63 79 55 80 56 81 62 82 64 83 57 84 58 85 59 86
REMARK SMILES IDX 60 87 61 88 37 89 38 90 47 91 39 92 40 93 46 94 48 95 41 96
REMARK SMILES IDX 42 97 43 98 44 99 45 100
REMARK H PARENT 3 7 7 31 69 50 35 61
REMARK Flexibility Score: inf
ROOT
ATOM      1  C   UNL A   1      34.940  32.654  28.162  1.00  0.00     0.118 C 
ENDROOT
BRANCH   1   2
ATOM      2  C   UNL A   1      34.738  33.045  29.617  1.00  0.00     0.042 C 
BRANCH   2   3
ATOM      3  C   UNL A   1      36.065  32.957  30.353  1.00  0.00     0.118 C 
BRANCH   3   4
ATOM      4  N   UNL A   1      36.384  34.264  30.945  1.00  0.00    -0.352 N 
ATOM      5  O   UNL A   1      36.283  35.683  32.848  1.00  0.00    -0.270 OA
ATOM      6  C   UNL A   1      36.008  34.553  32.336  1.00  0.00     0.251 C 
ATOM      7  H   UNL A   1      36.849  34.948  30.409  1.00  0.00     0.163 HD
BRANCH   6   8
ATOM      8  C   UNL A   1      35.289  33.499  33.164  1.00  0.00     0.067 C 
ATOM      9  C   UNL A   1      35.988  32.466  33.705  1.00  0.00     0.025 C 
ATOM     10  C   UNL A   1      33.789  33.599  33.385  1.00  0.00     0.314 C 
ATOM     11  C   UNL A   1      37.489  32.366  33.483  1.00  0.00     0.020 A 
ATOM     12  O   UNL A   1      37.732  34.723  33.667  1.00  0.00    -0.474 OA
ATOM     13  C   UNL A   1      37.999  31.097  33.265  1.00  0.00     0.036 A 
ATOM     14  C   UNL A   1      38.290  33.419  33.605  1.00  0.00     0.142 A 
ATOM     15  C   UNL A   1      39.395  30.995  33.479  1.00  0.00     0.109 A 
ATOM     16  C   UNL A   1      39.653  33.257  33.672  1.00  0.00     0.062 A 
ATOM     17  C   UNL A   1      40.222  32.023  33.524  1.00  0.00     0.044 A 
ATOM     18  Br  UNL A   1      40.796  34.817  33.986  1.00  0.00    -0.047 Br
BRANCH  10  19
ATOM     19  C   UNL A   1      33.253  34.835  32.679  1.00  0.00     0.429 C 
ATOM     20  F   UNL A   1      31.929  34.846  32.806  1.00  0.00    -0.167 F 
ATOM     21  F   UNL A   1      33.767  35.889  33.305  1.00  0.00    -0.167 F 
ATOM     22  F   UNL A   1      33.574  34.885  31.389  1.00  0.00    -0.167 F 
ENDBRANCH  10  19
BRANCH  15  23
ATOM     23  S   UNL A   1      40.093  29.341  33.709  1.00  0.00     0.310 S 
ATOM     24  F   UNL A   1      41.487  29.782  33.094  1.00  0.00    -0.094 F 
ATOM     25  F   UNL A   1      39.638  28.982  32.244  1.00  0.00    -0.094 F 
ATOM     26  F   UNL A   1      40.695  27.920  33.899  1.00  0.00    -0.094 F 
ATOM     27  F   UNL A   1      40.664  29.763  35.120  1.00  0.00    -0.094 F 
ATOM     28  F   UNL A   1      39.585  30.821  33.487  1.00  0.00    -0.094 F 
ENDBRANCH  15  23
ENDBRANCH   6   8
ENDBRANCH   3   4
ENDBRANCH   2   3
ENDBRANCH   1   2
BRANCH   1  29
ATOM     29  N   UNL A   1      34.084  31.502  27.840  1.00  0.00    -0.352 N 
ATOM     30  C   UNL A   1      34.649  30.145  27.839  1.00  0.00     0.251 C 
ATOM     31  H   UNL A   1      33.133  31.639  27.626  1.00  0.00     0.163 HD
ATOM     32  O   UNL A   1      33.910  29.149  27.562  1.00  0.00    -0.269 OA
BRANCH  30  33
ATOM     33  C   UNL A   1      36.117  29.932  28.171  1.00  0.00     0.039 A 
ATOM     34  C   UNL A   1      37.077  30.134  27.193  1.00  0.00     0.014 A 
ATOM     35  C   UNL A   1      36.443  29.468  29.371  1.00  0.00     0.014 A 
ATOM     36  C   UNL A   1      38.327  29.539  27.486  1.00  0.00     0.010 A 
ATOM     37  C   UNL A   1      37.720  29.028  29.628  1.00  0.00     0.010 A 
ATOM     38  C   UNL A   1      38.705  29.142  28.687  1.00  0.00    -0.014 A 
BRANCH  38  39
ATOM     39  C   UNL A   1      40.158  28.830  29.007  1.00  0.00     0.031 A 
ATOM     40  C   UNL A   1      40.635  27.562  28.671  1.00  0.00     0.074 A 
ATOM     41  C   UNL A   1      40.944  29.835  29.544  1.00  0.00     0.049 A 
ATOM     42  N   UNL A   1      41.887  27.112  28.767  1.00  0.00    -0.248 NA
ATOM     43  C   UNL A   1      39.795  26.481  28.133  1.00  0.00     0.031 C 
ATOM     44  C   UNL A   1      40.472  31.120  29.877  1.00  0.00     0.029 A 
ATOM     45  N   UNL A   1      42.286  29.788  29.849  1.00  0.00    -0.354 N 
ATOM     46  C   UNL A   1      41.959  25.852  28.332  1.00  0.00     0.074 A 
ATOM     47  C   UNL A   1      40.613  25.427  27.924  1.00  0.00     0.031 C 
ATOM     48  C   UNL A   1      41.512  31.832  30.387  1.00  0.00     0.029 A 
ATOM     49  C   UNL A   1      42.651  31.004  30.379  1.00  0.00     0.049 A 
ATOM     50  H   UNL A   1      42.882  29.015  29.711  1.00  0.00     0.167 HD
ATOM     51  C   UNL A   1      43.093  25.043  28.258  1.00  0.00     0.037 A 
ATOM     52  C   UNL A   1      43.901  31.390  30.839  1.00  0.00     0.037 A 
ATOM     53  C   UNL A   1      44.352  25.444  28.677  1.00  0.00     0.049 A 
ATOM     54  C   UNL A   1      45.024  30.560  30.818  1.00  0.00     0.074 A 
ATOM     55  C   UNL A   1      45.508  24.642  28.602  1.00  0.00     0.029 A 
ATOM     56  N   UNL A   1      44.712  26.652  29.230  1.00  0.00    -0.354 N 
ATOM     57  N   UNL A   1      45.104  29.316  30.346  1.00  0.00    -0.248 NA
ATOM     58  C   UNL A   1      46.344  30.948  31.331  1.00  0.00     0.031 C 
ATOM     59  C   UNL A   1      46.548  25.355  29.112  1.00  0.00     0.029 A 
ATOM     60  C   UNL A   1      46.059  26.613  29.513  1.00  0.00     0.049 A 
ATOM     61  H   UNL A   1      44.109  27.414  29.394  1.00  0.00     0.167 HD
ATOM     62  C   UNL A   1      46.347  28.851  30.481  1.00  0.00     0.074 A 
ATOM     63  C   UNL A   1      47.162  29.892  31.124  1.00  0.00     0.031 C 
ATOM     64  C   UNL A   1      46.837  27.603  30.091  1.00  0.00     0.037 A 
BRANCH  51  65
ATOM     65  C   UNL A   1      42.939  23.642  27.686  1.00  0.00     0.058 A 
ATOM     66  C   UNL A   1      43.113  23.410  26.332  1.00  0.00     0.135 A 
ATOM     67  C   UNL A   1      42.614  22.660  28.518  1.00  0.00     0.135 A 
ATOM     68  F   UNL A   1      43.679  24.291  25.511  1.00  0.00    -0.206 F 
ATOM     69  C   UNL A   1      42.636  22.150  25.901  1.00  0.00     0.059 A 
ATOM     70  C   UNL A   1      42.290  21.415  28.036  1.00  0.00     0.059 A 
ATOM     71  F   UNL A   1      42.602  22.883  29.829  1.00  0.00    -0.206 F 
ATOM     72  C   UNL A   1      42.382  21.131  26.702  1.00  0.00     0.060 A 
BRANCH  72  73
ATOM     73  S   UNL A   1      42.168  19.449  26.068  1.00  0.00     0.124 S 
ATOM     74  O   UNL A   1      42.993  19.276  24.791  1.00  0.00    -0.237 OA
ATOM     75  O   UNL A   1      42.640  18.444  27.120  1.00  0.00    -0.237 OA
ATOM     76  O   UNL A   1      40.517  19.177  25.720  1.00  0.00    -0.744 OA
ENDBRANCH  72  73
ENDBRANCH  51  65
BRANCH  52  77
ATOM     77  C   UNL A   1      44.057  32.796  31.395  1.00  0.00     0.058 A 
ATOM     78  C   UNL A   1      44.299  33.869  30.551  1.00  0.00     0.135 A 
ATOM     79  C   UNL A   1      43.936  32.965  32.706  1.00  0.00     0.135 A 
ATOM     80  F   UNL A   1      44.177  33.794  29.229  1.00  0.00    -0.206 F 
ATOM     81  C   UNL A   1      44.688  35.051  31.226  1.00  0.00     0.059 A 
ATOM     82  C   UNL A   1      44.201  34.184  33.282  1.00  0.00     0.059 A 
ATOM     83  F   UNL A   1      43.556  31.944  33.469  1.00  0.00    -0.206 F 
ATOM     84  C   UNL A   1      44.505  35.273  32.514  1.00  0.00     0.060 A 
BRANCH  84  85
ATOM     85  S   UNL A   1      44.649  36.931  33.225  1.00  0.00     0.124 S 
ATOM     86  O   UNL A   1      46.126  37.320  33.319  1.00  0.00    -0.237 OA
ATOM     87  O   UNL A   1      43.912  37.935  32.334  1.00  0.00    -0.237 OA
ATOM     88  O   UNL A   1      43.957  36.943  34.789  1.00  0.00    -0.744 OA
ENDBRANCH  84  85
ENDBRANCH  52  77
BRANCH  64  89
ATOM     89  C   UNL A   1      48.312  27.314  30.315  1.00  0.00     0.058 A 
ATOM     90  C   UNL A   1      48.733  26.816  31.537  1.00  0.00     0.135 A 
ATOM     91  C   UNL A   1      49.179  27.584  29.345  1.00  0.00     0.135 A 
ATOM     92  F   UNL A   1      47.900  26.298  32.434  1.00  0.00    -0.206 F 
ATOM     93  C   UNL A   1      50.130  26.908  31.742  1.00  0.00     0.059 A 
ATOM     94  C   UNL A   1      50.532  27.522  29.578  1.00  0.00     0.059 A 
ATOM     95  F   UNL A   1      48.733  27.917  28.137  1.00  0.00    -0.206 F 
ATOM     96  C   UNL A   1      51.018  27.095  30.783  1.00  0.00     0.060 A 
BRANCH  96  97
ATOM     97  S   UNL A   1      52.784  26.801  31.047  1.00  0.00     0.124 S 
ATOM     98  O   UNL A   1      53.557  27.167  29.778  1.00  0.00    -0.237 OA
ATOM     99  O   UNL A   1      53.278  27.664  32.211  1.00  0.00    -0.237 OA
ATOM    100  O   UNL A   1      53.039  25.150  31.413  1.00  0.00    -0.744 OA
ENDBRANCH  96  97
ENDBRANCH  64  89
ENDBRANCH  38  39
ENDBRANCH  30  33
ENDBRANCH   1  29
TORSDOF 15
ENDMDL
MODEL 2
REMARK VINA RESULT:     -10.8      0.337      7.994
REMARK SMILES O=C(NCCCNC(=O)c1ccc(-c2c3nc(c(-c4c(F)cc(S(=O)(=O)[O-])cc4F)c4ccc([nH]4)c(-c4c(F)cc(S(=O)(=O)[O-])cc4F)c4nc(c(-c5c(F)cc(S(=O)(=O)[O-])cc5F)c5ccc2[nH]5)C=C4)C=C3)cc1)C1=Cc2cc(S(F)(F)(F)(F)F)cc(Br)c2O[C@H]1C(F)(F)F
REMARK SMILES IDX 6 1 5 2 4 3 3 4 1 5 2 6 76 8 77 9 92 10 78 11 91 12 79 13
REMARK SMILES IDX 90 14 80 15 88 16 87 17 89 18 93 19 94 20 95 21 96 22 81 23
REMARK SMILES IDX 82 24 83 25 84 26 85 27 86 28 7 29 8 30 9 32 10 33 11 34
REMARK SMILES IDX 75 35 12 36 74 37 13 38 14 39 15 40 68 41 16 42 73 43 67 44
REMARK SMILES IDX 69 45 17 46 72 47 66 48 65 49 18 51 52 52 31 53 51 54 32 55
REMARK SMILES IDX 35 56 50 57 70 58 33 59 34 60 49 62 71 63 36 64 19 65 20 66
REMARK SMILES IDX 29 67 21 68 22 69 28 70 30 71 23 72 24 73 25 74 26 75 27 76
REMARK SMILES IDX 53 77 54 78 63 79 55 80 56 81 62 82 64 83 57 84 58 85 59 86
REMARK SMILES IDX 60 87 61 88 37 89 38 90 47 91 39 92 40 93 46 94 48 95 41 96
REMARK SMILES IDX 42 97 43 98 44 99 45 100
REMARK H PARENT 3 7 7 31 69 50 35 61
REMARK Flexibility Score: inf
ROOT
ATOM      1  C   UNL A   1      34.863  32.523  28.365  1.00  0.00     0.118 C 
ENDROOT
BRANCH   1   2
ATOM      2  C   UNL A   1      34.840  32.841  29.851  1.00  0.00     0.042 C 
BRANCH   2   3
ATOM      3  C   UNL A   1      36.264  32.915  30.376  1.00  0.00     0.118 C 
BRANCH   3   4
ATOM      4  N   UNL A   1      36.500  34.240  30.967  1.00  0.00    -0.352 N 
ATOM      5  O   UNL A   1      36.242  35.675  32.844  1.00  0.00    -0.270 OA
ATOM      6  C   UNL A   1      36.038  34.529  32.332  1.00  0.00     0.251 C 
ATOM      7  H   UNL A   1      36.967  34.935  30.449  1.00  0.00     0.163 HD
BRANCH   6   8
ATOM      8  C   UNL A   1      35.316  33.457  33.134  1.00  0.00     0.067 C 
ATOM      9  C   UNL A   1      36.014  32.413  33.656  1.00  0.00     0.025 C 
ATOM     10  C   UNL A   1      33.815  33.552  33.351  1.00  0.00     0.314 C 
ATOM     11  C   UNL A   1      37.516  32.318  33.438  1.00  0.00     0.020 A 
ATOM     12  O   UNL A   1      37.757  34.671  33.674  1.00  0.00    -0.474 OA
ATOM     13  C   UNL A   1      38.028  31.054  33.194  1.00  0.00     0.036 A 
ATOM     14  C   UNL A   1      38.315  33.368  33.586  1.00  0.00     0.142 A 
ATOM     15  C   UNL A   1      39.422  30.948  33.412  1.00  0.00     0.109 A 
ATOM     16  C   UNL A   1      39.678  33.206  33.655  1.00  0.00     0.062 A 
ATOM     17  C   UNL A   1      40.249  31.975  33.483  1.00  0.00     0.044 A 
ATOM     18  Br  UNL A   1      40.819  34.759  34.008  1.00  0.00    -0.047 Br
BRANCH  10  19
ATOM     19  C   UNL A   1      33.282  34.802  32.670  1.00  0.00     0.429 C 
ATOM     20  F   UNL A   1      31.958  34.809  32.790  1.00  0.00    -0.167 F 
ATOM     21  F   UNL A   1      33.791  35.843  33.322  1.00  0.00    -0.167 F 
ATOM     22  F   UNL A   1      33.610  34.881  31.383  1.00  0.00    -0.167 F 
ENDBRANCH  10  19
BRANCH  15  23
ATOM     23  S   UNL A   1      40.120  29.290  33.609  1.00  0.00     0.310 S 
ATOM     24  F   UNL A   1      41.549  29.771  33.115  1.00  0.00    -0.094 F 
ATOM     25  F   UNL A   1      39.772  29.001  32.099  1.00  0.00    -0.094 F 
ATOM     26  F   UNL A   1      40.723  27.866  33.770  1.00  0.00    -0.094 F 
ATOM     27  F   UNL A   1      40.587  29.646  35.075  1.00  0.00    -0.094 F 
ATOM     28  F   UNL A   1      39.614  30.776  33.424  1.00  0.00    -0.094 F 
ENDBRANCH  15  23
ENDBRANCH   6   8
ENDBRANCH   3   4
ENDBRANCH   2   3
ENDBRANCH   1   2
BRANCH   1  29
ATOM     29  N   UNL A   1      34.023  31.345  28.103  1.00  0.00    -0.352 N 
ATOM     30  C   UNL A   1      34.628  30.006  28.061  1.00  0.00     0.251 C 
ATOM     31  H   UNL A   1      33.056  31.453  27.955  1.00  0.00     0.163 HD
ATOM     32  O   UNL A   1      33.902  28.988  27.834  1.00  0.00    -0.269 OA
BRANCH  30  33
ATOM     33  C   UNL A   1      36.121  29.839  28.290  1.00  0.00     0.039 A 
ATOM     34  C   UNL A   1      37.006  30.082  27.252  1.00  0.00     0.014 A 
ATOM     35  C   UNL A   1      36.543  29.374  29.460  1.00  0.00     0.014 A 
ATOM     36  C   UNL A   1      38.292  29.526  27.452  1.00  0.00     0.010 A 
ATOM     37  C   UNL A   1      37.848  28.974  29.624  1.00  0.00     0.010 A 
ATOM     38  C   UNL A   1      38.763  29.130  28.620  1.00  0.00    -0.014 A 
BRANCH  38  39
ATOM     39  C   UNL A   1      40.244  28.864  28.837  1.00  0.00     0.031 A 
ATOM     40  C   UNL A   1      41.005  29.882  29.412  1.00  0.00     0.074 A 
ATOM     41  C   UNL A   1      40.739  27.610  28.523  1.00  0.00     0.049 A 
ATOM     42  N   UNL A   1      42.287  29.830  29.781  1.00  0.00    -0.248 NA
ATOM     43  C   UNL A   1      40.491  31.226  29.715  1.00  0.00     0.031 C 
ATOM     44  C   UNL A   1      39.974  26.574  27.951  1.00  0.00     0.029 A 
ATOM     45  N   UNL A   1      42.021  27.139  28.696  1.00  0.00    -0.354 N 
ATOM     46  C   UNL A   1      42.661  30.997  30.311  1.00  0.00     0.074 A 
ATOM     47  C   UNL A   1      41.513  31.913  30.270  1.00  0.00     0.031 C 
ATOM     48  C   UNL A   1      40.786  25.499  27.771  1.00  0.00     0.029 A 
ATOM     49  C   UNL A   1      42.073  25.846  28.229  1.00  0.00     0.049 A 
ATOM     50  H   UNL A   1      42.773  27.643  29.087  1.00  0.00     0.167 HD
ATOM     51  C   UNL A   1      43.914  31.331  30.828  1.00  0.00     0.037 A 
ATOM     52  C   UNL A   1      43.170  24.998  28.192  1.00  0.00     0.037 A 
ATOM     53  C   UNL A   1      44.999  30.469  30.830  1.00  0.00     0.049 A 
ATOM     54  C   UNL A   1      44.438  25.353  28.656  1.00  0.00     0.074 A 
ATOM     55  C   UNL A   1      46.267  30.789  31.355  1.00  0.00     0.029 A 
ATOM     56  N   UNL A   1      45.057  29.184  30.341  1.00  0.00    -0.354 N 
ATOM     57  N   UNL A   1      44.802  26.505  29.222  1.00  0.00    -0.248 NA
ATOM     58  C   UNL A   1      45.614  24.476  28.593  1.00  0.00     0.031 C 
ATOM     59  C   UNL A   1      47.079  29.714  31.174  1.00  0.00     0.029 A 
ATOM     60  C   UNL A   1      46.333  28.706  30.535  1.00  0.00     0.049 A 
ATOM     61  H   UNL A   1      44.312  28.691  29.924  1.00  0.00     0.167 HD
ATOM     62  C   UNL A   1      46.093  26.467  29.553  1.00  0.00     0.074 A 
ATOM     63  C   UNL A   1      46.638  25.164  29.146  1.00  0.00     0.031 C 
ATOM     64  C   UNL A   1      46.841  27.466  30.181  1.00  0.00     0.037 A 
BRANCH  51  65
ATOM     65  C   UNL A   1      44.098  32.720  31.419  1.00  0.00     0.058 A 
ATOM     66  C   UNL A   1      44.410  33.797  30.607  1.00  0.00     0.135 A 
ATOM     67  C   UNL A   1      43.972  32.861  32.733  1.00  0.00     0.135 A 
ATOM     68  F   UNL A   1      44.298  33.763  29.282  1.00  0.00    -0.206 F 
ATOM     69  C   UNL A   1      44.856  34.937  31.315  1.00  0.00     0.059 A 
ATOM     70  C   UNL A   1      44.297  34.048  33.344  1.00  0.00     0.059 A 
ATOM     71  F   UNL A   1      43.525  31.845  33.466  1.00  0.00    -0.206 F 
ATOM     72  C   UNL A   1      44.672  35.138  32.607  1.00  0.00     0.060 A 
BRANCH  72  73
ATOM     73  S   UNL A   1      44.900  36.766  33.363  1.00  0.00     0.124 S 
ATOM     74  O   UNL A   1      45.543  36.603  34.742  1.00  0.00    -0.237 OA
ATOM     75  O   UNL A   1      45.809  37.618  32.474  1.00  0.00    -0.237 OA
ATOM     76  O   UNL A   1      43.383  37.536  33.530  1.00  0.00    -0.744 OA
ENDBRANCH  72  73
ENDBRANCH  51  65
BRANCH  52  77
ATOM     77  C   UNL A   1      42.981  23.605  27.615  1.00  0.00     0.058 A 
ATOM     78  C   UNL A   1      43.224  23.356  26.273  1.00  0.00     0.135 A 
ATOM     79  C   UNL A   1      42.596  22.636  28.437  1.00  0.00     0.135 A 
ATOM     80  F   UNL A   1      43.846  24.220  25.476  1.00  0.00    -0.206 F 
ATOM     81  C   UNL A   1      42.750  22.098  25.830  1.00  0.00     0.059 A 
ATOM     82  C   UNL A   1      42.279  21.391  27.950  1.00  0.00     0.059 A 
ATOM     83  F   UNL A   1      42.518  22.873  29.743  1.00  0.00    -0.206 F 
ATOM     84  C   UNL A   1      42.437  21.092  26.625  1.00  0.00     0.060 A 
BRANCH  84  85
ATOM     85  S   UNL A   1      42.231  19.408  25.996  1.00  0.00     0.124 S 
ATOM     86  O   UNL A   1      43.043  19.241  24.710  1.00  0.00    -0.237 OA
ATOM     87  O   UNL A   1      42.723  18.407  27.044  1.00  0.00    -0.237 OA
ATOM     88  O   UNL A   1      40.577  19.121  25.667  1.00  0.00    -0.744 OA
ENDBRANCH  84  85
ENDBRANCH  52  77
BRANCH  64  89
ATOM     89  C   UNL A   1      48.299  27.175  30.494  1.00  0.00     0.058 A 
ATOM     90  C   UNL A   1      48.631  26.554  31.687  1.00  0.00     0.135 A 
ATOM     91  C   UNL A   1      49.235  27.560  29.634  1.00  0.00     0.135 A 
ATOM     92  F   UNL A   1      47.741  25.932  32.452  1.00  0.00    -0.206 F 
ATOM     93  C   UNL A   1      50.005  26.644  32.017  1.00  0.00     0.059 A 
ATOM     94  C   UNL A   1      50.566  27.493  29.971  1.00  0.00     0.059 A 
ATOM     95  F   UNL A   1      48.882  28.014  28.435  1.00  0.00    -0.206 F 
ATOM     96  C   UNL A   1      50.963  26.946  31.160  1.00  0.00     0.060 A 
BRANCH  96  97
ATOM     97  S   UNL A   1      52.708  26.651  31.537  1.00  0.00     0.124 S 
ATOM     98  O   UNL A   1      53.311  27.905  32.175  1.00  0.00    -0.237 OA
ATOM     99  O   UNL A   1      52.829  25.476  32.511  1.00  0.00    -0.237 OA
ATOM    100  O   UNL A   1      53.550  26.285  30.095  1.00  0.00    -0.744 OA
ENDBRANCH  96  97
ENDBRANCH  64  89
ENDBRANCH  38  39
ENDBRANCH  30  33
ENDBRANCH   1  29
TORSDOF 15
ENDMDL
MODEL 3
REMARK VINA RESULT:     -10.7      4.479      6.848
REMARK SMILES O=C(NCCCNC(=O)c1ccc(-c2c3nc(c(-c4c(F)cc(S(=O)(=O)[O-])cc4F)c4ccc([nH]4)c(-c4c(F)cc(S(=O)(=O)[O-])cc4F)c4nc(c(-c5c(F)cc(S(=O)(=O)[O-])cc5F)c5ccc2[nH]5)C=C4)C=C3)cc1)C1=Cc2cc(S(F)(F)(F)(F)F)cc(Br)c2O[C@H]1C(F)(F)F
REMARK SMILES IDX 6 1 5 2 4 3 3 4 1 5 2 6 76 8 77 9 92 10 78 11 91 12 79 13
REMARK SMILES IDX 90 14 80 15 88 16 87 17 89 18 93 19 94 20 95 21 96 22 81 23
REMARK SMILES IDX 82 24 83 25 84 26 85 27 86 28 7 29 8 30 9 32 10 33 11 34
REMARK SMILES IDX 75 35 12 36 74 37 13 38 14 39 15 40 68 41 16 42 73 43 67 44
REMARK SMILES IDX 69 45 17 46 72 47 66 48 65 49 18 51 52 52 31 53 51 54 32 55
REMARK SMILES IDX 35 56 50 57 70 58 33 59 34 60 49 62 71 63 36 64 19 65 20 66
REMARK SMILES IDX 29 67 21 68 22 69 28 70 30 71 23 72 24 73 25 74 26 75 27 76
REMARK SMILES IDX 53 77 54 78 63 79 55 80 56 81 62 82 64 83 57 84 58 85 59 86
REMARK SMILES IDX 60 87 61 88 37 89 38 90 47 91 39 92 40 93 46 94 48 95 41 96
REMARK SMILES IDX 42 97 43 98 44 99 45 100
REMARK H PARENT 3 7 7 31 69 50 35 61
REMARK Flexibility Score: inf
ROOT
ATOM      1  C   UNL A   1      35.483  29.426  27.702  1.00  0.00     0.118 C 
ENDROOT
BRANCH   1   2
ATOM      2  C   UNL A   1      34.233  29.488  26.840  1.00  0.00     0.042 C 
BRANCH   2   3
ATOM      3  C   UNL A   1      34.031  28.153  26.143  1.00  0.00     0.118 C 
BRANCH   3   4
ATOM      4  N   UNL A   1      32.667  27.669  26.398  1.00  0.00    -0.352 N 
ATOM      5  O   UNL A   1      30.727  26.594  25.545  1.00  0.00    -0.270 OA
ATOM      6  C   UNL A   1      31.907  27.012  25.324  1.00  0.00     0.251 C 
ATOM      7  H   UNL A   1      32.261  27.785  27.287  1.00  0.00     0.163 HD
BRANCH   6   8
ATOM      8  C   UNL A   1      32.532  26.833  23.950  1.00  0.00     0.067 C 
ATOM      9  C   UNL A   1      33.476  25.874  23.752  1.00  0.00     0.025 C 
ATOM     10  C   UNL A   1      32.104  27.726  22.798  1.00  0.00     0.314 C 
ATOM     11  C   UNL A   1      33.905  24.981  24.906  1.00  0.00     0.020 A 
ATOM     12  O   UNL A   1      31.678  24.878  25.730  1.00  0.00    -0.474 OA
ATOM     13  C   UNL A   1      35.254  24.676  24.984  1.00  0.00     0.036 A 
ATOM     14  C   UNL A   1      33.024  24.425  25.729  1.00  0.00     0.142 A 
ATOM     15  C   UNL A   1      35.540  23.544  25.784  1.00  0.00     0.109 A 
ATOM     16  C   UNL A   1      33.403  23.416  26.582  1.00  0.00     0.062 A 
ATOM     17  C   UNL A   1      34.710  23.023  26.669  1.00  0.00     0.044 A 
ATOM     18  Br  UNL A   1      32.051  22.528  27.688  1.00  0.00    -0.047 Br
BRANCH  10  19
ATOM     19  C   UNL A   1      31.046  28.706  23.281  1.00  0.00     0.429 C 
ATOM     20  F   UNL A   1      31.552  29.397  24.298  1.00  0.00    -0.167 F 
ATOM     21  F   UNL A   1      30.793  29.529  22.268  1.00  0.00    -0.167 F 
ATOM     22  F   UNL A   1      29.918  28.115  23.665  1.00  0.00    -0.167 F 
ENDBRANCH  10  19
BRANCH  15  23
ATOM     23  S   UNL A   1      37.157  22.757  25.581  1.00  0.00     0.310 S 
ATOM     24  F   UNL A   1      37.592  23.806  24.474  1.00  0.00    -0.094 F 
ATOM     25  F   UNL A   1      36.549  21.885  24.417  1.00  0.00    -0.094 F 
ATOM     26  F   UNL A   1      38.545  22.080  25.398  1.00  0.00    -0.094 F 
ATOM     27  F   UNL A   1      37.783  23.735  26.652  1.00  0.00    -0.094 F 
ATOM     28  F   UNL A   1      35.783  23.529  25.699  1.00  0.00    -0.094 F 
ENDBRANCH  15  23
ENDBRANCH   6   8
ENDBRANCH   3   4
ENDBRANCH   2   3
ENDBRANCH   1   2
BRANCH   1  29
ATOM     29  N   UNL A   1      35.229  30.097  28.985  1.00  0.00    -0.352 N 
ATOM     30  C   UNL A   1      36.329  30.303  29.938  1.00  0.00     0.251 C 
ATOM     31  H   UNL A   1      34.321  30.408  29.206  1.00  0.00     0.163 HD
ATOM     32  O   UNL A   1      36.109  30.883  31.047  1.00  0.00    -0.269 OA
BRANCH  30  33
ATOM     33  C   UNL A   1      37.730  29.822  29.596  1.00  0.00     0.039 A 
ATOM     34  C   UNL A   1      38.564  29.365  30.604  1.00  0.00     0.014 A 
ATOM     35  C   UNL A   1      38.160  29.935  28.345  1.00  0.00     0.014 A 
ATOM     36  C   UNL A   1      39.931  29.325  30.243  1.00  0.00     0.010 A 
ATOM     37  C   UNL A   1      39.489  29.750  28.043  1.00  0.00     0.010 A 
ATOM     38  C   UNL A   1      40.379  29.356  29.002  1.00  0.00    -0.014 A 
BRANCH  38  39
ATOM     39  C   UNL A   1      41.810  28.972  28.657  1.00  0.00     0.031 A 
ATOM     40  C   UNL A   1      42.053  27.646  28.299  1.00  0.00     0.074 A 
ATOM     41  C   UNL A   1      42.772  29.967  28.647  1.00  0.00     0.049 A 
ATOM     42  N   UNL A   1      43.200  27.117  27.867  1.00  0.00    -0.248 NA
ATOM     43  C   UNL A   1      41.041  26.580  28.343  1.00  0.00     0.031 C 
ATOM     44  C   UNL A   1      42.532  31.309  28.998  1.00  0.00     0.029 A 
ATOM     45  N   UNL A   1      44.102  29.853  28.308  1.00  0.00    -0.354 N 
ATOM     46  C   UNL A   1      43.040  25.818  27.606  1.00  0.00     0.074 A 
ATOM     47  C   UNL A   1      41.650  25.453  27.914  1.00  0.00     0.031 C 
ATOM     48  C   UNL A   1      43.701  31.992  28.883  1.00  0.00     0.029 A 
ATOM     49  C   UNL A   1      44.693  31.087  28.458  1.00  0.00     0.049 A 
ATOM     50  H   UNL A   1      44.553  29.029  28.009  1.00  0.00     0.167 HD
ATOM     51  C   UNL A   1      43.996  24.925  27.121  1.00  0.00     0.037 A 
ATOM     52  C   UNL A   1      46.020  31.425  28.243  1.00  0.00     0.037 A 
ATOM     53  C   UNL A   1      45.313  25.274  26.865  1.00  0.00     0.049 A 
ATOM     54  C   UNL A   1      46.991  30.518  27.814  1.00  0.00     0.074 A 
ATOM     55  C   UNL A   1      46.288  24.387  26.369  1.00  0.00     0.029 A 
ATOM     56  N   UNL A   1      45.909  26.502  27.038  1.00  0.00    -0.354 N 
ATOM     57  N   UNL A   1      46.821  29.229  27.515  1.00  0.00    -0.248 NA
ATOM     58  C   UNL A   1      48.406  30.858  27.614  1.00  0.00     0.031 C 
ATOM     59  C   UNL A   1      47.458  25.069  26.255  1.00  0.00     0.029 A 
ATOM     60  C   UNL A   1      47.233  26.394  26.677  1.00  0.00     0.049 A 
ATOM     61  H   UNL A   1      45.465  27.319  27.365  1.00  0.00     0.167 HD
ATOM     62  C   UNL A   1      47.977  28.692  27.122  1.00  0.00     0.074 A 
ATOM     63  C   UNL A   1      49.016  29.730  27.187  1.00  0.00     0.031 C 
ATOM     64  C   UNL A   1      48.208  27.378  26.708  1.00  0.00     0.037 A 
BRANCH  51  65
ATOM     65  C   UNL A   1      43.570  23.489  26.860  1.00  0.00     0.058 A 
ATOM     66  C   UNL A   1      43.227  23.075  25.584  1.00  0.00     0.135 A 
ATOM     67  C   UNL A   1      43.516  22.656  27.893  1.00  0.00     0.135 A 
ATOM     68  F   UNL A   1      43.502  23.785  24.492  1.00  0.00    -0.206 F 
ATOM     69  C   UNL A   1      42.559  21.829  25.546  1.00  0.00     0.059 A 
ATOM     70  C   UNL A   1      42.973  21.402  27.752  1.00  0.00     0.059 A 
ATOM     71  F   UNL A   1      43.994  23.038  29.073  1.00  0.00    -0.206 F 
ATOM     72  C   UNL A   1      42.558  20.949  26.530  1.00  0.00     0.060 A 
BRANCH  72  73
ATOM     73  S   UNL A   1      42.038  19.234  26.276  1.00  0.00     0.124 S 
ATOM     74  O   UNL A   1      40.559  19.202  25.887  1.00  0.00    -0.237 OA
ATOM     75  O   UNL A   1      42.873  18.609  25.156  1.00  0.00    -0.237 OA
ATOM     76  O   UNL A   1      42.267  18.348  27.720  1.00  0.00    -0.744 OA
ENDBRANCH  72  73
ENDBRANCH  51  65
BRANCH  52  77
ATOM     77  C   UNL A   1      46.442  32.864  28.489  1.00  0.00     0.058 A 
ATOM     78  C   UNL A   1      46.914  33.262  29.730  1.00  0.00     0.135 A 
ATOM     79  C   UNL A   1      46.363  33.719  27.476  1.00  0.00     0.135 A 
ATOM     80  F   UNL A   1      47.248  32.402  30.689  1.00  0.00    -0.206 F 
ATOM     81  C   UNL A   1      47.007  34.666  29.884  1.00  0.00     0.059 A 
ATOM     82  C   UNL A   1      46.600  35.059  27.671  1.00  0.00     0.059 A 
ATOM     83  F   UNL A   1      46.051  33.275  26.262  1.00  0.00    -0.206 F 
ATOM     84  C   UNL A   1      47.011  35.530  28.887  1.00  0.00     0.060 A 
BRANCH  84  85
ATOM     85  S   UNL A   1      47.533  37.248  29.117  1.00  0.00     0.124 S 
ATOM     86  O   UNL A   1      47.466  37.607  30.602  1.00  0.00    -0.237 OA
ATOM     87  O   UNL A   1      48.970  37.416  28.615  1.00  0.00    -0.237 OA
ATOM     88  O   UNL A   1      46.496  38.282  28.233  1.00  0.00    -0.744 OA
ENDBRANCH  84  85
ENDBRANCH  52  77
BRANCH  64  89
ATOM     89  C   UNL A   1      49.614  27.006  26.266  1.00  0.00     0.058 A 
ATOM     90  C   UNL A   1      49.980  27.175  24.940  1.00  0.00     0.135 A 
ATOM     91  C   UNL A   1      50.455  26.486  27.152  1.00  0.00     0.135 A 
ATOM     92  F   UNL A   1      49.280  27.911  24.083  1.00  0.00    -0.206 F 
ATOM     93  C   UNL A   1      51.166  26.491  24.583  1.00  0.00     0.059 A 
ATOM     94  C   UNL A   1      51.658  25.958  26.749  1.00  0.00     0.059 A 
ATOM     95  F   UNL A   1      50.130  26.476  28.442  1.00  0.00    -0.206 F 
ATOM     96  C   UNL A   1      52.058  26.036  25.444  1.00  0.00     0.060 A 
BRANCH  96  97
ATOM     97  S   UNL A   1      53.720  25.543  24.925  1.00  0.00     0.124 S 
ATOM     98  O   UNL A   1      54.022  26.141  23.549  1.00  0.00    -0.237 OA
ATOM     99  O   UNL A   1      54.745  26.056  25.939  1.00  0.00    -0.237 OA
ATOM    100  O   UNL A   1      53.808  23.838  24.837  1.00  0.00    -0.744 OA
ENDBRANCH  96  97
ENDBRANCH  64  89
ENDBRANCH  38  39
ENDBRANCH  30  33
ENDBRANCH   1  29
TORSDOF 15
ENDMDL
