MODEL 1
REMARK VINA RESULT:     -12.0      0.000      0.000
REMARK SMILES CC1(C)C(C(=O)Nc2ccc(CC(=O)NCCCNC(=O)c3ccc(-c4c5nc(c(-c6c(F)cc(S(=O)(=O)[O-])cc6F)c6ccc([nH]6)c(-c6c(F)cc(S(=O)(=O)[O-])cc6F)c6nc(c(-c7c(F)cc(S(=O)(=O)[O-])cc7F)c7ccc4[nH]7)C=C6)C=C5)cc3)cc2)C1(C)C
REMARK SMILES IDX 17 1 16 2 15 3 13 4 14 5 12 7 11 8 8 9 9 10 89 11 10 12
REMARK SMILES IDX 88 13 7 14 5 15 6 16 4 18 1 19 2 20 3 21 90 22 91 23 92 24
REMARK SMILES IDX 18 25 19 26 20 27 21 29 22 30 23 31 87 32 24 33 86 34 25 35
REMARK SMILES IDX 26 36 27 37 80 38 28 39 85 40 79 41 81 42 29 43 84 44 78 45
REMARK SMILES IDX 77 46 30 48 64 49 43 50 63 51 44 52 47 53 62 54 82 55 45 56
REMARK SMILES IDX 46 57 61 59 83 60 48 61 31 62 32 63 41 64 33 65 34 66 40 67
REMARK SMILES IDX 42 68 35 69 36 70 37 71 38 72 39 73 65 74 66 75 75 76 67 77
REMARK SMILES IDX 68 78 74 79 76 80 69 81 70 82 71 83 72 84 73 85 49 86 50 87
REMARK SMILES IDX 59 88 51 89 52 90 58 91 60 92 53 93 54 94 55 95 56 96 57 97
REMARK H PARENT 15 6 7 17 19 28 81 47 47 58
REMARK Flexibility Score: inf
ROOT
ATOM      1  C   UNL A   1      33.461  27.850  25.246  1.00  0.00     0.042 C 
ENDROOT
BRANCH   1   2
ATOM      2  C   UNL A   1      32.353  28.831  24.870  1.00  0.00     0.117 C 
BRANCH   2   3
ATOM      3  N   UNL A   1      31.891  28.636  23.508  1.00  0.00    -0.356 N 
ATOM      4  C   UNL A   1      30.825  27.919  23.046  1.00  0.00     0.224 C 
ATOM      5  O   UNL A   1      30.643  27.868  21.827  1.00  0.00    -0.275 OA
ATOM      6  H   UNL A   1      32.425  29.088  22.817  1.00  0.00     0.163 HD
BRANCH   4   7
ATOM      7  C   UNL A   1      29.849  27.278  24.008  1.00  0.00     0.135 C 
BRANCH   7   8
ATOM      8  C   UNL A   1      30.134  25.843  24.369  1.00  0.00    -0.039 A 
ATOM      9  C   UNL A   1      31.087  23.276  24.923  1.00  0.00     0.041 A 
ATOM     10  C   UNL A   1      30.752  24.125  25.977  1.00  0.00     0.026 A 
ATOM     11  C   UNL A   1      30.709  23.610  23.636  1.00  0.00     0.026 A 
ATOM     12  C   UNL A   1      30.269  25.414  25.697  1.00  0.00     0.006 A 
ATOM     13  C   UNL A   1      30.326  24.909  23.350  1.00  0.00     0.006 A 
BRANCH   9  14
ATOM     14  N   UNL A   1      31.888  22.146  25.136  1.00  0.00    -0.326 N 
ATOM     15  C   UNL A   1      32.891  21.737  24.278  1.00  0.00     0.228 C 
ATOM     16  O   UNL A   1      32.811  20.643  23.728  1.00  0.00    -0.274 OA
ATOM     17  H   UNL A   1      31.724  21.609  25.944  1.00  0.00     0.169 HD
BRANCH  15  18
ATOM     18  C   UNL A   1      34.233  22.424  24.253  1.00  0.00     0.091 C 
ATOM     19  C   UNL A   1      35.260  24.572  25.247  1.00  0.00     0.012 C 
ATOM     20  C   UNL A   1      34.938  23.099  25.440  1.00  0.00    -0.017 C 
ATOM     21  C   UNL A   1      34.659  22.855  26.901  1.00  0.00     0.012 C 
ATOM     22  C   UNL A   1      35.655  22.007  24.593  1.00  0.00    -0.017 C 
ATOM     23  C   UNL A   1      36.757  22.461  23.653  1.00  0.00     0.012 C 
ATOM     24  C   UNL A   1      35.960  20.615  25.090  1.00  0.00     0.012 C 
ENDBRANCH  15  18
ENDBRANCH   9  14
ENDBRANCH   7   8
ENDBRANCH   4   7
ENDBRANCH   2   3
ENDBRANCH   1   2
BRANCH   1  25
ATOM     25  C   UNL A   1      34.217  28.235  26.501  1.00  0.00     0.118 C 
BRANCH  25  26
ATOM     26  N   UNL A   1      33.811  29.534  27.012  1.00  0.00    -0.352 N 
ATOM     27  C   UNL A   1      34.480  30.375  27.870  1.00  0.00     0.251 C 
ATOM     28  H   UNL A   1      32.935  29.857  26.698  1.00  0.00     0.163 HD
ATOM     29  O   UNL A   1      33.903  31.341  28.347  1.00  0.00    -0.269 OA
BRANCH  27  30
ATOM     30  C   UNL A   1      35.888  30.085  28.223  1.00  0.00     0.039 A 
ATOM     31  C   UNL A   1      36.186  29.625  29.508  1.00  0.00     0.014 A 
ATOM     32  C   UNL A   1      36.907  30.261  27.283  1.00  0.00     0.014 A 
ATOM     33  C   UNL A   1      37.501  29.282  29.832  1.00  0.00     0.010 A 
ATOM     34  C   UNL A   1      38.196  29.838  27.579  1.00  0.00     0.010 A 
ATOM     35  C   UNL A   1      38.510  29.355  28.858  1.00  0.00    -0.014 A 
BRANCH  35  36
ATOM     36  C   UNL A   1      39.915  28.968  29.139  1.00  0.00     0.031 A 
ATOM     37  C   UNL A   1      40.870  30.007  29.660  1.00  0.00     0.074 A 
ATOM     38  C   UNL A   1      40.353  27.733  28.827  1.00  0.00     0.049 A 
ATOM     39  N   UNL A   1      42.170  29.949  29.784  1.00  0.00    -0.248 NA
ATOM     40  C   UNL A   1      40.285  31.298  30.061  1.00  0.00     0.031 C 
ATOM     41  C   UNL A   1      39.525  26.647  28.296  1.00  0.00     0.029 A 
ATOM     42  N   UNL A   1      41.614  27.191  28.880  1.00  0.00    -0.354 N 
ATOM     43  C   UNL A   1      42.560  31.201  30.245  1.00  0.00     0.074 A 
ATOM     44  C   UNL A   1      41.367  32.012  30.335  1.00  0.00     0.031 C 
ATOM     45  C   UNL A   1      40.298  25.571  28.078  1.00  0.00     0.029 A 
ATOM     46  C   UNL A   1      41.682  25.904  28.400  1.00  0.00     0.049 A 
ATOM     47  H   UNL A   1      42.395  27.678  29.231  1.00  0.00     0.167 HD
ATOM     48  C   UNL A   1      43.801  31.628  30.579  1.00  0.00     0.037 A 
ATOM     49  C   UNL A   1      42.744  25.096  28.213  1.00  0.00     0.037 A 
ATOM     50  C   UNL A   1      44.975  30.799  30.512  1.00  0.00     0.049 A 
ATOM     51  C   UNL A   1      44.120  25.598  28.571  1.00  0.00     0.074 A 
ATOM     52  C   UNL A   1      46.271  31.119  30.873  1.00  0.00     0.029 A 
ATOM     53  N   UNL A   1      44.995  29.490  30.055  1.00  0.00    -0.354 N 
ATOM     54  N   UNL A   1      44.469  26.772  29.044  1.00  0.00    -0.248 NA
ATOM     55  C   UNL A   1      45.244  24.674  28.372  1.00  0.00     0.031 C 
ATOM     56  C   UNL A   1      47.085  30.019  30.587  1.00  0.00     0.029 A 
ATOM     57  C   UNL A   1      46.286  28.993  30.108  1.00  0.00     0.049 A 
ATOM     58  H   UNL A   1      44.209  28.989  29.739  1.00  0.00     0.167 HD
ATOM     59  C   UNL A   1      45.845  26.708  29.241  1.00  0.00     0.074 A 
ATOM     60  C   UNL A   1      46.265  25.387  28.829  1.00  0.00     0.031 C 
ATOM     61  C   UNL A   1      46.680  27.658  29.728  1.00  0.00     0.037 A 
BRANCH  48  62
ATOM     62  C   UNL A   1      43.952  33.051  31.042  1.00  0.00     0.058 A 
ATOM     63  C   UNL A   1      43.897  33.397  32.401  1.00  0.00     0.135 A 
ATOM     64  C   UNL A   1      44.192  34.079  30.116  1.00  0.00     0.135 A 
ATOM     65  F   UNL A   1      43.655  32.458  33.330  1.00  0.00    -0.206 F 
ATOM     66  C   UNL A   1      44.043  34.714  32.824  1.00  0.00     0.059 A 
ATOM     67  C   UNL A   1      44.374  35.399  30.517  1.00  0.00     0.059 A 
ATOM     68  F   UNL A   1      44.254  33.806  28.802  1.00  0.00    -0.206 F 
ATOM     69  C   UNL A   1      44.282  35.709  31.873  1.00  0.00     0.060 A 
BRANCH  69  70
ATOM     70  S   UNL A   1      44.473  37.411  32.440  1.00  0.00     0.124 S 
ATOM     71  O   UNL A   1      44.123  38.160  31.236  1.00  0.00    -0.237 OA
ATOM     72  O   UNL A   1      43.509  37.485  33.534  1.00  0.00    -0.237 OA
ATOM     73  O   UNL A   1      45.876  37.483  32.838  1.00  0.00    -0.744 OA
ENDBRANCH  69  70
ENDBRANCH  48  62
BRANCH  49  74
ATOM     74  C   UNL A   1      42.550  23.722  27.672  1.00  0.00     0.058 A 
ATOM     75  C   UNL A   1      42.468  22.617  28.532  1.00  0.00     0.135 A 
ATOM     76  C   UNL A   1      42.432  23.484  26.294  1.00  0.00     0.135 A 
ATOM     77  F   UNL A   1      42.580  22.790  29.858  1.00  0.00    -0.206 F 
ATOM     78  C   UNL A   1      42.298  21.325  28.047  1.00  0.00     0.059 A 
ATOM     79  C   UNL A   1      42.232  22.204  25.785  1.00  0.00     0.059 A 
ATOM     80  F   UNL A   1      42.490  24.509  25.428  1.00  0.00    -0.206 F 
ATOM     81  C   UNL A   1      42.179  21.129  26.670  1.00  0.00     0.060 A 
BRANCH  81  82
ATOM     82  S   UNL A   1      41.933  19.447  26.058  1.00  0.00     0.124 S 
ATOM     83  O   UNL A   1      42.391  18.653  27.193  1.00  0.00    -0.237 OA
ATOM     84  O   UNL A   1      40.496  19.423  25.802  1.00  0.00    -0.237 OA
ATOM     85  O   UNL A   1      42.779  19.391  24.870  1.00  0.00    -0.744 OA
ENDBRANCH  81  82
ENDBRANCH  49  74
BRANCH  61  86
ATOM     86  C   UNL A   1      48.127  27.299  29.919  1.00  0.00     0.058 A 
ATOM     87  C   UNL A   1      49.100  27.594  28.952  1.00  0.00     0.135 A 
ATOM     88  C   UNL A   1      48.559  26.768  31.146  1.00  0.00     0.135 A 
ATOM     89  F   UNL A   1      48.739  28.094  27.760  1.00  0.00    -0.206 F 
ATOM     90  C   UNL A   1      50.453  27.379  29.198  1.00  0.00     0.059 A 
ATOM     91  C   UNL A   1      49.907  26.570  31.422  1.00  0.00     0.059 A 
ATOM     92  F   UNL A   1      47.667  26.476  32.106  1.00  0.00    -0.206 F 
ATOM     93  C   UNL A   1      50.847  26.881  30.443  1.00  0.00     0.060 A 
BRANCH  93  94
ATOM     94  S   UNL A   1      52.612  26.702  30.783  1.00  0.00     0.124 S 
ATOM     95  O   UNL A   1      53.154  26.517  29.440  1.00  0.00    -0.237 OA
ATOM     96  O   UNL A   1      52.934  27.971  31.428  1.00  0.00    -0.237 OA
ATOM     97  O   UNL A   1      52.674  25.530  31.650  1.00  0.00    -0.744 OA
ENDBRANCH  93  94
ENDBRANCH  61  86
ENDBRANCH  35  36
ENDBRANCH  27  30
ENDBRANCH  25  26
ENDBRANCH   1  25
TORSDOF 16
ENDMDL
MODEL 2
REMARK VINA RESULT:     -11.8      4.850     10.477
REMARK SMILES CC1(C)C(C(=O)Nc2ccc(CC(=O)NCCCNC(=O)c3ccc(-c4c5nc(c(-c6c(F)cc(S(=O)(=O)[O-])cc6F)c6ccc([nH]6)c(-c6c(F)cc(S(=O)(=O)[O-])cc6F)c6nc(c(-c7c(F)cc(S(=O)(=O)[O-])cc7F)c7ccc4[nH]7)C=C6)C=C5)cc3)cc2)C1(C)C
REMARK SMILES IDX 17 1 16 2 15 3 13 4 14 5 12 7 11 8 8 9 9 10 89 11 10 12
REMARK SMILES IDX 88 13 7 14 5 15 6 16 4 18 1 19 2 20 3 21 90 22 91 23 92 24
REMARK SMILES IDX 18 25 19 26 20 27 21 29 22 30 23 31 87 32 24 33 86 34 25 35
REMARK SMILES IDX 26 36 27 37 80 38 28 39 85 40 79 41 81 42 29 43 84 44 78 45
REMARK SMILES IDX 77 46 30 48 64 49 43 50 63 51 44 52 47 53 62 54 82 55 45 56
REMARK SMILES IDX 46 57 61 59 83 60 48 61 31 62 32 63 41 64 33 65 34 66 40 67
REMARK SMILES IDX 42 68 35 69 36 70 37 71 38 72 39 73 65 74 66 75 75 76 67 77
REMARK SMILES IDX 68 78 74 79 76 80 69 81 70 82 71 83 72 84 73 85 49 86 50 87
REMARK SMILES IDX 59 88 51 89 52 90 58 91 60 92 53 93 54 94 55 95 56 96 57 97
REMARK H PARENT 15 6 7 17 19 28 81 47 47 58
REMARK Flexibility Score: inf
ROOT
ATOM      1  C   UNL A   1      37.229  23.683  25.395  1.00  0.00     0.042 C 
ENDROOT
BRANCH   1   2
ATOM      2  C   UNL A   1      36.963  22.180  25.399  1.00  0.00     0.117 C 
BRANCH   2   3
ATOM      3  N   UNL A   1      35.909  21.816  26.326  1.00  0.00    -0.356 N 
ATOM      4  C   UNL A   1      34.644  21.370  26.072  1.00  0.00     0.224 C 
ATOM      5  O   UNL A   1      33.901  21.151  27.032  1.00  0.00    -0.275 OA
ATOM      6  H   UNL A   1      36.140  21.903  27.278  1.00  0.00     0.163 HD
BRANCH   4   7
ATOM      7  C   UNL A   1      34.198  21.072  24.657  1.00  0.00     0.135 C 
BRANCH   7   8
ATOM      8  C   UNL A   1      33.423  22.168  23.971  1.00  0.00    -0.039 A 
ATOM      9  C   UNL A   1      31.989  24.402  23.103  1.00  0.00     0.041 A 
ATOM     10  C   UNL A   1      33.319  24.247  22.713  1.00  0.00     0.026 A 
ATOM     11  C   UNL A   1      31.325  23.341  23.690  1.00  0.00     0.026 A 
ATOM     12  C   UNL A   1      34.037  23.122  23.148  1.00  0.00     0.006 A 
ATOM     13  C   UNL A   1      32.051  22.280  24.202  1.00  0.00     0.006 A 
BRANCH   9  14
ATOM     14  N   UNL A   1      31.349  25.645  23.000  1.00  0.00    -0.326 N 
ATOM     15  C   UNL A   1      30.709  26.273  24.052  1.00  0.00     0.228 C 
ATOM     16  O   UNL A   1      29.503  26.496  23.981  1.00  0.00    -0.274 OA
ATOM     17  H   UNL A   1      31.355  26.098  22.127  1.00  0.00     0.169 HD
BRANCH  15  18
ATOM     18  C   UNL A   1      31.481  26.994  25.127  1.00  0.00     0.091 C 
ATOM     19  C   UNL A   1      33.912  27.026  25.989  1.00  0.00     0.012 C 
ATOM     20  C   UNL A   1      32.897  27.577  25.001  1.00  0.00    -0.017 C 
ATOM     21  C   UNL A   1      33.611  27.920  23.718  1.00  0.00     0.012 C 
ATOM     22  C   UNL A   1      31.706  28.454  25.486  1.00  0.00    -0.017 C 
ATOM     23  C   UNL A   1      31.662  28.823  26.957  1.00  0.00     0.012 C 
ATOM     24  C   UNL A   1      31.082  29.560  24.671  1.00  0.00     0.012 C 
ENDBRANCH  15  18
ENDBRANCH   9  14
ENDBRANCH   7   8
ENDBRANCH   4   7
ENDBRANCH   2   3
ENDBRANCH   1   2
BRANCH   1  25
ATOM     25  C   UNL A   1      38.171  24.140  26.491  1.00  0.00     0.118 C 
BRANCH  25  26
ATOM     26  N   UNL A   1      39.561  23.859  26.174  1.00  0.00    -0.352 N 
ATOM     27  C   UNL A   1      40.689  24.564  26.524  1.00  0.00     0.251 C 
ATOM     28  H   UNL A   1      39.718  23.051  25.633  1.00  0.00     0.163 HD
ATOM     29  O   UNL A   1      41.762  24.291  26.006  1.00  0.00    -0.269 OA
BRANCH  27  30
ATOM     30  C   UNL A   1      40.584  25.662  27.511  1.00  0.00     0.039 A 
ATOM     31  C   UNL A   1      39.659  25.556  28.553  1.00  0.00     0.014 A 
ATOM     32  C   UNL A   1      41.404  26.790  27.408  1.00  0.00     0.014 A 
ATOM     33  C   UNL A   1      39.600  26.553  29.529  1.00  0.00     0.010 A 
ATOM     34  C   UNL A   1      41.403  27.735  28.425  1.00  0.00     0.010 A 
ATOM     35  C   UNL A   1      40.495  27.634  29.490  1.00  0.00    -0.014 A 
BRANCH  35  36
ATOM     36  C   UNL A   1      40.498  28.701  30.522  1.00  0.00     0.031 A 
ATOM     37  C   UNL A   1      41.425  28.576  31.700  1.00  0.00     0.074 A 
ATOM     38  C   UNL A   1      39.605  29.707  30.459  1.00  0.00     0.049 A 
ATOM     39  N   UNL A   1      41.457  29.272  32.806  1.00  0.00    -0.248 NA
ATOM     40  C   UNL A   1      42.428  27.499  31.639  1.00  0.00     0.031 C 
ATOM     41  C   UNL A   1      38.642  29.921  29.376  1.00  0.00     0.029 A 
ATOM     42  N   UNL A   1      39.340  30.725  31.343  1.00  0.00    -0.354 N 
ATOM     43  C   UNL A   1      42.457  28.698  33.583  1.00  0.00     0.074 A 
ATOM     44  C   UNL A   1      42.977  27.571  32.842  1.00  0.00     0.031 C 
ATOM     45  C   UNL A   1      37.897  31.002  29.657  1.00  0.00     0.029 A 
ATOM     46  C   UNL A   1      38.290  31.526  30.962  1.00  0.00     0.049 A 
ATOM     47  H   UNL A   1      39.855  30.867  32.170  1.00  0.00     0.167 HD
ATOM     48  C   UNL A   1      42.911  29.090  34.796  1.00  0.00     0.037 A 
ATOM     49  C   UNL A   1      37.692  32.548  31.606  1.00  0.00     0.037 A 
ATOM     50  C   UNL A   1      42.404  30.233  35.508  1.00  0.00     0.049 A 
ATOM     51  C   UNL A   1      38.199  32.954  32.966  1.00  0.00     0.074 A 
ATOM     52  C   UNL A   1      42.827  30.745  36.721  1.00  0.00     0.029 A 
ATOM     53  N   UNL A   1      41.364  31.040  35.071  1.00  0.00    -0.354 N 
ATOM     54  N   UNL A   1      39.173  32.428  33.672  1.00  0.00    -0.248 NA
ATOM     55  C   UNL A   1      37.532  34.089  33.619  1.00  0.00     0.031 C 
ATOM     56  C   UNL A   1      42.010  31.832  37.043  1.00  0.00     0.029 A 
ATOM     57  C   UNL A   1      41.120  32.037  36.000  1.00  0.00     0.049 A 
ATOM     58  H   UNL A   1      40.873  30.922  34.226  1.00  0.00     0.167 HD
ATOM     59  C   UNL A   1      39.263  33.196  34.828  1.00  0.00     0.074 A 
ATOM     60  C   UNL A   1      38.242  34.216  34.733  1.00  0.00     0.031 C 
ATOM     61  C   UNL A   1      40.121  33.069  35.870  1.00  0.00     0.037 A 
BRANCH  48  62
ATOM     62  C   UNL A   1      44.006  28.277  35.432  1.00  0.00     0.058 A 
ATOM     63  C   UNL A   1      43.726  27.223  36.316  1.00  0.00     0.135 A 
ATOM     64  C   UNL A   1      45.352  28.531  35.125  1.00  0.00     0.135 A 
ATOM     65  F   UNL A   1      42.458  26.944  36.658  1.00  0.00    -0.206 F 
ATOM     66  C   UNL A   1      44.742  26.471  36.897  1.00  0.00     0.059 A 
ATOM     67  C   UNL A   1      46.383  27.772  35.669  1.00  0.00     0.059 A 
ATOM     68  F   UNL A   1      45.678  29.529  34.287  1.00  0.00    -0.206 F 
ATOM     69  C   UNL A   1      46.069  26.753  36.566  1.00  0.00     0.060 A 
BRANCH  69  70
ATOM     70  S   UNL A   1      47.373  25.765  37.326  1.00  0.00     0.124 S 
ATOM     71  O   UNL A   1      47.087  25.947  38.747  1.00  0.00    -0.237 OA
ATOM     72  O   UNL A   1      47.106  24.432  36.793  1.00  0.00    -0.237 OA
ATOM     73  O   UNL A   1      48.600  26.394  36.848  1.00  0.00    -0.744 OA
ENDBRANCH  69  70
ENDBRANCH  48  62
BRANCH  49  74
ATOM     74  C   UNL A   1      36.556  33.269  30.968  1.00  0.00     0.058 A 
ATOM     75  C   UNL A   1      36.771  34.127  29.879  1.00  0.00     0.135 A 
ATOM     76  C   UNL A   1      35.237  33.110  31.421  1.00  0.00     0.135 A 
ATOM     77  F   UNL A   1      38.013  34.318  29.411  1.00  0.00    -0.206 F 
ATOM     78  C   UNL A   1      35.725  34.818  29.277  1.00  0.00     0.059 A 
ATOM     79  C   UNL A   1      34.169  33.767  30.817  1.00  0.00     0.059 A 
ATOM     80  F   UNL A   1      34.975  32.289  32.452  1.00  0.00    -0.206 F 
ATOM     81  C   UNL A   1      34.426  34.630  29.752  1.00  0.00     0.060 A 
BRANCH  81  82
ATOM     82  S   UNL A   1      33.076  35.516  28.941  1.00  0.00     0.124 S 
ATOM     83  O   UNL A   1      33.803  36.534  28.192  1.00  0.00    -0.237 OA
ATOM     84  O   UNL A   1      32.455  34.462  28.146  1.00  0.00    -0.237 OA
ATOM     85  O   UNL A   1      32.275  36.008  30.058  1.00  0.00    -0.744 OA
ENDBRANCH  81  82
ENDBRANCH  49  74
BRANCH  61  86
ATOM     86  C   UNL A   1      40.058  34.094  36.968  1.00  0.00     0.058 A 
ATOM     87  C   UNL A   1      40.794  35.287  36.914  1.00  0.00     0.135 A 
ATOM     88  C   UNL A   1      39.147  33.929  38.025  1.00  0.00     0.135 A 
ATOM     89  F   UNL A   1      41.684  35.490  35.930  1.00  0.00    -0.206 F 
ATOM     90  C   UNL A   1      40.624  36.285  37.869  1.00  0.00     0.059 A 
ATOM     91  C   UNL A   1      38.943  34.924  38.974  1.00  0.00     0.059 A 
ATOM     92  F   UNL A   1      38.415  32.808  38.116  1.00  0.00    -0.206 F 
ATOM     93  C   UNL A   1      39.684  36.100  38.887  1.00  0.00     0.060 A 
BRANCH  93  94
ATOM     94  S   UNL A   1      39.404  37.444  40.060  1.00  0.00     0.124 S 
ATOM     95  O   UNL A   1      39.016  36.711  41.261  1.00  0.00    -0.237 OA
ATOM     96  O   UNL A   1      40.710  38.094  40.106  1.00  0.00    -0.237 OA
ATOM     97  O   UNL A   1      38.342  38.227  39.434  1.00  0.00    -0.744 OA
ENDBRANCH  93  94
ENDBRANCH  61  86
ENDBRANCH  35  36
ENDBRANCH  27  30
ENDBRANCH  25  26
ENDBRANCH   1  25
TORSDOF 16
ENDMDL
MODEL 3
REMARK VINA RESULT:     -11.6      3.152      9.387
REMARK SMILES CC1(C)C(C(=O)Nc2ccc(CC(=O)NCCCNC(=O)c3ccc(-c4c5nc(c(-c6c(F)cc(S(=O)(=O)[O-])cc6F)c6ccc([nH]6)c(-c6c(F)cc(S(=O)(=O)[O-])cc6F)c6nc(c(-c7c(F)cc(S(=O)(=O)[O-])cc7F)c7ccc4[nH]7)C=C6)C=C5)cc3)cc2)C1(C)C
REMARK SMILES IDX 17 1 16 2 15 3 13 4 14 5 12 7 11 8 8 9 9 10 89 11 10 12
REMARK SMILES IDX 88 13 7 14 5 15 6 16 4 18 1 19 2 20 3 21 90 22 91 23 92 24
REMARK SMILES IDX 18 25 19 26 20 27 21 29 22 30 23 31 87 32 24 33 86 34 25 35
REMARK SMILES IDX 26 36 27 37 80 38 28 39 85 40 79 41 81 42 29 43 84 44 78 45
REMARK SMILES IDX 77 46 30 48 64 49 43 50 63 51 44 52 47 53 62 54 82 55 45 56
REMARK SMILES IDX 46 57 61 59 83 60 48 61 31 62 32 63 41 64 33 65 34 66 40 67
REMARK SMILES IDX 42 68 35 69 36 70 37 71 38 72 39 73 65 74 66 75 75 76 67 77
REMARK SMILES IDX 68 78 74 79 76 80 69 81 70 82 71 83 72 84 73 85 49 86 50 87
REMARK SMILES IDX 59 88 51 89 52 90 58 91 60 92 53 93 54 94 55 95 56 96 57 97
REMARK H PARENT 15 6 7 17 19 28 81 47 47 58
REMARK Flexibility Score: inf
ROOT
ATOM      1  C   UNL A   1      35.438  23.092  25.908  1.00  0.00     0.042 C 
ENDROOT
BRANCH   1   2
ATOM      2  C   UNL A   1      35.270  21.625  25.520  1.00  0.00     0.117 C 
BRANCH   2   3
ATOM      3  N   UNL A   1      33.931  21.139  25.797  1.00  0.00    -0.356 N 
ATOM      4  C   UNL A   1      32.856  21.030  24.962  1.00  0.00     0.224 C 
ATOM      5  O   UNL A   1      31.795  20.614  25.432  1.00  0.00    -0.275 OA
ATOM      6  H   UNL A   1      33.775  20.845  26.722  1.00  0.00     0.163 HD
BRANCH   4   7
ATOM      7  C   UNL A   1      32.991  21.329  23.485  1.00  0.00     0.135 C 
BRANCH   7   8
ATOM      8  C   UNL A   1      32.469  22.671  23.039  1.00  0.00    -0.039 A 
ATOM      9  C   UNL A   1      31.581  25.288  22.637  1.00  0.00     0.041 A 
ATOM     10  C   UNL A   1      32.801  24.887  22.095  1.00  0.00     0.026 A 
ATOM     11  C   UNL A   1      30.715  24.335  23.139  1.00  0.00     0.026 A 
ATOM     12  C   UNL A   1      33.244  23.570  22.294  1.00  0.00     0.006 A 
ATOM     13  C   UNL A   1      31.187  23.065  23.424  1.00  0.00     0.006 A 
BRANCH   9  14
ATOM     14  N   UNL A   1      31.266  26.647  22.772  1.00  0.00    -0.326 N 
ATOM     15  C   UNL A   1      30.660  27.192  23.889  1.00  0.00     0.228 C 
ATOM     16  O   UNL A   1      29.558  27.724  23.782  1.00  0.00    -0.274 OA
ATOM     17  H   UNL A   1      31.488  27.250  22.027  1.00  0.00     0.169 HD
BRANCH  15  18
ATOM     18  C   UNL A   1      31.435  27.461  25.153  1.00  0.00     0.091 C 
ATOM     19  C   UNL A   1      33.746  26.826  26.108  1.00  0.00     0.012 C 
ATOM     20  C   UNL A   1      32.933  27.788  25.256  1.00  0.00    -0.017 C 
ATOM     21  C   UNL A   1      33.812  28.310  24.148  1.00  0.00     0.012 C 
ATOM     22  C   UNL A   1      31.861  28.714  25.901  1.00  0.00    -0.017 C 
ATOM     23  C   UNL A   1      31.739  28.697  27.413  1.00  0.00     0.012 C 
ATOM     24  C   UNL A   1      31.507  30.087  25.383  1.00  0.00     0.012 C 
ENDBRANCH  15  18
ENDBRANCH   9  14
ENDBRANCH   7   8
ENDBRANCH   4   7
ENDBRANCH   2   3
ENDBRANCH   1   2
BRANCH   1  25
ATOM     25  C   UNL A   1      36.724  23.714  25.400  1.00  0.00     0.118 C 
BRANCH  25  26
ATOM     26  N   UNL A   1      37.845  22.792  25.468  1.00  0.00    -0.352 N 
ATOM     27  C   UNL A   1      39.108  23.000  25.970  1.00  0.00     0.251 C 
ATOM     28  H   UNL A   1      37.677  21.892  25.105  1.00  0.00     0.163 HD
ATOM     29  O   UNL A   1      39.987  22.175  25.769  1.00  0.00    -0.269 OA
BRANCH  27  30
ATOM     30  C   UNL A   1      39.395  24.238  26.731  1.00  0.00     0.039 A 
ATOM     31  C   UNL A   1      38.889  24.373  28.026  1.00  0.00     0.014 A 
ATOM     32  C   UNL A   1      40.169  25.256  26.167  1.00  0.00     0.014 A 
ATOM     33  C   UNL A   1      39.211  25.504  28.779  1.00  0.00     0.010 A 
ATOM     34  C   UNL A   1      40.559  26.336  26.946  1.00  0.00     0.010 A 
ATOM     35  C   UNL A   1      40.075  26.479  28.256  1.00  0.00    -0.014 A 
BRANCH  35  36
ATOM     36  C   UNL A   1      40.478  27.681  29.028  1.00  0.00     0.031 A 
ATOM     37  C   UNL A   1      41.757  27.647  29.819  1.00  0.00     0.074 A 
ATOM     38  C   UNL A   1      39.654  28.744  29.105  1.00  0.00     0.049 A 
ATOM     39  N   UNL A   1      42.200  28.493  30.713  1.00  0.00    -0.248 NA
ATOM     40  C   UNL A   1      42.637  26.487  29.601  1.00  0.00     0.031 C 
ATOM     41  C   UNL A   1      38.379  28.883  28.399  1.00  0.00     0.029 A 
ATOM     42  N   UNL A   1      39.752  29.900  29.841  1.00  0.00    -0.354 N 
ATOM     43  C   UNL A   1      43.391  27.951  31.184  1.00  0.00     0.074 A 
ATOM     44  C   UNL A   1      43.578  26.685  30.513  1.00  0.00     0.031 C 
ATOM     45  C   UNL A   1      37.817  30.056  28.731  1.00  0.00     0.029 A 
ATOM     46  C   UNL A   1      38.662  30.728  29.714  1.00  0.00     0.049 A 
ATOM     47  H   UNL A   1      40.530  30.115  30.404  1.00  0.00     0.167 HD
ATOM     48  C   UNL A   1      44.257  28.475  32.084  1.00  0.00     0.037 A 
ATOM     49  C   UNL A   1      38.364  31.884  30.341  1.00  0.00     0.037 A 
ATOM     50  C   UNL A   1      44.072  29.751  32.721  1.00  0.00     0.049 A 
ATOM     51  C   UNL A   1      39.332  32.438  31.355  1.00  0.00     0.074 A 
ATOM     52  C   UNL A   1      44.913  30.395  33.610  1.00  0.00     0.029 A 
ATOM     53  N   UNL A   1      42.972  30.576  32.538  1.00  0.00    -0.354 N 
ATOM     54  N   UNL A   1      40.475  31.935  31.762  1.00  0.00    -0.248 NA
ATOM     55  C   UNL A   1      38.977  33.711  31.995  1.00  0.00     0.031 C 
ATOM     56  C   UNL A   1      44.298  31.587  34.004  1.00  0.00     0.029 A 
ATOM     57  C   UNL A   1      43.104  31.716  33.311  1.00  0.00     0.049 A 
ATOM     58  H   UNL A   1      42.210  30.380  31.946  1.00  0.00     0.167 HD
ATOM     59  C   UNL A   1      40.993  32.853  32.669  1.00  0.00     0.074 A 
ATOM     60  C   UNL A   1      40.038  33.936  32.759  1.00  0.00     0.031 C 
ATOM     61  C   UNL A   1      42.159  32.804  33.359  1.00  0.00     0.037 A 
BRANCH  48  62
ATOM     62  C   UNL A   1      45.478  27.668  32.433  1.00  0.00     0.058 A 
ATOM     63  C   UNL A   1      46.698  27.843  31.761  1.00  0.00     0.135 A 
ATOM     64  C   UNL A   1      45.437  26.733  33.480  1.00  0.00     0.135 A 
ATOM     65  F   UNL A   1      46.791  28.712  30.742  1.00  0.00    -0.206 F 
ATOM     66  C   UNL A   1      47.825  27.098  32.092  1.00  0.00     0.059 A 
ATOM     67  C   UNL A   1      46.560  25.999  33.851  1.00  0.00     0.059 A 
ATOM     68  F   UNL A   1      44.296  26.523  34.157  1.00  0.00    -0.206 F 
ATOM     69  C   UNL A   1      47.746  26.179  33.140  1.00  0.00     0.060 A 
BRANCH  69  70
ATOM     70  S   UNL A   1      49.219  25.224  33.559  1.00  0.00     0.124 S 
ATOM     71  O   UNL A   1      49.962  26.178  34.376  1.00  0.00    -0.237 OA
ATOM     72  O   UNL A   1      48.657  24.081  34.273  1.00  0.00    -0.237 OA
ATOM     73  O   UNL A   1      49.808  24.919  32.259  1.00  0.00    -0.744 OA
ENDBRANCH  69  70
ENDBRANCH  48  62
BRANCH  49  74
ATOM     74  C   UNL A   1      37.101  32.602  30.019  1.00  0.00     0.058 A 
ATOM     75  C   UNL A   1      37.073  33.599  29.033  1.00  0.00     0.135 A 
ATOM     76  C   UNL A   1      35.897  32.304  30.678  1.00  0.00     0.135 A 
ATOM     77  F   UNL A   1      38.197  33.926  28.377  1.00  0.00    -0.206 F 
ATOM     78  C   UNL A   1      35.905  34.290  28.726  1.00  0.00     0.059 A 
ATOM     79  C   UNL A   1      34.710  32.960  30.367  1.00  0.00     0.059 A 
ATOM     80  F   UNL A   1      35.866  31.348  31.621  1.00  0.00    -0.206 F 
ATOM     81  C   UNL A   1      34.727  33.962  29.398  1.00  0.00     0.060 A 
BRANCH  81  82
ATOM     82  S   UNL A   1      33.215  34.851  28.968  1.00  0.00     0.124 S 
ATOM     83  O   UNL A   1      32.606  33.943  28.003  1.00  0.00    -0.237 OA
ATOM     84  O   UNL A   1      32.543  34.952  30.260  1.00  0.00    -0.237 OA
ATOM     85  O   UNL A   1      33.707  36.112  28.422  1.00  0.00    -0.744 OA
ENDBRANCH  81  82
ENDBRANCH  49  74
BRANCH  61  86
ATOM     86  C   UNL A   1      42.522  33.980  34.222  1.00  0.00     0.058 A 
ATOM     87  C   UNL A   1      42.264  33.998  35.601  1.00  0.00     0.135 A 
ATOM     88  C   UNL A   1      43.254  35.048  33.675  1.00  0.00     0.135 A 
ATOM     89  F   UNL A   1      41.562  33.006  36.171  1.00  0.00    -0.206 F 
ATOM     90  C   UNL A   1      42.726  35.032  36.410  1.00  0.00     0.059 A 
ATOM     91  C   UNL A   1      43.747  36.077  34.468  1.00  0.00     0.059 A 
ATOM     92  F   UNL A   1      43.531  35.073  32.362  1.00  0.00    -0.206 F 
ATOM     93  C   UNL A   1      43.480  36.059  35.836  1.00  0.00     0.060 A 
BRANCH  93  94
ATOM     94  S   UNL A   1      44.156  37.341  36.913  1.00  0.00     0.124 S 
ATOM     95  O   UNL A   1      43.152  37.397  37.972  1.00  0.00    -0.237 OA
ATOM     96  O   UNL A   1      45.448  36.778  37.293  1.00  0.00    -0.237 OA
ATOM     97  O   UNL A   1      44.220  38.515  36.048  1.00  0.00    -0.744 OA
ENDBRANCH  93  94
ENDBRANCH  61  86
ENDBRANCH  35  36
ENDBRANCH  27  30
ENDBRANCH  25  26
ENDBRANCH   1  25
TORSDOF 16
ENDMDL
