MODEL 1
REMARK VINA RESULT:     -11.6      0.000      0.000
REMARK SMILES CC[C@](C)(NC(=O)CNC(=O)c1cccc(Cl)c1)C(=O)NCCCNC(=O)c1ccc(-c2c3nc(c(-c4c(F)cc(S(=O)(=O)[O-])cc4F)c4ccc([nH]4)c(-c4c(F)cc(S(=O)(=O)[O-])cc4F)c4nc(c(-c5c(F)cc(S(=O)(=O)[O-])cc5F)c5ccc2[nH]5)C=C4)C=C3)cc1
REMARK SMILES IDX 22 1 21 2 19 3 20 4 3 6 4 7 2 8 1 9 5 10 6 11 7 13 8 14 9 15
REMARK SMILES IDX 10 16 11 18 12 19 13 20 18 21 14 22 16 23 15 24 17 25 23 26
REMARK SMILES IDX 24 27 25 28 26 29 27 31 28 32 29 33 93 34 30 35 92 36 31 37
REMARK SMILES IDX 32 38 33 39 86 40 34 41 91 42 85 43 87 44 35 45 90 46 84 47
REMARK SMILES IDX 83 48 36 50 70 51 49 52 69 53 50 54 53 55 68 56 88 57 51 58
REMARK SMILES IDX 52 59 67 61 89 62 54 63 37 64 38 65 47 66 39 67 40 68 46 69
REMARK SMILES IDX 48 70 41 71 42 72 43 73 44 74 45 75 71 76 72 77 81 78 73 79
REMARK SMILES IDX 74 80 80 81 82 82 75 83 76 84 77 85 78 86 79 87 55 88 56 89
REMARK SMILES IDX 65 90 57 91 58 92 64 93 66 94 59 95 60 96 61 97 62 98 63 99
REMARK H PARENT 21 5 5 12 9 17 25 30 87 49 53 60
REMARK Flexibility Score: inf
ROOT
ATOM      1  C   UNL A   1      32.200  30.377  25.963  1.00  0.00     0.117 C 
ENDROOT
BRANCH   1   2
ATOM      2  N   UNL A   1      31.410  30.148  24.760  1.00  0.00    -0.354 N 
ATOM      3  C   UNL A   1      31.187  29.014  24.021  1.00  0.00     0.245 C 
ATOM      4  O   UNL A   1      30.102  28.945  23.436  1.00  0.00    -0.272 OA
ATOM      5  H   UNL A   1      30.954  30.950  24.417  1.00  0.00     0.163 HD
BRANCH   3   6
ATOM      6  C   UNL A   1      32.146  27.795  24.023  1.00  0.00     0.116 C 
ATOM      7  C   UNL A   1      33.549  28.164  23.486  1.00  0.00     0.045 C 
BRANCH   6   8
ATOM      8  C   UNL A   1      31.513  26.735  23.063  1.00  0.00     0.035 C 
ATOM      9  C   UNL A   1      32.411  25.541  22.726  1.00  0.00     0.007 C 
ENDBRANCH   6   8
BRANCH   6  10
ATOM     10  N   UNL A   1      32.325  27.220  25.374  1.00  0.00    -0.340 N 
ATOM     11  C   UNL A   1      31.359  26.739  26.223  1.00  0.00     0.240 C 
ATOM     12  H   UNL A   1      33.251  27.178  25.706  1.00  0.00     0.164 HD
ATOM     13  O   UNL A   1      31.539  26.896  27.433  1.00  0.00    -0.273 OA
BRANCH  11  14
ATOM     14  C   UNL A   1      30.127  25.972  25.703  1.00  0.00     0.216 C 
BRANCH  14  15
ATOM     15  N   UNL A   1      29.562  24.922  26.529  1.00  0.00    -0.343 N 
ATOM     16  C   UNL A   1      30.061  23.680  26.850  1.00  0.00     0.251 C 
ATOM     17  H   UNL A   1      28.684  25.130  26.921  1.00  0.00     0.164 HD
ATOM     18  O   UNL A   1      29.426  22.952  27.609  1.00  0.00    -0.269 OA
BRANCH  16  19
ATOM     19  C   UNL A   1      31.315  23.158  26.248  1.00  0.00     0.041 A 
ATOM     20  C   UNL A   1      32.568  23.281  26.857  1.00  0.00     0.014 A 
ATOM     21  C   UNL A   1      31.211  22.517  25.006  1.00  0.00     0.034 A 
ATOM     22  C   UNL A   1      33.720  22.865  26.178  1.00  0.00     0.002 A 
ATOM     23  C   UNL A   1      32.363  22.119  24.329  1.00  0.00     0.041 A 
ATOM     24  C   UNL A   1      33.618  22.306  24.903  1.00  0.00     0.020 A 
ATOM     25  Cl  UNL A   1      32.239  21.440  22.752  1.00  0.00    -0.084 Cl
ENDBRANCH  16  19
ENDBRANCH  14  15
ENDBRANCH  11  14
ENDBRANCH   6  10
ENDBRANCH   3   6
ENDBRANCH   1   2
BRANCH   1  26
ATOM     26  C   UNL A   1      31.838  31.569  26.846  1.00  0.00     0.042 C 
BRANCH  26  27
ATOM     27  C   UNL A   1      32.957  32.480  27.331  1.00  0.00     0.118 C 
BRANCH  27  28
ATOM     28  N   UNL A   1      32.549  33.833  27.660  1.00  0.00    -0.352 N 
ATOM     29  C   UNL A   1      33.111  34.718  28.551  1.00  0.00     0.251 C 
ATOM     30  H   UNL A   1      31.758  34.163  27.178  1.00  0.00     0.163 HD
ATOM     31  O   UNL A   1      32.600  35.825  28.705  1.00  0.00    -0.269 OA
BRANCH  29  32
ATOM     32  C   UNL A   1      34.294  34.331  29.354  1.00  0.00     0.039 A 
ATOM     33  C   UNL A   1      34.086  33.748  30.607  1.00  0.00     0.014 A 
ATOM     34  C   UNL A   1      35.595  34.524  28.880  1.00  0.00     0.014 A 
ATOM     35  C   UNL A   1      35.176  33.281  31.349  1.00  0.00     0.010 A 
ATOM     36  C   UNL A   1      36.679  34.014  29.600  1.00  0.00     0.010 A 
ATOM     37  C   UNL A   1      36.478  33.370  30.832  1.00  0.00    -0.014 A 
BRANCH  37  38
ATOM     38  C   UNL A   1      37.634  32.757  31.544  1.00  0.00     0.031 A 
ATOM     39  C   UNL A   1      38.310  31.533  30.994  1.00  0.00     0.074 A 
ATOM     40  C   UNL A   1      38.028  33.265  32.730  1.00  0.00     0.049 A 
ATOM     41  N   UNL A   1      39.261  30.808  31.524  1.00  0.00    -0.248 NA
ATOM     42  C   UNL A   1      37.846  31.054  29.683  1.00  0.00     0.031 C 
ATOM     43  C   UNL A   1      37.437  34.433  33.388  1.00  0.00     0.029 A 
ATOM     44  N   UNL A   1      39.006  32.855  33.602  1.00  0.00    -0.354 N 
ATOM     45  C   UNL A   1      39.501  29.778  30.623  1.00  0.00     0.074 A 
ATOM     46  C   UNL A   1      38.572  29.955  29.526  1.00  0.00     0.031 C 
ATOM     47  C   UNL A   1      38.067  34.646  34.555  1.00  0.00     0.029 A 
ATOM     48  C   UNL A   1      39.079  33.612  34.748  1.00  0.00     0.049 A 
ATOM     49  H   UNL A   1      39.600  32.090  33.424  1.00  0.00     0.167 HD
ATOM     50  C   UNL A   1      40.420  28.784  30.696  1.00  0.00     0.037 A 
ATOM     51  C   UNL A   1      39.858  33.481  35.841  1.00  0.00     0.037 A 
ATOM     52  C   UNL A   1      41.356  28.620  31.778  1.00  0.00     0.049 A 
ATOM     53  C   UNL A   1      40.861  32.361  35.906  1.00  0.00     0.074 A 
ATOM     54  C   UNL A   1      42.352  27.668  31.916  1.00  0.00     0.029 A 
ATOM     55  N   UNL A   1      41.411  29.422  32.909  1.00  0.00    -0.354 N 
ATOM     56  N   UNL A   1      41.105  31.425  35.021  1.00  0.00    -0.248 NA
ATOM     57  C   UNL A   1      41.695  32.280  37.114  1.00  0.00     0.031 C 
ATOM     58  C   UNL A   1      42.988  27.873  33.146  1.00  0.00     0.029 A 
ATOM     59  C   UNL A   1      42.415  28.978  33.754  1.00  0.00     0.049 A 
ATOM     60  H   UNL A   1      40.825  30.193  33.083  1.00  0.00     0.167 HD
ATOM     61  C   UNL A   1      42.140  30.663  35.552  1.00  0.00     0.074 A 
ATOM     62  C   UNL A   1      42.478  31.246  36.832  1.00  0.00     0.031 C 
ATOM     63  C   UNL A   1      42.756  29.580  35.020  1.00  0.00     0.037 A 
BRANCH  50  64
ATOM     64  C   UNL A   1      40.457  27.787  29.572  1.00  0.00     0.058 A 
ATOM     65  C   UNL A   1      39.583  26.689  29.534  1.00  0.00     0.135 A 
ATOM     66  C   UNL A   1      41.348  27.952  28.499  1.00  0.00     0.135 A 
ATOM     67  F   UNL A   1      38.720  26.478  30.541  1.00  0.00    -0.206 F 
ATOM     68  C   UNL A   1      39.612  25.773  28.489  1.00  0.00     0.059 A 
ATOM     69  C   UNL A   1      41.377  27.061  27.430  1.00  0.00     0.059 A 
ATOM     70  F   UNL A   1      42.203  28.986  28.484  1.00  0.00    -0.206 F 
ATOM     71  C   UNL A   1      40.515  25.965  27.442  1.00  0.00     0.060 A 
BRANCH  71  72
ATOM     72  S   UNL A   1      40.544  24.765  26.094  1.00  0.00     0.124 S 
ATOM     73  O   UNL A   1      39.122  24.472  25.938  1.00  0.00    -0.237 OA
ATOM     74  O   UNL A   1      41.156  25.525  25.009  1.00  0.00    -0.237 OA
ATOM     75  O   UNL A   1      41.355  23.675  26.627  1.00  0.00    -0.744 OA
ENDBRANCH  71  72
ENDBRANCH  50  64
BRANCH  51  76
ATOM     76  C   UNL A   1      39.726  34.448  36.962  1.00  0.00     0.058 A 
ATOM     77  C   UNL A   1      40.381  35.688  36.925  1.00  0.00     0.135 A 
ATOM     78  C   UNL A   1      38.933  34.161  38.084  1.00  0.00     0.135 A 
ATOM     79  F   UNL A   1      41.156  36.006  35.877  1.00  0.00    -0.206 F 
ATOM     80  C   UNL A   1      40.263  36.607  37.963  1.00  0.00     0.059 A 
ATOM     81  C   UNL A   1      38.781  35.071  39.125  1.00  0.00     0.059 A 
ATOM     82  F   UNL A   1      38.275  32.993  38.160  1.00  0.00    -0.206 F 
ATOM     83  C   UNL A   1      39.457  36.289  39.058  1.00  0.00     0.060 A 
BRANCH  83  84
ATOM     84  S   UNL A   1      39.262  37.511  40.375  1.00  0.00     0.124 S 
ATOM     85  O   UNL A   1      38.932  36.663  41.515  1.00  0.00    -0.237 OA
ATOM     86  O   UNL A   1      40.578  38.142  40.406  1.00  0.00    -0.237 OA
ATOM     87  O   UNL A   1      38.181  38.361  39.884  1.00  0.00    -0.744 OA
ENDBRANCH  83  84
ENDBRANCH  51  76
BRANCH  63  88
ATOM     88  C   UNL A   1      43.893  28.971  35.791  1.00  0.00     0.058 A 
ATOM     89  C   UNL A   1      43.686  27.938  36.718  1.00  0.00     0.135 A 
ATOM     90  C   UNL A   1      45.215  29.373  35.538  1.00  0.00     0.135 A 
ATOM     91  F   UNL A   1      42.441  27.524  37.002  1.00  0.00    -0.206 F 
ATOM     92  C   UNL A   1      44.752  27.325  37.370  1.00  0.00     0.059 A 
ATOM     93  C   UNL A   1      46.297  28.760  36.162  1.00  0.00     0.059 A 
ATOM     94  F   UNL A   1      45.466  30.354  34.656  1.00  0.00    -0.206 F 
ATOM     95  C   UNL A   1      46.055  27.738  37.081  1.00  0.00     0.060 A 
BRANCH  95  96
ATOM     96  S   UNL A   1      47.434  26.891  37.882  1.00  0.00     0.124 S 
ATOM     97  O   UNL A   1      48.577  27.632  37.361  1.00  0.00    -0.237 OA
ATOM     98  O   UNL A   1      47.142  27.089  39.299  1.00  0.00    -0.237 OA
ATOM     99  O   UNL A   1      47.307  25.515  37.410  1.00  0.00    -0.744 OA
ENDBRANCH  95  96
ENDBRANCH  63  88
ENDBRANCH  37  38
ENDBRANCH  29  32
ENDBRANCH  27  28
ENDBRANCH  26  27
ENDBRANCH   1  26
TORSDOF 18
ENDMDL
MODEL 2
REMARK VINA RESULT:     -11.5      6.384     10.900
REMARK SMILES CC[C@](C)(NC(=O)CNC(=O)c1cccc(Cl)c1)C(=O)NCCCNC(=O)c1ccc(-c2c3nc(c(-c4c(F)cc(S(=O)(=O)[O-])cc4F)c4ccc([nH]4)c(-c4c(F)cc(S(=O)(=O)[O-])cc4F)c4nc(c(-c5c(F)cc(S(=O)(=O)[O-])cc5F)c5ccc2[nH]5)C=C4)C=C3)cc1
REMARK SMILES IDX 22 1 21 2 19 3 20 4 3 6 4 7 2 8 1 9 5 10 6 11 7 13 8 14 9 15
REMARK SMILES IDX 10 16 11 18 12 19 13 20 18 21 14 22 16 23 15 24 17 25 23 26
REMARK SMILES IDX 24 27 25 28 26 29 27 31 28 32 29 33 93 34 30 35 92 36 31 37
REMARK SMILES IDX 32 38 33 39 86 40 34 41 91 42 85 43 87 44 35 45 90 46 84 47
REMARK SMILES IDX 83 48 36 50 70 51 49 52 69 53 50 54 53 55 68 56 88 57 51 58
REMARK SMILES IDX 52 59 67 61 89 62 54 63 37 64 38 65 47 66 39 67 40 68 46 69
REMARK SMILES IDX 48 70 41 71 42 72 43 73 44 74 45 75 71 76 72 77 81 78 73 79
REMARK SMILES IDX 74 80 80 81 82 82 75 83 76 84 77 85 78 86 79 87 55 88 56 89
REMARK SMILES IDX 65 90 57 91 58 92 64 93 66 94 59 95 60 96 61 97 62 98 63 99
REMARK H PARENT 21 5 5 12 9 17 25 30 87 49 53 60
REMARK Flexibility Score: inf
ROOT
ATOM      1  C   UNL A   1      33.030  29.361  26.039  1.00  0.00     0.117 C 
ENDROOT
BRANCH   1   2
ATOM      2  N   UNL A   1      33.786  29.263  24.798  1.00  0.00    -0.354 N 
ATOM      3  C   UNL A   1      33.624  28.465  23.694  1.00  0.00     0.245 C 
ATOM      4  O   UNL A   1      34.001  28.936  22.617  1.00  0.00    -0.272 OA
ATOM      5  H   UNL A   1      34.551  29.880  24.741  1.00  0.00     0.163 HD
BRANCH   3   6
ATOM      6  C   UNL A   1      32.868  27.111  23.727  1.00  0.00     0.116 C 
ATOM      7  C   UNL A   1      31.404  27.278  24.197  1.00  0.00     0.045 C 
BRANCH   6   8
ATOM      8  C   UNL A   1      33.621  26.213  24.762  1.00  0.00     0.035 C 
ATOM      9  C   UNL A   1      32.797  25.794  25.984  1.00  0.00     0.007 C 
ENDBRANCH   6   8
BRANCH   6  10
ATOM     10  N   UNL A   1      32.837  26.451  22.404  1.00  0.00    -0.340 N 
ATOM     11  C   UNL A   1      32.660  25.117  22.128  1.00  0.00     0.240 C 
ATOM     12  H   UNL A   1      32.958  27.040  21.624  1.00  0.00     0.164 HD
ATOM     13  O   UNL A   1      33.256  24.656  21.153  1.00  0.00    -0.273 OA
BRANCH  11  14
ATOM     14  C   UNL A   1      31.703  24.235  22.955  1.00  0.00     0.216 C 
BRANCH  14  15
ATOM     15  N   UNL A   1      31.689  22.806  22.710  1.00  0.00    -0.343 N 
ATOM     16  C   UNL A   1      32.335  21.785  23.372  1.00  0.00     0.251 C 
ATOM     17  H   UNL A   1      31.129  22.520  21.954  1.00  0.00     0.164 HD
ATOM     18  O   UNL A   1      32.149  20.623  23.016  1.00  0.00    -0.269 OA
BRANCH  16  19
ATOM     19  C   UNL A   1      33.312  22.048  24.459  1.00  0.00     0.041 A 
ATOM     20  C   UNL A   1      32.954  22.126  25.809  1.00  0.00     0.014 A 
ATOM     21  C   UNL A   1      34.651  22.226  24.089  1.00  0.00     0.034 A 
ATOM     22  C   UNL A   1      33.910  22.489  26.766  1.00  0.00     0.002 A 
ATOM     23  C   UNL A   1      35.594  22.602  25.044  1.00  0.00     0.041 A 
ATOM     24  C   UNL A   1      35.225  22.751  26.379  1.00  0.00     0.020 A 
ATOM     25  Cl  UNL A   1      37.214  22.936  24.565  1.00  0.00    -0.084 Cl
ENDBRANCH  16  19
ENDBRANCH  14  15
ENDBRANCH  11  14
ENDBRANCH   6  10
ENDBRANCH   3   6
ENDBRANCH   1   2
BRANCH   1  26
ATOM     26  C   UNL A   1      33.724  28.962  27.339  1.00  0.00     0.042 C 
BRANCH  26  27
ATOM     27  C   UNL A   1      35.087  29.566  27.650  1.00  0.00     0.118 C 
BRANCH  27  28
ATOM     28  N   UNL A   1      35.140  30.373  28.855  1.00  0.00    -0.352 N 
ATOM     29  C   UNL A   1      36.208  30.625  29.686  1.00  0.00     0.251 C 
ATOM     30  H   UNL A   1      34.293  30.800  29.114  1.00  0.00     0.163 HD
ATOM     31  O   UNL A   1      36.045  31.327  30.682  1.00  0.00    -0.269 OA
BRANCH  29  32
ATOM     32  C   UNL A   1      37.533  30.022  29.414  1.00  0.00     0.039 A 
ATOM     33  C   UNL A   1      37.966  29.939  28.088  1.00  0.00     0.014 A 
ATOM     34  C   UNL A   1      38.350  29.554  30.447  1.00  0.00     0.014 A 
ATOM     35  C   UNL A   1      39.252  29.466  27.802  1.00  0.00     0.010 A 
ATOM     36  C   UNL A   1      39.651  29.127  30.164  1.00  0.00     0.010 A 
ATOM     37  C   UNL A   1      40.121  29.098  28.841  1.00  0.00    -0.014 A 
BRANCH  37  38
ATOM     38  C   UNL A   1      41.535  28.723  28.566  1.00  0.00     0.031 A 
ATOM     39  C   UNL A   1      42.615  29.768  28.551  1.00  0.00     0.074 A 
ATOM     40  C   UNL A   1      41.835  27.445  28.257  1.00  0.00     0.049 A 
ATOM     41  N   UNL A   1      43.879  29.644  28.235  1.00  0.00    -0.248 NA
ATOM     42  C   UNL A   1      42.219  31.134  28.926  1.00  0.00     0.031 C 
ATOM     43  C   UNL A   1      40.876  26.339  28.209  1.00  0.00     0.029 A 
ATOM     44  N   UNL A   1      43.028  26.861  27.908  1.00  0.00    -0.354 N 
ATOM     45  C   UNL A   1      44.428  30.914  28.356  1.00  0.00     0.074 A 
ATOM     46  C   UNL A   1      43.351  31.802  28.745  1.00  0.00     0.031 C 
ATOM     47  C   UNL A   1      41.518  25.214  27.856  1.00  0.00     0.029 A 
ATOM     48  C   UNL A   1      42.925  25.521  27.615  1.00  0.00     0.049 A 
ATOM     49  H   UNL A   1      43.878  27.356  27.870  1.00  0.00     0.167 HD
ATOM     50  C   UNL A   1      45.713  31.304  28.174  1.00  0.00     0.037 A 
ATOM     51  C   UNL A   1      43.850  24.640  27.185  1.00  0.00     0.037 A 
ATOM     52  C   UNL A   1      46.787  30.417  27.807  1.00  0.00     0.049 A 
ATOM     53  C   UNL A   1      45.268  25.099  26.976  1.00  0.00     0.074 A 
ATOM     54  C   UNL A   1      48.130  30.715  27.644  1.00  0.00     0.029 A 
ATOM     55  N   UNL A   1      46.644  29.063  27.542  1.00  0.00    -0.354 N 
ATOM     56  N   UNL A   1      45.778  26.295  27.143  1.00  0.00    -0.248 NA
ATOM     57  C   UNL A   1      46.237  24.090  26.524  1.00  0.00     0.031 C 
ATOM     58  C   UNL A   1      48.792  29.548  27.246  1.00  0.00     0.029 A 
ATOM     59  C   UNL A   1      47.870  28.515  27.203  1.00  0.00     0.049 A 
ATOM     60  H   UNL A   1      45.796  28.565  27.590  1.00  0.00     0.167 HD
ATOM     61  C   UNL A   1      47.131  26.177  26.845  1.00  0.00     0.074 A 
ATOM     62  C   UNL A   1      47.362  24.793  26.490  1.00  0.00     0.031 C 
ATOM     63  C   UNL A   1      48.094  27.130  26.870  1.00  0.00     0.037 A 
BRANCH  50  64
ATOM     64  C   UNL A   1      46.033  32.760  28.367  1.00  0.00     0.058 A 
ATOM     65  C   UNL A   1      45.953  33.676  27.306  1.00  0.00     0.135 A 
ATOM     66  C   UNL A   1      46.384  33.253  29.635  1.00  0.00     0.135 A 
ATOM     67  F   UNL A   1      45.634  33.255  26.072  1.00  0.00    -0.206 F 
ATOM     68  C   UNL A   1      46.240  35.025  27.488  1.00  0.00     0.059 A 
ATOM     69  C   UNL A   1      46.651  34.603  29.844  1.00  0.00     0.059 A 
ATOM     70  F   UNL A   1      46.473  32.420  30.683  1.00  0.00    -0.206 F 
ATOM     71  C   UNL A   1      46.592  35.478  28.760  1.00  0.00     0.060 A 
BRANCH  71  72
ATOM     72  S   UNL A   1      46.966  37.231  28.980  1.00  0.00     0.124 S 
ATOM     73  O   UNL A   1      48.227  37.350  28.253  1.00  0.00    -0.237 OA
ATOM     74  O   UNL A   1      45.815  37.878  28.360  1.00  0.00    -0.237 OA
ATOM     75  O   UNL A   1      47.060  37.379  30.428  1.00  0.00    -0.744 OA
ENDBRANCH  71  72
ENDBRANCH  50  64
BRANCH  51  76
ATOM     76  C   UNL A   1      43.465  23.227  26.932  1.00  0.00     0.058 A 
ATOM     77  C   UNL A   1      43.197  22.352  27.995  1.00  0.00     0.135 A 
ATOM     78  C   UNL A   1      43.341  22.727  25.627  1.00  0.00     0.135 A 
ATOM     79  F   UNL A   1      43.309  22.782  29.261  1.00  0.00    -0.206 F 
ATOM     80  C   UNL A   1      42.828  21.029  27.775  1.00  0.00     0.059 A 
ATOM     81  C   UNL A   1      42.952  21.414  25.380  1.00  0.00     0.059 A 
ATOM     82  F   UNL A   1      43.573  23.529  24.575  1.00  0.00    -0.206 F 
ATOM     83  C   UNL A   1      42.706  20.570  26.462  1.00  0.00     0.060 A 
BRANCH  83  84
ATOM     84  S   UNL A   1      42.171  18.867  26.184  1.00  0.00     0.124 S 
ATOM     85  O   UNL A   1      42.381  18.276  27.501  1.00  0.00    -0.237 OA
ATOM     86  O   UNL A   1      40.781  19.045  25.777  1.00  0.00    -0.237 OA
ATOM     87  O   UNL A   1      43.068  18.403  25.131  1.00  0.00    -0.744 OA
ENDBRANCH  83  84
ENDBRANCH  51  76
BRANCH  63  88
ATOM     88  C   UNL A   1      49.501  26.713  26.550  1.00  0.00     0.058 A 
ATOM     89  C   UNL A   1      50.338  26.135  27.517  1.00  0.00     0.135 A 
ATOM     90  C   UNL A   1      49.988  26.819  25.237  1.00  0.00     0.135 A 
ATOM     91  F   UNL A   1      49.922  26.020  28.788  1.00  0.00    -0.206 F 
ATOM     92  C   UNL A   1      51.612  25.679  27.194  1.00  0.00     0.059 A 
ATOM     93  C   UNL A   1      51.251  26.350  24.887  1.00  0.00     0.059 A 
ATOM     94  F   UNL A   1      49.224  27.359  24.274  1.00  0.00    -0.206 F 
ATOM     95  C   UNL A   1      52.058  25.784  25.874  1.00  0.00     0.060 A 
BRANCH  95  96
ATOM     96  S   UNL A   1      53.686  25.128  25.452  1.00  0.00     0.124 S 
ATOM     97  O   UNL A   1      54.469  25.507  26.624  1.00  0.00    -0.237 OA
ATOM     98  O   UNL A   1      53.419  23.701  25.302  1.00  0.00    -0.237 OA
ATOM     99  O   UNL A   1      54.024  25.829  24.217  1.00  0.00    -0.744 OA
ENDBRANCH  95  96
ENDBRANCH  63  88
ENDBRANCH  37  38
ENDBRANCH  29  32
ENDBRANCH  27  28
ENDBRANCH  26  27
ENDBRANCH   1  26
TORSDOF 18
ENDMDL
MODEL 3
REMARK VINA RESULT:     -11.5      2.404      8.474
REMARK SMILES CC[C@](C)(NC(=O)CNC(=O)c1cccc(Cl)c1)C(=O)NCCCNC(=O)c1ccc(-c2c3nc(c(-c4c(F)cc(S(=O)(=O)[O-])cc4F)c4ccc([nH]4)c(-c4c(F)cc(S(=O)(=O)[O-])cc4F)c4nc(c(-c5c(F)cc(S(=O)(=O)[O-])cc5F)c5ccc2[nH]5)C=C4)C=C3)cc1
REMARK SMILES IDX 22 1 21 2 19 3 20 4 3 6 4 7 2 8 1 9 5 10 6 11 7 13 8 14 9 15
REMARK SMILES IDX 10 16 11 18 12 19 13 20 18 21 14 22 16 23 15 24 17 25 23 26
REMARK SMILES IDX 24 27 25 28 26 29 27 31 28 32 29 33 93 34 30 35 92 36 31 37
REMARK SMILES IDX 32 38 33 39 86 40 34 41 91 42 85 43 87 44 35 45 90 46 84 47
REMARK SMILES IDX 83 48 36 50 70 51 49 52 69 53 50 54 53 55 68 56 88 57 51 58
REMARK SMILES IDX 52 59 67 61 89 62 54 63 37 64 38 65 47 66 39 67 40 68 46 69
REMARK SMILES IDX 48 70 41 71 42 72 43 73 44 74 45 75 71 76 72 77 81 78 73 79
REMARK SMILES IDX 74 80 80 81 82 82 75 83 76 84 77 85 78 86 79 87 55 88 56 89
REMARK SMILES IDX 65 90 57 91 58 92 64 93 66 94 59 95 60 96 61 97 62 98 63 99
REMARK H PARENT 21 5 5 12 9 17 25 30 87 49 53 60
REMARK Flexibility Score: inf
ROOT
ATOM      1  C   UNL A   1      36.113  22.603  25.652  1.00  0.00     0.117 C 
ENDROOT
BRANCH   1   2
ATOM      2  N   UNL A   1      35.202  22.893  26.751  1.00  0.00    -0.354 N 
ATOM      3  C   UNL A   1      33.894  22.538  26.967  1.00  0.00     0.245 C 
ATOM      4  O   UNL A   1      33.547  22.415  28.145  1.00  0.00    -0.272 OA
ATOM      5  H   UNL A   1      35.595  23.441  27.468  1.00  0.00     0.163 HD
BRANCH   3   6
ATOM      6  C   UNL A   1      32.920  22.148  25.825  1.00  0.00     0.116 C 
ATOM      7  C   UNL A   1      33.247  20.755  25.238  1.00  0.00     0.045 C 
BRANCH   6   8
ATOM      8  C   UNL A   1      33.111  23.216  24.699  1.00  0.00     0.035 C 
ATOM      9  C   UNL A   1      33.203  22.656  23.277  1.00  0.00     0.007 C 
ENDBRANCH   6   8
BRANCH   6  10
ATOM     10  N   UNL A   1      31.510  22.121  26.272  1.00  0.00    -0.340 N 
ATOM     11  C   UNL A   1      30.769  23.153  26.796  1.00  0.00     0.240 C 
ATOM     12  H   UNL A   1      31.045  21.258  26.183  1.00  0.00     0.164 HD
ATOM     13  O   UNL A   1      29.927  22.868  27.650  1.00  0.00    -0.273 OA
BRANCH  11  14
ATOM     14  C   UNL A   1      30.926  24.603  26.297  1.00  0.00     0.216 C 
BRANCH  14  15
ATOM     15  N   UNL A   1      29.945  25.128  25.367  1.00  0.00    -0.343 N 
ATOM     16  C   UNL A   1      29.996  26.241  24.557  1.00  0.00     0.251 C 
ATOM     17  H   UNL A   1      29.112  24.608  25.304  1.00  0.00     0.164 HD
ATOM     18  O   UNL A   1      29.054  26.484  23.806  1.00  0.00    -0.269 OA
BRANCH  16  19
ATOM     19  C   UNL A   1      31.126  27.203  24.615  1.00  0.00     0.041 A 
ATOM     20  C   UNL A   1      31.328  28.086  25.680  1.00  0.00     0.014 A 
ATOM     21  C   UNL A   1      32.019  27.208  23.535  1.00  0.00     0.034 A 
ATOM     22  C   UNL A   1      32.351  29.041  25.612  1.00  0.00     0.002 A 
ATOM     23  C   UNL A   1      33.024  28.170  23.467  1.00  0.00     0.041 A 
ATOM     24  C   UNL A   1      33.183  29.098  24.493  1.00  0.00     0.020 A 
ATOM     25  Cl  UNL A   1      34.044  28.249  22.082  1.00  0.00    -0.084 Cl
ENDBRANCH  16  19
ENDBRANCH  14  15
ENDBRANCH  11  14
ENDBRANCH   6  10
ENDBRANCH   3   6
ENDBRANCH   1   2
BRANCH   1  26
ATOM     26  C   UNL A   1      37.199  23.626  25.328  1.00  0.00     0.042 C 
BRANCH  26  27
ATOM     27  C   UNL A   1      38.137  24.067  26.444  1.00  0.00     0.118 C 
BRANCH  27  28
ATOM     28  N   UNL A   1      39.537  23.754  26.229  1.00  0.00    -0.352 N 
ATOM     29  C   UNL A   1      40.655  24.371  26.743  1.00  0.00     0.251 C 
ATOM     30  H   UNL A   1      39.712  22.992  25.631  1.00  0.00     0.163 HD
ATOM     31  O   UNL A   1      41.770  23.964  26.421  1.00  0.00    -0.269 OA
BRANCH  29  32
ATOM     32  C   UNL A   1      40.525  25.542  27.639  1.00  0.00     0.039 A 
ATOM     33  C   UNL A   1      39.493  25.546  28.583  1.00  0.00     0.014 A 
ATOM     34  C   UNL A   1      41.409  26.622  27.566  1.00  0.00     0.014 A 
ATOM     35  C   UNL A   1      39.400  26.589  29.510  1.00  0.00     0.010 A 
ATOM     36  C   UNL A   1      41.343  27.639  28.522  1.00  0.00     0.010 A 
ATOM     37  C   UNL A   1      40.350  27.623  29.516  1.00  0.00    -0.014 A 
BRANCH  37  38
ATOM     38  C   UNL A   1      40.347  28.666  30.577  1.00  0.00     0.031 A 
ATOM     39  C   UNL A   1      41.262  28.553  31.764  1.00  0.00     0.074 A 
ATOM     40  C   UNL A   1      39.465  29.684  30.506  1.00  0.00     0.049 A 
ATOM     41  N   UNL A   1      41.327  29.310  32.830  1.00  0.00    -0.248 NA
ATOM     42  C   UNL A   1      42.216  27.435  31.760  1.00  0.00     0.031 C 
ATOM     43  C   UNL A   1      38.503  29.894  29.420  1.00  0.00     0.029 A 
ATOM     44  N   UNL A   1      39.219  30.722  31.370  1.00  0.00    -0.354 N 
ATOM     45  C   UNL A   1      42.316  28.754  33.632  1.00  0.00     0.074 A 
ATOM     46  C   UNL A   1      42.802  27.576  32.942  1.00  0.00     0.031 C 
ATOM     47  C   UNL A   1      37.778  30.993  29.682  1.00  0.00     0.029 A 
ATOM     48  C   UNL A   1      38.192  31.546  30.969  1.00  0.00     0.049 A 
ATOM     49  H   UNL A   1      39.729  30.864  32.199  1.00  0.00     0.167 HD
ATOM     50  C   UNL A   1      42.787  29.191  34.825  1.00  0.00     0.037 A 
ATOM     51  C   UNL A   1      37.633  32.613  31.572  1.00  0.00     0.037 A 
ATOM     52  C   UNL A   1      42.316  30.372  35.501  1.00  0.00     0.049 A 
ATOM     53  C   UNL A   1      38.162  33.071  32.904  1.00  0.00     0.074 A 
ATOM     54  C   UNL A   1      42.765  30.917  36.692  1.00  0.00     0.029 A 
ATOM     55  N   UNL A   1      41.291  31.190  35.049  1.00  0.00    -0.354 N 
ATOM     56  N   UNL A   1      39.131  32.559  33.624  1.00  0.00    -0.248 NA
ATOM     57  C   UNL A   1      37.526  34.252  33.506  1.00  0.00     0.031 C 
ATOM     58  C   UNL A   1      41.987  32.045  36.979  1.00  0.00     0.029 A 
ATOM     59  C   UNL A   1      41.083  32.226  35.945  1.00  0.00     0.049 A 
ATOM     60  H   UNL A   1      40.787  31.055  34.215  1.00  0.00     0.167 HD
ATOM     61  C   UNL A   1      39.241  33.372  34.746  1.00  0.00     0.074 A 
ATOM     62  C   UNL A   1      38.241  34.411  34.612  1.00  0.00     0.031 C 
ATOM     63  C   UNL A   1      40.097  33.268  35.791  1.00  0.00     0.037 A 
BRANCH  50  64
ATOM     64  C   UNL A   1      43.869  28.383  35.485  1.00  0.00     0.058 A 
ATOM     65  C   UNL A   1      43.569  27.370  36.410  1.00  0.00     0.135 A 
ATOM     66  C   UNL A   1      45.219  28.595  35.159  1.00  0.00     0.135 A 
ATOM     67  F   UNL A   1      42.296  27.135  36.765  1.00  0.00    -0.206 F 
ATOM     68  C   UNL A   1      44.570  26.616  37.012  1.00  0.00     0.059 A 
ATOM     69  C   UNL A   1      46.235  27.835  35.732  1.00  0.00     0.059 A 
ATOM     70  F   UNL A   1      45.560  29.548  34.279  1.00  0.00    -0.206 F 
ATOM     71  C   UNL A   1      45.901  26.859  36.669  1.00  0.00     0.060 A 
BRANCH  71  72
ATOM     72  S   UNL A   1      47.191  25.876  37.463  1.00  0.00     0.124 S 
ATOM     73  O   UNL A   1      48.282  26.843  37.544  1.00  0.00    -0.237 OA
ATOM     74  O   UNL A   1      46.573  25.512  38.733  1.00  0.00    -0.237 OA
ATOM     75  O   UNL A   1      47.399  24.772  36.532  1.00  0.00    -0.744 OA
ENDBRANCH  71  72
ENDBRANCH  50  64
BRANCH  51  76
ATOM     76  C   UNL A   1      36.510  33.331  30.914  1.00  0.00     0.058 A 
ATOM     77  C   UNL A   1      35.194  33.189  31.377  1.00  0.00     0.135 A 
ATOM     78  C   UNL A   1      36.731  34.185  29.823  1.00  0.00     0.135 A 
ATOM     79  F   UNL A   1      34.931  32.377  32.413  1.00  0.00    -0.206 F 
ATOM     80  C   UNL A   1      34.133  33.859  30.776  1.00  0.00     0.059 A 
ATOM     81  C   UNL A   1      35.690  34.884  29.219  1.00  0.00     0.059 A 
ATOM     82  F   UNL A   1      37.975  34.366  29.352  1.00  0.00    -0.206 F 
ATOM     83  C   UNL A   1      34.393  34.708  29.698  1.00  0.00     0.060 A 
BRANCH  83  84
ATOM     84  S   UNL A   1      33.019  35.620  28.962  1.00  0.00     0.124 S 
ATOM     85  O   UNL A   1      33.722  36.654  28.211  1.00  0.00    -0.237 OA
ATOM     86  O   UNL A   1      32.357  34.590  28.167  1.00  0.00    -0.237 OA
ATOM     87  O   UNL A   1      32.265  36.083  30.123  1.00  0.00    -0.744 OA
ENDBRANCH  83  84
ENDBRANCH  51  76
BRANCH  63  88
ATOM     88  C   UNL A   1      40.034  34.323  36.858  1.00  0.00     0.058 A 
ATOM     89  C   UNL A   1      40.817  35.487  36.793  1.00  0.00     0.135 A 
ATOM     90  C   UNL A   1      39.116  34.206  37.916  1.00  0.00     0.135 A 
ATOM     91  F   UNL A   1      41.714  35.642  35.807  1.00  0.00    -0.206 F 
ATOM     92  C   UNL A   1      40.694  36.497  37.742  1.00  0.00     0.059 A 
ATOM     93  C   UNL A   1      38.963  35.213  38.864  1.00  0.00     0.059 A 
ATOM     94  F   UNL A   1      38.341  33.116  38.019  1.00  0.00    -0.206 F 
ATOM     95  C   UNL A   1      39.760  36.354  38.771  1.00  0.00     0.060 A 
BRANCH  95  96
ATOM     96  S   UNL A   1      39.563  37.700  39.958  1.00  0.00     0.124 S 
ATOM     97  O   UNL A   1      39.562  36.977  41.225  1.00  0.00    -0.237 OA
ATOM     98  O   UNL A   1      40.741  38.522  39.698  1.00  0.00    -0.237 OA
ATOM     99  O   UNL A   1      38.289  38.304  39.578  1.00  0.00    -0.744 OA
ENDBRANCH  95  96
ENDBRANCH  63  88
ENDBRANCH  37  38
ENDBRANCH  29  32
ENDBRANCH  27  28
ENDBRANCH  26  27
ENDBRANCH   1  26
TORSDOF 18
ENDMDL
