MODEL 1
REMARK VINA RESULT:     -11.6      0.000      0.000
REMARK SMILES CCn1ncc(-c2cc(C(F)(F)F)nc(-n3ccc(C(=O)NCCCNC(=O)c4ccc(-c5c6nc(c(-c7c(F)cc(S(=O)(=O)[O-])cc7F)c7ccc([nH]7)c(-c7c(F)cc(S(=O)(=O)[O-])cc7F)c7nc(c(-c8c(F)cc(S(=O)(=O)[O-])cc8F)c8ccc5[nH]8)C=C7)C=C6)cc4)n3)n2)c1C
REMARK SMILES IDX 24 1 23 2 22 3 20 4 21 5 19 7 16 8 17 9 95 10 18 11 15 12
REMARK SMILES IDX 7 13 8 14 96 15 9 16 14 17 6 18 3 19 4 20 97 21 5 22 98 23
REMARK SMILES IDX 2 24 1 25 10 26 11 27 12 28 13 29 25 30 26 31 27 32 28 34
REMARK SMILES IDX 29 35 30 36 94 37 31 38 93 39 32 40 33 41 34 42 87 43 35 44
REMARK SMILES IDX 92 45 86 46 88 47 36 48 91 49 85 50 84 51 37 53 71 54 50 55
REMARK SMILES IDX 70 56 51 57 54 58 69 59 89 60 52 61 53 62 68 64 90 65 55 66
REMARK SMILES IDX 38 67 39 68 48 69 40 70 41 71 47 72 49 73 42 74 43 75 44 76
REMARK SMILES IDX 45 77 46 78 72 79 73 80 82 81 74 82 75 83 81 84 83 85 76 86
REMARK SMILES IDX 77 87 78 88 79 89 80 90 56 91 57 92 66 93 58 94 59 95 65 96
REMARK SMILES IDX 67 97 60 98 61 99 62 100 63 101 64 102
REMARK H PARENT 22 6 26 33 88 52 54 63
REMARK Flexibility Score: inf
ROOT
ATOM      1  C   UNL A   1      42.663  20.858  26.850  1.00  0.00     0.042 C 
ENDROOT
BRANCH   1   2
ATOM      2  C   UNL A   1      42.779  19.759  25.786  1.00  0.00     0.118 C 
BRANCH   2   3
ATOM      3  N   UNL A   1      44.096  19.133  25.727  1.00  0.00    -0.351 N 
ATOM      4  C   UNL A   1      45.337  19.647  25.411  1.00  0.00     0.271 C 
ATOM      5  O   UNL A   1      46.300  18.881  25.449  1.00  0.00    -0.267 OA
ATOM      6  H   UNL A   1      44.099  18.175  25.952  1.00  0.00     0.163 HD
BRANCH   4   7
ATOM      7  C   UNL A   1      45.498  21.045  24.980  1.00  0.00     0.150 A 
ATOM      8  N   UNL A   1      45.860  23.152  25.086  1.00  0.00    -0.205 N 
ATOM      9  C   UNL A   1      45.183  22.967  23.904  1.00  0.00     0.119 A 
ATOM     10  N   UNL A   1      46.186  21.973  25.663  1.00  0.00    -0.160 NA
ATOM     11  C   UNL A   1      44.975  21.613  23.785  1.00  0.00     0.056 A 
BRANCH   8  12
ATOM     12  C   UNL A   1      46.131  24.395  25.744  1.00  0.00     0.251 A 
ATOM     13  C   UNL A   1      46.053  25.681  27.639  1.00  0.00     0.080 A 
ATOM     14  C   UNL A   1      46.396  26.812  26.933  1.00  0.00     0.062 A 
ATOM     15  N   UNL A   1      45.864  24.486  27.061  1.00  0.00    -0.211 NA
ATOM     16  C   UNL A   1      46.642  26.644  25.581  1.00  0.00     0.150 A 
ATOM     17  N   UNL A   1      46.569  25.423  24.987  1.00  0.00    -0.207 NA
BRANCH  13  18
ATOM     18  C   UNL A   1      45.990  25.716  29.084  1.00  0.00     0.041 A 
ATOM     19  N   UNL A   1      45.252  25.450  31.142  1.00  0.00    -0.269 N 
ATOM     20  N   UNL A   1      46.552  25.779  31.292  1.00  0.00    -0.181 NA
ATOM     21  C   UNL A   1      44.853  25.418  29.823  1.00  0.00     0.045 A 
ATOM     22  C   UNL A   1      46.993  25.944  30.044  1.00  0.00     0.145 A 
ATOM     23  C   UNL A   1      43.473  25.097  29.369  1.00  0.00     0.067 C 
BRANCH  19  24
ATOM     24  C   UNL A   1      44.435  25.165  32.310  1.00  0.00     0.141 C 
ATOM     25  C   UNL A   1      44.810  25.927  33.572  1.00  0.00     0.029 C 
ENDBRANCH  19  24
ENDBRANCH  13  18
BRANCH  16  26
ATOM     26  C   UNL A   1      46.962  27.857  24.722  1.00  0.00     0.433 C 
ATOM     27  F   UNL A   1      46.677  29.040  25.334  1.00  0.00    -0.165 F 
ATOM     28  F   UNL A   1      48.276  27.917  24.367  1.00  0.00    -0.165 F 
ATOM     29  F   UNL A   1      46.265  27.877  23.548  1.00  0.00    -0.165 F 
ENDBRANCH  16  26
ENDBRANCH   8  12
ENDBRANCH   4   7
ENDBRANCH   2   3
ENDBRANCH   1   2
BRANCH   1  30
ATOM     30  C   UNL A   1      42.153  22.161  26.258  1.00  0.00     0.118 C 
BRANCH  30  31
ATOM     31  N   UNL A   1      40.715  22.139  25.932  1.00  0.00    -0.352 N 
ATOM     32  C   UNL A   1      39.713  23.035  26.299  1.00  0.00     0.251 C 
ATOM     33  H   UNL A   1      40.421  21.383  25.375  1.00  0.00     0.163 HD
ATOM     34  O   UNL A   1      38.538  22.735  26.196  1.00  0.00    -0.269 OA
BRANCH  32  35
ATOM     35  C   UNL A   1      40.117  24.357  26.817  1.00  0.00     0.039 A 
ATOM     36  C   UNL A   1      40.455  25.442  26.004  1.00  0.00     0.014 A 
ATOM     37  C   UNL A   1      40.088  24.501  28.192  1.00  0.00     0.014 A 
ATOM     38  C   UNL A   1      40.691  26.675  26.614  1.00  0.00     0.010 A 
ATOM     39  C   UNL A   1      39.963  25.742  28.726  1.00  0.00     0.010 A 
ATOM     40  C   UNL A   1      40.432  26.808  27.986  1.00  0.00    -0.014 A 
BRANCH  40  41
ATOM     41  C   UNL A   1      40.597  28.047  28.727  1.00  0.00     0.031 A 
ATOM     42  C   UNL A   1      41.756  28.860  28.291  1.00  0.00     0.074 A 
ATOM     43  C   UNL A   1      39.623  28.527  29.537  1.00  0.00     0.049 A 
ATOM     44  N   UNL A   1      42.863  29.053  28.925  1.00  0.00    -0.248 NA
ATOM     45  C   UNL A   1      41.766  29.368  26.910  1.00  0.00     0.031 C 
ATOM     46  C   UNL A   1      38.271  27.996  29.786  1.00  0.00     0.029 A 
ATOM     47  N   UNL A   1      39.607  29.682  30.248  1.00  0.00    -0.354 N 
ATOM     48  C   UNL A   1      43.610  29.914  28.128  1.00  0.00     0.074 A 
ATOM     49  C   UNL A   1      42.993  29.886  26.828  1.00  0.00     0.031 C 
ATOM     50  C   UNL A   1      37.508  28.939  30.382  1.00  0.00     0.029 A 
ATOM     51  C   UNL A   1      38.356  30.061  30.730  1.00  0.00     0.049 A 
ATOM     52  H   UNL A   1      40.419  30.214  30.411  1.00  0.00     0.167 HD
ATOM     53  C   UNL A   1      44.520  30.767  28.678  1.00  0.00     0.037 A 
ATOM     54  C   UNL A   1      38.056  31.232  31.348  1.00  0.00     0.037 A 
ATOM     55  C   UNL A   1      44.777  30.419  30.055  1.00  0.00     0.049 A 
ATOM     56  C   UNL A   1      39.349  31.784  31.843  1.00  0.00     0.074 A 
ATOM     57  C   UNL A   1      45.278  29.301  30.692  1.00  0.00     0.029 A 
ATOM     58  N   UNL A   1      44.111  31.137  31.022  1.00  0.00    -0.354 N 
ATOM     59  N   UNL A   1      40.081  31.199  32.756  1.00  0.00    -0.248 NA
ATOM     60  C   UNL A   1      40.065  32.694  30.961  1.00  0.00     0.031 C 
ATOM     61  C   UNL A   1      44.477  29.158  31.863  1.00  0.00     0.029 A 
ATOM     62  C   UNL A   1      43.595  30.239  31.923  1.00  0.00     0.049 A 
ATOM     63  H   UNL A   1      44.021  32.117  31.061  1.00  0.00     0.167 HD
ATOM     64  C   UNL A   1      41.390  31.339  32.314  1.00  0.00     0.074 A 
ATOM     65  C   UNL A   1      41.320  32.323  31.232  1.00  0.00     0.031 C 
ATOM     66  C   UNL A   1      42.360  30.438  32.655  1.00  0.00     0.037 A 
BRANCH  53  67
ATOM     67  C   UNL A   1      44.899  32.116  28.115  1.00  0.00     0.058 A 
ATOM     68  C   UNL A   1      46.213  32.308  27.638  1.00  0.00     0.135 A 
ATOM     69  C   UNL A   1      44.132  33.291  28.272  1.00  0.00     0.135 A 
ATOM     70  F   UNL A   1      47.032  31.262  27.442  1.00  0.00    -0.206 F 
ATOM     71  C   UNL A   1      46.752  33.576  27.422  1.00  0.00     0.059 A 
ATOM     72  C   UNL A   1      44.633  34.561  28.010  1.00  0.00     0.059 A 
ATOM     73  F   UNL A   1      42.896  33.280  28.780  1.00  0.00    -0.206 F 
ATOM     74  C   UNL A   1      45.957  34.698  27.630  1.00  0.00     0.060 A 
BRANCH  74  75
ATOM     75  S   UNL A   1      46.682  36.337  27.463  1.00  0.00     0.124 S 
ATOM     76  O   UNL A   1      45.584  37.186  27.912  1.00  0.00    -0.237 OA
ATOM     77  O   UNL A   1      47.831  36.250  28.358  1.00  0.00    -0.237 OA
ATOM     78  O   UNL A   1      47.004  36.419  26.042  1.00  0.00    -0.744 OA
ENDBRANCH  74  75
ENDBRANCH  53  67
BRANCH  54  79
ATOM     79  C   UNL A   1      36.829  32.062  31.179  1.00  0.00     0.058 A 
ATOM     80  C   UNL A   1      35.994  32.371  32.268  1.00  0.00     0.135 A 
ATOM     81  C   UNL A   1      36.606  32.806  30.001  1.00  0.00     0.135 A 
ATOM     82  F   UNL A   1      36.147  31.728  33.435  1.00  0.00    -0.206 F 
ATOM     83  C   UNL A   1      35.028  33.386  32.208  1.00  0.00     0.059 A 
ATOM     84  C   UNL A   1      35.649  33.818  29.917  1.00  0.00     0.059 A 
ATOM     85  F   UNL A   1      37.381  32.632  28.920  1.00  0.00    -0.206 F 
ATOM     86  C   UNL A   1      34.878  34.121  31.032  1.00  0.00     0.060 A 
BRANCH  86  87
ATOM     87  S   UNL A   1      33.760  35.546  31.002  1.00  0.00     0.124 S 
ATOM     88  O   UNL A   1      34.309  36.384  32.062  1.00  0.00    -0.237 OA
ATOM     89  O   UNL A   1      33.932  36.045  29.642  1.00  0.00    -0.237 OA
ATOM     90  O   UNL A   1      32.453  34.958  31.285  1.00  0.00    -0.744 OA
ENDBRANCH  86  87
ENDBRANCH  54  79
BRANCH  66  91
ATOM     91  C   UNL A   1      42.063  29.422  33.733  1.00  0.00     0.058 A 
ATOM     92  C   UNL A   1      41.561  28.130  33.496  1.00  0.00     0.135 A 
ATOM     93  C   UNL A   1      42.514  29.702  35.031  1.00  0.00     0.135 A 
ATOM     94  F   UNL A   1      41.191  27.749  32.267  1.00  0.00    -0.206 F 
ATOM     95  C   UNL A   1      41.501  27.165  34.506  1.00  0.00     0.059 A 
ATOM     96  C   UNL A   1      42.491  28.750  36.045  1.00  0.00     0.059 A 
ATOM     97  F   UNL A   1      43.058  30.898  35.307  1.00  0.00    -0.206 F 
ATOM     98  C   UNL A   1      41.979  27.481  35.777  1.00  0.00     0.060 A 
BRANCH  98  99
ATOM     99  S   UNL A   1      42.008  26.206  37.056  1.00  0.00     0.124 S 
ATOM    100  O   UNL A   1      43.027  26.710  37.970  1.00  0.00    -0.237 OA
ATOM    101  O   UNL A   1      40.638  26.226  37.560  1.00  0.00    -0.237 OA
ATOM    102  O   UNL A   1      42.374  24.995  36.323  1.00  0.00    -0.744 OA
ENDBRANCH  98  99
ENDBRANCH  66  91
ENDBRANCH  40  41
ENDBRANCH  32  35
ENDBRANCH  30  31
ENDBRANCH   1  30
TORSDOF 17
ENDMDL
MODEL 2
REMARK VINA RESULT:     -11.5      1.420      2.883
REMARK SMILES CCn1ncc(-c2cc(C(F)(F)F)nc(-n3ccc(C(=O)NCCCNC(=O)c4ccc(-c5c6nc(c(-c7c(F)cc(S(=O)(=O)[O-])cc7F)c7ccc([nH]7)c(-c7c(F)cc(S(=O)(=O)[O-])cc7F)c7nc(c(-c8c(F)cc(S(=O)(=O)[O-])cc8F)c8ccc5[nH]8)C=C7)C=C6)cc4)n3)n2)c1C
REMARK SMILES IDX 24 1 23 2 22 3 20 4 21 5 19 7 16 8 17 9 95 10 18 11 15 12
REMARK SMILES IDX 7 13 8 14 96 15 9 16 14 17 6 18 3 19 4 20 97 21 5 22 98 23
REMARK SMILES IDX 2 24 1 25 10 26 11 27 12 28 13 29 25 30 26 31 27 32 28 34
REMARK SMILES IDX 29 35 30 36 94 37 31 38 93 39 32 40 33 41 34 42 87 43 35 44
REMARK SMILES IDX 92 45 86 46 88 47 36 48 91 49 85 50 84 51 37 53 71 54 50 55
REMARK SMILES IDX 70 56 51 57 54 58 69 59 89 60 52 61 53 62 68 64 90 65 55 66
REMARK SMILES IDX 38 67 39 68 48 69 40 70 41 71 47 72 49 73 42 74 43 75 44 76
REMARK SMILES IDX 45 77 46 78 72 79 73 80 82 81 74 82 75 83 81 84 83 85 76 86
REMARK SMILES IDX 77 87 78 88 79 89 80 90 56 91 57 92 66 93 58 94 59 95 65 96
REMARK SMILES IDX 67 97 60 98 61 99 62 100 63 101 64 102
REMARK H PARENT 22 6 26 33 88 52 54 63
REMARK Flexibility Score: inf
ROOT
ATOM      1  C   UNL A   1      41.881  20.343  26.976  1.00  0.00     0.042 C 
ENDROOT
BRANCH   1   2
ATOM      2  C   UNL A   1      41.878  19.434  25.741  1.00  0.00     0.118 C 
BRANCH   2   3
ATOM      3  N   UNL A   1      43.099  18.650  25.585  1.00  0.00    -0.351 N 
ATOM      4  C   UNL A   1      44.403  19.031  25.341  1.00  0.00     0.271 C 
ATOM      5  O   UNL A   1      45.253  18.144  25.261  1.00  0.00    -0.267 OA
ATOM      6  H   UNL A   1      42.969  17.678  25.667  1.00  0.00     0.163 HD
BRANCH   4   7
ATOM      7  C   UNL A   1      44.757  20.441  25.117  1.00  0.00     0.150 A 
ATOM      8  N   UNL A   1      45.121  22.511  25.525  1.00  0.00    -0.205 N 
ATOM      9  C   UNL A   1      44.928  22.445  24.165  1.00  0.00     0.119 A 
ATOM     10  N   UNL A   1      45.171  21.279  26.081  1.00  0.00    -0.160 NA
ATOM     11  C   UNL A   1      44.736  21.118  23.866  1.00  0.00     0.056 A 
BRANCH   8  12
ATOM     12  C   UNL A   1      45.168  23.690  26.338  1.00  0.00     0.251 A 
ATOM     13  C   UNL A   1      46.171  25.680  26.869  1.00  0.00     0.080 A 
ATOM     14  C   UNL A   1      45.431  25.790  28.025  1.00  0.00     0.062 A 
ATOM     15  N   UNL A   1      46.095  24.622  26.049  1.00  0.00    -0.211 NA
ATOM     16  C   UNL A   1      44.507  24.787  28.263  1.00  0.00     0.150 A 
ATOM     17  N   UNL A   1      44.327  23.759  27.392  1.00  0.00    -0.207 NA
BRANCH  13  18
ATOM     18  C   UNL A   1      47.000  26.781  26.427  1.00  0.00     0.041 A 
ATOM     19  N   UNL A   1      48.782  27.975  25.930  1.00  0.00    -0.269 N 
ATOM     20  N   UNL A   1      47.755  28.662  25.386  1.00  0.00    -0.181 NA
ATOM     21  C   UNL A   1      48.377  26.836  26.591  1.00  0.00     0.045 A 
ATOM     22  C   UNL A   1      46.678  27.938  25.694  1.00  0.00     0.145 A 
ATOM     23  C   UNL A   1      49.296  25.899  27.293  1.00  0.00     0.067 C 
BRANCH  19  24
ATOM     24  C   UNL A   1      50.144  28.458  25.773  1.00  0.00     0.141 C 
ATOM     25  C   UNL A   1      50.874  27.964  24.533  1.00  0.00     0.029 C 
ENDBRANCH  19  24
ENDBRANCH  13  18
BRANCH  16  26
ATOM     26  C   UNL A   1      43.699  24.805  29.550  1.00  0.00     0.433 C 
ATOM     27  F   UNL A   1      43.095  26.001  29.791  1.00  0.00    -0.165 F 
ATOM     28  F   UNL A   1      42.710  23.868  29.562  1.00  0.00    -0.165 F 
ATOM     29  F   UNL A   1      44.457  24.549  30.658  1.00  0.00    -0.165 F 
ENDBRANCH  16  26
ENDBRANCH   8  12
ENDBRANCH   4   7
ENDBRANCH   2   3
ENDBRANCH   1   2
BRANCH   1  30
ATOM     30  C   UNL A   1      41.554  21.782  26.615  1.00  0.00     0.118 C 
BRANCH  30  31
ATOM     31  N   UNL A   1      40.176  21.972  26.126  1.00  0.00    -0.352 N 
ATOM     32  C   UNL A   1      39.313  23.048  26.316  1.00  0.00     0.251 C 
ATOM     33  H   UNL A   1      39.814  21.231  25.589  1.00  0.00     0.163 HD
ATOM     34  O   UNL A   1      38.120  22.939  26.098  1.00  0.00    -0.269 OA
BRANCH  32  35
ATOM     35  C   UNL A   1      39.885  24.324  26.791  1.00  0.00     0.039 A 
ATOM     36  C   UNL A   1      40.431  25.294  25.947  1.00  0.00     0.014 A 
ATOM     37  C   UNL A   1      39.799  24.554  28.152  1.00  0.00     0.014 A 
ATOM     38  C   UNL A   1      40.819  26.512  26.508  1.00  0.00     0.010 A 
ATOM     39  C   UNL A   1      39.836  25.830  28.612  1.00  0.00     0.010 A 
ATOM     40  C   UNL A   1      40.504  26.766  27.851  1.00  0.00    -0.014 A 
BRANCH  40  41
ATOM     41  C   UNL A   1      40.816  28.010  28.536  1.00  0.00     0.031 A 
ATOM     42  C   UNL A   1      42.081  28.641  28.096  1.00  0.00     0.074 A 
ATOM     43  C   UNL A   1      39.895  28.653  29.294  1.00  0.00     0.049 A 
ATOM     44  N   UNL A   1      43.189  28.720  28.751  1.00  0.00    -0.248 NA
ATOM     45  C   UNL A   1      42.189  29.072  26.692  1.00  0.00     0.031 C 
ATOM     46  C   UNL A   1      38.480  28.318  29.528  1.00  0.00     0.029 A 
ATOM     47  N   UNL A   1      40.016  29.836  29.947  1.00  0.00    -0.354 N 
ATOM     48  C   UNL A   1      44.061  29.434  27.936  1.00  0.00     0.074 A 
ATOM     49  C   UNL A   1      43.476  29.420  26.621  1.00  0.00     0.031 C 
ATOM     50  C   UNL A   1      37.834  29.382  30.056  1.00  0.00     0.029 A 
ATOM     51  C   UNL A   1      38.816  30.399  30.374  1.00  0.00     0.049 A 
ATOM     52  H   UNL A   1      40.888  30.264  30.109  1.00  0.00     0.167 HD
ATOM     53  C   UNL A   1      45.063  30.187  28.470  1.00  0.00     0.037 A 
ATOM     54  C   UNL A   1      38.659  31.630  30.927  1.00  0.00     0.037 A 
ATOM     55  C   UNL A   1      45.241  29.879  29.870  1.00  0.00     0.049 A 
ATOM     56  C   UNL A   1      40.002  32.032  31.432  1.00  0.00     0.074 A 
ATOM     57  C   UNL A   1      45.575  28.740  30.574  1.00  0.00     0.029 A 
ATOM     58  N   UNL A   1      44.654  30.727  30.782  1.00  0.00    -0.354 N 
ATOM     59  N   UNL A   1      40.630  31.404  32.392  1.00  0.00    -0.248 NA
ATOM     60  C   UNL A   1      40.852  32.794  30.529  1.00  0.00     0.031 C 
ATOM     61  C   UNL A   1      44.736  28.762  31.727  1.00  0.00     0.029 A 
ATOM     62  C   UNL A   1      44.004  29.951  31.709  1.00  0.00     0.049 A 
ATOM     63  H   UNL A   1      44.693  31.711  30.771  1.00  0.00     0.167 HD
ATOM     64  C   UNL A   1      41.955  31.349  31.983  1.00  0.00     0.074 A 
ATOM     65  C   UNL A   1      42.040  32.277  30.854  1.00  0.00     0.031 C 
ATOM     66  C   UNL A   1      42.790  30.348  32.394  1.00  0.00     0.037 A 
BRANCH  53  67
ATOM     67  C   UNL A   1      45.630  31.444  27.855  1.00  0.00     0.058 A 
ATOM     68  C   UNL A   1      47.028  31.552  27.695  1.00  0.00     0.135 A 
ATOM     69  C   UNL A   1      44.903  32.641  27.672  1.00  0.00     0.135 A 
ATOM     70  F   UNL A   1      47.820  30.477  27.838  1.00  0.00    -0.206 F 
ATOM     71  C   UNL A   1      47.662  32.772  27.463  1.00  0.00     0.059 A 
ATOM     72  C   UNL A   1      45.512  33.857  27.385  1.00  0.00     0.059 A 
ATOM     73  F   UNL A   1      43.582  32.715  27.858  1.00  0.00    -0.206 F 
ATOM     74  C   UNL A   1      46.893  33.923  27.328  1.00  0.00     0.060 A 
BRANCH  74  75
ATOM     75  S   UNL A   1      47.713  35.515  27.142  1.00  0.00     0.124 S 
ATOM     76  O   UNL A   1      46.887  36.367  27.991  1.00  0.00    -0.237 OA
ATOM     77  O   UNL A   1      49.054  35.223  27.639  1.00  0.00    -0.237 OA
ATOM     78  O   UNL A   1      47.623  35.774  25.708  1.00  0.00    -0.744 OA
ENDBRANCH  74  75
ENDBRANCH  53  67
BRANCH  54  79
ATOM     79  C   UNL A   1      37.557  32.603  30.683  1.00  0.00     0.058 A 
ATOM     80  C   UNL A   1      37.511  33.385  29.514  1.00  0.00     0.135 A 
ATOM     81  C   UNL A   1      36.377  32.581  31.455  1.00  0.00     0.135 A 
ATOM     82  F   UNL A   1      38.580  33.449  28.706  1.00  0.00    -0.206 F 
ATOM     83  C   UNL A   1      36.352  34.064  29.111  1.00  0.00     0.059 A 
ATOM     84  C   UNL A   1      35.213  33.252  31.078  1.00  0.00     0.059 A 
ATOM     85  F   UNL A   1      36.292  31.825  32.560  1.00  0.00    -0.206 F 
ATOM     86  C   UNL A   1      35.198  33.974  29.890  1.00  0.00     0.060 A 
BRANCH  86  87
ATOM     87  S   UNL A   1      33.652  34.700  29.290  1.00  0.00     0.124 S 
ATOM     88  O   UNL A   1      34.126  35.896  28.602  1.00  0.00    -0.237 OA
ATOM     89  O   UNL A   1      33.124  33.641  28.436  1.00  0.00    -0.237 OA
ATOM     90  O   UNL A   1      32.893  34.944  30.514  1.00  0.00    -0.744 OA
ENDBRANCH  86  87
ENDBRANCH  54  79
BRANCH  66  91
ATOM     91  C   UNL A   1      42.337  29.436  33.510  1.00  0.00     0.058 A 
ATOM     92  C   UNL A   1      41.626  28.236  33.323  1.00  0.00     0.135 A 
ATOM     93  C   UNL A   1      42.839  29.685  34.796  1.00  0.00     0.135 A 
ATOM     94  F   UNL A   1      41.188  27.877  32.111  1.00  0.00    -0.206 F 
ATOM     95  C   UNL A   1      41.415  27.333  34.370  1.00  0.00     0.059 A 
ATOM     96  C   UNL A   1      42.665  28.788  35.846  1.00  0.00     0.059 A 
ATOM     97  F   UNL A   1      43.576  30.783  35.026  1.00  0.00    -0.206 F 
ATOM     98  C   UNL A   1      41.948  27.613  35.627  1.00  0.00     0.060 A 
BRANCH  98  99
ATOM     99  S   UNL A   1      41.776  26.398  36.953  1.00  0.00     0.124 S 
ATOM    100  O   UNL A   1      40.488  26.759  37.536  1.00  0.00    -0.237 OA
ATOM    101  O   UNL A   1      41.813  25.130  36.232  1.00  0.00    -0.237 OA
ATOM    102  O   UNL A   1      42.937  26.654  37.804  1.00  0.00    -0.744 OA
ENDBRANCH  98  99
ENDBRANCH  66  91
ENDBRANCH  40  41
ENDBRANCH  32  35
ENDBRANCH  30  31
ENDBRANCH   1  30
TORSDOF 17
ENDMDL
MODEL 3
REMARK VINA RESULT:     -11.3      4.657     11.087
REMARK SMILES CCn1ncc(-c2cc(C(F)(F)F)nc(-n3ccc(C(=O)NCCCNC(=O)c4ccc(-c5c6nc(c(-c7c(F)cc(S(=O)(=O)[O-])cc7F)c7ccc([nH]7)c(-c7c(F)cc(S(=O)(=O)[O-])cc7F)c7nc(c(-c8c(F)cc(S(=O)(=O)[O-])cc8F)c8ccc5[nH]8)C=C7)C=C6)cc4)n3)n2)c1C
REMARK SMILES IDX 24 1 23 2 22 3 20 4 21 5 19 7 16 8 17 9 95 10 18 11 15 12
REMARK SMILES IDX 7 13 8 14 96 15 9 16 14 17 6 18 3 19 4 20 97 21 5 22 98 23
REMARK SMILES IDX 2 24 1 25 10 26 11 27 12 28 13 29 25 30 26 31 27 32 28 34
REMARK SMILES IDX 29 35 30 36 94 37 31 38 93 39 32 40 33 41 34 42 87 43 35 44
REMARK SMILES IDX 92 45 86 46 88 47 36 48 91 49 85 50 84 51 37 53 71 54 50 55
REMARK SMILES IDX 70 56 51 57 54 58 69 59 89 60 52 61 53 62 68 64 90 65 55 66
REMARK SMILES IDX 38 67 39 68 48 69 40 70 41 71 47 72 49 73 42 74 43 75 44 76
REMARK SMILES IDX 45 77 46 78 72 79 73 80 82 81 74 82 75 83 81 84 83 85 76 86
REMARK SMILES IDX 77 87 78 88 79 89 80 90 56 91 57 92 66 93 58 94 59 95 65 96
REMARK SMILES IDX 67 97 60 98 61 99 62 100 63 101 64 102
REMARK H PARENT 22 6 26 33 88 52 54 63
REMARK Flexibility Score: inf
ROOT
ATOM      1  C   UNL A   1      32.866  30.337  26.697  1.00  0.00     0.042 C 
ENDROOT
BRANCH   1   2
ATOM      2  C   UNL A   1      32.942  29.077  25.826  1.00  0.00     0.118 C 
BRANCH   2   3
ATOM      3  N   UNL A   1      33.583  29.293  24.533  1.00  0.00    -0.351 N 
ATOM      4  C   UNL A   1      33.735  28.463  23.440  1.00  0.00     0.271 C 
ATOM      5  O   UNL A   1      34.323  28.914  22.457  1.00  0.00    -0.267 OA
ATOM      6  H   UNL A   1      33.978  30.188  24.420  1.00  0.00     0.163 HD
BRANCH   4   7
ATOM      7  C   UNL A   1      33.268  27.068  23.470  1.00  0.00     0.150 A 
ATOM      8  N   UNL A   1      33.271  24.955  23.813  1.00  0.00    -0.205 N 
ATOM      9  C   UNL A   1      32.286  25.162  22.876  1.00  0.00     0.119 A 
ATOM     10  N   UNL A   1      33.760  26.123  24.287  1.00  0.00    -0.160 NA
ATOM     11  C   UNL A   1      32.230  26.519  22.667  1.00  0.00     0.056 A 
BRANCH   8  12
ATOM     12  C   UNL A   1      33.836  23.702  24.214  1.00  0.00     0.251 A 
ATOM     13  C   UNL A   1      35.658  22.485  24.887  1.00  0.00     0.080 A 
ATOM     14  C   UNL A   1      34.976  21.300  24.722  1.00  0.00     0.062 A 
ATOM     15  N   UNL A   1      35.129  23.681  24.590  1.00  0.00    -0.211 NA
ATOM     16  C   UNL A   1      33.655  21.399  24.321  1.00  0.00     0.150 A 
ATOM     17  N   UNL A   1      33.056  22.603  24.121  1.00  0.00    -0.207 NA
BRANCH  13  18
ATOM     18  C   UNL A   1      36.965  22.494  25.507  1.00  0.00     0.041 A 
ATOM     19  N   UNL A   1      39.009  21.894  26.062  1.00  0.00    -0.269 N 
ATOM     20  N   UNL A   1      38.900  23.163  26.508  1.00  0.00    -0.181 NA
ATOM     21  C   UNL A   1      37.857  21.432  25.465  1.00  0.00     0.045 A 
ATOM     22  C   UNL A   1      37.659  23.520  26.174  1.00  0.00     0.145 A 
ATOM     23  C   UNL A   1      37.693  20.066  24.896  1.00  0.00     0.067 C 
BRANCH  19  24
ATOM     24  C   UNL A   1      40.259  21.171  26.228  1.00  0.00     0.141 C 
ATOM     25  C   UNL A   1      40.887  21.259  27.612  1.00  0.00     0.029 C 
ENDBRANCH  19  24
ENDBRANCH  13  18
BRANCH  16  26
ATOM     26  C   UNL A   1      32.858  20.133  24.054  1.00  0.00     0.433 C 
ATOM     27  F   UNL A   1      31.888  19.900  24.983  1.00  0.00    -0.165 F 
ATOM     28  F   UNL A   1      32.232  20.152  22.844  1.00  0.00    -0.165 F 
ATOM     29  F   UNL A   1      33.632  19.007  24.047  1.00  0.00    -0.165 F 
ENDBRANCH  16  26
ENDBRANCH   8  12
ENDBRANCH   4   7
ENDBRANCH   2   3
ENDBRANCH   1   2
BRANCH   1  30
ATOM     30  C   UNL A   1      34.232  30.733  27.233  1.00  0.00     0.118 C 
BRANCH  30  31
ATOM     31  N   UNL A   1      34.191  31.859  28.183  1.00  0.00    -0.352 N 
ATOM     32  C   UNL A   1      34.930  32.060  29.347  1.00  0.00     0.251 C 
ATOM     33  H   UNL A   1      33.549  32.572  27.964  1.00  0.00     0.163 HD
ATOM     34  O   UNL A   1      34.587  32.887  30.171  1.00  0.00    -0.269 OA
BRANCH  32  35
ATOM     35  C   UNL A   1      36.140  31.238  29.553  1.00  0.00     0.039 A 
ATOM     36  C   UNL A   1      36.228  29.884  29.219  1.00  0.00     0.014 A 
ATOM     37  C   UNL A   1      37.243  31.905  30.052  1.00  0.00     0.014 A 
ATOM     38  C   UNL A   1      37.467  29.255  29.342  1.00  0.00     0.010 A 
ATOM     39  C   UNL A   1      38.482  31.398  29.826  1.00  0.00     0.010 A 
ATOM     40  C   UNL A   1      38.593  30.036  29.642  1.00  0.00    -0.014 A 
BRANCH  40  41
ATOM     41  C   UNL A   1      39.942  29.506  29.754  1.00  0.00     0.031 A 
ATOM     42  C   UNL A   1      40.336  29.147  31.136  1.00  0.00     0.074 A 
ATOM     43  C   UNL A   1      40.648  29.125  28.662  1.00  0.00     0.049 A 
ATOM     44  N   UNL A   1      41.175  29.762  31.898  1.00  0.00    -0.248 NA
ATOM     45  C   UNL A   1      39.574  28.091  31.821  1.00  0.00     0.031 C 
ATOM     46  C   UNL A   1      40.238  29.096  27.248  1.00  0.00     0.029 A 
ATOM     47  N   UNL A   1      41.886  28.571  28.608  1.00  0.00    -0.354 N 
ATOM     48  C   UNL A   1      41.232  29.020  33.074  1.00  0.00     0.074 A 
ATOM     49  C   UNL A   1      40.080  28.159  33.055  1.00  0.00     0.031 C 
ATOM     50  C   UNL A   1      41.101  28.342  26.532  1.00  0.00     0.029 A 
ATOM     51  C   UNL A   1      42.220  27.995  27.384  1.00  0.00     0.049 A 
ATOM     52  H   UNL A   1      42.502  28.576  29.376  1.00  0.00     0.167 HD
ATOM     53  C   UNL A   1      42.360  29.004  33.839  1.00  0.00     0.037 A 
ATOM     54  C   UNL A   1      43.335  27.267  27.119  1.00  0.00     0.037 A 
ATOM     55  C   UNL A   1      43.271  30.045  33.426  1.00  0.00     0.049 A 
ATOM     56  C   UNL A   1      44.320  27.614  28.181  1.00  0.00     0.074 A 
ATOM     57  C   UNL A   1      43.201  31.423  33.366  1.00  0.00     0.029 A 
ATOM     58  N   UNL A   1      44.307  29.684  32.595  1.00  0.00    -0.354 N 
ATOM     59  N   UNL A   1      44.832  28.809  28.328  1.00  0.00    -0.248 NA
ATOM     60  C   UNL A   1      44.335  26.782  29.375  1.00  0.00     0.031 C 
ATOM     61  C   UNL A   1      43.851  31.769  32.144  1.00  0.00     0.029 A 
ATOM     62  C   UNL A   1      44.357  30.599  31.573  1.00  0.00     0.049 A 
ATOM     63  H   UNL A   1      44.903  28.909  32.712  1.00  0.00     0.167 HD
ATOM     64  C   UNL A   1      44.851  29.029  29.699  1.00  0.00     0.074 A 
ATOM     65  C   UNL A   1      44.588  27.718  30.294  1.00  0.00     0.031 C 
ATOM     66  C   UNL A   1      44.781  30.289  30.223  1.00  0.00     0.037 A 
BRANCH  53  67
ATOM     67  C   UNL A   1      42.811  27.848  34.699  1.00  0.00     0.058 A 
ATOM     68  C   UNL A   1      42.977  28.056  36.085  1.00  0.00     0.135 A 
ATOM     69  C   UNL A   1      43.347  26.642  34.197  1.00  0.00     0.135 A 
ATOM     70  F   UNL A   1      42.501  29.165  36.674  1.00  0.00    -0.206 F 
ATOM     71  C   UNL A   1      43.698  27.177  36.892  1.00  0.00     0.059 A 
ATOM     72  C   UNL A   1      44.022  25.725  34.995  1.00  0.00     0.059 A 
ATOM     73  F   UNL A   1      43.332  26.335  32.896  1.00  0.00    -0.206 F 
ATOM     74  C   UNL A   1      44.233  26.022  36.331  1.00  0.00     0.060 A 
BRANCH  74  75
ATOM     75  S   UNL A   1      45.261  24.944  37.342  1.00  0.00     0.124 S 
ATOM     76  O   UNL A   1      46.578  25.544  37.159  1.00  0.00    -0.237 OA
ATOM     77  O   UNL A   1      44.660  25.107  38.662  1.00  0.00    -0.237 OA
ATOM     78  O   UNL A   1      45.073  23.632  36.731  1.00  0.00    -0.744 OA
ENDBRANCH  74  75
ENDBRANCH  53  67
BRANCH  54  79
ATOM     79  C   UNL A   1      43.441  26.038  26.282  1.00  0.00     0.058 A 
ATOM     80  C   UNL A   1      44.473  25.875  25.340  1.00  0.00     0.135 A 
ATOM     81  C   UNL A   1      42.700  24.877  26.590  1.00  0.00     0.135 A 
ATOM     82  F   UNL A   1      45.243  26.920  25.002  1.00  0.00    -0.206 F 
ATOM     83  C   UNL A   1      44.783  24.630  24.774  1.00  0.00     0.059 A 
ATOM     84  C   UNL A   1      42.986  23.629  26.035  1.00  0.00     0.059 A 
ATOM     85  F   UNL A   1      41.729  24.905  27.515  1.00  0.00    -0.206 F 
ATOM     86  C   UNL A   1      44.046  23.505  25.145  1.00  0.00     0.060 A 
BRANCH  86  87
ATOM     87  S   UNL A   1      44.549  21.869  24.555  1.00  0.00     0.124 S 
ATOM     88  O   UNL A   1      45.903  21.759  25.086  1.00  0.00    -0.237 OA
ATOM     89  O   UNL A   1      43.552  20.999  25.170  1.00  0.00    -0.237 OA
ATOM     90  O   UNL A   1      44.456  21.988  23.102  1.00  0.00    -0.744 OA
ENDBRANCH  86  87
ENDBRANCH  54  79
BRANCH  66  91
ATOM     91  C   UNL A   1      44.944  31.472  29.297  1.00  0.00     0.058 A 
ATOM     92  C   UNL A   1      46.177  31.938  28.806  1.00  0.00     0.135 A 
ATOM     93  C   UNL A   1      43.784  32.011  28.721  1.00  0.00     0.135 A 
ATOM     94  F   UNL A   1      47.332  31.415  29.237  1.00  0.00    -0.206 F 
ATOM     95  C   UNL A   1      46.252  32.901  27.795  1.00  0.00     0.059 A 
ATOM     96  C   UNL A   1      43.834  32.949  27.695  1.00  0.00     0.059 A 
ATOM     97  F   UNL A   1      42.577  31.565  29.105  1.00  0.00    -0.206 F 
ATOM     98  C   UNL A   1      45.073  33.395  27.237  1.00  0.00     0.060 A 
BRANCH  98  99
ATOM     99  S   UNL A   1      45.164  34.555  25.856  1.00  0.00     0.124 S 
ATOM    100  O   UNL A   1      46.489  34.280  25.310  1.00  0.00    -0.237 OA
ATOM    101  O   UNL A   1      44.038  34.147  25.021  1.00  0.00    -0.237 OA
ATOM    102  O   UNL A   1      45.012  35.860  26.495  1.00  0.00    -0.744 OA
ENDBRANCH  98  99
ENDBRANCH  66  91
ENDBRANCH  40  41
ENDBRANCH  32  35
ENDBRANCH  30  31
ENDBRANCH   1  30
TORSDOF 17
ENDMDL
