MODEL 1
REMARK VINA RESULT:     -12.8      0.000      0.000
REMARK SMILES O=C(NCCCNC(=O)[C@H]1Cc2[nH]cnc2CN1C(=O)c1ccncc1Cl)c1ccc(-c2c3nc(c(-c4c(F)cc(S(=O)(=O)[O-])cc4F)c4ccc([nH]4)c(-c4c(F)cc(S(=O)(=O)[O-])cc4F)c4nc(c(-c5c(F)cc(S(=O)(=O)[O-])cc5F)c5ccc2[nH]5)C=C4)C=C3)cc1
REMARK SMILES IDX 4 1 3 2 1 3 2 4 28 6 29 7 93 8 30 9 92 10 31 11 32 12 33 13
REMARK SMILES IDX 86 14 34 15 91 16 85 17 87 18 35 19 90 20 84 21 83 22 36 24
REMARK SMILES IDX 70 25 49 26 69 27 50 28 53 29 68 30 88 31 51 32 52 33 67 35
REMARK SMILES IDX 89 36 54 37 37 38 38 39 47 40 39 41 40 42 46 43 48 44 41 45
REMARK SMILES IDX 42 46 43 47 44 48 45 49 71 50 72 51 81 52 73 53 74 54 80 55
REMARK SMILES IDX 82 56 75 57 76 58 77 59 78 60 79 61 55 62 56 63 65 64 57 65
REMARK SMILES IDX 58 66 64 67 66 68 59 69 60 70 61 71 62 72 63 73 5 74 6 75
REMARK SMILES IDX 7 76 8 77 9 79 10 80 11 81 18 82 12 83 17 84 13 85 16 86
REMARK SMILES IDX 14 87 15 89 19 90 20 91 21 92 22 93 26 94 23 95 25 96 27 97
REMARK SMILES IDX 24 98
REMARK H PARENT 3 5 87 23 53 34 7 78 13 88
REMARK Flexibility Score: inf
ROOT
ATOM      1  C   UNL A   1      33.337  29.985  26.765  1.00  0.00     0.118 C 
ENDROOT
BRANCH   1   2
ATOM      2  N   UNL A   1      33.467  31.181  27.574  1.00  0.00    -0.352 N 
ATOM      3  O   UNL A   1      34.223  32.823  28.836  1.00  0.00    -0.269 OA
ATOM      4  C   UNL A   1      34.476  31.735  28.313  1.00  0.00     0.251 C 
ATOM      5  H   UNL A   1      32.641  31.716  27.597  1.00  0.00     0.163 HD
BRANCH   4   6
ATOM      6  C   UNL A   1      35.795  31.095  28.576  1.00  0.00     0.039 A 
ATOM      7  C   UNL A   1      36.067  29.728  28.506  1.00  0.00     0.014 A 
ATOM      8  C   UNL A   1      36.843  31.970  28.923  1.00  0.00     0.014 A 
ATOM      9  C   UNL A   1      37.327  29.241  28.849  1.00  0.00     0.010 A 
ATOM     10  C   UNL A   1      38.108  31.491  29.250  1.00  0.00     0.010 A 
ATOM     11  C   UNL A   1      38.344  30.120  29.237  1.00  0.00    -0.014 A 
BRANCH  11  12
ATOM     12  C   UNL A   1      39.700  29.587  29.380  1.00  0.00     0.031 A 
ATOM     13  C   UNL A   1      40.092  29.358  30.804  1.00  0.00     0.074 A 
ATOM     14  C   UNL A   1      40.478  29.182  28.355  1.00  0.00     0.049 A 
ATOM     15  N   UNL A   1      41.037  29.932  31.476  1.00  0.00    -0.248 NA
ATOM     16  C   UNL A   1      39.226  28.494  31.625  1.00  0.00     0.031 C 
ATOM     17  C   UNL A   1      40.115  29.071  26.941  1.00  0.00     0.029 A 
ATOM     18  N   UNL A   1      41.751  28.687  28.375  1.00  0.00    -0.354 N 
ATOM     19  C   UNL A   1      41.028  29.336  32.737  1.00  0.00     0.074 A 
ATOM     20  C   UNL A   1      39.796  28.601  32.827  1.00  0.00     0.031 C 
ATOM     21  C   UNL A   1      41.051  28.339  26.292  1.00  0.00     0.029 A 
ATOM     22  C   UNL A   1      42.142  28.036  27.205  1.00  0.00     0.049 A 
ATOM     23  H   UNL A   1      42.346  28.780  29.154  1.00  0.00     0.167 HD
ATOM     24  C   UNL A   1      42.143  29.311  33.521  1.00  0.00     0.037 A 
ATOM     25  C   UNL A   1      43.251  27.268  27.018  1.00  0.00     0.037 A 
ATOM     26  C   UNL A   1      43.096  30.302  33.096  1.00  0.00     0.049 A 
ATOM     27  C   UNL A   1      44.213  27.617  28.095  1.00  0.00     0.074 A 
ATOM     28  C   UNL A   1      43.078  31.678  32.973  1.00  0.00     0.029 A 
ATOM     29  N   UNL A   1      44.175  29.874  32.362  1.00  0.00    -0.354 N 
ATOM     30  N   UNL A   1      44.807  28.773  28.194  1.00  0.00    -0.248 NA
ATOM     31  C   UNL A   1      44.164  26.832  29.318  1.00  0.00     0.031 C 
ATOM     32  C   UNL A   1      43.826  31.950  31.790  1.00  0.00     0.029 A 
ATOM     33  C   UNL A   1      44.319  30.737  31.307  1.00  0.00     0.049 A 
ATOM     34  H   UNL A   1      44.740  29.092  32.557  1.00  0.00     0.167 HD
ATOM     35  C   UNL A   1      44.808  29.052  29.551  1.00  0.00     0.074 A 
ATOM     36  C   UNL A   1      44.470  27.787  30.200  1.00  0.00     0.031 C 
ATOM     37  C   UNL A   1      44.805  30.339  30.006  1.00  0.00     0.037 A 
BRANCH  24  38
ATOM     38  C   UNL A   1      42.530  28.157  34.424  1.00  0.00     0.058 A 
ATOM     39  C   UNL A   1      42.660  28.380  35.812  1.00  0.00     0.135 A 
ATOM     40  C   UNL A   1      43.057  26.932  33.957  1.00  0.00     0.135 A 
ATOM     41  F   UNL A   1      42.201  29.511  36.371  1.00  0.00    -0.206 F 
ATOM     42  C   UNL A   1      43.334  27.494  36.654  1.00  0.00     0.059 A 
ATOM     43  C   UNL A   1      43.684  26.011  34.789  1.00  0.00     0.059 A 
ATOM     44  F   UNL A   1      43.076  26.605  32.661  1.00  0.00    -0.206 F 
ATOM     45  C   UNL A   1      43.855  26.317  36.128  1.00  0.00     0.060 A 
BRANCH  45  46
ATOM     46  S   UNL A   1      44.800  25.216  37.195  1.00  0.00     0.124 S 
ATOM     47  O   UNL A   1      44.527  23.920  36.592  1.00  0.00    -0.237 OA
ATOM     48  O   UNL A   1      46.155  25.729  37.032  1.00  0.00    -0.237 OA
ATOM     49  O   UNL A   1      44.206  25.439  38.514  1.00  0.00    -0.744 OA
ENDBRANCH  45  46
ENDBRANCH  24  38
BRANCH  25  50
ATOM     50  C   UNL A   1      43.413  26.029  26.202  1.00  0.00     0.058 A 
ATOM     51  C   UNL A   1      44.557  25.816  25.404  1.00  0.00     0.135 A 
ATOM     52  C   UNL A   1      42.603  24.898  26.422  1.00  0.00     0.135 A 
ATOM     53  F   UNL A   1      45.402  26.827  25.154  1.00  0.00    -0.206 F 
ATOM     54  C   UNL A   1      44.904  24.552  24.906  1.00  0.00     0.059 A 
ATOM     55  C   UNL A   1      42.924  23.631  25.930  1.00  0.00     0.059 A 
ATOM     56  F   UNL A   1      41.520  24.968  27.209  1.00  0.00    -0.206 F 
ATOM     57  C   UNL A   1      44.090  23.458  25.196  1.00  0.00     0.060 A 
BRANCH  57  58
ATOM     58  S   UNL A   1      44.624  21.793  24.722  1.00  0.00     0.124 S 
ATOM     59  O   UNL A   1      45.941  21.709  25.344  1.00  0.00    -0.237 OA
ATOM     60  O   UNL A   1      43.585  20.955  25.310  1.00  0.00    -0.237 OA
ATOM     61  O   UNL A   1      44.626  21.842  23.262  1.00  0.00    -0.744 OA
ENDBRANCH  57  58
ENDBRANCH  25  50
BRANCH  37  62
ATOM     62  C   UNL A   1      45.129  31.448  29.039  1.00  0.00     0.058 A 
ATOM     63  C   UNL A   1      46.427  31.849  28.676  1.00  0.00     0.135 A 
ATOM     64  C   UNL A   1      44.060  32.020  28.332  1.00  0.00     0.135 A 
ATOM     65  F   UNL A   1      47.509  31.279  29.227  1.00  0.00    -0.206 F 
ATOM     66  C   UNL A   1      46.647  32.800  27.677  1.00  0.00     0.059 A 
ATOM     67  C   UNL A   1      44.258  32.943  27.311  1.00  0.00     0.059 A 
ATOM     68  F   UNL A   1      42.799  31.637  28.592  1.00  0.00    -0.206 F 
ATOM     69  C   UNL A   1      45.554  33.338  26.995  1.00  0.00     0.060 A 
BRANCH  69  70
ATOM     70  S   UNL A   1      45.840  34.499  25.642  1.00  0.00     0.124 S 
ATOM     71  O   UNL A   1      44.966  33.976  24.598  1.00  0.00    -0.237 OA
ATOM     72  O   UNL A   1      45.436  35.774  26.228  1.00  0.00    -0.237 OA
ATOM     73  O   UNL A   1      47.272  34.372  25.380  1.00  0.00    -0.744 OA
ENDBRANCH  69  70
ENDBRANCH  37  62
ENDBRANCH  11  12
ENDBRANCH   4   6
ENDBRANCH   1   2
BRANCH   1  74
ATOM     74  C   UNL A   1      32.219  29.038  27.215  1.00  0.00     0.042 C 
BRANCH  74  75
ATOM     75  C   UNL A   1      32.523  27.574  26.904  1.00  0.00     0.117 C 
BRANCH  75  76
ATOM     76  N   UNL A   1      31.313  26.774  26.949  1.00  0.00    -0.354 N 
ATOM     77  C   UNL A   1      31.048  25.525  26.495  1.00  0.00     0.243 C 
ATOM     78  H   UNL A   1      30.550  27.216  27.386  1.00  0.00     0.163 HD
ATOM     79  O   UNL A   1      29.863  25.172  26.509  1.00  0.00    -0.273 OA
BRANCH  77  80
ATOM     80  C   UNL A   1      32.129  24.585  25.938  1.00  0.00     0.181 C 
ATOM     81  C   UNL A   1      32.045  23.275  26.805  1.00  0.00     0.091 C 
ATOM     82  N   UNL A   1      32.271  24.341  24.444  1.00  0.00    -0.320 N 
ATOM     83  C   UNL A   1      32.788  22.174  26.165  1.00  0.00     0.042 A 
ATOM     84  C   UNL A   1      33.378  23.427  24.058  1.00  0.00     0.178 C 
ATOM     85  N   UNL A   1      32.930  20.884  26.587  1.00  0.00    -0.348 N 
ATOM     86  C   UNL A   1      33.391  22.233  24.935  1.00  0.00     0.081 A 
ATOM     87  C   UNL A   1      33.668  20.239  25.629  1.00  0.00     0.197 A 
ATOM     88  H   UNL A   1      32.573  20.495  27.418  1.00  0.00     0.167 HD
ATOM     89  N   UNL A   1      33.979  21.037  24.629  1.00  0.00    -0.240 NA
BRANCH  82  90
ATOM     90  C   UNL A   1      31.890  25.187  23.388  1.00  0.00     0.256 C 
ATOM     91  O   UNL A   1      31.165  24.831  22.458  1.00  0.00    -0.269 OA
BRANCH  90  92
ATOM     92  C   UNL A   1      32.231  26.611  23.374  1.00  0.00     0.061 A 
ATOM     93  C   UNL A   1      33.592  26.940  23.379  1.00  0.00     0.035 A 
ATOM     94  C   UNL A   1      31.272  27.612  23.438  1.00  0.00     0.072 A 
ATOM     95  C   UNL A   1      33.939  28.276  23.288  1.00  0.00     0.112 A 
ATOM     96  C   UNL A   1      31.722  28.917  23.321  1.00  0.00     0.132 A 
ATOM     97  Cl  UNL A   1      29.595  27.296  23.656  1.00  0.00    -0.082 Cl
ATOM     98  N   UNL A   1      33.029  29.271  23.218  1.00  0.00    -0.263 NA
ENDBRANCH  90  92
ENDBRANCH  82  90
ENDBRANCH  77  80
ENDBRANCH  75  76
ENDBRANCH  74  75
ENDBRANCH   1  74
TORSDOF 15
ENDMDL
MODEL 2
REMARK VINA RESULT:     -12.8      1.443      2.697
REMARK SMILES O=C(NCCCNC(=O)[C@H]1Cc2[nH]cnc2CN1C(=O)c1ccncc1Cl)c1ccc(-c2c3nc(c(-c4c(F)cc(S(=O)(=O)[O-])cc4F)c4ccc([nH]4)c(-c4c(F)cc(S(=O)(=O)[O-])cc4F)c4nc(c(-c5c(F)cc(S(=O)(=O)[O-])cc5F)c5ccc2[nH]5)C=C4)C=C3)cc1
REMARK SMILES IDX 4 1 3 2 1 3 2 4 28 6 29 7 93 8 30 9 92 10 31 11 32 12 33 13
REMARK SMILES IDX 86 14 34 15 91 16 85 17 87 18 35 19 90 20 84 21 83 22 36 24
REMARK SMILES IDX 70 25 49 26 69 27 50 28 53 29 68 30 88 31 51 32 52 33 67 35
REMARK SMILES IDX 89 36 54 37 37 38 38 39 47 40 39 41 40 42 46 43 48 44 41 45
REMARK SMILES IDX 42 46 43 47 44 48 45 49 71 50 72 51 81 52 73 53 74 54 80 55
REMARK SMILES IDX 82 56 75 57 76 58 77 59 78 60 79 61 55 62 56 63 65 64 57 65
REMARK SMILES IDX 58 66 64 67 66 68 59 69 60 70 61 71 62 72 63 73 5 74 6 75
REMARK SMILES IDX 7 76 8 77 9 79 10 80 11 81 18 82 12 83 17 84 13 85 16 86
REMARK SMILES IDX 14 87 15 89 19 90 20 91 21 92 22 93 26 94 23 95 25 96 27 97
REMARK SMILES IDX 24 98
REMARK H PARENT 3 5 87 23 53 34 7 78 13 88
REMARK Flexibility Score: inf
ROOT
ATOM      1  C   UNL A   1      33.406  29.673  26.583  1.00  0.00     0.118 C 
ENDROOT
BRANCH   1   2
ATOM      2  N   UNL A   1      33.553  30.898  27.345  1.00  0.00    -0.352 N 
ATOM      3  O   UNL A   1      34.334  32.582  28.536  1.00  0.00    -0.269 OA
ATOM      4  C   UNL A   1      34.574  31.473  28.050  1.00  0.00     0.251 C 
ATOM      5  H   UNL A   1      32.730  31.438  27.358  1.00  0.00     0.163 HD
BRANCH   4   6
ATOM      6  C   UNL A   1      35.893  30.836  28.321  1.00  0.00     0.039 A 
ATOM      7  C   UNL A   1      36.183  29.476  28.196  1.00  0.00     0.014 A 
ATOM      8  C   UNL A   1      36.920  31.704  28.738  1.00  0.00     0.014 A 
ATOM      9  C   UNL A   1      37.437  28.987  28.553  1.00  0.00     0.010 A 
ATOM     10  C   UNL A   1      38.181  31.224  29.078  1.00  0.00     0.010 A 
ATOM     11  C   UNL A   1      38.433  29.858  29.010  1.00  0.00    -0.014 A 
BRANCH  11  12
ATOM     12  C   UNL A   1      39.790  29.333  29.166  1.00  0.00     0.031 A 
ATOM     13  C   UNL A   1      40.219  29.233  30.596  1.00  0.00     0.074 A 
ATOM     14  C   UNL A   1      40.541  28.832  28.163  1.00  0.00     0.049 A 
ATOM     15  N   UNL A   1      41.182  29.861  31.188  1.00  0.00    -0.248 NA
ATOM     16  C   UNL A   1      39.371  28.451  31.514  1.00  0.00     0.031 C 
ATOM     17  C   UNL A   1      40.142  28.593  26.775  1.00  0.00     0.029 A 
ATOM     18  N   UNL A   1      41.813  28.333  28.197  1.00  0.00    -0.354 N 
ATOM     19  C   UNL A   1      41.203  29.383  32.498  1.00  0.00     0.074 A 
ATOM     20  C   UNL A   1      39.971  28.665  32.685  1.00  0.00     0.031 C 
ATOM     21  C   UNL A   1      41.059  27.800  26.172  1.00  0.00     0.029 A 
ATOM     22  C   UNL A   1      42.171  27.577  27.082  1.00  0.00     0.049 A 
ATOM     23  H   UNL A   1      42.427  28.495  28.949  1.00  0.00     0.167 HD
ATOM     24  C   UNL A   1      42.337  29.423  33.253  1.00  0.00     0.037 A 
ATOM     25  C   UNL A   1      43.273  26.789  26.939  1.00  0.00     0.037 A 
ATOM     26  C   UNL A   1      43.282  30.366  32.715  1.00  0.00     0.049 A 
ATOM     27  C   UNL A   1      44.263  27.230  27.954  1.00  0.00     0.074 A 
ATOM     28  C   UNL A   1      43.265  31.725  32.467  1.00  0.00     0.029 A 
ATOM     29  N   UNL A   1      44.341  29.867  31.996  1.00  0.00    -0.354 N 
ATOM     30  N   UNL A   1      44.864  28.386  27.932  1.00  0.00    -0.248 NA
ATOM     31  C   UNL A   1      44.244  26.560  29.245  1.00  0.00     0.031 C 
ATOM     32  C   UNL A   1      43.983  31.884  31.246  1.00  0.00     0.029 A 
ATOM     33  C   UNL A   1      44.460  30.629  30.864  1.00  0.00     0.049 A 
ATOM     34  H   UNL A   1      44.909  29.103  32.248  1.00  0.00     0.167 HD
ATOM     35  C   UNL A   1      44.899  28.788  29.258  1.00  0.00     0.074 A 
ATOM     36  C   UNL A   1      44.575  27.589  30.027  1.00  0.00     0.031 C 
ATOM     37  C   UNL A   1      44.912  30.112  29.593  1.00  0.00     0.037 A 
BRANCH  24  38
ATOM     38  C   UNL A   1      42.744  28.355  34.247  1.00  0.00     0.058 A 
ATOM     39  C   UNL A   1      42.976  28.715  35.593  1.00  0.00     0.135 A 
ATOM     40  C   UNL A   1      43.194  27.066  33.882  1.00  0.00     0.135 A 
ATOM     41  F   UNL A   1      42.597  29.918  36.055  1.00  0.00    -0.206 F 
ATOM     42  C   UNL A   1      43.674  27.895  36.480  1.00  0.00     0.059 A 
ATOM     43  C   UNL A   1      43.843  26.211  34.766  1.00  0.00     0.059 A 
ATOM     44  F   UNL A   1      43.112  26.604  32.630  1.00  0.00    -0.206 F 
ATOM     45  C   UNL A   1      44.116  26.648  36.050  1.00  0.00     0.060 A 
BRANCH  45  46
ATOM     46  S   UNL A   1      45.092  25.625  37.166  1.00  0.00     0.124 S 
ATOM     47  O   UNL A   1      44.259  25.617  38.359  1.00  0.00    -0.237 OA
ATOM     48  O   UNL A   1      45.173  24.370  36.429  1.00  0.00    -0.237 OA
ATOM     49  O   UNL A   1      46.353  26.362  37.278  1.00  0.00    -0.744 OA
ENDBRANCH  45  46
ENDBRANCH  24  38
BRANCH  25  50
ATOM     50  C   UNL A   1      43.411  25.479  26.235  1.00  0.00     0.058 A 
ATOM     51  C   UNL A   1      44.435  25.254  25.292  1.00  0.00     0.135 A 
ATOM     52  C   UNL A   1      42.738  24.329  26.694  1.00  0.00     0.135 A 
ATOM     53  F   UNL A   1      45.148  26.283  24.811  1.00  0.00    -0.206 F 
ATOM     54  C   UNL A   1      44.805  23.966  24.874  1.00  0.00     0.059 A 
ATOM     55  C   UNL A   1      43.083  23.039  26.286  1.00  0.00     0.059 A 
ATOM     56  F   UNL A   1      41.784  24.417  27.631  1.00  0.00    -0.206 F 
ATOM     57  C   UNL A   1      44.136  22.861  25.397  1.00  0.00     0.060 A 
BRANCH  57  58
ATOM     58  S   UNL A   1      44.726  21.192  25.014  1.00  0.00     0.124 S 
ATOM     59  O   UNL A   1      46.073  21.212  25.573  1.00  0.00    -0.237 OA
ATOM     60  O   UNL A   1      43.758  20.353  25.712  1.00  0.00    -0.237 OA
ATOM     61  O   UNL A   1      44.655  21.135  23.556  1.00  0.00    -0.744 OA
ENDBRANCH  57  58
ENDBRANCH  25  50
BRANCH  37  62
ATOM     62  C   UNL A   1      45.214  31.126  28.521  1.00  0.00     0.058 A 
ATOM     63  C   UNL A   1      44.293  31.587  27.563  1.00  0.00     0.135 A 
ATOM     64  C   UNL A   1      46.459  31.771  28.576  1.00  0.00     0.135 A 
ATOM     65  F   UNL A   1      43.045  31.097  27.509  1.00  0.00    -0.206 F 
ATOM     66  C   UNL A   1      44.611  32.621  26.680  1.00  0.00     0.059 A 
ATOM     67  C   UNL A   1      46.784  32.826  27.729  1.00  0.00     0.059 A 
ATOM     68  F   UNL A   1      47.361  31.416  29.505  1.00  0.00    -0.206 F 
ATOM     69  C   UNL A   1      45.859  33.240  26.775  1.00  0.00     0.060 A 
BRANCH  69  70
ATOM     70  S   UNL A   1      46.238  34.637  25.697  1.00  0.00     0.124 S 
ATOM     71  O   UNL A   1      45.333  34.414  24.575  1.00  0.00    -0.237 OA
ATOM     72  O   UNL A   1      45.927  35.785  26.545  1.00  0.00    -0.237 OA
ATOM     73  O   UNL A   1      47.657  34.464  25.399  1.00  0.00    -0.744 OA
ENDBRANCH  69  70
ENDBRANCH  37  62
ENDBRANCH  11  12
ENDBRANCH   4   6
ENDBRANCH   1   2
BRANCH   1  74
ATOM     74  C   UNL A   1      32.513  28.621  27.247  1.00  0.00     0.042 C 
BRANCH  74  75
ATOM     75  C   UNL A   1      32.480  27.302  26.479  1.00  0.00     0.117 C 
BRANCH  75  76
ATOM     76  N   UNL A   1      31.281  26.547  26.798  1.00  0.00    -0.354 N 
ATOM     77  C   UNL A   1      30.622  25.582  26.113  1.00  0.00     0.243 C 
ATOM     78  H   UNL A   1      30.877  26.777  27.665  1.00  0.00     0.163 HD
ATOM     79  O   UNL A   1      29.516  25.250  26.554  1.00  0.00    -0.273 OA
BRANCH  77  80
ATOM     80  C   UNL A   1      31.166  24.945  24.824  1.00  0.00     0.181 C 
ATOM     81  C   UNL A   1      30.898  25.995  23.682  1.00  0.00     0.091 C 
ATOM     82  N   UNL A   1      32.545  24.307  24.778  1.00  0.00    -0.320 N 
ATOM     83  C   UNL A   1      31.667  25.659  22.471  1.00  0.00     0.042 A 
ATOM     84  C   UNL A   1      32.920  23.712  23.468  1.00  0.00     0.178 C 
ATOM     85  N   UNL A   1      31.725  26.333  21.285  1.00  0.00    -0.348 N 
ATOM     86  C   UNL A   1      32.574  24.637  22.364  1.00  0.00     0.081 A 
ATOM     87  C   UNL A   1      32.611  25.652  20.492  1.00  0.00     0.197 A 
ATOM     88  H   UNL A   1      31.227  27.148  21.048  1.00  0.00     0.167 HD
ATOM     89  N   UNL A   1      33.123  24.609  21.112  1.00  0.00    -0.240 NA
BRANCH  82  90
ATOM     90  C   UNL A   1      33.278  23.751  25.841  1.00  0.00     0.256 C 
ATOM     91  O   UNL A   1      32.815  23.578  26.970  1.00  0.00    -0.269 OA
BRANCH  90  92
ATOM     92  C   UNL A   1      34.627  23.214  25.656  1.00  0.00     0.061 A 
ATOM     93  C   UNL A   1      35.670  24.141  25.536  1.00  0.00     0.035 A 
ATOM     94  C   UNL A   1      34.881  21.857  25.515  1.00  0.00     0.072 A 
ATOM     95  C   UNL A   1      36.962  23.657  25.437  1.00  0.00     0.112 A 
ATOM     96  C   UNL A   1      36.210  21.475  25.441  1.00  0.00     0.132 A 
ATOM     97  Cl  UNL A   1      33.638  20.671  25.429  1.00  0.00    -0.082 Cl
ATOM     98  N   UNL A   1      37.258  22.340  25.428  1.00  0.00    -0.263 NA
ENDBRANCH  90  92
ENDBRANCH  82  90
ENDBRANCH  77  80
ENDBRANCH  75  76
ENDBRANCH  74  75
ENDBRANCH   1  74
TORSDOF 15
ENDMDL
MODEL 3
REMARK VINA RESULT:     -12.8      2.731      8.994
REMARK SMILES O=C(NCCCNC(=O)[C@H]1Cc2[nH]cnc2CN1C(=O)c1ccncc1Cl)c1ccc(-c2c3nc(c(-c4c(F)cc(S(=O)(=O)[O-])cc4F)c4ccc([nH]4)c(-c4c(F)cc(S(=O)(=O)[O-])cc4F)c4nc(c(-c5c(F)cc(S(=O)(=O)[O-])cc5F)c5ccc2[nH]5)C=C4)C=C3)cc1
REMARK SMILES IDX 4 1 3 2 1 3 2 4 28 6 29 7 93 8 30 9 92 10 31 11 32 12 33 13
REMARK SMILES IDX 86 14 34 15 91 16 85 17 87 18 35 19 90 20 84 21 83 22 36 24
REMARK SMILES IDX 70 25 49 26 69 27 50 28 53 29 68 30 88 31 51 32 52 33 67 35
REMARK SMILES IDX 89 36 54 37 37 38 38 39 47 40 39 41 40 42 46 43 48 44 41 45
REMARK SMILES IDX 42 46 43 47 44 48 45 49 71 50 72 51 81 52 73 53 74 54 80 55
REMARK SMILES IDX 82 56 75 57 76 58 77 59 78 60 79 61 55 62 56 63 65 64 57 65
REMARK SMILES IDX 58 66 64 67 66 68 59 69 60 70 61 71 62 72 63 73 5 74 6 75
REMARK SMILES IDX 7 76 8 77 9 79 10 80 11 81 18 82 12 83 17 84 13 85 16 86
REMARK SMILES IDX 14 87 15 89 19 90 20 91 21 92 22 93 26 94 23 95 25 96 27 97
REMARK SMILES IDX 24 98
REMARK H PARENT 3 5 87 23 53 34 7 78 13 88
REMARK Flexibility Score: inf
ROOT
ATOM      1  C   UNL A   1      37.259  22.469  25.722  1.00  0.00     0.118 C 
ENDROOT
BRANCH   1   2
ATOM      2  N   UNL A   1      38.617  21.961  25.732  1.00  0.00    -0.352 N 
ATOM      3  O   UNL A   1      40.772  21.656  26.088  1.00  0.00    -0.269 OA
ATOM      4  C   UNL A   1      39.807  22.412  26.233  1.00  0.00     0.251 C 
ATOM      5  H   UNL A   1      38.702  21.094  25.273  1.00  0.00     0.163 HD
BRANCH   4   6
ATOM      6  C   UNL A   1      40.023  23.746  26.859  1.00  0.00     0.039 A 
ATOM      7  C   UNL A   1      39.237  24.881  26.651  1.00  0.00     0.014 A 
ATOM      8  C   UNL A   1      41.121  23.843  27.735  1.00  0.00     0.014 A 
ATOM      9  C   UNL A   1      39.585  26.096  27.237  1.00  0.00     0.010 A 
ATOM     10  C   UNL A   1      41.463  25.050  28.337  1.00  0.00     0.010 A 
ATOM     11  C   UNL A   1      40.707  26.186  28.067  1.00  0.00    -0.014 A 
BRANCH  11  12
ATOM     12  C   UNL A   1      40.907  27.422  28.826  1.00  0.00     0.031 A 
ATOM     13  C   UNL A   1      42.035  28.253  28.304  1.00  0.00     0.074 A 
ATOM     14  C   UNL A   1      40.082  27.872  29.793  1.00  0.00     0.049 A 
ATOM     15  N   UNL A   1      43.136  28.574  28.901  1.00  0.00    -0.248 NA
ATOM     16  C   UNL A   1      41.998  28.647  26.883  1.00  0.00     0.031 C 
ATOM     17  C   UNL A   1      38.790  27.318  30.202  1.00  0.00     0.029 A 
ATOM     18  N   UNL A   1      40.181  28.995  30.566  1.00  0.00    -0.354 N 
ATOM     19  C   UNL A   1      43.829  29.399  28.015  1.00  0.00     0.074 A 
ATOM     20  C   UNL A   1      43.174  29.261  26.742  1.00  0.00     0.031 C 
ATOM     21  C   UNL A   1      38.134  28.221  30.969  1.00  0.00     0.029 A 
ATOM     22  C   UNL A   1      39.003  29.360  31.217  1.00  0.00     0.049 A 
ATOM     23  H   UNL A   1      41.018  29.506  30.655  1.00  0.00     0.167 HD
ATOM     24  C   UNL A   1      44.747  30.305  28.453  1.00  0.00     0.037 A 
ATOM     25  C   UNL A   1      38.747  30.531  31.865  1.00  0.00     0.037 A 
ATOM     26  C   UNL A   1      45.193  29.986  29.784  1.00  0.00     0.049 A 
ATOM     27  C   UNL A   1      40.058  31.153  32.181  1.00  0.00     0.074 A 
ATOM     28  C   UNL A   1      45.820  28.900  30.365  1.00  0.00     0.029 A 
ATOM     29  N   UNL A   1      44.670  30.716  30.823  1.00  0.00    -0.354 N 
ATOM     30  N   UNL A   1      40.914  30.658  33.031  1.00  0.00    -0.248 NA
ATOM     31  C   UNL A   1      40.609  32.086  31.210  1.00  0.00     0.031 C 
ATOM     32  C   UNL A   1      45.220  28.775  31.652  1.00  0.00     0.029 A 
ATOM     33  C   UNL A   1      44.322  29.831  31.810  1.00  0.00     0.049 A 
ATOM     34  H   UNL A   1      44.565  31.695  30.853  1.00  0.00     0.167 HD
ATOM     35  C   UNL A   1      42.151  30.858  32.439  1.00  0.00     0.074 A 
ATOM     36  C   UNL A   1      41.907  31.811  31.358  1.00  0.00     0.031 C 
ATOM     37  C   UNL A   1      43.200  30.023  32.699  1.00  0.00     0.037 A 
BRANCH  24  38
ATOM     38  C   UNL A   1      44.963  31.673  27.840  1.00  0.00     0.058 A 
ATOM     39  C   UNL A   1      46.228  31.997  27.302  1.00  0.00     0.135 A 
ATOM     40  C   UNL A   1      44.085  32.766  28.016  1.00  0.00     0.135 A 
ATOM     41  F   UNL A   1      47.150  31.042  27.093  1.00  0.00    -0.206 F 
ATOM     42  C   UNL A   1      46.618  33.311  27.041  1.00  0.00     0.059 A 
ATOM     43  C   UNL A   1      44.435  34.076  27.711  1.00  0.00     0.059 A 
ATOM     44  F   UNL A   1      42.879  32.635  28.579  1.00  0.00    -0.206 F 
ATOM     45  C   UNL A   1      45.717  34.346  27.263  1.00  0.00     0.060 A 
BRANCH  45  46
ATOM     46  S   UNL A   1      46.247  36.049  27.009  1.00  0.00     0.124 S 
ATOM     47  O   UNL A   1      47.143  36.247  28.138  1.00  0.00    -0.237 OA
ATOM     48  O   UNL A   1      46.872  35.976  25.695  1.00  0.00    -0.237 OA
ATOM     49  O   UNL A   1      44.990  36.800  27.058  1.00  0.00    -0.744 OA
ENDBRANCH  45  46
ENDBRANCH  24  38
BRANCH  25  50
ATOM     50  C   UNL A   1      37.478  31.314  31.932  1.00  0.00     0.058 A 
ATOM     51  C   UNL A   1      36.937  31.735  33.164  1.00  0.00     0.135 A 
ATOM     52  C   UNL A   1      36.936  31.925  30.784  1.00  0.00     0.135 A 
ATOM     53  F   UNL A   1      37.402  31.227  34.315  1.00  0.00    -0.206 F 
ATOM     54  C   UNL A   1      35.961  32.740  33.254  1.00  0.00     0.059 A 
ATOM     55  C   UNL A   1      35.959  32.920  30.849  1.00  0.00     0.059 A 
ATOM     56  F   UNL A   1      37.410  31.642  29.563  1.00  0.00    -0.206 F 
ATOM     57  C   UNL A   1      35.495  33.344  32.088  1.00  0.00     0.060 A 
BRANCH  57  58
ATOM     58  S   UNL A   1      34.381  34.768  32.200  1.00  0.00     0.124 S 
ATOM     59  O   UNL A   1      34.192  35.116  30.796  1.00  0.00    -0.237 OA
ATOM     60  O   UNL A   1      33.221  34.201  32.878  1.00  0.00    -0.237 OA
ATOM     61  O   UNL A   1      35.145  35.734  32.985  1.00  0.00    -0.744 OA
ENDBRANCH  57  58
ENDBRANCH  25  50
BRANCH  37  62
ATOM     62  C   UNL A   1      43.101  29.084  33.873  1.00  0.00     0.058 A 
ATOM     63  C   UNL A   1      43.351  29.436  35.211  1.00  0.00     0.135 A 
ATOM     64  C   UNL A   1      42.573  27.806  33.635  1.00  0.00     0.135 A 
ATOM     65  F   UNL A   1      43.759  30.672  35.539  1.00  0.00    -0.206 F 
ATOM     66  C   UNL A   1      43.117  28.543  36.260  1.00  0.00     0.059 A 
ATOM     67  C   UNL A   1      42.300  26.914  34.666  1.00  0.00     0.059 A 
ATOM     68  F   UNL A   1      42.259  27.430  32.384  1.00  0.00    -0.206 F 
ATOM     69  C   UNL A   1      42.584  27.285  35.977  1.00  0.00     0.060 A 
BRANCH  69  70
ATOM     70  S   UNL A   1      42.194  26.164  37.337  1.00  0.00     0.124 S 
ATOM     71  O   UNL A   1      43.180  26.545  38.342  1.00  0.00    -0.237 OA
ATOM     72  O   UNL A   1      40.809  26.508  37.645  1.00  0.00    -0.237 OA
ATOM     73  O   UNL A   1      42.380  24.839  36.751  1.00  0.00    -0.744 OA
ENDBRANCH  69  70
ENDBRANCH  37  62
ENDBRANCH  11  12
ENDBRANCH   4   6
ENDBRANCH   1   2
BRANCH   1  74
ATOM     74  C   UNL A   1      36.753  22.885  24.338  1.00  0.00     0.042 C 
BRANCH  74  75
ATOM     75  C   UNL A   1      35.314  23.396  24.364  1.00  0.00     0.117 C 
BRANCH  75  76
ATOM     76  N   UNL A   1      34.783  23.516  23.018  1.00  0.00    -0.354 N 
ATOM     77  C   UNL A   1      33.524  23.739  22.568  1.00  0.00     0.243 C 
ATOM     78  H   UNL A   1      35.456  23.417  22.306  1.00  0.00     0.163 HD
ATOM     79  O   UNL A   1      33.340  23.603  21.353  1.00  0.00    -0.273 OA
BRANCH  77  80
ATOM     80  C   UNL A   1      32.350  24.094  23.495  1.00  0.00     0.181 C 
ATOM     81  C   UNL A   1      31.971  22.758  24.235  1.00  0.00     0.091 C 
ATOM     82  N   UNL A   1      32.397  25.318  24.394  1.00  0.00    -0.320 N 
ATOM     83  C   UNL A   1      31.096  23.029  25.389  1.00  0.00     0.042 A 
ATOM     84  C   UNL A   1      31.177  25.543  25.215  1.00  0.00     0.178 C 
ATOM     85  N   UNL A   1      30.577  22.145  26.291  1.00  0.00    -0.348 N 
ATOM     86  C   UNL A   1      30.732  24.273  25.835  1.00  0.00     0.081 A 
ATOM     87  C   UNL A   1      29.868  22.885  27.201  1.00  0.00     0.197 A 
ATOM     88  H   UNL A   1      30.690  21.167  26.286  1.00  0.00     0.167 HD
ATOM     89  N   UNL A   1      29.927  24.174  26.936  1.00  0.00    -0.240 NA
BRANCH  82  90
ATOM     90  C   UNL A   1      33.137  26.499  24.213  1.00  0.00     0.256 C 
ATOM     91  O   UNL A   1      33.839  26.717  23.224  1.00  0.00    -0.269 OA
BRANCH  90  92
ATOM     92  C   UNL A   1      33.034  27.629  25.138  1.00  0.00     0.061 A 
ATOM     93  C   UNL A   1      33.735  27.528  26.346  1.00  0.00     0.035 A 
ATOM     94  C   UNL A   1      32.219  28.725  24.894  1.00  0.00     0.072 A 
ATOM     95  C   UNL A   1      33.716  28.615  27.202  1.00  0.00     0.112 A 
ATOM     96  C   UNL A   1      32.285  29.768  25.805  1.00  0.00     0.132 A 
ATOM     97  Cl  UNL A   1      31.158  28.828  23.544  1.00  0.00    -0.082 Cl
ATOM     98  N   UNL A   1      33.036  29.751  26.936  1.00  0.00    -0.263 NA
ENDBRANCH  90  92
ENDBRANCH  82  90
ENDBRANCH  77  80
ENDBRANCH  75  76
ENDBRANCH  74  75
ENDBRANCH   1  74
TORSDOF 15
ENDMDL
