MODEL 1
REMARK VINA RESULT:     -12.4      0.000      0.000
REMARK SMILES COc1ccc(-c2cc(C(F)(F)F)n3nc(C(=O)NCCCNC(=O)c4ccc(-c5c6nc(c(-c7c(F)cc(S(=O)(=O)[O-])cc7F)c7ccc([nH]7)c(-c7c(F)cc(S(=O)(=O)[O-])cc7F)c7nc(c(-c8c(F)cc(S(=O)(=O)[O-])cc8F)c8ccc5[nH]8)C=C7)C=C6)cc4)cc3n2)cc1OC
REMARK SMILES IDX 21 1 20 2 19 3 17 4 18 5 16 7 7 8 8 9 94 10 9 11 93 12 14 13
REMARK SMILES IDX 92 14 15 15 6 16 3 17 4 18 96 19 5 20 95 21 2 22 1 23 97 24
REMARK SMILES IDX 98 25 10 26 11 27 12 28 13 29 22 30 23 31 24 32 25 34 26 35
REMARK SMILES IDX 27 36 91 37 28 38 90 39 29 40 30 41 31 42 84 43 32 44 89 45
REMARK SMILES IDX 83 46 85 47 33 48 88 49 82 50 81 51 34 53 68 54 47 55 67 56
REMARK SMILES IDX 48 57 51 58 66 59 86 60 49 61 50 62 65 64 87 65 52 66 35 67
REMARK SMILES IDX 36 68 45 69 37 70 38 71 44 72 46 73 39 74 40 75 41 76 42 77
REMARK SMILES IDX 43 78 69 79 70 80 79 81 71 82 72 83 78 84 80 85 73 86 74 87
REMARK SMILES IDX 75 88 76 89 77 90 53 91 54 92 63 93 55 94 56 95 62 96 64 97
REMARK SMILES IDX 57 98 58 99 59 100 60 101 61 102
REMARK H PARENT 19 6 23 33 85 52 51 63
REMARK Flexibility Score: inf
ROOT
ATOM      1  C   UNL A   1      40.771  22.201  27.753  1.00  0.00     0.042 C 
ENDROOT
BRANCH   1   2
ATOM      2  C   UNL A   1      39.769  22.499  26.639  1.00  0.00     0.118 C 
BRANCH   2   3
ATOM      3  N   UNL A   1      39.352  21.289  25.958  1.00  0.00    -0.351 N 
ATOM      4  C   UNL A   1      38.204  20.972  25.273  1.00  0.00     0.271 C 
ATOM      5  O   UNL A   1      38.195  19.860  24.729  1.00  0.00    -0.267 OA
ATOM      6  H   UNL A   1      40.014  20.561  25.993  1.00  0.00     0.163 HD
BRANCH   4   7
ATOM      7  C   UNL A   1      37.068  21.909  25.164  1.00  0.00     0.152 A 
ATOM      8  C   UNL A   1      33.676  24.688  24.515  1.00  0.00     0.075 A 
ATOM      9  C   UNL A   1      33.185  24.068  25.786  1.00  0.00     0.062 A 
ATOM     10  N   UNL A   1      34.798  24.389  23.929  1.00  0.00    -0.228 NA
ATOM     11  C   UNL A   1      33.965  23.108  26.321  1.00  0.00     0.150 A 
ATOM     12  C   UNL A   1      35.568  23.445  24.546  1.00  0.00     0.157 A 
ATOM     13  N   UNL A   1      35.158  22.771  25.695  1.00  0.00    -0.209 N 
ATOM     14  C   UNL A   1      36.825  22.973  24.261  1.00  0.00     0.085 A 
ATOM     15  N   UNL A   1      36.047  21.817  26.040  1.00  0.00    -0.161 NA
BRANCH   8  16
ATOM     16  C   UNL A   1      32.768  25.683  23.900  1.00  0.00     0.004 A 
ATOM     17  C   UNL A   1      30.982  27.502  22.761  1.00  0.00     0.160 A 
ATOM     18  C   UNL A   1      31.468  26.424  22.008  1.00  0.00     0.051 A 
ATOM     19  C   UNL A   1      31.395  27.676  24.089  1.00  0.00     0.161 A 
ATOM     20  C   UNL A   1      32.375  25.523  22.570  1.00  0.00     0.014 A 
ATOM     21  C   UNL A   1      32.288  26.758  24.653  1.00  0.00     0.060 A 
BRANCH  17  22
ATOM     22  O   UNL A   1      30.014  28.310  22.225  1.00  0.00    -0.493 OA
ATOM     23  C   UNL A   1      30.532  29.568  21.796  1.00  0.00     0.278 C 
ENDBRANCH  17  22
BRANCH  19  24
ATOM     24  O   UNL A   1      30.998  28.648  24.969  1.00  0.00    -0.493 OA
ATOM     25  C   UNL A   1      31.936  29.677  25.257  1.00  0.00     0.278 C 
ENDBRANCH  19  24
ENDBRANCH   8  16
BRANCH  11  26
ATOM     26  C   UNL A   1      33.637  22.380  27.567  1.00  0.00     0.433 C 
ATOM     27  F   UNL A   1      33.690  21.032  27.422  1.00  0.00    -0.165 F 
ATOM     28  F   UNL A   1      34.434  22.722  28.607  1.00  0.00    -0.165 F 
ATOM     29  F   UNL A   1      32.363  22.653  27.974  1.00  0.00    -0.165 F 
ENDBRANCH  11  26
ENDBRANCH   4   7
ENDBRANCH   2   3
ENDBRANCH   1   2
BRANCH   1  30
ATOM     30  C   UNL A   1      42.085  22.971  27.607  1.00  0.00     0.118 C 
BRANCH  30  31
ATOM     31  N   UNL A   1      42.103  23.787  26.401  1.00  0.00    -0.352 N 
ATOM     32  C   UNL A   1      41.739  25.093  26.199  1.00  0.00     0.251 C 
ATOM     33  H   UNL A   1      42.431  23.323  25.597  1.00  0.00     0.163 HD
ATOM     34  O   UNL A   1      41.615  25.498  25.044  1.00  0.00    -0.269 OA
BRANCH  32  35
ATOM     35  C   UNL A   1      41.497  26.012  27.334  1.00  0.00     0.039 A 
ATOM     36  C   UNL A   1      42.447  27.004  27.599  1.00  0.00     0.014 A 
ATOM     37  C   UNL A   1      40.397  25.861  28.181  1.00  0.00     0.014 A 
ATOM     38  C   UNL A   1      42.276  27.862  28.687  1.00  0.00     0.010 A 
ATOM     39  C   UNL A   1      40.191  26.759  29.229  1.00  0.00     0.010 A 
ATOM     40  C   UNL A   1      41.135  27.760  29.500  1.00  0.00    -0.014 A 
BRANCH  40  41
ATOM     41  C   UNL A   1      40.928  28.692  30.638  1.00  0.00     0.031 A 
ATOM     42  C   UNL A   1      41.779  28.585  31.878  1.00  0.00     0.074 A 
ATOM     43  C   UNL A   1      39.945  29.611  30.571  1.00  0.00     0.049 A 
ATOM     44  N   UNL A   1      41.724  29.290  32.979  1.00  0.00    -0.248 NA
ATOM     45  C   UNL A   1      42.807  27.533  31.889  1.00  0.00     0.031 C 
ATOM     46  C   UNL A   1      39.021  29.776  29.447  1.00  0.00     0.029 A 
ATOM     47  N   UNL A   1      39.553  30.573  31.465  1.00  0.00    -0.354 N 
ATOM     48  C   UNL A   1      42.699  28.762  33.817  1.00  0.00     0.074 A 
ATOM     49  C   UNL A   1      43.296  27.644  33.116  1.00  0.00     0.031 C 
ATOM     50  C   UNL A   1      38.185  30.793  29.709  1.00  0.00     0.029 A 
ATOM     51  C   UNL A   1      38.493  31.332  31.031  1.00  0.00     0.049 A 
ATOM     52  H   UNL A   1      39.991  30.709  32.337  1.00  0.00     0.167 HD
ATOM     53  C   UNL A   1      43.080  29.183  35.048  1.00  0.00     0.037 A 
ATOM     54  C   UNL A   1      37.840  32.347  31.628  1.00  0.00     0.037 A 
ATOM     55  C   UNL A   1      42.497  30.311  35.730  1.00  0.00     0.049 A 
ATOM     56  C   UNL A   1      38.298  32.816  32.982  1.00  0.00     0.074 A 
ATOM     57  C   UNL A   1      42.844  30.849  36.957  1.00  0.00     0.029 A 
ATOM     58  N   UNL A   1      41.448  31.076  35.241  1.00  0.00    -0.354 N 
ATOM     59  N   UNL A   1      39.261  32.339  33.735  1.00  0.00    -0.248 NA
ATOM     60  C   UNL A   1      37.592  33.966  33.560  1.00  0.00     0.031 C 
ATOM     61  C   UNL A   1      41.981  31.918  37.227  1.00  0.00     0.029 A 
ATOM     62  C   UNL A   1      41.127  32.074  36.147  1.00  0.00     0.049 A 
ATOM     63  H   UNL A   1      40.998  30.930  34.379  1.00  0.00     0.167 HD
ATOM     64  C   UNL A   1      39.291  33.147  34.867  1.00  0.00     0.074 A 
ATOM     65  C   UNL A   1      38.261  34.151  34.690  1.00  0.00     0.031 C 
ATOM     66  C   UNL A   1      40.098  33.065  35.954  1.00  0.00     0.037 A 
BRANCH  53  67
ATOM     67  C   UNL A   1      44.185  28.423  35.732  1.00  0.00     0.058 A 
ATOM     68  C   UNL A   1      43.913  27.344  36.591  1.00  0.00     0.135 A 
ATOM     69  C   UNL A   1      45.530  28.755  35.507  1.00  0.00     0.135 A 
ATOM     70  F   UNL A   1      42.645  26.991  36.852  1.00  0.00    -0.206 F 
ATOM     71  C   UNL A   1      44.933  26.645  37.227  1.00  0.00     0.059 A 
ATOM     72  C   UNL A   1      46.568  28.051  36.113  1.00  0.00     0.059 A 
ATOM     73  F   UNL A   1      45.849  29.775  34.696  1.00  0.00    -0.206 F 
ATOM     74  C   UNL A   1      46.258  27.008  36.985  1.00  0.00     0.060 A 
BRANCH  74  75
ATOM     75  S   UNL A   1      47.571  26.092  37.820  1.00  0.00     0.124 S 
ATOM     76  O   UNL A   1      48.383  25.652  36.690  1.00  0.00    -0.237 OA
ATOM     77  O   UNL A   1      48.173  27.113  38.672  1.00  0.00    -0.237 OA
ATOM     78  O   UNL A   1      46.852  25.036  38.526  1.00  0.00    -0.744 OA
ENDBRANCH  74  75
ENDBRANCH  53  67
BRANCH  54  79
ATOM     79  C   UNL A   1      36.706  33.009  30.931  1.00  0.00     0.058 A 
ATOM     80  C   UNL A   1      35.381  32.788  31.336  1.00  0.00     0.135 A 
ATOM     81  C   UNL A   1      36.925  33.895  29.865  1.00  0.00     0.135 A 
ATOM     82  F   UNL A   1      35.121  31.946  32.348  1.00  0.00    -0.206 F 
ATOM     83  C   UNL A   1      34.311  33.411  30.701  1.00  0.00     0.059 A 
ATOM     84  C   UNL A   1      35.873  34.548  29.230  1.00  0.00     0.059 A 
ATOM     85  F   UNL A   1      38.176  34.155  29.454  1.00  0.00    -0.206 F 
ATOM     86  C   UNL A   1      34.568  34.292  29.650  1.00  0.00     0.060 A 
BRANCH  86  87
ATOM     87  S   UNL A   1      33.178  35.140  28.869  1.00  0.00     0.124 S 
ATOM     88  O   UNL A   1      32.737  34.149  27.896  1.00  0.00    -0.237 OA
ATOM     89  O   UNL A   1      32.284  35.369  30.000  1.00  0.00    -0.237 OA
ATOM     90  O   UNL A   1      33.790  36.344  28.313  1.00  0.00    -0.744 OA
ENDBRANCH  86  87
ENDBRANCH  54  79
BRANCH  66  91
ATOM     91  C   UNL A   1      39.917  34.110  37.021  1.00  0.00     0.058 A 
ATOM     92  C   UNL A   1      40.520  35.373  36.928  1.00  0.00     0.135 A 
ATOM     93  C   UNL A   1      39.109  33.848  38.140  1.00  0.00     0.135 A 
ATOM     94  F   UNL A   1      41.305  35.672  35.881  1.00  0.00    -0.206 F 
ATOM     95  C   UNL A   1      40.358  36.329  37.925  1.00  0.00     0.059 A 
ATOM     96  C   UNL A   1      38.912  34.799  39.135  1.00  0.00     0.059 A 
ATOM     97  F   UNL A   1      38.499  32.659  38.270  1.00  0.00    -0.206 F 
ATOM     98  C   UNL A   1      39.556  36.031  39.027  1.00  0.00     0.060 A 
BRANCH  98  99
ATOM     99  S   UNL A   1      39.348  37.282  40.313  1.00  0.00     0.124 S 
ATOM    100  O   UNL A   1      38.607  36.539  41.327  1.00  0.00    -0.237 OA
ATOM    101  O   UNL A   1      40.726  37.617  40.653  1.00  0.00    -0.237 OA
ATOM    102  O   UNL A   1      38.601  38.340  39.638  1.00  0.00    -0.744 OA
ENDBRANCH  98  99
ENDBRANCH  66  91
ENDBRANCH  40  41
ENDBRANCH  32  35
ENDBRANCH  30  31
ENDBRANCH   1  30
TORSDOF 17
ENDMDL
MODEL 2
REMARK VINA RESULT:     -12.1      3.784      6.488
REMARK SMILES COc1ccc(-c2cc(C(F)(F)F)n3nc(C(=O)NCCCNC(=O)c4ccc(-c5c6nc(c(-c7c(F)cc(S(=O)(=O)[O-])cc7F)c7ccc([nH]7)c(-c7c(F)cc(S(=O)(=O)[O-])cc7F)c7nc(c(-c8c(F)cc(S(=O)(=O)[O-])cc8F)c8ccc5[nH]8)C=C7)C=C6)cc4)cc3n2)cc1OC
REMARK SMILES IDX 21 1 20 2 19 3 17 4 18 5 16 7 7 8 8 9 94 10 9 11 93 12 14 13
REMARK SMILES IDX 92 14 15 15 6 16 3 17 4 18 96 19 5 20 95 21 2 22 1 23 97 24
REMARK SMILES IDX 98 25 10 26 11 27 12 28 13 29 22 30 23 31 24 32 25 34 26 35
REMARK SMILES IDX 27 36 91 37 28 38 90 39 29 40 30 41 31 42 84 43 32 44 89 45
REMARK SMILES IDX 83 46 85 47 33 48 88 49 82 50 81 51 34 53 68 54 47 55 67 56
REMARK SMILES IDX 48 57 51 58 66 59 86 60 49 61 50 62 65 64 87 65 52 66 35 67
REMARK SMILES IDX 36 68 45 69 37 70 38 71 44 72 46 73 39 74 40 75 41 76 42 77
REMARK SMILES IDX 43 78 69 79 70 80 79 81 71 82 72 83 78 84 80 85 73 86 74 87
REMARK SMILES IDX 75 88 76 89 77 90 53 91 54 92 63 93 55 94 56 95 62 96 64 97
REMARK SMILES IDX 57 98 58 99 59 100 60 101 61 102
REMARK H PARENT 19 6 23 33 85 52 51 63
REMARK Flexibility Score: inf
ROOT
ATOM      1  C   UNL A   1      39.884  21.862  27.235  1.00  0.00     0.042 C 
ENDROOT
BRANCH   1   2
ATOM      2  C   UNL A   1      39.879  20.994  25.978  1.00  0.00     0.118 C 
BRANCH   2   3
ATOM      3  N   UNL A   1      40.719  19.823  26.134  1.00  0.00    -0.351 N 
ATOM      4  C   UNL A   1      42.079  19.680  26.264  1.00  0.00     0.271 C 
ATOM      5  O   UNL A   1      42.480  18.526  26.465  1.00  0.00    -0.267 OA
ATOM      6  H   UNL A   1      40.222  18.973  26.150  1.00  0.00     0.163 HD
BRANCH   4   7
ATOM      7  C   UNL A   1      43.001  20.832  26.200  1.00  0.00     0.152 A 
ATOM      8  C   UNL A   1      45.680  24.328  25.704  1.00  0.00     0.075 A 
ATOM      9  C   UNL A   1      45.296  24.573  27.130  1.00  0.00     0.062 A 
ATOM     10  N   UNL A   1      45.267  23.326  24.986  1.00  0.00    -0.228 NA
ATOM     11  C   UNL A   1      44.430  23.695  27.672  1.00  0.00     0.150 A 
ATOM     12  C   UNL A   1      44.431  22.442  25.608  1.00  0.00     0.157 A 
ATOM     13  N   UNL A   1      43.971  22.628  26.910  1.00  0.00    -0.209 N 
ATOM     14  C   UNL A   1      43.898  21.249  25.187  1.00  0.00     0.085 A 
ATOM     15  N   UNL A   1      43.077  21.677  27.249  1.00  0.00    -0.161 NA
BRANCH   8  16
ATOM     16  C   UNL A   1      46.569  25.347  25.100  1.00  0.00     0.004 A 
ATOM     17  C   UNL A   1      48.203  27.251  23.876  1.00  0.00     0.160 A 
ATOM     18  C   UNL A   1      48.556  25.895  23.847  1.00  0.00     0.051 A 
ATOM     19  C   UNL A   1      47.030  27.660  24.526  1.00  0.00     0.161 A 
ATOM     20  C   UNL A   1      47.750  24.943  24.474  1.00  0.00     0.014 A 
ATOM     21  C   UNL A   1      46.215  26.698  25.134  1.00  0.00     0.060 A 
BRANCH  17  22
ATOM     22  O   UNL A   1      48.952  28.152  23.165  1.00  0.00    -0.493 OA
ATOM     23  C   UNL A   1      50.134  27.567  22.621  1.00  0.00     0.278 C 
ENDBRANCH  17  22
BRANCH  19  24
ATOM     24  O   UNL A   1      46.525  28.930  24.621  1.00  0.00    -0.493 OA
ATOM     25  C   UNL A   1      46.415  29.482  25.927  1.00  0.00     0.278 C 
ENDBRANCH  19  24
ENDBRANCH   8  16
BRANCH  11  26
ATOM     26  C   UNL A   1      43.931  23.783  29.063  1.00  0.00     0.433 C 
ATOM     27  F   UNL A   1      44.269  24.946  29.674  1.00  0.00    -0.165 F 
ATOM     28  F   UNL A   1      42.587  23.634  29.155  1.00  0.00    -0.165 F 
ATOM     29  F   UNL A   1      44.464  22.794  29.839  1.00  0.00    -0.165 F 
ENDBRANCH  11  26
ENDBRANCH   4   7
ENDBRANCH   2   3
ENDBRANCH   1   2
BRANCH   1  30
ATOM     30  C   UNL A   1      39.768  23.358  26.937  1.00  0.00     0.118 C 
BRANCH  30  31
ATOM     31  N   UNL A   1      40.874  23.835  26.119  1.00  0.00    -0.352 N 
ATOM     32  C   UNL A   1      41.558  25.022  26.143  1.00  0.00     0.251 C 
ATOM     33  H   UNL A   1      41.183  23.197  25.435  1.00  0.00     0.163 HD
ATOM     34  O   UNL A   1      42.298  25.296  25.199  1.00  0.00    -0.269 OA
BRANCH  32  35
ATOM     35  C   UNL A   1      41.423  25.969  27.273  1.00  0.00     0.039 A 
ATOM     36  C   UNL A   1      40.347  25.807  28.151  1.00  0.00     0.014 A 
ATOM     37  C   UNL A   1      42.290  27.054  27.430  1.00  0.00     0.014 A 
ATOM     38  C   UNL A   1      40.161  26.707  29.202  1.00  0.00     0.010 A 
ATOM     39  C   UNL A   1      42.143  27.914  28.518  1.00  0.00     0.010 A 
ATOM     40  C   UNL A   1      41.070  27.757  29.408  1.00  0.00    -0.014 A 
BRANCH  40  41
ATOM     41  C   UNL A   1      40.899  28.697  30.545  1.00  0.00     0.031 A 
ATOM     42  C   UNL A   1      41.770  28.583  31.769  1.00  0.00     0.074 A 
ATOM     43  C   UNL A   1      39.928  29.631  30.491  1.00  0.00     0.049 A 
ATOM     44  N   UNL A   1      41.747  29.293  32.868  1.00  0.00    -0.248 NA
ATOM     45  C   UNL A   1      42.783  27.516  31.767  1.00  0.00     0.031 C 
ATOM     46  C   UNL A   1      38.986  29.804  29.384  1.00  0.00     0.029 A 
ATOM     47  N   UNL A   1      39.568  30.603  31.388  1.00  0.00    -0.354 N 
ATOM     48  C   UNL A   1      42.729  28.755  33.690  1.00  0.00     0.074 A 
ATOM     49  C   UNL A   1      43.296  27.625  32.984  1.00  0.00     0.031 C 
ATOM     50  C   UNL A   1      38.170  30.835  29.657  1.00  0.00     0.029 A 
ATOM     51  C   UNL A   1      38.511  31.376  30.970  1.00  0.00     0.049 A 
ATOM     52  H   UNL A   1      40.024  30.736  32.251  1.00  0.00     0.167 HD
ATOM     53  C   UNL A   1      43.139  29.176  34.912  1.00  0.00     0.037 A 
ATOM     54  C   UNL A   1      37.885  32.403  31.574  1.00  0.00     0.037 A 
ATOM     55  C   UNL A   1      42.586  30.315  35.599  1.00  0.00     0.049 A 
ATOM     56  C   UNL A   1      38.375  32.871  32.916  1.00  0.00     0.074 A 
ATOM     57  C   UNL A   1      42.963  30.853  36.817  1.00  0.00     0.029 A 
ATOM     58  N   UNL A   1      41.540  31.094  35.126  1.00  0.00    -0.354 N 
ATOM     59  N   UNL A   1      39.344  32.383  33.655  1.00  0.00    -0.248 NA
ATOM     60  C   UNL A   1      37.697  34.034  33.502  1.00  0.00     0.031 C 
ATOM     61  C   UNL A   1      42.122  31.937  37.097  1.00  0.00     0.029 A 
ATOM     62  C   UNL A   1      41.250  32.101  36.033  1.00  0.00     0.049 A 
ATOM     63  H   UNL A   1      41.071  30.951  34.273  1.00  0.00     0.167 HD
ATOM     64  C   UNL A   1      39.407  33.196  34.782  1.00  0.00     0.074 A 
ATOM     65  C   UNL A   1      38.390  34.214  34.618  1.00  0.00     0.031 C 
ATOM     66  C   UNL A   1      40.233  33.107  35.853  1.00  0.00     0.037 A 
BRANCH  53  67
ATOM     67  C   UNL A   1      44.244  28.402  35.580  1.00  0.00     0.058 A 
ATOM     68  C   UNL A   1      45.596  28.732  35.382  1.00  0.00     0.135 A 
ATOM     69  C   UNL A   1      43.952  27.339  36.449  1.00  0.00     0.135 A 
ATOM     70  F   UNL A   1      45.934  29.731  34.552  1.00  0.00    -0.206 F 
ATOM     71  C   UNL A   1      46.618  28.014  35.995  1.00  0.00     0.059 A 
ATOM     72  C   UNL A   1      44.958  26.624  37.094  1.00  0.00     0.059 A 
ATOM     73  F   UNL A   1      42.679  26.981  36.675  1.00  0.00    -0.206 F 
ATOM     74  C   UNL A   1      46.289  26.959  36.847  1.00  0.00     0.060 A 
BRANCH  74  75
ATOM     75  S   UNL A   1      47.627  26.035  37.633  1.00  0.00     0.124 S 
ATOM     76  O   UNL A   1      48.127  27.012  38.596  1.00  0.00    -0.237 OA
ATOM     77  O   UNL A   1      46.924  24.889  38.203  1.00  0.00    -0.237 OA
ATOM     78  O   UNL A   1      48.525  25.728  36.525  1.00  0.00    -0.744 OA
ENDBRANCH  74  75
ENDBRANCH  53  67
BRANCH  54  79
ATOM     79  C   UNL A   1      36.748  33.078  30.895  1.00  0.00     0.058 A 
ATOM     80  C   UNL A   1      35.428  32.883  31.328  1.00  0.00     0.135 A 
ATOM     81  C   UNL A   1      36.960  33.954  29.818  1.00  0.00     0.135 A 
ATOM     82  F   UNL A   1      35.174  32.053  32.351  1.00  0.00    -0.206 F 
ATOM     83  C   UNL A   1      34.356  33.519  30.710  1.00  0.00     0.059 A 
ATOM     84  C   UNL A   1      35.907  34.619  29.199  1.00  0.00     0.059 A 
ATOM     85  F   UNL A   1      38.206  34.189  29.379  1.00  0.00    -0.206 F 
ATOM     86  C   UNL A   1      34.606  34.389  29.646  1.00  0.00     0.060 A 
BRANCH  86  87
ATOM     87  S   UNL A   1      33.215  35.254  28.888  1.00  0.00     0.124 S 
ATOM     88  O   UNL A   1      32.614  34.197  28.083  1.00  0.00    -0.237 OA
ATOM     89  O   UNL A   1      32.449  35.685  30.053  1.00  0.00    -0.237 OA
ATOM     90  O   UNL A   1      33.859  36.330  28.139  1.00  0.00    -0.744 OA
ENDBRANCH  86  87
ENDBRANCH  54  79
BRANCH  66  91
ATOM     91  C   UNL A   1      40.087  34.159  36.919  1.00  0.00     0.058 A 
ATOM     92  C   UNL A   1      40.835  35.346  36.892  1.00  0.00     0.135 A 
ATOM     93  C   UNL A   1      39.169  33.984  37.967  1.00  0.00     0.135 A 
ATOM     94  F   UNL A   1      41.729  35.559  35.914  1.00  0.00    -0.206 F 
ATOM     95  C   UNL A   1      40.704  36.308  37.888  1.00  0.00     0.059 A 
ATOM     96  C   UNL A   1      39.003  34.945  38.958  1.00  0.00     0.059 A 
ATOM     97  F   UNL A   1      38.420  32.872  38.032  1.00  0.00    -0.206 F 
ATOM     98  C   UNL A   1      39.789  36.097  38.919  1.00  0.00     0.060 A 
BRANCH  98  99
ATOM     99  S   UNL A   1      39.622  37.355  40.203  1.00  0.00     0.124 S 
ATOM    100  O   UNL A   1      38.244  37.794  40.007  1.00  0.00    -0.237 OA
ATOM    101  O   UNL A   1      39.879  36.597  41.423  1.00  0.00    -0.237 OA
ATOM    102  O   UNL A   1      40.649  38.333  39.854  1.00  0.00    -0.744 OA
ENDBRANCH  98  99
ENDBRANCH  66  91
ENDBRANCH  40  41
ENDBRANCH  32  35
ENDBRANCH  30  31
ENDBRANCH   1  30
TORSDOF 17
ENDMDL
MODEL 3
REMARK VINA RESULT:     -12.0      2.089      3.181
REMARK SMILES COc1ccc(-c2cc(C(F)(F)F)n3nc(C(=O)NCCCNC(=O)c4ccc(-c5c6nc(c(-c7c(F)cc(S(=O)(=O)[O-])cc7F)c7ccc([nH]7)c(-c7c(F)cc(S(=O)(=O)[O-])cc7F)c7nc(c(-c8c(F)cc(S(=O)(=O)[O-])cc8F)c8ccc5[nH]8)C=C7)C=C6)cc4)cc3n2)cc1OC
REMARK SMILES IDX 21 1 20 2 19 3 17 4 18 5 16 7 7 8 8 9 94 10 9 11 93 12 14 13
REMARK SMILES IDX 92 14 15 15 6 16 3 17 4 18 96 19 5 20 95 21 2 22 1 23 97 24
REMARK SMILES IDX 98 25 10 26 11 27 12 28 13 29 22 30 23 31 24 32 25 34 26 35
REMARK SMILES IDX 27 36 91 37 28 38 90 39 29 40 30 41 31 42 84 43 32 44 89 45
REMARK SMILES IDX 83 46 85 47 33 48 88 49 82 50 81 51 34 53 68 54 47 55 67 56
REMARK SMILES IDX 48 57 51 58 66 59 86 60 49 61 50 62 65 64 87 65 52 66 35 67
REMARK SMILES IDX 36 68 45 69 37 70 38 71 44 72 46 73 39 74 40 75 41 76 42 77
REMARK SMILES IDX 43 78 69 79 70 80 79 81 71 82 72 83 78 84 80 85 73 86 74 87
REMARK SMILES IDX 75 88 76 89 77 90 53 91 54 92 63 93 55 94 56 95 62 96 64 97
REMARK SMILES IDX 57 98 58 99 59 100 60 101 61 102
REMARK H PARENT 19 6 23 33 85 52 51 63
REMARK Flexibility Score: inf
ROOT
ATOM      1  C   UNL A   1      43.959  23.043  27.739  1.00  0.00     0.042 C 
ENDROOT
BRANCH   1   2
ATOM      2  C   UNL A   1      43.462  22.152  26.602  1.00  0.00     0.118 C 
BRANCH   2   3
ATOM      3  N   UNL A   1      43.118  20.826  27.073  1.00  0.00    -0.351 N 
ATOM      4  C   UNL A   1      41.940  20.119  27.044  1.00  0.00     0.271 C 
ATOM      5  O   UNL A   1      42.002  18.957  27.464  1.00  0.00    -0.267 OA
ATOM      6  H   UNL A   1      43.867  20.342  27.491  1.00  0.00     0.163 HD
BRANCH   4   7
ATOM      7  C   UNL A   1      40.688  20.697  26.514  1.00  0.00     0.152 A 
ATOM      8  C   UNL A   1      36.791  22.145  24.978  1.00  0.00     0.075 A 
ATOM      9  C   UNL A   1      37.242  23.424  25.612  1.00  0.00     0.062 A 
ATOM     10  N   UNL A   1      37.478  21.041  24.963  1.00  0.00    -0.228 NA
ATOM     11  C   UNL A   1      38.435  23.389  26.238  1.00  0.00     0.150 A 
ATOM     12  C   UNL A   1      38.701  21.084  25.570  1.00  0.00     0.157 A 
ATOM     13  N   UNL A   1      39.171  22.211  26.242  1.00  0.00    -0.209 N 
ATOM     14  C   UNL A   1      39.705  20.151  25.654  1.00  0.00     0.085 A 
ATOM     15  N   UNL A   1      40.351  21.960  26.844  1.00  0.00    -0.161 NA
BRANCH   8  16
ATOM     16  C   UNL A   1      35.444  22.180  24.364  1.00  0.00     0.004 A 
ATOM     17  C   UNL A   1      32.873  22.299  23.281  1.00  0.00     0.160 A 
ATOM     18  C   UNL A   1      33.187  21.335  24.250  1.00  0.00     0.051 A 
ATOM     19  C   UNL A   1      33.851  23.204  22.846  1.00  0.00     0.161 A 
ATOM     20  C   UNL A   1      34.477  21.262  24.779  1.00  0.00     0.014 A 
ATOM     21  C   UNL A   1      35.136  23.139  23.397  1.00  0.00     0.060 A 
BRANCH  17  22
ATOM     22  O   UNL A   1      31.577  22.420  22.854  1.00  0.00    -0.493 OA
ATOM     23  C   UNL A   1      30.865  23.437  23.559  1.00  0.00     0.278 C 
ENDBRANCH  17  22
BRANCH  19  24
ATOM     24  O   UNL A   1      33.706  24.220  21.938  1.00  0.00    -0.493 OA
ATOM     25  C   UNL A   1      33.667  25.544  22.454  1.00  0.00     0.278 C 
ENDBRANCH  19  24
ENDBRANCH   8  16
BRANCH  11  26
ATOM     26  C   UNL A   1      39.036  24.553  26.928  1.00  0.00     0.433 C 
ATOM     27  F   UNL A   1      38.159  25.570  27.114  1.00  0.00    -0.165 F 
ATOM     28  F   UNL A   1      39.573  24.236  28.132  1.00  0.00    -0.165 F 
ATOM     29  F   UNL A   1      40.060  25.081  26.197  1.00  0.00    -0.165 F 
ENDBRANCH  11  26
ENDBRANCH   4   7
ENDBRANCH   2   3
ENDBRANCH   1   2
BRANCH   1  30
ATOM     30  C   UNL A   1      44.765  24.250  27.254  1.00  0.00     0.118 C 
BRANCH  30  31
ATOM     31  N   UNL A   1      44.147  24.885  26.099  1.00  0.00    -0.352 N 
ATOM     32  C   UNL A   1      43.241  25.911  26.021  1.00  0.00     0.251 C 
ATOM     33  H   UNL A   1      44.426  24.517  25.230  1.00  0.00     0.163 HD
ATOM     34  O   UNL A   1      42.680  26.120  24.946  1.00  0.00    -0.269 OA
BRANCH  32  35
ATOM     35  C   UNL A   1      42.933  26.761  27.192  1.00  0.00     0.039 A 
ATOM     36  C   UNL A   1      42.093  26.245  28.184  1.00  0.00     0.014 A 
ATOM     37  C   UNL A   1      43.390  28.078  27.286  1.00  0.00     0.014 A 
ATOM     38  C   UNL A   1      41.743  27.034  29.282  1.00  0.00     0.010 A 
ATOM     39  C   UNL A   1      43.095  28.843  28.415  1.00  0.00     0.010 A 
ATOM     40  C   UNL A   1      42.258  28.333  29.418  1.00  0.00    -0.014 A 
BRANCH  40  41
ATOM     41  C   UNL A   1      41.919  29.164  30.602  1.00  0.00     0.031 A 
ATOM     42  C   UNL A   1      42.750  29.085  31.856  1.00  0.00     0.074 A 
ATOM     43  C   UNL A   1      40.834  29.963  30.559  1.00  0.00     0.049 A 
ATOM     44  N   UNL A   1      42.589  29.711  32.993  1.00  0.00    -0.248 NA
ATOM     45  C   UNL A   1      43.896  28.162  31.836  1.00  0.00     0.031 C 
ATOM     46  C   UNL A   1      39.921  30.085  29.421  1.00  0.00     0.029 A 
ATOM     47  N   UNL A   1      40.312  30.817  31.496  1.00  0.00    -0.354 N 
ATOM     48  C   UNL A   1      43.602  29.252  33.827  1.00  0.00     0.074 A 
ATOM     49  C   UNL A   1      44.343  28.257  33.080  1.00  0.00     0.031 C 
ATOM     50  C   UNL A   1      38.963  30.978  29.718  1.00  0.00     0.029 A 
ATOM     51  C   UNL A   1      39.178  31.471  31.076  1.00  0.00     0.049 A 
ATOM     52  H   UNL A   1      40.712  30.951  32.385  1.00  0.00     0.167 HD
ATOM     53  C   UNL A   1      43.905  29.641  35.090  1.00  0.00     0.037 A 
ATOM     54  C   UNL A   1      38.396  32.364  31.712  1.00  0.00     0.037 A 
ATOM     55  C   UNL A   1      43.178  30.649  35.818  1.00  0.00     0.049 A 
ATOM     56  C   UNL A   1      38.767  32.802  33.102  1.00  0.00     0.074 A 
ATOM     57  C   UNL A   1      43.432  31.150  37.083  1.00  0.00     0.029 A 
ATOM     58  N   UNL A   1      42.055  31.313  35.345  1.00  0.00    -0.354 N 
ATOM     59  N   UNL A   1      39.764  32.398  33.854  1.00  0.00    -0.248 NA
ATOM     60  C   UNL A   1      37.917  33.824  33.725  1.00  0.00     0.031 C 
ATOM     61  C   UNL A   1      42.443  32.093  37.389  1.00  0.00     0.029 A 
ATOM     62  C   UNL A   1      41.598  32.211  36.297  1.00  0.00     0.049 A 
ATOM     63  H   UNL A   1      41.644  31.168  34.464  1.00  0.00     0.167 HD
ATOM     64  C   UNL A   1      39.674  33.135  35.030  1.00  0.00     0.074 A 
ATOM     65  C   UNL A   1      38.536  34.019  34.881  1.00  0.00     0.031 C 
ATOM     66  C   UNL A   1      40.463  33.084  36.132  1.00  0.00     0.037 A 
BRANCH  53  67
ATOM     67  C   UNL A   1      45.078  28.977  35.760  1.00  0.00     0.058 A 
ATOM     68  C   UNL A   1      46.380  29.491  35.642  1.00  0.00     0.135 A 
ATOM     69  C   UNL A   1      44.897  27.832  36.552  1.00  0.00     0.135 A 
ATOM     70  F   UNL A   1      46.613  30.576  34.887  1.00  0.00    -0.206 F 
ATOM     71  C   UNL A   1      47.465  28.875  36.257  1.00  0.00     0.059 A 
ATOM     72  C   UNL A   1      45.965  27.214  37.199  1.00  0.00     0.059 A 
ATOM     73  F   UNL A   1      43.675  27.298  36.701  1.00  0.00    -0.206 F 
ATOM     74  C   UNL A   1      47.248  27.734  37.031  1.00  0.00     0.060 A 
BRANCH  74  75
ATOM     75  S   UNL A   1      48.667  26.944  37.822  1.00  0.00     0.124 S 
ATOM     76  O   UNL A   1      49.767  27.771  37.334  1.00  0.00    -0.237 OA
ATOM     77  O   UNL A   1      48.352  27.083  39.241  1.00  0.00    -0.237 OA
ATOM     78  O   UNL A   1      48.628  25.580  37.304  1.00  0.00    -0.744 OA
ENDBRANCH  74  75
ENDBRANCH  53  67
BRANCH  54  79
ATOM     79  C   UNL A   1      37.206  32.928  31.023  1.00  0.00     0.058 A 
ATOM     80  C   UNL A   1      37.341  33.926  30.046  1.00  0.00     0.135 A 
ATOM     81  C   UNL A   1      35.913  32.460  31.305  1.00  0.00     0.135 A 
ATOM     82  F   UNL A   1      38.557  34.408  29.744  1.00  0.00    -0.206 F 
ATOM     83  C   UNL A   1      36.237  34.454  29.385  1.00  0.00     0.059 A 
ATOM     84  C   UNL A   1      34.796  32.955  30.640  1.00  0.00     0.059 A 
ATOM     85  F   UNL A   1      35.733  31.492  32.216  1.00  0.00    -0.206 F 
ATOM     86  C   UNL A   1      34.967  33.958  29.686  1.00  0.00     0.060 A 
BRANCH  86  87
ATOM     87  S   UNL A   1      33.546  34.607  28.781  1.00  0.00     0.124 S 
ATOM     88  O   UNL A   1      32.605  34.873  29.862  1.00  0.00    -0.237 OA
ATOM     89  O   UNL A   1      34.111  35.780  28.122  1.00  0.00    -0.237 OA
ATOM     90  O   UNL A   1      33.189  33.508  27.888  1.00  0.00    -0.744 OA
ENDBRANCH  86  87
ENDBRANCH  54  79
BRANCH  66  91
ATOM     91  C   UNL A   1      40.136  34.034  37.251  1.00  0.00     0.058 A 
ATOM     92  C   UNL A   1      40.773  35.279  37.373  1.00  0.00     0.135 A 
ATOM     93  C   UNL A   1      39.156  33.701  38.201  1.00  0.00     0.135 A 
ATOM     94  F   UNL A   1      41.719  35.643  36.493  1.00  0.00    -0.206 F 
ATOM     95  C   UNL A   1      40.474  36.147  38.418  1.00  0.00     0.059 A 
ATOM     96  C   UNL A   1      38.824  34.565  39.239  1.00  0.00     0.059 A 
ATOM     97  F   UNL A   1      38.509  32.528  38.122  1.00  0.00    -0.206 F 
ATOM     98  C   UNL A   1      39.502  35.779  39.349  1.00  0.00     0.060 A 
BRANCH  98  99
ATOM     99  S   UNL A   1      39.118  36.916  40.698  1.00  0.00     0.124 S 
ATOM    100  O   UNL A   1      40.443  37.421  41.040  1.00  0.00    -0.237 OA
ATOM    101  O   UNL A   1      38.220  37.872  40.059  1.00  0.00    -0.237 OA
ATOM    102  O   UNL A   1      38.496  36.054  41.700  1.00  0.00    -0.744 OA
ENDBRANCH  98  99
ENDBRANCH  66  91
ENDBRANCH  40  41
ENDBRANCH  32  35
ENDBRANCH  30  31
ENDBRANCH   1  30
TORSDOF 17
ENDMDL
