MODEL 1
REMARK VINA RESULT:     -12.9      0.000      0.000
REMARK SMILES CS(=O)(=O)c1ccc(-c2cc(Cl)cc3c2O[C@H](C(F)(F)F)C(C(=O)NCCCNC(=O)c2ccc(-c4c5nc(c(-c6c(F)cc(S(=O)(=O)[O-])cc6F)c6ccc([nH]6)c(-c6c(F)cc(S(=O)(=O)[O-])cc6F)c6nc(c(-c7c(F)cc(S(=O)(=O)[O-])cc7F)c7ccc4[nH]7)C=C6)C=C5)cc2)=C3)cc1
REMARK SMILES IDX 27 1 26 2 25 3 23 4 24 5 22 7 9 8 10 9 15 10 11 11 14 12
REMARK SMILES IDX 16 13 12 14 13 15 98 16 17 17 8 18 5 19 6 20 100 21 7 22
REMARK SMILES IDX 99 23 2 24 1 25 3 26 4 27 18 28 19 29 20 30 21 31 28 32
REMARK SMILES IDX 29 33 30 34 31 36 32 37 33 38 97 39 34 40 96 41 35 42 36 43
REMARK SMILES IDX 37 44 90 45 38 46 95 47 89 48 91 49 39 50 94 51 88 52 87 53
REMARK SMILES IDX 40 55 74 56 53 57 73 58 54 59 57 60 72 61 92 62 55 63 56 64
REMARK SMILES IDX 71 66 93 67 58 68 41 69 42 70 51 71 43 72 44 73 50 74 52 75
REMARK SMILES IDX 45 76 46 77 47 78 48 79 49 80 75 81 76 82 85 83 77 84 78 85
REMARK SMILES IDX 84 86 86 87 79 88 80 89 81 90 82 91 83 92 59 93 60 94 69 95
REMARK SMILES IDX 61 96 62 97 68 98 70 99 63 100 64 101 65 102 66 103 67 104
REMARK H PARENT 25 6 29 35 91 54 57 65
REMARK Flexibility Score: inf
ROOT
ATOM      1  C   UNL A   1      34.274  30.296  26.854  1.00  0.00     0.042 C 
ENDROOT
BRANCH   1   2
ATOM      2  C   UNL A   1      33.603  29.225  25.993  1.00  0.00     0.118 C 
BRANCH   2   3
ATOM      3  N   UNL A   1      33.325  28.048  26.792  1.00  0.00    -0.352 N 
ATOM      4  C   UNL A   1      32.269  27.208  26.671  1.00  0.00     0.251 C 
ATOM      5  O   UNL A   1      31.751  26.725  27.672  1.00  0.00    -0.270 OA
ATOM      6  H   UNL A   1      33.976  27.835  27.500  1.00  0.00     0.163 HD
BRANCH   4   7
ATOM      7  C   UNL A   1      31.873  26.802  25.289  1.00  0.00     0.067 C 
ATOM      8  C   UNL A   1      33.311  22.997  25.297  1.00  0.00     0.026 A 
ATOM      9  C   UNL A   1      34.637  23.014  25.797  1.00  0.00     0.033 A 
ATOM     10  C   UNL A   1      32.754  24.235  24.946  1.00  0.00     0.135 A 
ATOM     11  C   UNL A   1      35.411  24.174  25.819  1.00  0.00     0.042 A 
ATOM     12  C   UNL A   1      33.585  25.379  24.873  1.00  0.00     0.019 A 
ATOM     13  O   UNL A   1      31.403  24.396  24.692  1.00  0.00    -0.475 OA
ATOM     14  Cl  UNL A   1      37.007  24.121  26.455  1.00  0.00    -0.084 Cl
ATOM     15  C   UNL A   1      34.910  25.353  25.301  1.00  0.00     0.032 A 
ATOM     16  C   UNL A   1      32.952  26.662  24.493  1.00  0.00     0.025 C 
ATOM     17  C   UNL A   1      30.854  25.666  25.243  1.00  0.00     0.314 C 
BRANCH   8  18
ATOM     18  C   UNL A   1      32.759  21.651  25.006  1.00  0.00    -0.015 A 
ATOM     19  C   UNL A   1      32.916  18.950  24.238  1.00  0.00     0.067 A 
ATOM     20  C   UNL A   1      32.915  19.283  25.593  1.00  0.00     0.021 A 
ATOM     21  C   UNL A   1      32.689  19.929  23.271  1.00  0.00     0.021 A 
ATOM     22  C   UNL A   1      32.820  20.628  25.974  1.00  0.00     0.010 A 
ATOM     23  C   UNL A   1      32.590  21.272  23.661  1.00  0.00     0.010 A 
BRANCH  19  24
ATOM     24  S   UNL A   1      33.398  17.304  23.759  1.00  0.00     0.175 S 
ATOM     25  C   UNL A   1      32.590  16.198  24.877  1.00  0.00     0.163 C 
ATOM     26  O   UNL A   1      34.825  17.181  23.998  1.00  0.00    -0.224 OA
ATOM     27  O   UNL A   1      32.844  17.079  22.437  1.00  0.00    -0.224 OA
ENDBRANCH  19  24
ENDBRANCH   8  18
BRANCH  17  28
ATOM     28  C   UNL A   1      29.618  26.133  24.444  1.00  0.00     0.429 C 
ATOM     29  F   UNL A   1      29.401  25.382  23.339  1.00  0.00    -0.167 F 
ATOM     30  F   UNL A   1      28.497  26.078  25.200  1.00  0.00    -0.167 F 
ATOM     31  F   UNL A   1      29.729  27.418  24.017  1.00  0.00    -0.167 F 
ENDBRANCH  17  28
ENDBRANCH   4   7
ENDBRANCH   2   3
ENDBRANCH   1   2
BRANCH   1  32
ATOM     32  C   UNL A   1      35.447  29.798  27.697  1.00  0.00     0.118 C 
BRANCH  32  33
ATOM     33  N   UNL A   1      35.299  30.092  29.114  1.00  0.00    -0.352 N 
ATOM     34  C   UNL A   1      36.254  30.088  30.103  1.00  0.00     0.251 C 
ATOM     35  H   UNL A   1      34.388  30.325  29.405  1.00  0.00     0.163 HD
ATOM     36  O   UNL A   1      35.919  30.225  31.275  1.00  0.00    -0.269 OA
BRANCH  34  37
ATOM     37  C   UNL A   1      37.676  29.885  29.751  1.00  0.00     0.039 A 
ATOM     38  C   UNL A   1      38.584  29.578  30.767  1.00  0.00     0.014 A 
ATOM     39  C   UNL A   1      38.110  29.978  28.425  1.00  0.00     0.014 A 
ATOM     40  C   UNL A   1      39.914  29.292  30.443  1.00  0.00     0.010 A 
ATOM     41  C   UNL A   1      39.416  29.623  28.097  1.00  0.00     0.010 A 
ATOM     42  C   UNL A   1      40.331  29.271  29.102  1.00  0.00    -0.014 A 
BRANCH  42  43
ATOM     43  C   UNL A   1      41.714  28.869  28.730  1.00  0.00     0.031 A 
ATOM     44  C   UNL A   1      42.810  29.897  28.657  1.00  0.00     0.074 A 
ATOM     45  C   UNL A   1      41.964  27.589  28.384  1.00  0.00     0.049 A 
ATOM     46  N   UNL A   1      44.052  29.753  28.271  1.00  0.00    -0.248 NA
ATOM     47  C   UNL A   1      42.459  31.274  29.041  1.00  0.00     0.031 C 
ATOM     48  C   UNL A   1      40.974  26.510  28.354  1.00  0.00     0.029 A 
ATOM     49  N   UNL A   1      43.126  26.979  27.974  1.00  0.00    -0.354 N 
ATOM     50  C   UNL A   1      44.621  31.019  28.342  1.00  0.00     0.074 A 
ATOM     51  C   UNL A   1      43.578  31.928  28.767  1.00  0.00     0.031 C 
ATOM     52  C   UNL A   1      41.570  25.371  27.964  1.00  0.00     0.029 A 
ATOM     53  C   UNL A   1      42.975  25.645  27.679  1.00  0.00     0.049 A 
ATOM     54  H   UNL A   1      43.984  27.455  27.898  1.00  0.00     0.167 HD
ATOM     55  C   UNL A   1      45.901  31.388  28.097  1.00  0.00     0.037 A 
ATOM     56  C   UNL A   1      43.866  24.742  27.220  1.00  0.00     0.037 A 
ATOM     57  C   UNL A   1      46.946  30.473  27.715  1.00  0.00     0.049 A 
ATOM     58  C   UNL A   1      45.288  25.172  26.981  1.00  0.00     0.074 A 
ATOM     59  C   UNL A   1      48.290  30.736  27.520  1.00  0.00     0.029 A 
ATOM     60  N   UNL A   1      46.764  29.120  27.470  1.00  0.00    -0.354 N 
ATOM     61  N   UNL A   1      45.825  26.360  27.128  1.00  0.00    -0.248 NA
ATOM     62  C   UNL A   1      46.230  24.139  26.526  1.00  0.00     0.031 C 
ATOM     63  C   UNL A   1      48.914  29.552  27.119  1.00  0.00     0.029 A 
ATOM     64  C   UNL A   1      47.968  28.539  27.109  1.00  0.00     0.049 A 
ATOM     65  H   UNL A   1      45.905  28.642  27.542  1.00  0.00     0.167 HD
ATOM     66  C   UNL A   1      47.170  26.211  26.807  1.00  0.00     0.074 A 
ATOM     67  C   UNL A   1      47.369  24.816  26.473  1.00  0.00     0.031 C 
ATOM     68  C   UNL A   1      48.152  27.146  26.790  1.00  0.00     0.037 A 
BRANCH  55  69
ATOM     69  C   UNL A   1      46.256  32.843  28.243  1.00  0.00     0.058 A 
ATOM     70  C   UNL A   1      46.726  33.368  29.458  1.00  0.00     0.135 A 
ATOM     71  C   UNL A   1      46.181  33.710  27.141  1.00  0.00     0.135 A 
ATOM     72  F   UNL A   1      46.803  32.587  30.547  1.00  0.00    -0.206 F 
ATOM     73  C   UNL A   1      47.090  34.705  29.579  1.00  0.00     0.059 A 
ATOM     74  C   UNL A   1      46.565  35.044  27.233  1.00  0.00     0.059 A 
ATOM     75  F   UNL A   1      45.737  33.260  25.956  1.00  0.00    -0.206 F 
ATOM     76  C   UNL A   1      47.009  35.535  28.461  1.00  0.00     0.060 A 
BRANCH  76  77
ATOM     77  S   UNL A   1      47.511  37.261  28.631  1.00  0.00     0.124 S 
ATOM     78  O   UNL A   1      46.227  37.915  28.862  1.00  0.00    -0.237 OA
ATOM     79  O   UNL A   1      48.411  37.212  29.777  1.00  0.00    -0.237 OA
ATOM     80  O   UNL A   1      48.145  37.558  27.351  1.00  0.00    -0.744 OA
ENDBRANCH  76  77
ENDBRANCH  55  69
BRANCH  56  81
ATOM     81  C   UNL A   1      43.442  23.339  26.965  1.00  0.00     0.058 A 
ATOM     82  C   UNL A   1      43.239  22.872  25.658  1.00  0.00     0.135 A 
ATOM     83  C   UNL A   1      43.230  22.439  28.021  1.00  0.00     0.135 A 
ATOM     84  F   UNL A   1      43.423  23.694  24.615  1.00  0.00    -0.206 F 
ATOM     85  C   UNL A   1      42.817  21.569  25.407  1.00  0.00     0.059 A 
ATOM     86  C   UNL A   1      42.834  21.124  27.793  1.00  0.00     0.059 A 
ATOM     87  F   UNL A   1      43.429  22.830  29.289  1.00  0.00    -0.206 F 
ATOM     88  C   UNL A   1      42.617  20.702  26.483  1.00  0.00     0.060 A 
BRANCH  88  89
ATOM     89  S   UNL A   1      42.107  19.004  26.146  1.00  0.00     0.124 S 
ATOM     90  O   UNL A   1      43.003  18.640  25.054  1.00  0.00    -0.237 OA
ATOM     91  O   UNL A   1      42.358  18.346  27.425  1.00  0.00    -0.237 OA
ATOM     92  O   UNL A   1      40.698  19.142  25.789  1.00  0.00    -0.744 OA
ENDBRANCH  88  89
ENDBRANCH  56  81
BRANCH  68  93
ATOM     93  C   UNL A   1      49.539  26.687  26.436  1.00  0.00     0.058 A 
ATOM     94  C   UNL A   1      50.378  26.076  27.379  1.00  0.00     0.135 A 
ATOM     95  C   UNL A   1      50.012  26.809  25.119  1.00  0.00     0.135 A 
ATOM     96  F   UNL A   1      49.976  25.940  28.653  1.00  0.00    -0.206 F 
ATOM     97  C   UNL A   1      51.647  25.622  27.036  1.00  0.00     0.059 A 
ATOM     98  C   UNL A   1      51.267  26.339  24.746  1.00  0.00     0.059 A 
ATOM     99  F   UNL A   1      49.244  27.377  24.174  1.00  0.00    -0.206 F 
ATOM    100  C   UNL A   1      52.082  25.756  25.717  1.00  0.00     0.060 A 
BRANCH 100 101
ATOM    101  S   UNL A   1      53.717  25.131  25.275  1.00  0.00     0.124 S 
ATOM    102  O   UNL A   1      54.535  25.652  26.366  1.00  0.00    -0.237 OA
ATOM    103  O   UNL A   1      53.510  23.686  25.273  1.00  0.00    -0.237 OA
ATOM    104  O   UNL A   1      53.966  25.724  23.965  1.00  0.00    -0.744 OA
ENDBRANCH 100 101
ENDBRANCH  68  93
ENDBRANCH  42  43
ENDBRANCH  34  37
ENDBRANCH  32  33
ENDBRANCH   1  32
TORSDOF 16
ENDMDL
MODEL 2
REMARK VINA RESULT:     -12.7      5.715     12.660
REMARK SMILES CS(=O)(=O)c1ccc(-c2cc(Cl)cc3c2O[C@H](C(F)(F)F)C(C(=O)NCCCNC(=O)c2ccc(-c4c5nc(c(-c6c(F)cc(S(=O)(=O)[O-])cc6F)c6ccc([nH]6)c(-c6c(F)cc(S(=O)(=O)[O-])cc6F)c6nc(c(-c7c(F)cc(S(=O)(=O)[O-])cc7F)c7ccc4[nH]7)C=C6)C=C5)cc2)=C3)cc1
REMARK SMILES IDX 27 1 26 2 25 3 23 4 24 5 22 7 9 8 10 9 15 10 11 11 14 12
REMARK SMILES IDX 16 13 12 14 13 15 98 16 17 17 8 18 5 19 6 20 100 21 7 22
REMARK SMILES IDX 99 23 2 24 1 25 3 26 4 27 18 28 19 29 20 30 21 31 28 32
REMARK SMILES IDX 29 33 30 34 31 36 32 37 33 38 97 39 34 40 96 41 35 42 36 43
REMARK SMILES IDX 37 44 90 45 38 46 95 47 89 48 91 49 39 50 94 51 88 52 87 53
REMARK SMILES IDX 40 55 74 56 53 57 73 58 54 59 57 60 72 61 92 62 55 63 56 64
REMARK SMILES IDX 71 66 93 67 58 68 41 69 42 70 51 71 43 72 44 73 50 74 52 75
REMARK SMILES IDX 45 76 46 77 47 78 48 79 49 80 75 81 76 82 85 83 77 84 78 85
REMARK SMILES IDX 84 86 86 87 79 88 80 89 81 90 82 91 83 92 59 93 60 94 69 95
REMARK SMILES IDX 61 96 62 97 68 98 70 99 63 100 64 101 65 102 66 103 67 104
REMARK H PARENT 25 6 29 35 91 54 57 65
REMARK Flexibility Score: inf
ROOT
ATOM      1  C   UNL A   1      41.380  22.137  26.418  1.00  0.00     0.042 C 
ENDROOT
BRANCH   1   2
ATOM      2  C   UNL A   1      42.349  21.917  27.582  1.00  0.00     0.118 C 
BRANCH   2   3
ATOM      3  N   UNL A   1      43.016  23.160  27.916  1.00  0.00    -0.352 N 
ATOM      4  C   UNL A   1      44.094  23.700  27.298  1.00  0.00     0.251 C 
ATOM      5  O   UNL A   1      44.951  24.280  27.956  1.00  0.00    -0.270 OA
ATOM      6  H   UNL A   1      42.644  23.668  28.673  1.00  0.00     0.163 HD
BRANCH   4   7
ATOM      7  C   UNL A   1      44.110  23.675  25.804  1.00  0.00     0.067 C 
ATOM      8  C   UNL A   1      46.111  27.151  25.124  1.00  0.00     0.026 A 
ATOM      9  C   UNL A   1      45.533  28.171  25.920  1.00  0.00     0.033 A 
ATOM     10  C   UNL A   1      45.383  25.960  24.999  1.00  0.00     0.135 A 
ATOM     11  C   UNL A   1      44.247  28.066  26.449  1.00  0.00     0.042 A 
ATOM     12  C   UNL A   1      44.041  25.912  25.450  1.00  0.00     0.019 A 
ATOM     13  O   UNL A   1      45.934  24.803  24.475  1.00  0.00    -0.475 OA
ATOM     14  Cl  UNL A   1      43.617  29.337  27.419  1.00  0.00    -0.084 Cl
ATOM     15  C   UNL A   1      43.468  26.959  26.166  1.00  0.00     0.032 A 
ATOM     16  C   UNL A   1      43.311  24.633  25.292  1.00  0.00     0.025 C 
ATOM     17  C   UNL A   1      45.508  23.575  25.199  1.00  0.00     0.314 C 
BRANCH   8  18
ATOM     18  C   UNL A   1      47.310  27.553  24.349  1.00  0.00    -0.015 A 
ATOM     19  C   UNL A   1      49.218  27.292  22.298  1.00  0.00     0.067 A 
ATOM     20  C   UNL A   1      48.117  28.130  22.115  1.00  0.00     0.021 A 
ATOM     21  C   UNL A   1      49.458  26.706  23.541  1.00  0.00     0.021 A 
ATOM     22  C   UNL A   1      47.176  28.270  23.143  1.00  0.00     0.010 A 
ATOM     23  C   UNL A   1      48.514  26.856  24.567  1.00  0.00     0.010 A 
BRANCH  19  24
ATOM     24  S   UNL A   1      50.198  26.838  20.883  1.00  0.00     0.175 S 
ATOM     25  C   UNL A   1      50.539  28.334  20.006  1.00  0.00     0.163 C 
ATOM     26  O   UNL A   1      49.361  26.022  20.019  1.00  0.00    -0.224 OA
ATOM     27  O   UNL A   1      51.455  26.328  21.396  1.00  0.00    -0.224 OA
ENDBRANCH  19  24
ENDBRANCH   8  18
BRANCH  17  28
ATOM     28  C   UNL A   1      45.568  22.336  24.280  1.00  0.00     0.429 C 
ATOM     29  F   UNL A   1      45.039  21.233  24.860  1.00  0.00    -0.167 F 
ATOM     30  F   UNL A   1      44.897  22.550  23.124  1.00  0.00    -0.167 F 
ATOM     31  F   UNL A   1      46.839  22.009  23.929  1.00  0.00    -0.167 F 
ENDBRANCH  17  28
ENDBRANCH   4   7
ENDBRANCH   2   3
ENDBRANCH   1   2
BRANCH   1  32
ATOM     32  C   UNL A   1      39.982  21.558  26.630  1.00  0.00     0.118 C 
BRANCH  32  33
ATOM     33  N   UNL A   1      38.982  22.142  25.751  1.00  0.00    -0.352 N 
ATOM     34  C   UNL A   1      38.483  23.423  25.738  1.00  0.00     0.251 C 
ATOM     35  H   UNL A   1      38.610  21.536  25.070  1.00  0.00     0.163 HD
ATOM     36  O   UNL A   1      37.535  23.701  25.010  1.00  0.00    -0.269 OA
BRANCH  34  37
ATOM     37  C   UNL A   1      39.069  24.450  26.626  1.00  0.00     0.039 A 
ATOM     38  C   UNL A   1      39.914  25.415  26.074  1.00  0.00     0.014 A 
ATOM     39  C   UNL A   1      38.773  24.473  27.992  1.00  0.00     0.014 A 
ATOM     40  C   UNL A   1      40.404  26.447  26.879  1.00  0.00     0.010 A 
ATOM     41  C   UNL A   1      39.202  25.541  28.776  1.00  0.00     0.010 A 
ATOM     42  C   UNL A   1      40.019  26.542  28.227  1.00  0.00    -0.014 A 
BRANCH  42  43
ATOM     43  C   UNL A   1      40.445  27.690  29.073  1.00  0.00     0.031 A 
ATOM     44  C   UNL A   1      41.743  27.630  29.834  1.00  0.00     0.074 A 
ATOM     45  C   UNL A   1      39.627  28.753  29.214  1.00  0.00     0.049 A 
ATOM     46  N   UNL A   1      42.240  28.490  30.685  1.00  0.00    -0.248 NA
ATOM     47  C   UNL A   1      42.578  26.435  29.635  1.00  0.00     0.031 C 
ATOM     48  C   UNL A   1      38.316  28.904  28.579  1.00  0.00     0.029 A 
ATOM     49  N   UNL A   1      39.768  29.903  29.952  1.00  0.00    -0.354 N 
ATOM     50  C   UNL A   1      43.429  27.932  31.139  1.00  0.00     0.074 A 
ATOM     51  C   UNL A   1      43.558  26.639  30.503  1.00  0.00     0.031 C 
ATOM     52  C   UNL A   1      37.781  30.081  28.940  1.00  0.00     0.029 A 
ATOM     53  C   UNL A   1      38.691  30.754  29.862  1.00  0.00     0.049 A 
ATOM     54  H   UNL A   1      40.566  30.099  30.495  1.00  0.00     0.167 HD
ATOM     55  C   UNL A   1      44.341  28.458  31.992  1.00  0.00     0.037 A 
ATOM     56  C   UNL A   1      38.456  31.938  30.463  1.00  0.00     0.037 A 
ATOM     57  C   UNL A   1      44.228  29.763  32.590  1.00  0.00     0.049 A 
ATOM     58  C   UNL A   1      39.497  32.512  31.385  1.00  0.00     0.074 A 
ATOM     59  C   UNL A   1      45.136  30.416  33.404  1.00  0.00     0.029 A 
ATOM     60  N   UNL A   1      43.143  30.614  32.438  1.00  0.00    -0.354 N 
ATOM     61  N   UNL A   1      40.652  32.001  31.742  1.00  0.00    -0.248 NA
ATOM     62  C   UNL A   1      39.212  33.827  31.977  1.00  0.00     0.031 C 
ATOM     63  C   UNL A   1      44.584  31.645  33.778  1.00  0.00     0.029 A 
ATOM     64  C   UNL A   1      43.351  31.778  33.158  1.00  0.00     0.049 A 
ATOM     65  H   UNL A   1      42.343  30.419  31.898  1.00  0.00     0.167 HD
ATOM     66  C   UNL A   1      41.240  32.943  32.580  1.00  0.00     0.074 A 
ATOM     67  C   UNL A   1      40.321  34.060  32.665  1.00  0.00     0.031 C 
ATOM     68  C   UNL A   1      42.433  32.887  33.223  1.00  0.00     0.037 A 
BRANCH  55  69
ATOM     69  C   UNL A   1      45.552  27.630  32.326  1.00  0.00     0.058 A 
ATOM     70  C   UNL A   1      46.723  27.692  31.554  1.00  0.00     0.135 A 
ATOM     71  C   UNL A   1      45.562  26.810  33.466  1.00  0.00     0.135 A 
ATOM     72  F   UNL A   1      46.762  28.448  30.446  1.00  0.00    -0.206 F 
ATOM     73  C   UNL A   1      47.854  26.954  31.888  1.00  0.00     0.059 A 
ATOM     74  C   UNL A   1      46.692  26.085  33.835  1.00  0.00     0.059 A 
ATOM     75  F   UNL A   1      44.469  26.713  34.239  1.00  0.00    -0.206 F 
ATOM     76  C   UNL A   1      47.830  26.156  33.033  1.00  0.00     0.060 A 
BRANCH  76  77
ATOM     77  S   UNL A   1      49.316  25.227  33.466  1.00  0.00     0.124 S 
ATOM     78  O   UNL A   1      48.743  24.016  34.046  1.00  0.00    -0.237 OA
ATOM     79  O   UNL A   1      49.968  25.061  32.171  1.00  0.00    -0.237 OA
ATOM     80  O   UNL A   1      50.006  26.106  34.404  1.00  0.00    -0.744 OA
ENDBRANCH  76  77
ENDBRANCH  55  69
BRANCH  56  81
ATOM     81  C   UNL A   1      37.185  32.666  30.204  1.00  0.00     0.058 A 
ATOM     82  C   UNL A   1      37.085  33.599  29.161  1.00  0.00     0.135 A 
ATOM     83  C   UNL A   1      36.046  32.447  30.995  1.00  0.00     0.135 A 
ATOM     84  F   UNL A   1      38.147  33.848  28.380  1.00  0.00    -0.206 F 
ATOM     85  C   UNL A   1      35.910  34.306  28.924  1.00  0.00     0.059 A 
ATOM     86  C   UNL A   1      34.852  33.123  30.761  1.00  0.00     0.059 A 
ATOM     87  F   UNL A   1      36.082  31.552  31.994  1.00  0.00    -0.206 F 
ATOM     88  C   UNL A   1      34.798  34.061  29.732  1.00  0.00     0.060 A 
BRANCH  88  89
ATOM     89  S   UNL A   1      33.266  34.955  29.394  1.00  0.00     0.124 S 
ATOM     90  O   UNL A   1      32.623  34.078  28.423  1.00  0.00    -0.237 OA
ATOM     91  O   UNL A   1      32.645  35.013  30.714  1.00  0.00    -0.237 OA
ATOM     92  O   UNL A   1      33.735  36.237  28.875  1.00  0.00    -0.744 OA
ENDBRANCH  88  89
ENDBRANCH  56  81
BRANCH  68  93
ATOM     93  C   UNL A   1      42.835  34.081  34.043  1.00  0.00     0.058 A 
ATOM     94  C   UNL A   1      42.596  34.141  35.424  1.00  0.00     0.135 A 
ATOM     95  C   UNL A   1      43.519  35.153  33.448  1.00  0.00     0.135 A 
ATOM     96  F   UNL A   1      41.941  33.145  36.041  1.00  0.00    -0.206 F 
ATOM     97  C   UNL A   1      43.002  35.233  36.184  1.00  0.00     0.059 A 
ATOM     98  C   UNL A   1      43.958  36.243  34.192  1.00  0.00     0.059 A 
ATOM     99  F   UNL A   1      43.782  35.140  32.130  1.00  0.00    -0.206 F 
ATOM    100  C   UNL A   1      43.684  36.279  35.559  1.00  0.00     0.060 A 
BRANCH 100 101
ATOM    101  S   UNL A   1      44.237  37.675  36.561  1.00  0.00     0.124 S 
ATOM    102  O   UNL A   1      45.574  37.241  36.955  1.00  0.00    -0.237 OA
ATOM    103  O   UNL A   1      44.184  38.782  35.612  1.00  0.00    -0.237 OA
ATOM    104  O   UNL A   1      43.253  37.732  37.638  1.00  0.00    -0.744 OA
ENDBRANCH 100 101
ENDBRANCH  68  93
ENDBRANCH  42  43
ENDBRANCH  34  37
ENDBRANCH  32  33
ENDBRANCH   1  32
TORSDOF 16
ENDMDL
MODEL 3
REMARK VINA RESULT:     -12.6      6.665     14.272
REMARK SMILES CS(=O)(=O)c1ccc(-c2cc(Cl)cc3c2O[C@H](C(F)(F)F)C(C(=O)NCCCNC(=O)c2ccc(-c4c5nc(c(-c6c(F)cc(S(=O)(=O)[O-])cc6F)c6ccc([nH]6)c(-c6c(F)cc(S(=O)(=O)[O-])cc6F)c6nc(c(-c7c(F)cc(S(=O)(=O)[O-])cc7F)c7ccc4[nH]7)C=C6)C=C5)cc2)=C3)cc1
REMARK SMILES IDX 27 1 26 2 25 3 23 4 24 5 22 7 9 8 10 9 15 10 11 11 14 12
REMARK SMILES IDX 16 13 12 14 13 15 98 16 17 17 8 18 5 19 6 20 100 21 7 22
REMARK SMILES IDX 99 23 2 24 1 25 3 26 4 27 18 28 19 29 20 30 21 31 28 32
REMARK SMILES IDX 29 33 30 34 31 36 32 37 33 38 97 39 34 40 96 41 35 42 36 43
REMARK SMILES IDX 37 44 90 45 38 46 95 47 89 48 91 49 39 50 94 51 88 52 87 53
REMARK SMILES IDX 40 55 74 56 53 57 73 58 54 59 57 60 72 61 92 62 55 63 56 64
REMARK SMILES IDX 71 66 93 67 58 68 41 69 42 70 51 71 43 72 44 73 50 74 52 75
REMARK SMILES IDX 45 76 46 77 47 78 48 79 49 80 75 81 76 82 85 83 77 84 78 85
REMARK SMILES IDX 84 86 86 87 79 88 80 89 81 90 82 91 83 92 59 93 60 94 69 95
REMARK SMILES IDX 61 96 62 97 68 98 70 99 63 100 64 101 65 102 66 103 67 104
REMARK H PARENT 25 6 29 35 91 54 57 65
REMARK Flexibility Score: inf
ROOT
ATOM      1  C   UNL A   1      40.789  21.477  27.450  1.00  0.00     0.042 C 
ENDROOT
BRANCH   1   2
ATOM      2  C   UNL A   1      42.291  21.186  27.493  1.00  0.00     0.118 C 
BRANCH   2   3
ATOM      3  N   UNL A   1      43.024  22.405  27.771  1.00  0.00    -0.352 N 
ATOM      4  C   UNL A   1      44.229  22.767  27.268  1.00  0.00     0.251 C 
ATOM      5  O   UNL A   1      45.036  23.360  27.975  1.00  0.00    -0.270 OA
ATOM      6  H   UNL A   1      42.600  23.040  28.393  1.00  0.00     0.163 HD
BRANCH   4   7
ATOM      7  C   UNL A   1      44.458  22.538  25.810  1.00  0.00     0.067 C 
ATOM      8  C   UNL A   1      46.983  25.638  25.058  1.00  0.00     0.026 A 
ATOM      9  C   UNL A   1      46.437  26.816  25.627  1.00  0.00     0.033 A 
ATOM     10  C   UNL A   1      46.127  24.532  24.958  1.00  0.00     0.135 A 
ATOM     11  C   UNL A   1      45.085  26.931  25.951  1.00  0.00     0.042 A 
ATOM     12  C   UNL A   1      44.740  24.699  25.190  1.00  0.00     0.019 A 
ATOM     13  O   UNL A   1      46.589  23.260  24.668  1.00  0.00    -0.475 OA
ATOM     14  Cl  UNL A   1      44.498  28.386  26.652  1.00  0.00    -0.084 Cl
ATOM     15  C   UNL A   1      44.215  25.892  25.678  1.00  0.00     0.032 A 
ATOM     16  C   UNL A   1      43.876  23.502  25.067  1.00  0.00     0.025 C 
ATOM     17  C   UNL A   1      45.902  22.197  25.452  1.00  0.00     0.314 C 
BRANCH   8  18
ATOM     18  C   UNL A   1      48.324  25.791  24.444  1.00  0.00    -0.015 A 
ATOM     19  C   UNL A   1      50.524  27.251  23.472  1.00  0.00     0.067 A 
ATOM     20  C   UNL A   1      50.549  26.748  24.774  1.00  0.00     0.021 A 
ATOM     21  C   UNL A   1      49.487  26.907  22.604  1.00  0.00     0.021 A 
ATOM     22  C   UNL A   1      49.459  26.009  25.251  1.00  0.00     0.010 A 
ATOM     23  C   UNL A   1      48.403  26.161  23.088  1.00  0.00     0.010 A 
BRANCH  19  24
ATOM     24  S   UNL A   1      51.724  28.478  23.001  1.00  0.00     0.175 S 
ATOM     25  C   UNL A   1      51.163  29.170  21.474  1.00  0.00     0.163 C 
ATOM     26  O   UNL A   1      52.969  27.783  22.720  1.00  0.00    -0.224 OA
ATOM     27  O   UNL A   1      51.667  29.521  24.007  1.00  0.00    -0.224 OA
ENDBRANCH  19  24
ENDBRANCH   8  18
BRANCH  17  28
ATOM     28  C   UNL A   1      45.928  20.846  24.706  1.00  0.00     0.429 C 
ATOM     29  F   UNL A   1      45.146  20.849  23.601  1.00  0.00    -0.167 F 
ATOM     30  F   UNL A   1      47.184  20.527  24.315  1.00  0.00    -0.167 F 
ATOM     31  F   UNL A   1      45.495  19.816  25.478  1.00  0.00    -0.167 F 
ENDBRANCH  17  28
ENDBRANCH   4   7
ENDBRANCH   2   3
ENDBRANCH   1   2
BRANCH   1  32
ATOM     32  C   UNL A   1      40.416  22.946  27.642  1.00  0.00     0.118 C 
BRANCH  32  33
ATOM     33  N   UNL A   1      40.583  23.742  26.436  1.00  0.00    -0.352 N 
ATOM     34  C   UNL A   1      40.628  25.108  26.300  1.00  0.00     0.251 C 
ATOM     35  H   UNL A   1      40.676  23.229  25.600  1.00  0.00     0.163 HD
ATOM     36  O   UNL A   1      40.634  25.611  25.181  1.00  0.00    -0.269 OA
BRANCH  34  37
ATOM     37  C   UNL A   1      40.634  25.967  27.504  1.00  0.00     0.039 A 
ATOM     38  C   UNL A   1      41.658  26.905  27.658  1.00  0.00     0.014 A 
ATOM     39  C   UNL A   1      39.627  25.862  28.468  1.00  0.00     0.014 A 
ATOM     40  C   UNL A   1      41.631  27.788  28.741  1.00  0.00     0.010 A 
ATOM     41  C   UNL A   1      39.562  26.789  29.505  1.00  0.00     0.010 A 
ATOM     42  C   UNL A   1      40.561  27.764  29.651  1.00  0.00    -0.014 A 
BRANCH  42  43
ATOM     43  C   UNL A   1      40.460  28.762  30.750  1.00  0.00     0.031 A 
ATOM     44  C   UNL A   1      41.312  28.622  31.983  1.00  0.00     0.074 A 
ATOM     45  C   UNL A   1      39.547  29.752  30.669  1.00  0.00     0.049 A 
ATOM     46  N   UNL A   1      41.305  29.339  33.077  1.00  0.00    -0.248 NA
ATOM     47  C   UNL A   1      42.279  27.512  32.002  1.00  0.00     0.031 C 
ATOM     48  C   UNL A   1      38.620  29.960  29.554  1.00  0.00     0.029 A 
ATOM     49  N   UNL A   1      39.235  30.761  31.549  1.00  0.00    -0.354 N 
ATOM     50  C   UNL A   1      42.243  28.756  33.920  1.00  0.00     0.074 A 
ATOM     51  C   UNL A   1      42.771  27.600  33.229  1.00  0.00     0.031 C 
ATOM     52  C   UNL A   1      37.856  31.035  29.809  1.00  0.00     0.029 A 
ATOM     53  C   UNL A   1      38.210  31.571  31.119  1.00  0.00     0.049 A 
ATOM     54  H   UNL A   1      39.701  30.890  32.406  1.00  0.00     0.167 HD
ATOM     55  C   UNL A   1      42.645  29.160  35.149  1.00  0.00     0.037 A 
ATOM     56  C   UNL A   1      37.614  32.623  31.717  1.00  0.00     0.037 A 
ATOM     57  C   UNL A   1      42.147  30.336  35.815  1.00  0.00     0.049 A 
ATOM     58  C   UNL A   1      38.098  33.067  33.071  1.00  0.00     0.074 A 
ATOM     59  C   UNL A   1      42.548  30.872  37.026  1.00  0.00     0.029 A 
ATOM     60  N   UNL A   1      41.142  31.157  35.328  1.00  0.00    -0.354 N 
ATOM     61  N   UNL A   1      39.042  32.547  33.820  1.00  0.00    -0.248 NA
ATOM     62  C   UNL A   1      37.446  34.246  33.658  1.00  0.00     0.031 C 
ATOM     63  C   UNL A   1      41.757  31.994  37.291  1.00  0.00     0.029 A 
ATOM     64  C   UNL A   1      40.896  32.185  36.222  1.00  0.00     0.049 A 
ATOM     65  H   UNL A   1      40.671  31.028  34.472  1.00  0.00     0.167 HD
ATOM     66  C   UNL A   1      39.112  33.350  34.953  1.00  0.00     0.074 A 
ATOM     67  C   UNL A   1      38.127  34.398  34.786  1.00  0.00     0.031 C 
ATOM     68  C   UNL A   1      39.920  33.229  36.036  1.00  0.00     0.037 A 
BRANCH  55  69
ATOM     69  C   UNL A   1      43.685  28.334  35.857  1.00  0.00     0.058 A 
ATOM     70  C   UNL A   1      45.057  28.588  35.704  1.00  0.00     0.135 A 
ATOM     71  C   UNL A   1      43.303  27.316  36.745  1.00  0.00     0.135 A 
ATOM     72  F   UNL A   1      45.478  29.539  34.856  1.00  0.00    -0.206 F 
ATOM     73  C   UNL A   1      46.014  27.847  36.390  1.00  0.00     0.059 A 
ATOM     74  C   UNL A   1      44.242  26.581  37.463  1.00  0.00     0.059 A 
ATOM     75  F   UNL A   1      42.003  27.031  36.929  1.00  0.00    -0.206 F 
ATOM     76  C   UNL A   1      45.597  26.848  37.270  1.00  0.00     0.060 A 
BRANCH  76  77
ATOM     77  S   UNL A   1      46.853  25.916  38.172  1.00  0.00     0.124 S 
ATOM     78  O   UNL A   1      47.211  24.891  37.196  1.00  0.00    -0.237 OA
ATOM     79  O   UNL A   1      47.870  26.929  38.428  1.00  0.00    -0.237 OA
ATOM     80  O   UNL A   1      46.139  25.436  39.351  1.00  0.00    -0.744 OA
ENDBRANCH  76  77
ENDBRANCH  55  69
BRANCH  56  81
ATOM     81  C   UNL A   1      36.500  33.335  31.036  1.00  0.00     0.058 A 
ATOM     82  C   UNL A   1      35.175  33.191  31.474  1.00  0.00     0.135 A 
ATOM     83  C   UNL A   1      36.736  34.171  29.933  1.00  0.00     0.135 A 
ATOM     84  F   UNL A   1      34.896  32.399  32.520  1.00  0.00    -0.206 F 
ATOM     85  C   UNL A   1      34.120  33.832  30.830  1.00  0.00     0.059 A 
ATOM     86  C   UNL A   1      35.701  34.843  29.289  1.00  0.00     0.059 A 
ATOM     87  F   UNL A   1      37.988  34.357  29.486  1.00  0.00    -0.206 F 
ATOM     88  C   UNL A   1      34.394  34.655  29.736  1.00  0.00     0.060 A 
BRANCH  88  89
ATOM     89  S   UNL A   1      33.025  35.512  28.930  1.00  0.00     0.124 S 
ATOM     90  O   UNL A   1      32.269  36.000  30.078  1.00  0.00    -0.237 OA
ATOM     91  O   UNL A   1      33.717  36.527  28.141  1.00  0.00    -0.237 OA
ATOM     92  O   UNL A   1      32.382  34.457  28.152  1.00  0.00    -0.744 OA
ENDBRANCH  88  89
ENDBRANCH  56  81
BRANCH  68  93
ATOM     93  C   UNL A   1      39.803  34.276  37.108  1.00  0.00     0.058 A 
ATOM     94  C   UNL A   1      39.031  34.069  38.260  1.00  0.00     0.135 A 
ATOM     95  C   UNL A   1      40.520  35.480  37.006  1.00  0.00     0.135 A 
ATOM     96  F   UNL A   1      38.321  32.938  38.405  1.00  0.00    -0.206 F 
ATOM     97  C   UNL A   1      38.954  35.028  39.265  1.00  0.00     0.059 A 
ATOM     98  C   UNL A   1      40.480  36.441  38.010  1.00  0.00     0.059 A 
ATOM     99  F   UNL A   1      41.282  35.723  35.927  1.00  0.00    -0.206 F 
ATOM    100  C   UNL A   1      39.685  36.210  39.132  1.00  0.00     0.060 A 
BRANCH 100 101
ATOM    101  S   UNL A   1      39.606  37.432  40.459  1.00  0.00     0.124 S 
ATOM    102  O   UNL A   1      38.980  36.662  41.529  1.00  0.00    -0.237 OA
ATOM    103  O   UNL A   1      41.012  37.768  40.658  1.00  0.00    -0.237 OA
ATOM    104  O   UNL A   1      38.788  38.499  39.891  1.00  0.00    -0.744 OA
ENDBRANCH 100 101
ENDBRANCH  68  93
ENDBRANCH  42  43
ENDBRANCH  34  37
ENDBRANCH  32  33
ENDBRANCH   1  32
TORSDOF 16
ENDMDL
