MODEL 1
REMARK VINA RESULT:     -11.5      0.000      0.000
REMARK SMILES CC(C)[NH2+][C@]1(C(=O)NCCCNC(=O)c2ccc(-c3c4nc(c(-c5c(F)cc(S(=O)(=O)[O-])cc5F)c5ccc([nH]5)c(-c5c(F)cc(S(=O)(=O)[O-])cc5F)c5nc(c(-c6c(F)cc(S(=O)(=O)[O-])cc6F)c6ccc3[nH]6)C=C5)C=C4)cc2)CC[C@H]([NH+]2CCC(C)(C)CC2)C1
REMARK SMILES IDX 10 1 9 2 8 3 6 4 7 5 5 7 81 8 92 9 82 10 83 11 4 12 2 15
REMARK SMILES IDX 1 16 3 17 84 18 85 19 91 20 86 22 90 23 87 24 88 25 89 26
REMARK SMILES IDX 11 27 12 28 13 29 14 31 15 32 16 33 80 34 17 35 79 36 18 37
REMARK SMILES IDX 19 38 20 39 73 40 21 41 78 42 72 43 74 44 22 45 77 46 71 47
REMARK SMILES IDX 70 48 23 50 57 51 36 52 56 53 37 54 40 55 55 56 75 57 38 58
REMARK SMILES IDX 39 59 54 61 76 62 41 63 24 64 25 65 34 66 26 67 27 68 33 69
REMARK SMILES IDX 35 70 28 71 29 72 30 73 31 74 32 75 58 76 59 77 68 78 60 79
REMARK SMILES IDX 61 80 67 81 69 82 62 83 63 84 64 85 65 86 66 87 42 88 43 89
REMARK SMILES IDX 52 90 44 91 45 92 51 93 53 94 46 95 47 96 48 97 49 98 50 99
REMARK H PARENT 8 6 4 13 4 14 84 21 12 30 74 49 40 60
REMARK Flexibility Score: inf
ROOT
ATOM      1  C   UNL A   1      33.889  27.462  25.278  1.00  0.00     0.042 C 
ENDROOT
BRANCH   1   2
ATOM      2  C   UNL A   1      32.491  26.947  24.939  1.00  0.00     0.118 C 
BRANCH   2   3
ATOM      3  N   UNL A   1      31.925  26.213  26.052  1.00  0.00    -0.351 N 
ATOM      4  C   UNL A   1      31.848  24.891  26.344  1.00  0.00     0.281 C 
ATOM      5  O   UNL A   1      31.065  24.621  27.267  1.00  0.00    -0.268 OA
ATOM      6  H   UNL A   1      31.514  26.791  26.735  1.00  0.00     0.163 HD
BRANCH   4   7
ATOM      7  C   UNL A   1      32.694  23.764  25.616  1.00  0.00     0.181 C 
ATOM      8  C   UNL A   1      34.199  24.051  25.650  1.00  0.00     0.085 C 
ATOM      9  C   UNL A   1      32.523  22.434  26.401  1.00  0.00     0.144 C 
ATOM     10  C   UNL A   1      34.923  22.741  25.972  1.00  0.00     0.072 C 
ATOM     11  C   UNL A   1      33.905  21.723  26.520  1.00  0.00     0.191 C 
BRANCH   7  12
ATOM     12  N   UNL A   1      32.160  23.772  24.224  1.00  0.00    -0.331 N 
ATOM     13  H   UNL A   1      31.555  22.954  24.155  1.00  0.00     0.347 HD
ATOM     14  H   UNL A   1      31.770  24.712  24.168  1.00  0.00     0.347 HD
BRANCH  12  15
ATOM     15  C   UNL A   1      32.994  23.745  23.047  1.00  0.00     0.176 C 
ATOM     16  C   UNL A   1      32.917  22.392  22.338  1.00  0.00     0.075 C 
ATOM     17  C   UNL A   1      32.709  24.844  22.028  1.00  0.00     0.075 C 
ENDBRANCH  12  15
ENDBRANCH   7  12
BRANCH  11  18
ATOM     18  N   UNL A   1      34.023  20.285  26.099  1.00  0.00    -0.332 N 
ATOM     19  C   UNL A   1      34.825  20.074  24.875  1.00  0.00     0.263 C 
ATOM     20  C   UNL A   1      32.737  19.608  26.012  1.00  0.00     0.263 C 
ATOM     21  H   UNL A   1      34.549  19.851  26.859  1.00  0.00     0.348 HD
ATOM     22  C   UNL A   1      34.813  18.621  24.329  1.00  0.00     0.068 C 
ATOM     23  C   UNL A   1      32.751  18.157  25.573  1.00  0.00     0.068 C 
ATOM     24  C   UNL A   1      33.394  18.023  24.193  1.00  0.00    -0.025 C 
ATOM     25  C   UNL A   1      33.429  16.532  23.825  1.00  0.00     0.011 C 
ATOM     26  C   UNL A   1      32.567  18.748  23.105  1.00  0.00     0.011 C 
ENDBRANCH  11  18
ENDBRANCH   4   7
ENDBRANCH   2   3
ENDBRANCH   1   2
BRANCH   1  27
ATOM     27  C   UNL A   1      34.064  27.849  26.742  1.00  0.00     0.118 C 
BRANCH  27  28
ATOM     28  N   UNL A   1      33.694  29.234  26.998  1.00  0.00    -0.352 N 
ATOM     29  C   UNL A   1      34.384  30.201  27.686  1.00  0.00     0.251 C 
ATOM     30  H   UNL A   1      32.827  29.517  26.626  1.00  0.00     0.163 HD
ATOM     31  O   UNL A   1      33.828  31.252  27.995  1.00  0.00    -0.269 OA
BRANCH  29  32
ATOM     32  C   UNL A   1      35.791  29.958  28.069  1.00  0.00     0.039 A 
ATOM     33  C   UNL A   1      36.088  29.550  29.371  1.00  0.00     0.014 A 
ATOM     34  C   UNL A   1      36.813  30.121  27.130  1.00  0.00     0.014 A 
ATOM     35  C   UNL A   1      37.406  29.237  29.712  1.00  0.00     0.010 A 
ATOM     36  C   UNL A   1      38.106  29.723  27.445  1.00  0.00     0.010 A 
ATOM     37  C   UNL A   1      38.420  29.285  28.741  1.00  0.00    -0.014 A 
BRANCH  37  38
ATOM     38  C   UNL A   1      39.825  28.915  29.047  1.00  0.00     0.031 A 
ATOM     39  C   UNL A   1      40.757  29.956  29.607  1.00  0.00     0.074 A 
ATOM     40  C   UNL A   1      40.284  27.687  28.736  1.00  0.00     0.049 A 
ATOM     41  N   UNL A   1      42.050  29.896  29.792  1.00  0.00    -0.248 NA
ATOM     42  C   UNL A   1      40.159  31.252  29.971  1.00  0.00     0.031 C 
ATOM     43  C   UNL A   1      39.487  26.604  28.156  1.00  0.00     0.029 A 
ATOM     44  N   UNL A   1      41.544  27.150  28.842  1.00  0.00    -0.354 N 
ATOM     45  C   UNL A   1      42.422  31.149  30.266  1.00  0.00     0.074 A 
ATOM     46  C   UNL A   1      41.228  31.965  30.288  1.00  0.00     0.031 C 
ATOM     47  C   UNL A   1      40.272  25.530  27.970  1.00  0.00     0.029 A 
ATOM     48  C   UNL A   1      41.636  25.861  28.370  1.00  0.00     0.049 A 
ATOM     49  H   UNL A   1      42.308  27.641  29.220  1.00  0.00     0.167 HD
ATOM     50  C   UNL A   1      43.644  31.574  30.667  1.00  0.00     0.037 A 
ATOM     51  C   UNL A   1      42.704  25.046  28.257  1.00  0.00     0.037 A 
ATOM     52  C   UNL A   1      44.819  30.743  30.673  1.00  0.00     0.049 A 
ATOM     53  C   UNL A   1      44.052  25.540  28.706  1.00  0.00     0.074 A 
ATOM     54  C   UNL A   1      46.093  31.058  31.108  1.00  0.00     0.029 A 
ATOM     55  N   UNL A   1      44.862  29.431  30.224  1.00  0.00    -0.354 N 
ATOM     56  N   UNL A   1      44.380  26.714  29.194  1.00  0.00    -0.248 NA
ATOM     57  C   UNL A   1      45.178  24.601  28.596  1.00  0.00     0.031 C 
ATOM     58  C   UNL A   1      46.917  29.952  30.883  1.00  0.00     0.029 A 
ATOM     59  C   UNL A   1      46.144  28.927  30.360  1.00  0.00     0.049 A 
ATOM     60  H   UNL A   1      44.094  28.931  29.862  1.00  0.00     0.167 HD
ATOM     61  C   UNL A   1      45.738  26.640  29.485  1.00  0.00     0.074 A 
ATOM     62  C   UNL A   1      46.170  25.306  29.120  1.00  0.00     0.031 C 
ATOM     63  C   UNL A   1      46.552  27.588  30.011  1.00  0.00     0.037 A 
BRANCH  50  64
ATOM     64  C   UNL A   1      43.769  32.999  31.134  1.00  0.00     0.058 A 
ATOM     65  C   UNL A   1      44.009  34.053  30.236  1.00  0.00     0.135 A 
ATOM     66  C   UNL A   1      43.620  33.321  32.493  1.00  0.00     0.135 A 
ATOM     67  F   UNL A   1      44.177  33.802  28.928  1.00  0.00    -0.206 F 
ATOM     68  C   UNL A   1      44.129  35.368  30.672  1.00  0.00     0.059 A 
ATOM     69  C   UNL A   1      43.704  34.634  32.947  1.00  0.00     0.059 A 
ATOM     70  F   UNL A   1      43.390  32.354  33.395  1.00  0.00    -0.206 F 
ATOM     71  C   UNL A   1      43.975  35.649  32.030  1.00  0.00     0.060 A 
BRANCH  71  72
ATOM     72  S   UNL A   1      44.130  37.361  32.579  1.00  0.00     0.124 S 
ATOM     73  O   UNL A   1      43.063  37.446  33.571  1.00  0.00    -0.237 OA
ATOM     74  O   UNL A   1      45.489  37.397  33.107  1.00  0.00    -0.237 OA
ATOM     75  O   UNL A   1      43.914  38.132  31.358  1.00  0.00    -0.744 OA
ENDBRANCH  71  72
ENDBRANCH  50  64
BRANCH  51  76
ATOM     76  C   UNL A   1      42.536  23.672  27.709  1.00  0.00     0.058 A 
ATOM     77  C   UNL A   1      42.549  23.442  26.325  1.00  0.00     0.135 A 
ATOM     78  C   UNL A   1      42.372  22.562  28.552  1.00  0.00     0.135 A 
ATOM     79  F   UNL A   1      42.696  24.472  25.476  1.00  0.00    -0.206 F 
ATOM     80  C   UNL A   1      42.386  22.167  25.795  1.00  0.00     0.059 A 
ATOM     81  C   UNL A   1      42.236  21.272  28.048  1.00  0.00     0.059 A 
ATOM     82  F   UNL A   1      42.370  22.724  29.885  1.00  0.00    -0.206 F 
ATOM     83  C   UNL A   1      42.233  21.087  26.665  1.00  0.00     0.060 A 
BRANCH  83  84
ATOM     84  S   UNL A   1      42.072  19.428  25.968  1.00  0.00     0.124 S 
ATOM     85  O   UNL A   1      40.636  19.352  25.722  1.00  0.00    -0.237 OA
ATOM     86  O   UNL A   1      42.920  19.511  24.783  1.00  0.00    -0.237 OA
ATOM     87  O   UNL A   1      42.578  18.565  27.031  1.00  0.00    -0.744 OA
ENDBRANCH  83  84
ENDBRANCH  51  76
BRANCH  63  88
ATOM     88  C   UNL A   1      47.981  27.209  30.286  1.00  0.00     0.058 A 
ATOM     89  C   UNL A   1      49.006  27.456  29.361  1.00  0.00     0.135 A 
ATOM     90  C   UNL A   1      48.335  26.657  31.528  1.00  0.00     0.135 A 
ATOM     91  F   UNL A   1      48.720  27.976  28.157  1.00  0.00    -0.206 F 
ATOM     92  C   UNL A   1      50.333  27.156  29.653  1.00  0.00     0.059 A 
ATOM     93  C   UNL A   1      49.658  26.375  31.851  1.00  0.00     0.059 A 
ATOM     94  F   UNL A   1      47.393  26.409  32.452  1.00  0.00    -0.206 F 
ATOM     95  C   UNL A   1      50.650  26.621  30.903  1.00  0.00     0.060 A 
BRANCH  95  96
ATOM     96  S   UNL A   1      52.381  26.284  31.287  1.00  0.00     0.124 S 
ATOM     97  O   UNL A   1      52.976  26.245  29.955  1.00  0.00    -0.237 OA
ATOM     98  O   UNL A   1      52.747  27.432  32.111  1.00  0.00    -0.237 OA
ATOM     99  O   UNL A   1      52.331  25.006  31.991  1.00  0.00    -0.744 OA
ENDBRANCH  95  96
ENDBRANCH  63  88
ENDBRANCH  37  38
ENDBRANCH  29  32
ENDBRANCH  27  28
ENDBRANCH   1  27
TORSDOF 16
ENDMDL
MODEL 2
REMARK VINA RESULT:     -11.5      4.066      6.918
REMARK SMILES CC(C)[NH2+][C@]1(C(=O)NCCCNC(=O)c2ccc(-c3c4nc(c(-c5c(F)cc(S(=O)(=O)[O-])cc5F)c5ccc([nH]5)c(-c5c(F)cc(S(=O)(=O)[O-])cc5F)c5nc(c(-c6c(F)cc(S(=O)(=O)[O-])cc6F)c6ccc3[nH]6)C=C5)C=C4)cc2)CC[C@H]([NH+]2CCC(C)(C)CC2)C1
REMARK SMILES IDX 10 1 9 2 8 3 6 4 7 5 5 7 81 8 92 9 82 10 83 11 4 12 2 15
REMARK SMILES IDX 1 16 3 17 84 18 85 19 91 20 86 22 90 23 87 24 88 25 89 26
REMARK SMILES IDX 11 27 12 28 13 29 14 31 15 32 16 33 80 34 17 35 79 36 18 37
REMARK SMILES IDX 19 38 20 39 73 40 21 41 78 42 72 43 74 44 22 45 77 46 71 47
REMARK SMILES IDX 70 48 23 50 57 51 36 52 56 53 37 54 40 55 55 56 75 57 38 58
REMARK SMILES IDX 39 59 54 61 76 62 41 63 24 64 25 65 34 66 26 67 27 68 33 69
REMARK SMILES IDX 35 70 28 71 29 72 30 73 31 74 32 75 58 76 59 77 68 78 60 79
REMARK SMILES IDX 61 80 67 81 69 82 62 83 63 84 64 85 65 86 66 87 42 88 43 89
REMARK SMILES IDX 52 90 44 91 45 92 51 93 53 94 46 95 47 96 48 97 49 98 50 99
REMARK H PARENT 8 6 4 13 4 14 84 21 12 30 74 49 40 60
REMARK Flexibility Score: inf
ROOT
ATOM      1  C   UNL A   1      34.555  32.357  30.280  1.00  0.00     0.042 C 
ENDROOT
BRANCH   1   2
ATOM      2  C   UNL A   1      35.336  33.512  30.903  1.00  0.00     0.118 C 
BRANCH   2   3
ATOM      3  N   UNL A   1      34.953  33.710  32.286  1.00  0.00    -0.351 N 
ATOM      4  C   UNL A   1      35.547  33.393  33.464  1.00  0.00     0.281 C 
ATOM      5  O   UNL A   1      34.802  33.495  34.449  1.00  0.00    -0.268 OA
ATOM      6  H   UNL A   1      34.089  34.168  32.392  1.00  0.00     0.163 HD
BRANCH   4   7
ATOM      7  C   UNL A   1      37.065  32.959  33.611  1.00  0.00     0.181 C 
ATOM      8  C   UNL A   1      37.447  32.653  35.063  1.00  0.00     0.085 C 
ATOM      9  C   UNL A   1      37.270  31.617  32.853  1.00  0.00     0.144 C 
ATOM     10  C   UNL A   1      38.305  31.386  35.070  1.00  0.00     0.072 C 
ATOM     11  C   UNL A   1      38.156  30.668  33.715  1.00  0.00     0.191 C 
BRANCH   7  12
ATOM     12  N   UNL A   1      37.816  34.130  33.075  1.00  0.00    -0.331 N 
ATOM     13  H   UNL A   1      37.139  34.670  32.535  1.00  0.00     0.347 HD
ATOM     14  H   UNL A   1      38.221  34.512  33.929  1.00  0.00     0.347 HD
BRANCH  12  15
ATOM     15  C   UNL A   1      38.986  34.016  32.238  1.00  0.00     0.176 C 
ATOM     16  C   UNL A   1      38.779  34.711  30.891  1.00  0.00     0.075 C 
ATOM     17  C   UNL A   1      40.278  34.538  32.860  1.00  0.00     0.075 C 
ENDBRANCH  12  15
ENDBRANCH   7  12
BRANCH  11  18
ATOM     18  N   UNL A   1      39.371  30.040  33.092  1.00  0.00    -0.332 N 
ATOM     19  C   UNL A   1      39.259  28.582  32.873  1.00  0.00     0.263 C 
ATOM     20  C   UNL A   1      40.606  30.376  33.788  1.00  0.00     0.263 C 
ATOM     21  H   UNL A   1      39.416  30.463  32.164  1.00  0.00     0.348 HD
ATOM     22  C   UNL A   1      40.563  27.891  32.394  1.00  0.00     0.068 C 
ATOM     23  C   UNL A   1      41.887  29.772  33.247  1.00  0.00     0.068 C 
ATOM     24  C   UNL A   1      41.800  28.246  33.251  1.00  0.00    -0.025 C 
ATOM     25  C   UNL A   1      43.099  27.692  32.645  1.00  0.00     0.011 C 
ATOM     26  C   UNL A   1      41.685  27.684  34.687  1.00  0.00     0.011 C 
ENDBRANCH  11  18
ENDBRANCH   4   7
ENDBRANCH   2   3
ENDBRANCH   1   2
BRANCH   1  27
ATOM     27  C   UNL A   1      34.492  32.407  28.757  1.00  0.00     0.118 C 
BRANCH  27  28
ATOM     28  N   UNL A   1      33.931  31.191  28.184  1.00  0.00    -0.352 N 
ATOM     29  C   UNL A   1      34.574  30.045  27.787  1.00  0.00     0.251 C 
ATOM     30  H   UNL A   1      32.954  31.190  28.065  1.00  0.00     0.163 HD
ATOM     31  O   UNL A   1      33.975  29.202  27.123  1.00  0.00    -0.269 OA
BRANCH  29  32
ATOM     32  C   UNL A   1      35.994  29.845  28.145  1.00  0.00     0.039 A 
ATOM     33  C   UNL A   1      36.321  29.373  29.418  1.00  0.00     0.014 A 
ATOM     34  C   UNL A   1      36.999  30.110  27.211  1.00  0.00     0.014 A 
ATOM     35  C   UNL A   1      37.655  29.101  29.731  1.00  0.00     0.010 A 
ATOM     36  C   UNL A   1      38.311  29.754  27.493  1.00  0.00     0.010 A 
ATOM     37  C   UNL A   1      38.657  29.254  28.758  1.00  0.00    -0.014 A 
BRANCH  37  38
ATOM     38  C   UNL A   1      40.081  28.931  29.032  1.00  0.00     0.031 A 
ATOM     39  C   UNL A   1      40.986  29.999  29.586  1.00  0.00     0.074 A 
ATOM     40  C   UNL A   1      40.576  27.724  28.698  1.00  0.00     0.049 A 
ATOM     41  N   UNL A   1      42.283  29.983  29.745  1.00  0.00    -0.248 NA
ATOM     42  C   UNL A   1      40.349  31.269  29.977  1.00  0.00     0.031 C 
ATOM     43  C   UNL A   1      39.807  26.619  28.121  1.00  0.00     0.029 A 
ATOM     44  N   UNL A   1      41.856  27.232  28.773  1.00  0.00    -0.354 N 
ATOM     45  C   UNL A   1      42.620  31.244  30.226  1.00  0.00     0.074 A 
ATOM     46  C   UNL A   1      41.398  32.016  30.281  1.00  0.00     0.031 C 
ATOM     47  C   UNL A   1      40.626  25.576  27.907  1.00  0.00     0.029 A 
ATOM     48  C   UNL A   1      41.985  25.951  28.284  1.00  0.00     0.049 A 
ATOM     49  H   UNL A   1      42.610  27.745  29.142  1.00  0.00     0.167 HD
ATOM     50  C   UNL A   1      43.834  31.707  30.607  1.00  0.00     0.037 A 
ATOM     51  C   UNL A   1      43.078  25.177  28.140  1.00  0.00     0.037 A 
ATOM     52  C   UNL A   1      45.037  30.919  30.580  1.00  0.00     0.049 A 
ATOM     53  C   UNL A   1      44.417  25.714  28.569  1.00  0.00     0.074 A 
ATOM     54  C   UNL A   1      46.307  31.275  30.995  1.00  0.00     0.029 A 
ATOM     55  N   UNL A   1      45.118  29.614  30.116  1.00  0.00    -0.354 N 
ATOM     56  N   UNL A   1      44.713  26.893  29.064  1.00  0.00    -0.248 NA
ATOM     57  C   UNL A   1      45.573  24.817  28.426  1.00  0.00     0.031 C 
ATOM     58  C   UNL A   1      47.166  30.201  30.740  1.00  0.00     0.029 A 
ATOM     59  C   UNL A   1      46.420  29.155  30.221  1.00  0.00     0.049 A 
ATOM     60  H   UNL A   1      44.361  29.091  29.764  1.00  0.00     0.167 HD
ATOM     61  C   UNL A   1      46.078  26.865  29.327  1.00  0.00     0.074 A 
ATOM     62  C   UNL A   1      46.550  25.552  28.938  1.00  0.00     0.031 C 
ATOM     63  C   UNL A   1      46.868  27.835  29.849  1.00  0.00     0.037 A 
BRANCH  50  64
ATOM     64  C   UNL A   1      43.917  33.131  31.088  1.00  0.00     0.058 A 
ATOM     65  C   UNL A   1      43.865  33.454  32.455  1.00  0.00     0.135 A 
ATOM     66  C   UNL A   1      44.080  34.185  30.174  1.00  0.00     0.135 A 
ATOM     67  F   UNL A   1      43.694  32.489  33.372  1.00  0.00    -0.206 F 
ATOM     68  C   UNL A   1      43.938  34.772  32.894  1.00  0.00     0.059 A 
ATOM     69  C   UNL A   1      44.187  35.507  30.594  1.00  0.00     0.059 A 
ATOM     70  F   UNL A   1      44.135  33.934  28.857  1.00  0.00    -0.206 F 
ATOM     71  C   UNL A   1      44.098  35.792  31.956  1.00  0.00     0.060 A 
BRANCH  71  72
ATOM     72  S   UNL A   1      44.195  37.495  32.545  1.00  0.00     0.124 S 
ATOM     73  O   UNL A   1      43.147  37.512  33.560  1.00  0.00    -0.237 OA
ATOM     74  O   UNL A   1      45.563  37.574  33.046  1.00  0.00    -0.237 OA
ATOM     75  O   UNL A   1      43.922  38.286  31.348  1.00  0.00    -0.744 OA
ENDBRANCH  71  72
ENDBRANCH  50  64
BRANCH  51  76
ATOM     76  C   UNL A   1      42.949  23.804  27.580  1.00  0.00     0.058 A 
ATOM     77  C   UNL A   1      43.193  23.555  26.221  1.00  0.00     0.135 A 
ATOM     78  C   UNL A   1      42.591  22.713  28.388  1.00  0.00     0.135 A 
ATOM     79  F   UNL A   1      43.531  24.566  25.405  1.00  0.00    -0.206 F 
ATOM     80  C   UNL A   1      43.070  22.280  25.678  1.00  0.00     0.059 A 
ATOM     81  C   UNL A   1      42.489  21.424  27.875  1.00  0.00     0.059 A 
ATOM     82  F   UNL A   1      42.364  22.893  29.699  1.00  0.00    -0.206 F 
ATOM     83  C   UNL A   1      42.720  21.220  26.515  1.00  0.00     0.060 A 
BRANCH  83  84
ATOM     84  S   UNL A   1      42.610  19.560  25.810  1.00  0.00     0.124 S 
ATOM     85  O   UNL A   1      43.533  19.659  24.684  1.00  0.00    -0.237 OA
ATOM     86  O   UNL A   1      43.049  18.725  26.923  1.00  0.00    -0.237 OA
ATOM     87  O   UNL A   1      41.198  19.436  25.461  1.00  0.00    -0.744 OA
ENDBRANCH  83  84
ENDBRANCH  51  76
BRANCH  63  88
ATOM     88  C   UNL A   1      48.315  27.505  30.090  1.00  0.00     0.058 A 
ATOM     89  C   UNL A   1      48.737  26.807  31.232  1.00  0.00     0.135 A 
ATOM     90  C   UNL A   1      49.281  27.830  29.124  1.00  0.00     0.135 A 
ATOM     91  F   UNL A   1      47.855  26.478  32.188  1.00  0.00    -0.206 F 
ATOM     92  C   UNL A   1      50.071  26.455  31.413  1.00  0.00     0.059 A 
ATOM     93  C   UNL A   1      50.614  27.463  29.272  1.00  0.00     0.059 A 
ATOM     94  F   UNL A   1      48.928  28.490  28.009  1.00  0.00    -0.206 F 
ATOM     95  C   UNL A   1      51.001  26.782  30.425  1.00  0.00     0.060 A 
BRANCH  95  96
ATOM     96  S   UNL A   1      52.719  26.274  30.650  1.00  0.00     0.124 S 
ATOM     97  O   UNL A   1      52.571  25.126  31.539  1.00  0.00    -0.237 OA
ATOM     98  O   UNL A   1      53.135  25.969  29.284  1.00  0.00    -0.237 OA
ATOM     99  O   UNL A   1      53.347  27.451  31.242  1.00  0.00    -0.744 OA
ENDBRANCH  95  96
ENDBRANCH  63  88
ENDBRANCH  37  38
ENDBRANCH  29  32
ENDBRANCH  27  28
ENDBRANCH   1  27
TORSDOF 16
ENDMDL
MODEL 3
REMARK VINA RESULT:     -11.4      2.608      3.745
REMARK SMILES CC(C)[NH2+][C@]1(C(=O)NCCCNC(=O)c2ccc(-c3c4nc(c(-c5c(F)cc(S(=O)(=O)[O-])cc5F)c5ccc([nH]5)c(-c5c(F)cc(S(=O)(=O)[O-])cc5F)c5nc(c(-c6c(F)cc(S(=O)(=O)[O-])cc6F)c6ccc3[nH]6)C=C5)C=C4)cc2)CC[C@H]([NH+]2CCC(C)(C)CC2)C1
REMARK SMILES IDX 10 1 9 2 8 3 6 4 7 5 5 7 81 8 92 9 82 10 83 11 4 12 2 15
REMARK SMILES IDX 1 16 3 17 84 18 85 19 91 20 86 22 90 23 87 24 88 25 89 26
REMARK SMILES IDX 11 27 12 28 13 29 14 31 15 32 16 33 80 34 17 35 79 36 18 37
REMARK SMILES IDX 19 38 20 39 73 40 21 41 78 42 72 43 74 44 22 45 77 46 71 47
REMARK SMILES IDX 70 48 23 50 57 51 36 52 56 53 37 54 40 55 55 56 75 57 38 58
REMARK SMILES IDX 39 59 54 61 76 62 41 63 24 64 25 65 34 66 26 67 27 68 33 69
REMARK SMILES IDX 35 70 28 71 29 72 30 73 31 74 32 75 58 76 59 77 68 78 60 79
REMARK SMILES IDX 61 80 67 81 69 82 62 83 63 84 64 85 65 86 66 87 42 88 43 89
REMARK SMILES IDX 52 90 44 91 45 92 51 93 53 94 46 95 47 96 48 97 49 98 50 99
REMARK H PARENT 8 6 4 13 4 14 84 21 12 30 74 49 40 60
REMARK Flexibility Score: inf
ROOT
ATOM      1  C   UNL A   1      34.170  31.151  27.359  1.00  0.00     0.042 C 
ENDROOT
BRANCH   1   2
ATOM      2  C   UNL A   1      33.322  30.170  26.553  1.00  0.00     0.118 C 
BRANCH   2   3
ATOM      3  N   UNL A   1      32.508  29.349  27.426  1.00  0.00    -0.351 N 
ATOM      4  C   UNL A   1      31.904  28.145  27.264  1.00  0.00     0.281 C 
ATOM      5  O   UNL A   1      31.079  27.870  28.147  1.00  0.00    -0.268 OA
ATOM      6  H   UNL A   1      32.366  29.744  28.316  1.00  0.00     0.163 HD
BRANCH   4   7
ATOM      7  C   UNL A   1      32.223  27.138  26.081  1.00  0.00     0.181 C 
ATOM      8  C   UNL A   1      33.728  26.953  25.862  1.00  0.00     0.085 C 
ATOM      9  C   UNL A   1      31.703  25.728  26.480  1.00  0.00     0.144 C 
ATOM     10  C   UNL A   1      33.995  25.463  25.636  1.00  0.00     0.072 C 
ATOM     11  C   UNL A   1      32.763  24.656  26.088  1.00  0.00     0.191 C 
BRANCH   7  12
ATOM     12  N   UNL A   1      31.564  27.765  24.900  1.00  0.00    -0.331 N 
ATOM     13  H   UNL A   1      30.609  27.407  24.894  1.00  0.00     0.347 HD
ATOM     14  H   UNL A   1      31.747  28.752  25.074  1.00  0.00     0.347 HD
BRANCH  12  15
ATOM     15  C   UNL A   1      32.045  27.626  23.548  1.00  0.00     0.176 C 
ATOM     16  C   UNL A   1      30.927  27.190  22.598  1.00  0.00     0.075 C 
ATOM     17  C   UNL A   1      32.716  28.869  22.969  1.00  0.00     0.075 C 
ENDBRANCH  12  15
ENDBRANCH   7  12
BRANCH  11  18
ATOM     18  N   UNL A   1      32.334  23.473  25.266  1.00  0.00    -0.332 N 
ATOM     19  C   UNL A   1      32.103  22.240  26.049  1.00  0.00     0.263 C 
ATOM     20  C   UNL A   1      33.207  23.221  24.129  1.00  0.00     0.263 C 
ATOM     21  H   UNL A   1      31.422  23.748  24.899  1.00  0.00     0.348 HD
ATOM     22  C   UNL A   1      31.830  20.969  25.201  1.00  0.00     0.068 C 
ATOM     23  C   UNL A   1      32.869  22.033  23.250  1.00  0.00     0.068 C 
ATOM     24  C   UNL A   1      32.863  20.745  24.073  1.00  0.00    -0.025 C 
ATOM     25  C   UNL A   1      32.462  19.588  23.146  1.00  0.00     0.011 C 
ATOM     26  C   UNL A   1      34.267  20.421  24.636  1.00  0.00     0.011 C 
ENDBRANCH  11  18
ENDBRANCH   4   7
ENDBRANCH   2   3
ENDBRANCH   1   2
BRANCH   1  27
ATOM     27  C   UNL A   1      35.276  30.486  28.171  1.00  0.00     0.118 C 
BRANCH  27  28
ATOM     28  N   UNL A   1      35.335  30.982  29.539  1.00  0.00    -0.352 N 
ATOM     29  C   UNL A   1      36.330  30.827  30.473  1.00  0.00     0.251 C 
ATOM     30  H   UNL A   1      34.554  31.502  29.836  1.00  0.00     0.163 HD
ATOM     31  O   UNL A   1      36.123  31.124  31.647  1.00  0.00    -0.269 OA
BRANCH  29  32
ATOM     32  C   UNL A   1      37.640  30.282  30.059  1.00  0.00     0.039 A 
ATOM     33  C   UNL A   1      38.034  30.381  28.723  1.00  0.00     0.014 A 
ATOM     34  C   UNL A   1      38.483  29.688  31.001  1.00  0.00     0.014 A 
ATOM     35  C   UNL A   1      39.305  29.944  28.345  1.00  0.00     0.010 A 
ATOM     36  C   UNL A   1      39.779  29.339  30.642  1.00  0.00     0.010 A 
ATOM     37  C   UNL A   1      40.202  29.455  29.308  1.00  0.00    -0.014 A 
BRANCH  37  38
ATOM     38  C   UNL A   1      41.580  29.024  28.958  1.00  0.00     0.031 A 
ATOM     39  C   UNL A   1      42.684  30.047  28.916  1.00  0.00     0.074 A 
ATOM     40  C   UNL A   1      41.818  27.750  28.590  1.00  0.00     0.049 A 
ATOM     41  N   UNL A   1      43.911  29.923  28.483  1.00  0.00    -0.248 NA
ATOM     42  C   UNL A   1      42.350  31.401  29.389  1.00  0.00     0.031 C 
ATOM     43  C   UNL A   1      40.823  26.676  28.556  1.00  0.00     0.029 A 
ATOM     44  N   UNL A   1      42.970  27.148  28.148  1.00  0.00    -0.354 N 
ATOM     45  C   UNL A   1      44.484  31.184  28.605  1.00  0.00     0.074 A 
ATOM     46  C   UNL A   1      43.455  32.070  29.102  1.00  0.00     0.031 C 
ATOM     47  C   UNL A   1      41.409  25.545  28.131  1.00  0.00     0.029 A 
ATOM     48  C   UNL A   1      42.808  25.822  27.815  1.00  0.00     0.049 A 
ATOM     49  H   UNL A   1      43.831  27.618  28.078  1.00  0.00     0.167 HD
ATOM     50  C   UNL A   1      45.759  31.563  28.347  1.00  0.00     0.037 A 
ATOM     51  C   UNL A   1      43.682  24.937  27.297  1.00  0.00     0.037 A 
ATOM     52  C   UNL A   1      46.784  30.664  27.886  1.00  0.00     0.049 A 
ATOM     53  C   UNL A   1      45.093  25.382  27.017  1.00  0.00     0.074 A 
ATOM     54  C   UNL A   1      48.119  30.934  27.646  1.00  0.00     0.029 A 
ATOM     55  N   UNL A   1      46.588  29.322  27.598  1.00  0.00    -0.354 N 
ATOM     56  N   UNL A   1      45.632  26.567  27.180  1.00  0.00    -0.248 NA
ATOM     57  C   UNL A   1      46.018  24.370  26.487  1.00  0.00     0.031 C 
ATOM     58  C   UNL A   1      48.721  29.766  27.170  1.00  0.00     0.029 A 
ATOM     59  C   UNL A   1      47.775  28.752  27.170  1.00  0.00     0.049 A 
ATOM     60  H   UNL A   1      45.731  28.843  27.686  1.00  0.00     0.167 HD
ATOM     61  C   UNL A   1      46.966  26.434  26.811  1.00  0.00     0.074 A 
ATOM     62  C   UNL A   1      47.152  25.052  26.417  1.00  0.00     0.031 C 
ATOM     63  C   UNL A   1      47.948  27.368  26.803  1.00  0.00     0.037 A 
BRANCH  50  64
ATOM     64  C   UNL A   1      46.113  33.009  28.562  1.00  0.00     0.058 A 
ATOM     65  C   UNL A   1      46.611  33.475  29.791  1.00  0.00     0.135 A 
ATOM     66  C   UNL A   1      45.982  33.939  27.517  1.00  0.00     0.135 A 
ATOM     67  F   UNL A   1      46.741  32.634  30.829  1.00  0.00    -0.206 F 
ATOM     68  C   UNL A   1      46.932  34.813  29.986  1.00  0.00     0.059 A 
ATOM     69  C   UNL A   1      46.328  35.277  27.681  1.00  0.00     0.059 A 
ATOM     70  F   UNL A   1      45.512  33.551  26.322  1.00  0.00    -0.206 F 
ATOM     71  C   UNL A   1      46.787  35.708  28.925  1.00  0.00     0.060 A 
BRANCH  71  72
ATOM     72  S   UNL A   1      47.214  37.440  29.195  1.00  0.00     0.124 S 
ATOM     73  O   UNL A   1      46.165  38.119  28.439  1.00  0.00    -0.237 OA
ATOM     74  O   UNL A   1      47.126  37.560  30.646  1.00  0.00    -0.237 OA
ATOM     75  O   UNL A   1      48.559  37.552  28.640  1.00  0.00    -0.744 OA
ENDBRANCH  71  72
ENDBRANCH  50  64
BRANCH  51  76
ATOM     76  C   UNL A   1      43.253  23.538  27.027  1.00  0.00     0.058 A 
ATOM     77  C   UNL A   1      42.992  23.106  25.717  1.00  0.00     0.135 A 
ATOM     78  C   UNL A   1      43.106  22.603  28.063  1.00  0.00     0.135 A 
ATOM     79  F   UNL A   1      43.111  23.964  24.692  1.00  0.00    -0.206 F 
ATOM     80  C   UNL A   1      42.583  21.805  25.446  1.00  0.00     0.059 A 
ATOM     81  C   UNL A   1      42.726  21.288  27.815  1.00  0.00     0.059 A 
ATOM     82  F   UNL A   1      43.361  22.959  29.332  1.00  0.00    -0.206 F 
ATOM     83  C   UNL A   1      42.455  20.901  26.502  1.00  0.00     0.060 A 
BRANCH  83  84
ATOM     84  S   UNL A   1      41.971  19.200  26.133  1.00  0.00     0.124 S 
ATOM     85  O   UNL A   1      42.763  18.922  24.940  1.00  0.00    -0.237 OA
ATOM     86  O   UNL A   1      42.374  18.497  27.347  1.00  0.00    -0.237 OA
ATOM     87  O   UNL A   1      40.529  19.300  25.926  1.00  0.00    -0.744 OA
ENDBRANCH  83  84
ENDBRANCH  51  76
BRANCH  63  88
ATOM     88  C   UNL A   1      49.332  26.925  26.415  1.00  0.00     0.058 A 
ATOM     89  C   UNL A   1      50.211  26.341  27.340  1.00  0.00     0.135 A 
ATOM     90  C   UNL A   1      49.752  27.021  25.078  1.00  0.00     0.135 A 
ATOM     91  F   UNL A   1      49.861  26.231  28.630  1.00  0.00    -0.206 F 
ATOM     92  C   UNL A   1      51.466  25.880  26.954  1.00  0.00     0.059 A 
ATOM     93  C   UNL A   1      50.991  26.542  24.666  1.00  0.00     0.059 A 
ATOM     94  F   UNL A   1      48.945  27.564  24.152  1.00  0.00    -0.206 F 
ATOM     95  C   UNL A   1      51.844  25.980  25.614  1.00  0.00     0.060 A 
BRANCH  95  96
ATOM     96  S   UNL A   1      53.455  25.332  25.118  1.00  0.00     0.124 S 
ATOM     97  O   UNL A   1      53.291  23.905  25.380  1.00  0.00    -0.237 OA
ATOM     98  O   UNL A   1      53.525  25.713  23.710  1.00  0.00    -0.237 OA
ATOM     99  O   UNL A   1      54.388  26.029  25.997  1.00  0.00    -0.744 OA
ENDBRANCH  95  96
ENDBRANCH  63  88
ENDBRANCH  37  38
ENDBRANCH  29  32
ENDBRANCH  27  28
ENDBRANCH   1  27
TORSDOF 16
ENDMDL
