MODEL 1
REMARK VINA RESULT:     -11.6      0.000      0.000
REMARK SMILES Cn1ncc(C(=O)NCCCNC(=O)c2ccc(-c3c4nc(c(-c5c(F)cc(S(=O)(=O)[O-])cc5F)c5ccc([nH]5)c(-c5c(F)cc(S(=O)(=O)[O-])cc5F)c5nc(c(-c6c(F)cc(S(=O)(=O)[O-])cc6F)c6ccc3[nH]6)C=C5)C=C4)cc2)c1C(=O)Nc1ccccn1
REMARK SMILES IDX 10 1 9 2 8 3 6 4 7 5 5 7 1 8 2 9 3 10 81 11 4 12 82 13 83 14
REMARK SMILES IDX 84 15 85 17 86 18 90 19 87 20 89 21 88 22 11 23 12 24 13 25
REMARK SMILES IDX 14 27 15 28 16 29 80 30 17 31 79 32 18 33 19 34 20 35 73 36
REMARK SMILES IDX 21 37 78 38 72 39 74 40 22 41 77 42 71 43 70 44 23 46 57 47
REMARK SMILES IDX 36 48 56 49 37 50 40 51 55 52 75 53 38 54 39 55 54 57 76 58
REMARK SMILES IDX 41 59 24 60 25 61 34 62 26 63 27 64 33 65 35 66 28 67 29 68
REMARK SMILES IDX 30 69 31 70 32 71 58 72 59 73 68 74 60 75 61 76 67 77 69 78
REMARK SMILES IDX 62 79 63 80 64 81 65 82 66 83 42 84 43 85 52 86 44 87 45 88
REMARK SMILES IDX 51 89 53 90 46 91 47 92 48 93 49 94 50 95
REMARK H PARENT 8 6 84 16 12 26 74 45 40 56
REMARK Flexibility Score: inf
ROOT
ATOM      1  C   UNL A   1      32.084  27.954  27.376  1.00  0.00     0.042 C 
ENDROOT
BRANCH   1   2
ATOM      2  C   UNL A   1      31.775  26.921  26.309  1.00  0.00     0.118 C 
BRANCH   2   3
ATOM      3  N   UNL A   1      31.322  25.655  26.832  1.00  0.00    -0.352 N 
ATOM      4  C   UNL A   1      31.761  24.370  26.679  1.00  0.00     0.255 C 
ATOM      5  O   UNL A   1      31.068  23.516  27.243  1.00  0.00    -0.269 OA
ATOM      6  H   UNL A   1      30.537  25.734  27.421  1.00  0.00     0.163 HD
BRANCH   4   7
ATOM      7  C   UNL A   1      32.922  23.946  25.898  1.00  0.00     0.090 A 
ATOM      8  C   UNL A   1      35.195  23.279  23.174  1.00  0.00     0.174 C 
ATOM      9  N   UNL A   1      34.478  23.437  24.419  1.00  0.00    -0.262 N 
ATOM     10  N   UNL A   1      35.183  23.882  25.472  1.00  0.00    -0.180 NA
ATOM     11  C   UNL A   1      33.124  23.328  24.656  1.00  0.00     0.139 A 
ATOM     12  C   UNL A   1      34.241  24.245  26.337  1.00  0.00     0.149 A 
BRANCH  11  13
ATOM     13  C   UNL A   1      32.161  22.890  23.680  1.00  0.00     0.275 C 
ATOM     14  O   UNL A   1      31.808  21.713  23.604  1.00  0.00    -0.267 OA
ATOM     15  N   UNL A   1      31.735  23.752  22.684  1.00  0.00    -0.305 N 
ATOM     16  H   UNL A   1      31.848  23.468  21.748  1.00  0.00     0.171 HD
BRANCH  15  17
ATOM     17  C   UNL A   1      31.156  24.996  22.922  1.00  0.00     0.132 A 
ATOM     18  C   UNL A   1      29.942  25.158  23.569  1.00  0.00     0.047 A 
ATOM     19  N   UNL A   1      31.893  26.023  22.456  1.00  0.00    -0.239 NA
ATOM     20  C   UNL A   1      29.435  26.455  23.679  1.00  0.00     0.005 A 
ATOM     21  C   UNL A   1      31.375  27.261  22.565  1.00  0.00     0.113 A 
ATOM     22  C   UNL A   1      30.152  27.525  23.149  1.00  0.00     0.020 A 
ENDBRANCH  15  17
ENDBRANCH  11  13
ENDBRANCH   4   7
ENDBRANCH   2   3
ENDBRANCH   1   2
BRANCH   1  23
ATOM     23  C   UNL A   1      33.461  28.582  27.269  1.00  0.00     0.118 C 
BRANCH  23  24
ATOM     24  N   UNL A   1      33.487  29.982  27.679  1.00  0.00    -0.352 N 
ATOM     25  C   UNL A   1      34.479  30.722  28.279  1.00  0.00     0.251 C 
ATOM     26  H   UNL A   1      32.657  30.479  27.496  1.00  0.00     0.163 HD
ATOM     27  O   UNL A   1      34.228  31.850  28.699  1.00  0.00    -0.269 OA
BRANCH  25  28
ATOM     28  C   UNL A   1      35.834  30.155  28.453  1.00  0.00     0.039 A 
ATOM     29  C   UNL A   1      36.712  30.123  27.365  1.00  0.00     0.014 A 
ATOM     30  C   UNL A   1      36.247  29.664  29.691  1.00  0.00     0.014 A 
ATOM     31  C   UNL A   1      38.032  29.697  27.550  1.00  0.00     0.010 A 
ATOM     32  C   UNL A   1      37.583  29.356  29.901  1.00  0.00     0.010 A 
ATOM     33  C   UNL A   1      38.493  29.364  28.833  1.00  0.00    -0.014 A 
BRANCH  33  34
ATOM     34  C   UNL A   1      39.909  29.004  29.103  1.00  0.00     0.031 A 
ATOM     35  C   UNL A   1      40.854  30.052  29.629  1.00  0.00     0.074 A 
ATOM     36  C   UNL A   1      40.369  27.781  28.768  1.00  0.00     0.049 A 
ATOM     37  N   UNL A   1      42.154  30.005  29.760  1.00  0.00    -0.248 NA
ATOM     38  C   UNL A   1      40.259  31.343  30.018  1.00  0.00     0.031 C 
ATOM     39  C   UNL A   1      39.564  26.695  28.202  1.00  0.00     0.029 A 
ATOM     40  N   UNL A   1      41.635  27.252  28.833  1.00  0.00    -0.354 N 
ATOM     41  C   UNL A   1      42.533  31.265  30.210  1.00  0.00     0.074 A 
ATOM     42  C   UNL A   1      41.335  32.070  30.277  1.00  0.00     0.031 C 
ATOM     43  C   UNL A   1      40.350  25.627  27.990  1.00  0.00     0.029 A 
ATOM     44  C   UNL A   1      41.722  25.964  28.356  1.00  0.00     0.049 A 
ATOM     45  H   UNL A   1      42.407  27.747  29.188  1.00  0.00     0.167 HD
ATOM     46  C   UNL A   1      43.765  31.702  30.561  1.00  0.00     0.037 A 
ATOM     47  C   UNL A   1      42.789  25.154  28.212  1.00  0.00     0.037 A 
ATOM     48  C   UNL A   1      44.943  30.877  30.536  1.00  0.00     0.049 A 
ATOM     49  C   UNL A   1      44.147  25.655  28.623  1.00  0.00     0.074 A 
ATOM     50  C   UNL A   1      46.227  31.199  30.937  1.00  0.00     0.029 A 
ATOM     51  N   UNL A   1      44.979  29.563  30.093  1.00  0.00    -0.354 N 
ATOM     52  N   UNL A   1      44.480  26.832  29.098  1.00  0.00    -0.248 NA
ATOM     53  C   UNL A   1      45.274  24.723  28.483  1.00  0.00     0.031 C 
ATOM     54  C   UNL A   1      47.048  30.093  30.699  1.00  0.00     0.029 A 
ATOM     55  C   UNL A   1      46.266  29.065  30.196  1.00  0.00     0.049 A 
ATOM     56  H   UNL A   1      44.204  29.059  29.755  1.00  0.00     0.167 HD
ATOM     57  C   UNL A   1      45.848  26.770  29.344  1.00  0.00     0.074 A 
ATOM     58  C   UNL A   1      46.278  25.439  28.969  1.00  0.00     0.031 C 
ATOM     59  C   UNL A   1      46.670  27.728  29.837  1.00  0.00     0.037 A 
BRANCH  46  60
ATOM     60  C   UNL A   1      43.898  33.131  31.010  1.00  0.00     0.058 A 
ATOM     61  C   UNL A   1      44.104  34.177  30.095  1.00  0.00     0.135 A 
ATOM     62  C   UNL A   1      43.793  33.466  32.370  1.00  0.00     0.135 A 
ATOM     63  F   UNL A   1      44.229  33.913  28.784  1.00  0.00    -0.206 F 
ATOM     64  C   UNL A   1      44.233  35.496  30.513  1.00  0.00     0.059 A 
ATOM     65  C   UNL A   1      43.887  34.784  32.808  1.00  0.00     0.059 A 
ATOM     66  F   UNL A   1      43.597  32.507  33.289  1.00  0.00    -0.206 F 
ATOM     67  C   UNL A   1      44.124  35.790  31.873  1.00  0.00     0.060 A 
BRANCH  67  68
ATOM     68  S   UNL A   1      44.288  37.509  32.399  1.00  0.00     0.124 S 
ATOM     69  O   UNL A   1      43.906  38.222  31.183  1.00  0.00    -0.237 OA
ATOM     70  O   UNL A   1      43.339  37.589  33.504  1.00  0.00    -0.237 OA
ATOM     71  O   UNL A   1      45.694  37.617  32.774  1.00  0.00    -0.744 OA
ENDBRANCH  67  68
ENDBRANCH  46  60
BRANCH  47  72
ATOM     72  C   UNL A   1      42.612  23.779  27.671  1.00  0.00     0.058 A 
ATOM     73  C   UNL A   1      42.468  22.681  28.533  1.00  0.00     0.135 A 
ATOM     74  C   UNL A   1      42.565  23.534  26.290  1.00  0.00     0.135 A 
ATOM     75  F   UNL A   1      42.513  22.862  29.862  1.00  0.00    -0.206 F 
ATOM     76  C   UNL A   1      42.300  21.388  28.046  1.00  0.00     0.059 A 
ATOM     77  C   UNL A   1      42.371  22.254  25.779  1.00  0.00     0.059 A 
ATOM     78  F   UNL A   1      42.678  24.552  25.422  1.00  0.00    -0.206 F 
ATOM     79  C   UNL A   1      42.249  21.185  26.667  1.00  0.00     0.060 A 
BRANCH  79  80
ATOM     80  S   UNL A   1      41.977  19.510  26.045  1.00  0.00     0.124 S 
ATOM     81  O   UNL A   1      40.564  19.556  25.688  1.00  0.00    -0.237 OA
ATOM     82  O   UNL A   1      42.917  19.441  24.930  1.00  0.00    -0.237 OA
ATOM     83  O   UNL A   1      42.313  18.670  27.191  1.00  0.00    -0.744 OA
ENDBRANCH  79  80
ENDBRANCH  47  72
BRANCH  59  84
ATOM     84  C   UNL A   1      48.113  27.365  30.048  1.00  0.00     0.058 A 
ATOM     85  C   UNL A   1      49.095  27.652  29.088  1.00  0.00     0.135 A 
ATOM     86  C   UNL A   1      48.527  26.800  31.265  1.00  0.00     0.135 A 
ATOM     87  F   UNL A   1      48.749  28.185  27.905  1.00  0.00    -0.206 F 
ATOM     88  C   UNL A   1      50.438  27.381  29.324  1.00  0.00     0.059 A 
ATOM     89  C   UNL A   1      49.868  26.545  31.533  1.00  0.00     0.059 A 
ATOM     90  F   UNL A   1      47.627  26.516  32.220  1.00  0.00    -0.206 F 
ATOM     91  C   UNL A   1      50.816  26.834  30.552  1.00  0.00     0.060 A 
BRANCH  91  92
ATOM     92  S   UNL A   1      52.569  26.544  30.868  1.00  0.00     0.124 S 
ATOM     93  O   UNL A   1      52.520  25.402  31.775  1.00  0.00    -0.237 OA
ATOM     94  O   UNL A   1      53.087  26.268  29.531  1.00  0.00    -0.237 OA
ATOM     95  O   UNL A   1      53.020  27.798  31.461  1.00  0.00    -0.744 OA
ENDBRANCH  91  92
ENDBRANCH  59  84
ENDBRANCH  33  34
ENDBRANCH  25  28
ENDBRANCH  23  24
ENDBRANCH   1  23
TORSDOF 15
ENDMDL
MODEL 2
REMARK VINA RESULT:     -11.5      0.906      2.496
REMARK SMILES Cn1ncc(C(=O)NCCCNC(=O)c2ccc(-c3c4nc(c(-c5c(F)cc(S(=O)(=O)[O-])cc5F)c5ccc([nH]5)c(-c5c(F)cc(S(=O)(=O)[O-])cc5F)c5nc(c(-c6c(F)cc(S(=O)(=O)[O-])cc6F)c6ccc3[nH]6)C=C5)C=C4)cc2)c1C(=O)Nc1ccccn1
REMARK SMILES IDX 10 1 9 2 8 3 6 4 7 5 5 7 1 8 2 9 3 10 81 11 4 12 82 13 83 14
REMARK SMILES IDX 84 15 85 17 86 18 90 19 87 20 89 21 88 22 11 23 12 24 13 25
REMARK SMILES IDX 14 27 15 28 16 29 80 30 17 31 79 32 18 33 19 34 20 35 73 36
REMARK SMILES IDX 21 37 78 38 72 39 74 40 22 41 77 42 71 43 70 44 23 46 57 47
REMARK SMILES IDX 36 48 56 49 37 50 40 51 55 52 75 53 38 54 39 55 54 57 76 58
REMARK SMILES IDX 41 59 24 60 25 61 34 62 26 63 27 64 33 65 35 66 28 67 29 68
REMARK SMILES IDX 30 69 31 70 32 71 58 72 59 73 68 74 60 75 61 76 67 77 69 78
REMARK SMILES IDX 62 79 63 80 64 81 65 82 66 83 42 84 43 85 52 86 44 87 45 88
REMARK SMILES IDX 51 89 53 90 46 91 47 92 48 93 49 94 50 95
REMARK H PARENT 8 6 84 16 12 26 74 45 40 56
REMARK Flexibility Score: inf
ROOT
ATOM      1  C   UNL A   1      33.138  28.060  25.900  1.00  0.00     0.042 C 
ENDROOT
BRANCH   1   2
ATOM      2  C   UNL A   1      31.822  27.342  25.674  1.00  0.00     0.118 C 
BRANCH   2   3
ATOM      3  N   UNL A   1      31.615  26.208  26.541  1.00  0.00    -0.352 N 
ATOM      4  C   UNL A   1      31.629  24.858  26.334  1.00  0.00     0.255 C 
ATOM      5  O   UNL A   1      31.339  24.179  27.325  1.00  0.00    -0.269 OA
ATOM      6  H   UNL A   1      31.427  26.459  27.474  1.00  0.00     0.163 HD
BRANCH   4   7
ATOM      7  C   UNL A   1      31.914  24.185  25.067  1.00  0.00     0.090 A 
ATOM      8  C   UNL A   1      32.127  21.723  22.435  1.00  0.00     0.174 C 
ATOM      9  N   UNL A   1      32.171  22.870  23.314  1.00  0.00    -0.262 N 
ATOM     10  N   UNL A   1      31.883  24.063  22.769  1.00  0.00    -0.180 NA
ATOM     11  C   UNL A   1      32.332  22.904  24.683  1.00  0.00     0.139 A 
ATOM     12  C   UNL A   1      31.669  24.837  23.828  1.00  0.00     0.149 A 
BRANCH  11  13
ATOM     13  C   UNL A   1      32.628  21.752  25.495  1.00  0.00     0.275 C 
ATOM     14  O   UNL A   1      31.896  20.761  25.500  1.00  0.00    -0.267 OA
ATOM     15  N   UNL A   1      33.652  21.797  26.424  1.00  0.00    -0.305 N 
ATOM     16  H   UNL A   1      33.434  21.595  27.362  1.00  0.00     0.171 HD
BRANCH  15  17
ATOM     17  C   UNL A   1      34.974  22.110  26.116  1.00  0.00     0.132 A 
ATOM     18  C   UNL A   1      35.529  23.361  26.332  1.00  0.00     0.047 A 
ATOM     19  N   UNL A   1      35.653  21.076  25.583  1.00  0.00    -0.239 NA
ATOM     20  C   UNL A   1      36.845  23.567  25.910  1.00  0.00     0.005 A 
ATOM     21  C   UNL A   1      36.916  21.306  25.174  1.00  0.00     0.113 A 
ATOM     22  C   UNL A   1      37.545  22.528  25.301  1.00  0.00     0.020 A 
ENDBRANCH  15  17
ENDBRANCH  11  13
ENDBRANCH   4   7
ENDBRANCH   2   3
ENDBRANCH   1   2
BRANCH   1  23
ATOM     23  C   UNL A   1      33.455  28.358  27.354  1.00  0.00     0.118 C 
BRANCH  23  24
ATOM     24  N   UNL A   1      33.495  29.786  27.652  1.00  0.00    -0.352 N 
ATOM     25  C   UNL A   1      34.505  30.566  28.165  1.00  0.00     0.251 C 
ATOM     26  H   UNL A   1      32.661  30.271  27.453  1.00  0.00     0.163 HD
ATOM     27  O   UNL A   1      34.268  31.724  28.502  1.00  0.00    -0.269 OA
BRANCH  25  28
ATOM     28  C   UNL A   1      35.863  30.009  28.345  1.00  0.00     0.039 A 
ATOM     29  C   UNL A   1      36.767  30.037  27.278  1.00  0.00     0.014 A 
ATOM     30  C   UNL A   1      36.254  29.468  29.569  1.00  0.00     0.014 A 
ATOM     31  C   UNL A   1      38.087  29.619  27.475  1.00  0.00     0.010 A 
ATOM     32  C   UNL A   1      37.589  29.167  29.797  1.00  0.00     0.010 A 
ATOM     33  C   UNL A   1      38.523  29.234  28.752  1.00  0.00    -0.014 A 
BRANCH  33  34
ATOM     34  C   UNL A   1      39.937  28.880  29.038  1.00  0.00     0.031 A 
ATOM     35  C   UNL A   1      40.871  29.931  29.579  1.00  0.00     0.074 A 
ATOM     36  C   UNL A   1      40.406  27.660  28.707  1.00  0.00     0.049 A 
ATOM     37  N   UNL A   1      42.169  29.890  29.726  1.00  0.00    -0.248 NA
ATOM     38  C   UNL A   1      40.265  31.218  29.963  1.00  0.00     0.031 C 
ATOM     39  C   UNL A   1      39.614  26.572  28.129  1.00  0.00     0.029 A 
ATOM     40  N   UNL A   1      41.674  27.136  28.786  1.00  0.00    -0.354 N 
ATOM     41  C   UNL A   1      42.537  31.150  30.184  1.00  0.00     0.074 A 
ATOM     42  C   UNL A   1      41.334  31.950  30.237  1.00  0.00     0.031 C 
ATOM     43  C   UNL A   1      40.407  25.507  27.924  1.00  0.00     0.029 A 
ATOM     44  C   UNL A   1      41.773  25.850  28.307  1.00  0.00     0.049 A 
ATOM     45  H   UNL A   1      42.440  27.634  29.152  1.00  0.00     0.167 HD
ATOM     46  C   UNL A   1      43.763  31.592  30.551  1.00  0.00     0.037 A 
ATOM     47  C   UNL A   1      42.845  25.045  28.175  1.00  0.00     0.037 A 
ATOM     48  C   UNL A   1      44.945  30.772  30.539  1.00  0.00     0.049 A 
ATOM     49  C   UNL A   1      44.196  25.551  28.605  1.00  0.00     0.074 A 
ATOM     50  C   UNL A   1      46.222  31.099  30.956  1.00  0.00     0.029 A 
ATOM     51  N   UNL A   1      44.992  29.459  30.093  1.00  0.00    -0.354 N 
ATOM     52  N   UNL A   1      44.517  26.729  29.086  1.00  0.00    -0.248 NA
ATOM     53  C   UNL A   1      45.328  24.624  28.477  1.00  0.00     0.031 C 
ATOM     54  C   UNL A   1      47.051  29.997  30.726  1.00  0.00     0.029 A 
ATOM     55  C   UNL A   1      46.280  28.967  30.212  1.00  0.00     0.049 A 
ATOM     56  H   UNL A   1      44.223  28.953  29.745  1.00  0.00     0.167 HD
ATOM     57  C   UNL A   1      45.882  26.672  29.349  1.00  0.00     0.074 A 
ATOM     58  C   UNL A   1      46.324  25.344  28.976  1.00  0.00     0.031 C 
ATOM     59  C   UNL A   1      46.694  27.633  29.854  1.00  0.00     0.037 A 
BRANCH  46  60
ATOM     60  C   UNL A   1      43.884  33.021  31.004  1.00  0.00     0.058 A 
ATOM     61  C   UNL A   1      43.716  33.384  32.351  1.00  0.00     0.135 A 
ATOM     62  C   UNL A   1      44.198  34.038  30.088  1.00  0.00     0.135 A 
ATOM     63  F   UNL A   1      43.399  32.456  33.267  1.00  0.00    -0.206 F 
ATOM     64  C   UNL A   1      43.822  34.706  32.767  1.00  0.00     0.059 A 
ATOM     65  C   UNL A   1      44.339  35.364  30.488  1.00  0.00     0.059 A 
ATOM     66  F   UNL A   1      44.368  33.748  28.789  1.00  0.00    -0.206 F 
ATOM     67  C   UNL A   1      44.133  35.690  31.827  1.00  0.00     0.060 A 
BRANCH  67  68
ATOM     68  S   UNL A   1      44.273  37.401  32.385  1.00  0.00     0.124 S 
ATOM     69  O   UNL A   1      43.277  37.440  33.453  1.00  0.00    -0.237 OA
ATOM     70  O   UNL A   1      45.665  37.476  32.815  1.00  0.00    -0.237 OA
ATOM     71  O   UNL A   1      43.945  38.176  31.193  1.00  0.00    -0.744 OA
ENDBRANCH  67  68
ENDBRANCH  46  60
BRANCH  47  72
ATOM     72  C   UNL A   1      42.681  23.670  27.629  1.00  0.00     0.058 A 
ATOM     73  C   UNL A   1      42.469  22.578  28.484  1.00  0.00     0.135 A 
ATOM     74  C   UNL A   1      42.714  23.420  26.249  1.00  0.00     0.135 A 
ATOM     75  F   UNL A   1      42.436  22.764  29.813  1.00  0.00    -0.206 F 
ATOM     76  C   UNL A   1      42.312  21.286  27.993  1.00  0.00     0.059 A 
ATOM     77  C   UNL A   1      42.533  22.141  25.732  1.00  0.00     0.059 A 
ATOM     78  F   UNL A   1      42.895  24.432  25.386  1.00  0.00    -0.206 F 
ATOM     79  C   UNL A   1      42.342  21.078  26.614  1.00  0.00     0.060 A 
BRANCH  79  80
ATOM     80  S   UNL A   1      42.084  19.404  25.983  1.00  0.00     0.124 S 
ATOM     81  O   UNL A   1      42.899  19.418  24.774  1.00  0.00    -0.237 OA
ATOM     82  O   UNL A   1      42.583  18.582  27.081  1.00  0.00    -0.237 OA
ATOM     83  O   UNL A   1      40.641  19.345  25.772  1.00  0.00    -0.744 OA
ENDBRANCH  79  80
ENDBRANCH  47  72
BRANCH  59  84
ATOM     84  C   UNL A   1      48.136  27.276  30.083  1.00  0.00     0.058 A 
ATOM     85  C   UNL A   1      49.135  27.606  29.154  1.00  0.00     0.135 A 
ATOM     86  C   UNL A   1      48.530  26.672  31.288  1.00  0.00     0.135 A 
ATOM     87  F   UNL A   1      48.808  28.177  27.985  1.00  0.00    -0.206 F 
ATOM     88  C   UNL A   1      50.476  27.339  29.409  1.00  0.00     0.059 A 
ATOM     89  C   UNL A   1      49.868  26.420  31.574  1.00  0.00     0.059 A 
ATOM     90  F   UNL A   1      47.614  26.345  32.212  1.00  0.00    -0.206 F 
ATOM     91  C   UNL A   1      50.833  26.751  30.624  1.00  0.00     0.060 A 
BRANCH  91  92
ATOM     92  S   UNL A   1      52.582  26.467  30.967  1.00  0.00     0.124 S 
ATOM     93  O   UNL A   1      52.957  27.707  31.638  1.00  0.00    -0.237 OA
ATOM     94  O   UNL A   1      52.546  25.276  31.811  1.00  0.00    -0.237 OA
ATOM     95  O   UNL A   1      53.161  26.270  29.642  1.00  0.00    -0.744 OA
ENDBRANCH  91  92
ENDBRANCH  59  84
ENDBRANCH  33  34
ENDBRANCH  25  28
ENDBRANCH  23  24
ENDBRANCH   1  23
TORSDOF 15
ENDMDL
MODEL 3
REMARK VINA RESULT:     -11.3      5.146     10.636
REMARK SMILES Cn1ncc(C(=O)NCCCNC(=O)c2ccc(-c3c4nc(c(-c5c(F)cc(S(=O)(=O)[O-])cc5F)c5ccc([nH]5)c(-c5c(F)cc(S(=O)(=O)[O-])cc5F)c5nc(c(-c6c(F)cc(S(=O)(=O)[O-])cc6F)c6ccc3[nH]6)C=C5)C=C4)cc2)c1C(=O)Nc1ccccn1
REMARK SMILES IDX 10 1 9 2 8 3 6 4 7 5 5 7 1 8 2 9 3 10 81 11 4 12 82 13 83 14
REMARK SMILES IDX 84 15 85 17 86 18 90 19 87 20 89 21 88 22 11 23 12 24 13 25
REMARK SMILES IDX 14 27 15 28 16 29 80 30 17 31 79 32 18 33 19 34 20 35 73 36
REMARK SMILES IDX 21 37 78 38 72 39 74 40 22 41 77 42 71 43 70 44 23 46 57 47
REMARK SMILES IDX 36 48 56 49 37 50 40 51 55 52 75 53 38 54 39 55 54 57 76 58
REMARK SMILES IDX 41 59 24 60 25 61 34 62 26 63 27 64 33 65 35 66 28 67 29 68
REMARK SMILES IDX 30 69 31 70 32 71 58 72 59 73 68 74 60 75 61 76 67 77 69 78
REMARK SMILES IDX 62 79 63 80 64 81 65 82 66 83 42 84 43 85 52 86 44 87 45 88
REMARK SMILES IDX 51 89 53 90 46 91 47 92 48 93 49 94 50 95
REMARK H PARENT 8 6 84 16 12 26 74 45 40 56
REMARK Flexibility Score: inf
ROOT
ATOM      1  C   UNL A   1      37.730  23.362  26.576  1.00  0.00     0.042 C 
ENDROOT
BRANCH   1   2
ATOM      2  C   UNL A   1      37.615  22.122  25.711  1.00  0.00     0.118 C 
BRANCH   2   3
ATOM      3  N   UNL A   1      37.412  22.401  24.310  1.00  0.00    -0.352 N 
ATOM      4  C   UNL A   1      36.315  22.757  23.577  1.00  0.00     0.255 C 
ATOM      5  O   UNL A   1      36.514  22.851  22.361  1.00  0.00    -0.269 OA
ATOM      6  H   UNL A   1      38.233  22.320  23.773  1.00  0.00     0.163 HD
BRANCH   4   7
ATOM      7  C   UNL A   1      34.970  22.988  24.100  1.00  0.00     0.090 A 
ATOM      8  C   UNL A   1      32.141  23.358  26.311  1.00  0.00     0.174 C 
ATOM      9  N   UNL A   1      33.096  23.269  25.230  1.00  0.00    -0.262 N 
ATOM     10  N   UNL A   1      33.040  24.228  24.291  1.00  0.00    -0.180 NA
ATOM     11  C   UNL A   1      34.165  22.410  25.090  1.00  0.00     0.139 A 
ATOM     12  C   UNL A   1      34.198  24.095  23.652  1.00  0.00     0.149 A 
BRANCH  11  13
ATOM     13  C   UNL A   1      34.448  21.315  25.981  1.00  0.00     0.275 C 
ATOM     14  O   UNL A   1      34.502  21.472  27.202  1.00  0.00    -0.267 OA
ATOM     15  N   UNL A   1      34.841  20.087  25.476  1.00  0.00    -0.305 N 
ATOM     16  H   UNL A   1      35.696  19.712  25.787  1.00  0.00     0.171 HD
BRANCH  15  17
ATOM     17  C   UNL A   1      34.101  19.348  24.556  1.00  0.00     0.132 A 
ATOM     18  C   UNL A   1      32.937  19.814  23.968  1.00  0.00     0.047 A 
ATOM     19  N   UNL A   1      34.629  18.135  24.303  1.00  0.00    -0.239 NA
ATOM     20  C   UNL A   1      32.249  18.946  23.117  1.00  0.00     0.005 A 
ATOM     21  C   UNL A   1      33.939  17.313  23.489  1.00  0.00     0.113 A 
ATOM     22  C   UNL A   1      32.745  17.664  22.890  1.00  0.00     0.020 A 
ENDBRANCH  15  17
ENDBRANCH  11  13
ENDBRANCH   4   7
ENDBRANCH   2   3
ENDBRANCH   1   2
BRANCH   1  23
ATOM     23  C   UNL A   1      38.729  24.389  26.080  1.00  0.00     0.118 C 
BRANCH  23  24
ATOM     24  N   UNL A   1      40.116  23.956  26.220  1.00  0.00    -0.352 N 
ATOM     25  C   UNL A   1      41.167  24.521  26.906  1.00  0.00     0.251 C 
ATOM     26  H   UNL A   1      40.336  23.123  25.744  1.00  0.00     0.163 HD
ATOM     27  O   UNL A   1      42.304  24.081  26.747  1.00  0.00    -0.269 OA
BRANCH  25  28
ATOM     28  C   UNL A   1      40.940  25.675  27.803  1.00  0.00     0.039 A 
ATOM     29  C   UNL A   1      39.862  25.654  28.692  1.00  0.00     0.014 A 
ATOM     30  C   UNL A   1      41.798  26.774  27.779  1.00  0.00     0.014 A 
ATOM     31  C   UNL A   1      39.709  26.687  29.623  1.00  0.00     0.010 A 
ATOM     32  C   UNL A   1      41.717  27.734  28.777  1.00  0.00     0.010 A 
ATOM     33  C   UNL A   1      40.670  27.706  29.710  1.00  0.00    -0.014 A 
BRANCH  33  34
ATOM     34  C   UNL A   1      40.612  28.770  30.746  1.00  0.00     0.031 A 
ATOM     35  C   UNL A   1      41.500  28.673  31.960  1.00  0.00     0.074 A 
ATOM     36  C   UNL A   1      39.691  29.750  30.655  1.00  0.00     0.049 A 
ATOM     37  N   UNL A   1      41.482  29.382  33.057  1.00  0.00    -0.248 NA
ATOM     38  C   UNL A   1      42.513  27.603  31.953  1.00  0.00     0.031 C 
ATOM     39  C   UNL A   1      38.739  29.924  29.555  1.00  0.00     0.029 A 
ATOM     40  N   UNL A   1      39.385  30.775  31.518  1.00  0.00    -0.354 N 
ATOM     41  C   UNL A   1      42.453  28.824  33.882  1.00  0.00     0.074 A 
ATOM     42  C   UNL A   1      43.001  27.684  33.181  1.00  0.00     0.031 C 
ATOM     43  C   UNL A   1      37.972  30.998  29.799  1.00  0.00     0.029 A 
ATOM     44  C   UNL A   1      38.339  31.562  31.094  1.00  0.00     0.049 A 
ATOM     45  H   UNL A   1      39.870  30.932  32.359  1.00  0.00     0.167 HD
ATOM     46  C   UNL A   1      42.868  29.240  35.102  1.00  0.00     0.037 A 
ATOM     47  C   UNL A   1      37.732  32.607  31.690  1.00  0.00     0.037 A 
ATOM     48  C   UNL A   1      42.348  30.403  35.769  1.00  0.00     0.049 A 
ATOM     49  C   UNL A   1      38.220  33.062  33.039  1.00  0.00     0.074 A 
ATOM     50  C   UNL A   1      42.747  30.953  36.974  1.00  0.00     0.029 A 
ATOM     51  N   UNL A   1      41.323  31.202  35.283  1.00  0.00    -0.354 N 
ATOM     52  N   UNL A   1      39.176  32.555  33.782  1.00  0.00    -0.248 NA
ATOM     53  C   UNL A   1      37.553  34.229  33.632  1.00  0.00     0.031 C 
ATOM     54  C   UNL A   1      41.935  32.061  37.236  1.00  0.00     0.029 A 
ATOM     55  C   UNL A   1      41.065  32.231  36.171  1.00  0.00     0.049 A 
ATOM     56  H   UNL A   1      40.850  31.058  34.432  1.00  0.00     0.167 HD
ATOM     57  C   UNL A   1      39.246  33.361  34.914  1.00  0.00     0.074 A 
ATOM     58  C   UNL A   1      38.239  34.390  34.755  1.00  0.00     0.031 C 
ATOM     59  C   UNL A   1      40.071  33.259  35.984  1.00  0.00     0.037 A 
BRANCH  46  60
ATOM     60  C   UNL A   1      43.940  28.438  35.786  1.00  0.00     0.058 A 
ATOM     61  C   UNL A   1      45.304  28.695  35.573  1.00  0.00     0.135 A 
ATOM     62  C   UNL A   1      43.602  27.415  36.689  1.00  0.00     0.135 A 
ATOM     63  F   UNL A   1      45.685  29.649  34.709  1.00  0.00    -0.206 F 
ATOM     64  C   UNL A   1      46.293  27.948  36.202  1.00  0.00     0.059 A 
ATOM     65  C   UNL A   1      44.576  26.675  37.354  1.00  0.00     0.059 A 
ATOM     66  F   UNL A   1      42.314  27.126  36.930  1.00  0.00    -0.206 F 
ATOM     67  C   UNL A   1      45.919  26.939  37.091  1.00  0.00     0.060 A 
BRANCH  67  68
ATOM     68  S   UNL A   1      47.216  25.982  37.904  1.00  0.00     0.124 S 
ATOM     69  O   UNL A   1      46.666  25.832  39.249  1.00  0.00    -0.237 OA
ATOM     70  O   UNL A   1      47.258  24.766  37.099  1.00  0.00    -0.237 OA
ATOM     71  O   UNL A   1      48.390  26.841  37.797  1.00  0.00    -0.744 OA
ENDBRANCH  67  68
ENDBRANCH  46  60
BRANCH  47  72
ATOM     72  C   UNL A   1      36.610  33.305  31.006  1.00  0.00     0.058 A 
ATOM     73  C   UNL A   1      36.846  34.118  29.887  1.00  0.00     0.135 A 
ATOM     74  C   UNL A   1      35.284  33.164  31.441  1.00  0.00     0.135 A 
ATOM     75  F   UNL A   1      38.097  34.291  29.435  1.00  0.00    -0.206 F 
ATOM     76  C   UNL A   1      35.810  34.778  29.233  1.00  0.00     0.059 A 
ATOM     77  C   UNL A   1      34.228  33.792  30.788  1.00  0.00     0.059 A 
ATOM     78  F   UNL A   1      35.002  32.383  32.496  1.00  0.00    -0.206 F 
ATOM     79  C   UNL A   1      34.502  34.606  29.690  1.00  0.00     0.060 A 
BRANCH  79  80
ATOM     80  S   UNL A   1      33.158  35.424  28.802  1.00  0.00     0.124 S 
ATOM     81  O   UNL A   1      33.886  36.417  28.019  1.00  0.00    -0.237 OA
ATOM     82  O   UNL A   1      32.572  34.320  28.048  1.00  0.00    -0.237 OA
ATOM     83  O   UNL A   1      32.322  35.954  29.875  1.00  0.00    -0.744 OA
ENDBRANCH  79  80
ENDBRANCH  47  72
BRANCH  59  84
ATOM     84  C   UNL A   1      39.959  34.310  37.052  1.00  0.00     0.058 A 
ATOM     85  C   UNL A   1      40.644  35.531  36.962  1.00  0.00     0.135 A 
ATOM     86  C   UNL A   1      39.086  34.123  38.137  1.00  0.00     0.135 A 
ATOM     87  F   UNL A   1      41.496  35.754  35.949  1.00  0.00    -0.206 F 
ATOM     88  C   UNL A   1      40.476  36.527  37.918  1.00  0.00     0.059 A 
ATOM     89  C   UNL A   1      38.883  35.116  39.090  1.00  0.00     0.059 A 
ATOM     90  F   UNL A   1      38.401  32.976  38.263  1.00  0.00    -0.206 F 
ATOM     91  C   UNL A   1      39.588  36.312  38.974  1.00  0.00     0.060 A 
BRANCH  91  92
ATOM     92  S   UNL A   1      39.333  37.638  40.173  1.00  0.00     0.124 S 
ATOM     93  O   UNL A   1      39.027  36.884  41.384  1.00  0.00    -0.237 OA
ATOM     94  O   UNL A   1      40.623  38.322  40.162  1.00  0.00    -0.237 OA
ATOM     95  O   UNL A   1      38.223  38.398  39.609  1.00  0.00    -0.744 OA
ENDBRANCH  91  92
ENDBRANCH  59  84
ENDBRANCH  33  34
ENDBRANCH  25  28
ENDBRANCH  23  24
ENDBRANCH   1  23
TORSDOF 15
ENDMDL
