MODEL 1
REMARK VINA RESULT:     -11.1      0.000      0.000
REMARK SMILES CC(C)[C@@H](CNC(=O)NC[C@@]1(C)CCCO1)C(=O)NCCCNC(=O)c1ccc(-c2c3nc(c(-c4c(F)cc(S(=O)(=O)[O-])cc4F)c4ccc([nH]4)c(-c4c(F)cc(S(=O)(=O)[O-])cc4F)c4nc(c(-c5c(F)cc(S(=O)(=O)[O-])cc5F)c5ccc2[nH]5)C=C4)C=C3)cc1
REMARK SMILES IDX 20 1 19 2 17 3 18 4 4 6 2 7 1 8 3 9 5 10 6 11 7 12 8 14 9 15
REMARK SMILES IDX 10 17 11 18 12 19 13 20 16 21 14 22 15 23 21 24 22 25 23 26
REMARK SMILES IDX 24 27 25 29 26 30 27 31 91 32 28 33 90 34 29 35 30 36 31 37
REMARK SMILES IDX 84 38 32 39 89 40 83 41 85 42 33 43 88 44 82 45 81 46 34 48
REMARK SMILES IDX 68 49 47 50 67 51 48 52 51 53 66 54 86 55 49 56 50 57 65 59
REMARK SMILES IDX 87 60 52 61 35 62 36 63 45 64 37 65 38 66 44 67 46 68 39 69
REMARK SMILES IDX 40 70 41 71 42 72 43 73 69 74 70 75 79 76 71 77 72 78 78 79
REMARK SMILES IDX 80 80 73 81 74 82 75 83 76 84 77 85 53 86 54 87 63 88 55 89
REMARK SMILES IDX 56 90 62 91 64 92 57 93 58 94 59 95 60 96 61 97
REMARK H PARENT 19 5 6 13 9 16 23 28 85 47 51 58
REMARK Flexibility Score: inf
ROOT
ATOM      1  C   UNL A   1      33.993  26.388  25.587  1.00  0.00     0.117 C 
ENDROOT
BRANCH   1   2
ATOM      2  N   UNL A   1      33.395  25.734  24.437  1.00  0.00    -0.356 N 
ATOM      3  C   UNL A   1      33.455  24.439  24.031  1.00  0.00     0.225 C 
ATOM      4  O   UNL A   1      32.683  24.085  23.133  1.00  0.00    -0.275 OA
ATOM      5  H   UNL A   1      32.861  26.324  23.858  1.00  0.00     0.163 HD
BRANCH   3   6
ATOM      6  C   UNL A   1      34.426  23.430  24.637  1.00  0.00     0.100 C 
BRANCH   6   7
ATOM      7  C   UNL A   1      35.926  23.781  24.438  1.00  0.00    -0.003 C 
ATOM      8  C   UNL A   1      36.736  23.664  25.732  1.00  0.00     0.008 C 
ATOM      9  C   UNL A   1      36.550  22.856  23.378  1.00  0.00     0.008 C 
ENDBRANCH   6   7
BRANCH   6  10
ATOM     10  C   UNL A   1      33.957  22.937  26.019  1.00  0.00     0.131 C 
BRANCH  10  11
ATOM     11  N   UNL A   1      32.539  22.724  26.228  1.00  0.00    -0.337 N 
ATOM     12  C   UNL A   1      31.662  21.834  25.746  1.00  0.00     0.314 C 
ATOM     13  H   UNL A   1      32.137  23.367  26.855  1.00  0.00     0.165 HD
ATOM     14  O   UNL A   1      30.462  22.072  25.887  1.00  0.00    -0.249 OA
ATOM     15  N   UNL A   1      32.006  20.722  25.089  1.00  0.00    -0.335 N 
ATOM     16  H   UNL A   1      31.326  20.421  24.442  1.00  0.00     0.165 HD
BRANCH  15  17
ATOM     17  C   UNL A   1      33.182  19.867  25.137  1.00  0.00     0.152 C 
BRANCH  17  18
ATOM     18  C   UNL A   1      33.007  18.487  24.443  1.00  0.00     0.083 C 
ATOM     19  C   UNL A   1      32.362  18.633  23.058  1.00  0.00     0.044 C 
ATOM     20  C   UNL A   1      34.286  17.640  24.370  1.00  0.00     0.039 C 
ATOM     21  O   UNL A   1      32.080  17.692  25.232  1.00  0.00    -0.373 OA
ATOM     22  C   UNL A   1      33.763  16.228  24.427  1.00  0.00     0.031 C 
ATOM     23  C   UNL A   1      32.622  16.374  25.408  1.00  0.00     0.161 C 
ENDBRANCH  17  18
ENDBRANCH  15  17
ENDBRANCH  10  11
ENDBRANCH   6  10
ENDBRANCH   3   6
ENDBRANCH   1   2
BRANCH   1  24
ATOM     24  C   UNL A   1      33.507  27.807  25.792  1.00  0.00     0.042 C 
BRANCH  24  25
ATOM     25  C   UNL A   1      33.406  28.187  27.258  1.00  0.00     0.118 C 
BRANCH  25  26
ATOM     26  N   UNL A   1      33.380  29.633  27.471  1.00  0.00    -0.352 N 
ATOM     27  C   UNL A   1      34.344  30.486  27.955  1.00  0.00     0.251 C 
ATOM     28  H   UNL A   1      32.531  30.068  27.227  1.00  0.00     0.163 HD
ATOM     29  O   UNL A   1      34.055  31.644  28.223  1.00  0.00    -0.269 OA
BRANCH  27  30
ATOM     30  C   UNL A   1      35.720  29.993  28.168  1.00  0.00     0.039 A 
ATOM     31  C   UNL A   1      36.634  30.036  27.113  1.00  0.00     0.014 A 
ATOM     32  C   UNL A   1      36.108  29.499  29.414  1.00  0.00     0.014 A 
ATOM     33  C   UNL A   1      37.958  29.655  27.336  1.00  0.00     0.010 A 
ATOM     34  C   UNL A   1      37.447  29.245  29.666  1.00  0.00     0.010 A 
ATOM     35  C   UNL A   1      38.384  29.299  28.626  1.00  0.00    -0.014 A 
BRANCH  35  36
ATOM     36  C   UNL A   1      39.795  28.946  28.916  1.00  0.00     0.031 A 
ATOM     37  C   UNL A   1      40.706  29.969  29.542  1.00  0.00     0.074 A 
ATOM     38  C   UNL A   1      40.274  27.741  28.549  1.00  0.00     0.049 A 
ATOM     39  N   UNL A   1      41.986  29.892  29.796  1.00  0.00    -0.248 NA
ATOM     40  C   UNL A   1      40.104  31.266  29.891  1.00  0.00     0.031 C 
ATOM     41  C   UNL A   1      39.501  26.687  27.890  1.00  0.00     0.029 A 
ATOM     42  N   UNL A   1      41.529  27.202  28.675  1.00  0.00    -0.354 N 
ATOM     43  C   UNL A   1      42.342  31.132  30.315  1.00  0.00     0.074 A 
ATOM     44  C   UNL A   1      41.163  31.967  30.263  1.00  0.00     0.031 C 
ATOM     45  C   UNL A   1      40.285  25.612  27.712  1.00  0.00     0.029 A 
ATOM     46  C   UNL A   1      41.627  25.916  28.199  1.00  0.00     0.049 A 
ATOM     47  H   UNL A   1      42.288  27.690  29.068  1.00  0.00     0.167 HD
ATOM     48  C   UNL A   1      43.533  31.530  30.824  1.00  0.00     0.037 A 
ATOM     49  C   UNL A   1      42.680  25.078  28.164  1.00  0.00     0.037 A 
ATOM     50  C   UNL A   1      44.694  30.683  30.890  1.00  0.00     0.049 A 
ATOM     51  C   UNL A   1      43.999  25.542  28.718  1.00  0.00     0.074 A 
ATOM     52  C   UNL A   1      45.938  30.965  31.424  1.00  0.00     0.029 A 
ATOM     53  N   UNL A   1      44.752  29.384  30.403  1.00  0.00    -0.354 N 
ATOM     54  N   UNL A   1      44.307  26.699  29.256  1.00  0.00    -0.248 NA
ATOM     55  C   UNL A   1      45.113  24.587  28.665  1.00  0.00     0.031 C 
ATOM     56  C   UNL A   1      46.762  29.853  31.217  1.00  0.00     0.029 A 
ATOM     57  C   UNL A   1      46.016  28.857  30.606  1.00  0.00     0.049 A 
ATOM     58  H   UNL A   1      44.004  28.907  29.976  1.00  0.00     0.167 HD
ATOM     59  C   UNL A   1      45.640  26.600  29.636  1.00  0.00     0.074 A 
ATOM     60  C   UNL A   1      46.077  25.266  29.272  1.00  0.00     0.031 C 
ATOM     61  C   UNL A   1      46.430  27.524  30.239  1.00  0.00     0.037 A 
BRANCH  48  62
ATOM     62  C   UNL A   1      43.622  32.942  31.340  1.00  0.00     0.058 A 
ATOM     63  C   UNL A   1      44.073  33.998  30.528  1.00  0.00     0.135 A 
ATOM     64  C   UNL A   1      43.279  33.243  32.667  1.00  0.00     0.135 A 
ATOM     65  F   UNL A   1      44.429  33.769  29.254  1.00  0.00    -0.206 F 
ATOM     66  C   UNL A   1      44.237  35.285  31.030  1.00  0.00     0.059 A 
ATOM     67  C   UNL A   1      43.401  34.532  33.181  1.00  0.00     0.059 A 
ATOM     68  F   UNL A   1      42.840  32.277  33.489  1.00  0.00    -0.206 F 
ATOM     69  C   UNL A   1      43.907  35.540  32.361  1.00  0.00     0.060 A 
BRANCH  69  70
ATOM     70  S   UNL A   1      44.163  37.205  33.008  1.00  0.00     0.124 S 
ATOM     71  O   UNL A   1      45.548  37.128  33.464  1.00  0.00    -0.237 OA
ATOM     72  O   UNL A   1      43.928  38.038  31.834  1.00  0.00    -0.237 OA
ATOM     73  O   UNL A   1      43.161  37.317  34.064  1.00  0.00    -0.744 OA
ENDBRANCH  69  70
ENDBRANCH  48  62
BRANCH  49  74
ATOM     74  C   UNL A   1      42.508  23.697  27.639  1.00  0.00     0.058 A 
ATOM     75  C   UNL A   1      42.589  23.442  26.261  1.00  0.00     0.135 A 
ATOM     76  C   UNL A   1      42.302  22.603  28.494  1.00  0.00     0.135 A 
ATOM     77  F   UNL A   1      42.780  24.455  25.403  1.00  0.00    -0.206 F 
ATOM     78  C   UNL A   1      42.467  22.155  25.749  1.00  0.00     0.059 A 
ATOM     79  C   UNL A   1      42.201  21.303  28.007  1.00  0.00     0.059 A 
ATOM     80  F   UNL A   1      42.234  22.790  29.822  1.00  0.00    -0.206 F 
ATOM     81  C   UNL A   1      42.280  21.090  26.631  1.00  0.00     0.060 A 
BRANCH  81  82
ATOM     82  S   UNL A   1      42.192  19.417  25.958  1.00  0.00     0.124 S 
ATOM     83  O   UNL A   1      43.040  19.530  24.777  1.00  0.00    -0.237 OA
ATOM     84  O   UNL A   1      42.727  18.618  27.056  1.00  0.00    -0.237 OA
ATOM     85  O   UNL A   1      40.767  19.234  25.696  1.00  0.00    -0.744 OA
ENDBRANCH  81  82
ENDBRANCH  49  74
BRANCH  61  86
ATOM     86  C   UNL A   1      47.836  27.114  30.580  1.00  0.00     0.058 A 
ATOM     87  C   UNL A   1      48.932  27.491  29.788  1.00  0.00     0.135 A 
ATOM     88  C   UNL A   1      48.093  26.375  31.746  1.00  0.00     0.135 A 
ATOM     89  F   UNL A   1      48.740  28.192  28.659  1.00  0.00    -0.206 F 
ATOM     90  C   UNL A   1      50.230  27.129  30.127  1.00  0.00     0.059 A 
ATOM     91  C   UNL A   1      49.386  26.028  32.121  1.00  0.00     0.059 A 
ATOM     92  F   UNL A   1      47.082  25.998  32.545  1.00  0.00    -0.206 F 
ATOM     93  C   UNL A   1      50.448  26.399  31.297  1.00  0.00     0.060 A 
BRANCH  93  94
ATOM     94  S   UNL A   1      52.142  25.965  31.743  1.00  0.00     0.124 S 
ATOM     95  O   UNL A   1      51.950  24.690  32.427  1.00  0.00    -0.237 OA
ATOM     96  O   UNL A   1      52.799  25.893  30.441  1.00  0.00    -0.237 OA
ATOM     97  O   UNL A   1      52.566  27.075  32.591  1.00  0.00    -0.744 OA
ENDBRANCH  93  94
ENDBRANCH  61  86
ENDBRANCH  35  36
ENDBRANCH  27  30
ENDBRANCH  25  26
ENDBRANCH  24  25
ENDBRANCH   1  24
TORSDOF 18
ENDMDL
MODEL 2
REMARK VINA RESULT:     -11.1      4.892     10.804
REMARK SMILES CC(C)[C@@H](CNC(=O)NC[C@@]1(C)CCCO1)C(=O)NCCCNC(=O)c1ccc(-c2c3nc(c(-c4c(F)cc(S(=O)(=O)[O-])cc4F)c4ccc([nH]4)c(-c4c(F)cc(S(=O)(=O)[O-])cc4F)c4nc(c(-c5c(F)cc(S(=O)(=O)[O-])cc5F)c5ccc2[nH]5)C=C4)C=C3)cc1
REMARK SMILES IDX 20 1 19 2 17 3 18 4 4 6 2 7 1 8 3 9 5 10 6 11 7 12 8 14 9 15
REMARK SMILES IDX 10 17 11 18 12 19 13 20 16 21 14 22 15 23 21 24 22 25 23 26
REMARK SMILES IDX 24 27 25 29 26 30 27 31 91 32 28 33 90 34 29 35 30 36 31 37
REMARK SMILES IDX 84 38 32 39 89 40 83 41 85 42 33 43 88 44 82 45 81 46 34 48
REMARK SMILES IDX 68 49 47 50 67 51 48 52 51 53 66 54 86 55 49 56 50 57 65 59
REMARK SMILES IDX 87 60 52 61 35 62 36 63 45 64 37 65 38 66 44 67 46 68 39 69
REMARK SMILES IDX 40 70 41 71 42 72 43 73 69 74 70 75 79 76 71 77 72 78 78 79
REMARK SMILES IDX 80 80 73 81 74 82 75 83 76 84 77 85 53 86 54 87 63 88 55 89
REMARK SMILES IDX 56 90 62 91 64 92 57 93 58 94 59 95 60 96 61 97
REMARK H PARENT 19 5 6 13 9 16 23 28 85 47 51 58
REMARK Flexibility Score: inf
ROOT
ATOM      1  C   UNL A   1      36.485  23.556  24.766  1.00  0.00     0.117 C 
ENDROOT
BRANCH   1   2
ATOM      2  N   UNL A   1      35.356  24.061  25.526  1.00  0.00    -0.356 N 
ATOM      3  C   UNL A   1      34.152  24.529  25.106  1.00  0.00     0.225 C 
ATOM      4  O   UNL A   1      33.276  24.702  25.961  1.00  0.00    -0.275 OA
ATOM      5  H   UNL A   1      35.483  24.065  26.502  1.00  0.00     0.163 HD
BRANCH   3   6
ATOM      6  C   UNL A   1      33.854  24.843  23.642  1.00  0.00     0.100 C 
BRANCH   6   7
ATOM      7  C   UNL A   1      32.944  23.802  22.935  1.00  0.00    -0.003 C 
ATOM      8  C   UNL A   1      33.242  22.365  23.371  1.00  0.00     0.008 C 
ATOM      9  C   UNL A   1      31.464  24.110  23.224  1.00  0.00     0.008 C 
ENDBRANCH   6   7
BRANCH   6  10
ATOM     10  C   UNL A   1      33.580  26.342  23.418  1.00  0.00     0.131 C 
BRANCH  10  11
ATOM     11  N   UNL A   1      33.409  27.190  24.580  1.00  0.00    -0.337 N 
ATOM     12  C   UNL A   1      33.116  28.489  24.736  1.00  0.00     0.314 C 
ATOM     13  H   UNL A   1      33.533  26.714  25.433  1.00  0.00     0.165 HD
ATOM     14  O   UNL A   1      33.313  28.996  25.840  1.00  0.00    -0.249 OA
ATOM     15  N   UNL A   1      32.659  29.277  23.758  1.00  0.00    -0.335 N 
ATOM     16  H   UNL A   1      32.903  30.224  23.870  1.00  0.00     0.165 HD
BRANCH  15  17
ATOM     17  C   UNL A   1      31.873  29.016  22.562  1.00  0.00     0.152 C 
BRANCH  17  18
ATOM     18  C   UNL A   1      30.333  29.061  22.777  1.00  0.00     0.083 C 
ATOM     19  C   UNL A   1      29.783  27.686  23.180  1.00  0.00     0.044 C 
ATOM     20  C   UNL A   1      29.853  30.153  23.743  1.00  0.00     0.039 C 
ATOM     21  O   UNL A   1      29.703  29.386  21.507  1.00  0.00    -0.373 OA
ATOM     22  C   UNL A   1      28.489  30.505  23.209  1.00  0.00     0.031 C 
ATOM     23  C   UNL A   1      28.722  30.412  21.719  1.00  0.00     0.161 C 
ENDBRANCH  17  18
ENDBRANCH  15  17
ENDBRANCH  10  11
ENDBRANCH   6  10
ENDBRANCH   3   6
ENDBRANCH   1   2
BRANCH   1  24
ATOM     24  C   UNL A   1      37.557  22.926  25.630  1.00  0.00     0.042 C 
BRANCH  24  25
ATOM     25  C   UNL A   1      38.374  23.954  26.394  1.00  0.00     0.118 C 
BRANCH  25  26
ATOM     26  N   UNL A   1      39.804  23.876  26.101  1.00  0.00    -0.352 N 
ATOM     27  C   UNL A   1      40.844  24.688  26.487  1.00  0.00     0.251 C 
ATOM     28  H   UNL A   1      40.065  23.116  25.532  1.00  0.00     0.163 HD
ATOM     29  O   UNL A   1      41.949  24.547  25.982  1.00  0.00    -0.269 OA
BRANCH  27  30
ATOM     30  C   UNL A   1      40.616  25.741  27.497  1.00  0.00     0.039 A 
ATOM     31  C   UNL A   1      39.655  25.541  28.490  1.00  0.00     0.014 A 
ATOM     32  C   UNL A   1      41.360  26.921  27.467  1.00  0.00     0.014 A 
ATOM     33  C   UNL A   1      39.501  26.494  29.499  1.00  0.00     0.010 A 
ATOM     34  C   UNL A   1      41.296  27.802  28.536  1.00  0.00     0.010 A 
ATOM     35  C   UNL A   1      40.351  27.611  29.553  1.00  0.00    -0.014 A 
BRANCH  35  36
ATOM     36  C   UNL A   1      40.257  28.615  30.641  1.00  0.00     0.031 A 
ATOM     37  C   UNL A   1      41.160  28.499  31.841  1.00  0.00     0.074 A 
ATOM     38  C   UNL A   1      39.317  29.577  30.586  1.00  0.00     0.049 A 
ATOM     39  N   UNL A   1      41.181  29.217  32.934  1.00  0.00    -0.248 NA
ATOM     40  C   UNL A   1      42.144  27.404  31.826  1.00  0.00     0.031 C 
ATOM     41  C   UNL A   1      38.353  29.760  29.499  1.00  0.00     0.029 A 
ATOM     42  N   UNL A   1      39.014  30.583  31.468  1.00  0.00    -0.354 N 
ATOM     43  C   UNL A   1      42.161  28.649  33.739  1.00  0.00     0.074 A 
ATOM     44  C   UNL A   1      42.655  27.481  33.044  1.00  0.00     0.031 C 
ATOM     45  C   UNL A   1      37.598  30.840  29.756  1.00  0.00     0.029 A 
ATOM     46  C   UNL A   1      37.991  31.398  31.047  1.00  0.00     0.049 A 
ATOM     47  H   UNL A   1      39.486  30.708  32.324  1.00  0.00     0.167 HD
ATOM     48  C   UNL A   1      42.636  29.080  34.932  1.00  0.00     0.037 A 
ATOM     49  C   UNL A   1      37.436  32.475  31.635  1.00  0.00     0.037 A 
ATOM     50  C   UNL A   1      42.151  30.257  35.603  1.00  0.00     0.049 A 
ATOM     51  C   UNL A   1      37.964  32.930  32.967  1.00  0.00     0.074 A 
ATOM     52  C   UNL A   1      42.587  30.813  36.792  1.00  0.00     0.029 A 
ATOM     53  N   UNL A   1      41.117  31.060  35.141  1.00  0.00    -0.354 N 
ATOM     54  N   UNL A   1      38.929  32.415  33.692  1.00  0.00    -0.248 NA
ATOM     55  C   UNL A   1      37.331  34.115  33.560  1.00  0.00     0.031 C 
ATOM     56  C   UNL A   1      41.785  31.925  37.072  1.00  0.00     0.029 A 
ATOM     57  C   UNL A   1      40.887  32.096  36.030  1.00  0.00     0.049 A 
ATOM     58  H   UNL A   1      40.620  30.914  34.304  1.00  0.00     0.167 HD
ATOM     59  C   UNL A   1      39.043  33.232  34.810  1.00  0.00     0.074 A 
ATOM     60  C   UNL A   1      38.050  34.279  34.662  1.00  0.00     0.031 C 
ATOM     61  C   UNL A   1      39.896  33.131  35.862  1.00  0.00     0.037 A 
BRANCH  48  62
ATOM     62  C   UNL A   1      43.729  28.266  35.572  1.00  0.00     0.058 A 
ATOM     63  C   UNL A   1      43.453  27.315  36.571  1.00  0.00     0.135 A 
ATOM     64  C   UNL A   1      45.071  28.453  35.206  1.00  0.00     0.135 A 
ATOM     65  F   UNL A   1      42.189  27.102  36.973  1.00  0.00    -0.206 F 
ATOM     66  C   UNL A   1      44.470  26.625  37.222  1.00  0.00     0.059 A 
ATOM     67  C   UNL A   1      46.103  27.747  35.819  1.00  0.00     0.059 A 
ATOM     68  F   UNL A   1      45.396  29.345  34.257  1.00  0.00    -0.206 F 
ATOM     69  C   UNL A   1      45.793  26.855  36.845  1.00  0.00     0.060 A 
BRANCH  69  70
ATOM     70  S   UNL A   1      47.104  25.983  37.727  1.00  0.00     0.124 S 
ATOM     71  O   UNL A   1      46.521  24.652  37.870  1.00  0.00    -0.237 OA
ATOM     72  O   UNL A   1      48.227  26.086  36.801  1.00  0.00    -0.237 OA
ATOM     73  O   UNL A   1      47.244  26.742  38.966  1.00  0.00    -0.744 OA
ENDBRANCH  69  70
ENDBRANCH  48  62
BRANCH  49  74
ATOM     74  C   UNL A   1      36.360  33.226  30.934  1.00  0.00     0.058 A 
ATOM     75  C   UNL A   1      35.034  33.167  31.391  1.00  0.00     0.135 A 
ATOM     76  C   UNL A   1      36.633  34.046  29.828  1.00  0.00     0.135 A 
ATOM     77  F   UNL A   1      34.723  32.394  32.442  1.00  0.00    -0.206 F 
ATOM     78  C   UNL A   1      34.017  33.888  30.775  1.00  0.00     0.059 A 
ATOM     79  C   UNL A   1      35.637  34.795  29.210  1.00  0.00     0.059 A 
ATOM     80  F   UNL A   1      37.888  34.150  29.362  1.00  0.00    -0.206 F 
ATOM     81  C   UNL A   1      34.330  34.705  29.688  1.00  0.00     0.060 A 
BRANCH  81  82
ATOM     82  S   UNL A   1      33.013  35.689  28.942  1.00  0.00     0.124 S 
ATOM     83  O   UNL A   1      33.772  36.721  28.247  1.00  0.00    -0.237 OA
ATOM     84  O   UNL A   1      32.343  34.707  28.094  1.00  0.00    -0.237 OA
ATOM     85  O   UNL A   1      32.238  36.143  30.093  1.00  0.00    -0.744 OA
ENDBRANCH  81  82
ENDBRANCH  49  74
BRANCH  61  86
ATOM     86  C   UNL A   1      39.821  34.201  36.916  1.00  0.00     0.058 A 
ATOM     87  C   UNL A   1      40.419  35.458  36.741  1.00  0.00     0.135 A 
ATOM     88  C   UNL A   1      39.095  33.979  38.097  1.00  0.00     0.135 A 
ATOM     89  F   UNL A   1      41.131  35.720  35.633  1.00  0.00    -0.206 F 
ATOM     90  C   UNL A   1      40.322  36.449  37.712  1.00  0.00     0.059 A 
ATOM     91  C   UNL A   1      38.958  34.965  39.068  1.00  0.00     0.059 A 
ATOM     92  F   UNL A   1      38.493  32.797  38.311  1.00  0.00    -0.206 F 
ATOM     93  C   UNL A   1      39.586  36.194  38.871  1.00  0.00     0.060 A 
BRANCH  93  94
ATOM     94  S   UNL A   1      39.439  37.502  40.107  1.00  0.00     0.124 S 
ATOM     95  O   UNL A   1      40.816  37.974  40.201  1.00  0.00    -0.237 OA
ATOM     96  O   UNL A   1      38.495  38.420  39.478  1.00  0.00    -0.237 OA
ATOM     97  O   UNL A   1      38.934  36.801  41.284  1.00  0.00    -0.744 OA
ENDBRANCH  93  94
ENDBRANCH  61  86
ENDBRANCH  35  36
ENDBRANCH  27  30
ENDBRANCH  25  26
ENDBRANCH  24  25
ENDBRANCH   1  24
TORSDOF 18
ENDMDL
MODEL 3
REMARK VINA RESULT:     -11.0      4.744     10.417
REMARK SMILES CC(C)[C@@H](CNC(=O)NC[C@@]1(C)CCCO1)C(=O)NCCCNC(=O)c1ccc(-c2c3nc(c(-c4c(F)cc(S(=O)(=O)[O-])cc4F)c4ccc([nH]4)c(-c4c(F)cc(S(=O)(=O)[O-])cc4F)c4nc(c(-c5c(F)cc(S(=O)(=O)[O-])cc5F)c5ccc2[nH]5)C=C4)C=C3)cc1
REMARK SMILES IDX 20 1 19 2 17 3 18 4 4 6 2 7 1 8 3 9 5 10 6 11 7 12 8 14 9 15
REMARK SMILES IDX 10 17 11 18 12 19 13 20 16 21 14 22 15 23 21 24 22 25 23 26
REMARK SMILES IDX 24 27 25 29 26 30 27 31 91 32 28 33 90 34 29 35 30 36 31 37
REMARK SMILES IDX 84 38 32 39 89 40 83 41 85 42 33 43 88 44 82 45 81 46 34 48
REMARK SMILES IDX 68 49 47 50 67 51 48 52 51 53 66 54 86 55 49 56 50 57 65 59
REMARK SMILES IDX 87 60 52 61 35 62 36 63 45 64 37 65 38 66 44 67 46 68 39 69
REMARK SMILES IDX 40 70 41 71 42 72 43 73 69 74 70 75 79 76 71 77 72 78 78 79
REMARK SMILES IDX 80 80 73 81 74 82 75 83 76 84 77 85 53 86 54 87 63 88 55 89
REMARK SMILES IDX 56 90 62 91 64 92 57 93 58 94 59 95 60 96 61 97
REMARK H PARENT 19 5 6 13 9 16 23 28 85 47 51 58
REMARK Flexibility Score: inf
ROOT
ATOM      1  C   UNL A   1      35.920  23.434  25.601  1.00  0.00     0.117 C 
ENDROOT
BRANCH   1   2
ATOM      2  N   UNL A   1      35.016  22.878  26.593  1.00  0.00    -0.356 N 
ATOM      3  C   UNL A   1      33.915  22.098  26.440  1.00  0.00     0.225 C 
ATOM      4  O   UNL A   1      33.438  21.577  27.454  1.00  0.00    -0.275 OA
ATOM      5  H   UNL A   1      35.238  23.101  27.525  1.00  0.00     0.163 HD
BRANCH   3   6
ATOM      6  C   UNL A   1      33.260  21.853  25.083  1.00  0.00     0.100 C 
BRANCH   6   7
ATOM      7  C   UNL A   1      33.388  20.395  24.563  1.00  0.00    -0.003 C 
ATOM      8  C   UNL A   1      32.987  19.357  25.613  1.00  0.00     0.008 C 
ATOM      9  C   UNL A   1      32.508  20.201  23.314  1.00  0.00     0.008 C 
ENDBRANCH   6   7
BRANCH   6  10
ATOM     10  C   UNL A   1      31.902  22.568  24.961  1.00  0.00     0.131 C 
BRANCH  10  11
ATOM     11  N   UNL A   1      30.934  22.391  26.024  1.00  0.00    -0.337 N 
ATOM     12  C   UNL A   1      30.253  23.246  26.800  1.00  0.00     0.314 C 
ATOM     13  H   UNL A   1      30.734  21.447  26.217  1.00  0.00     0.165 HD
ATOM     14  O   UNL A   1      29.709  22.799  27.811  1.00  0.00    -0.249 OA
ATOM     15  N   UNL A   1      30.157  24.558  26.566  1.00  0.00    -0.335 N 
ATOM     16  H   UNL A   1      30.034  25.095  27.382  1.00  0.00     0.165 HD
BRANCH  15  17
ATOM     17  C   UNL A   1      30.199  25.352  25.348  1.00  0.00     0.152 C 
BRANCH  17  18
ATOM     18  C   UNL A   1      31.453  26.261  25.211  1.00  0.00     0.083 C 
ATOM     19  C   UNL A   1      31.069  27.747  25.176  1.00  0.00     0.044 C 
ATOM     20  C   UNL A   1      32.551  25.999  26.251  1.00  0.00     0.039 C 
ATOM     21  O   UNL A   1      32.082  25.983  23.929  1.00  0.00    -0.373 OA
ATOM     22  C   UNL A   1      33.814  26.343  25.507  1.00  0.00     0.031 C 
ATOM     23  C   UNL A   1      33.495  25.824  24.124  1.00  0.00     0.161 C 
ENDBRANCH  17  18
ENDBRANCH  15  17
ENDBRANCH  10  11
ENDBRANCH   6  10
ENDBRANCH   3   6
ENDBRANCH   1   2
BRANCH   1  24
ATOM     24  C   UNL A   1      37.363  23.022  25.805  1.00  0.00     0.042 C 
BRANCH  24  25
ATOM     25  C   UNL A   1      38.190  24.098  26.486  1.00  0.00     0.118 C 
BRANCH  25  26
ATOM     26  N   UNL A   1      39.618  23.987  26.196  1.00  0.00    -0.352 N 
ATOM     27  C   UNL A   1      40.676  24.774  26.587  1.00  0.00     0.251 C 
ATOM     28  H   UNL A   1      39.862  23.223  25.626  1.00  0.00     0.163 HD
ATOM     29  O   UNL A   1      41.779  24.608  26.084  1.00  0.00    -0.269 OA
BRANCH  27  30
ATOM     30  C   UNL A   1      40.471  25.830  27.599  1.00  0.00     0.039 A 
ATOM     31  C   UNL A   1      39.531  25.633  28.613  1.00  0.00     0.014 A 
ATOM     32  C   UNL A   1      41.215  27.009  27.550  1.00  0.00     0.014 A 
ATOM     33  C   UNL A   1      39.399  26.589  29.622  1.00  0.00     0.010 A 
ATOM     34  C   UNL A   1      41.174  27.892  28.617  1.00  0.00     0.010 A 
ATOM     35  C   UNL A   1      40.251  27.705  29.655  1.00  0.00    -0.014 A 
BRANCH  35  36
ATOM     36  C   UNL A   1      40.182  28.712  30.742  1.00  0.00     0.031 A 
ATOM     37  C   UNL A   1      41.092  28.584  31.935  1.00  0.00     0.074 A 
ATOM     38  C   UNL A   1      39.256  29.689  30.693  1.00  0.00     0.049 A 
ATOM     39  N   UNL A   1      41.132  29.303  33.026  1.00  0.00    -0.248 NA
ATOM     40  C   UNL A   1      42.059  27.473  31.914  1.00  0.00     0.031 C 
ATOM     41  C   UNL A   1      38.286  29.885  29.613  1.00  0.00     0.029 A 
ATOM     42  N   UNL A   1      38.976  30.700  31.576  1.00  0.00    -0.354 N 
ATOM     43  C   UNL A   1      42.111  28.721  33.825  1.00  0.00     0.074 A 
ATOM     44  C   UNL A   1      42.581  27.544  33.128  1.00  0.00     0.031 C 
ATOM     45  C   UNL A   1      37.550  30.976  29.875  1.00  0.00     0.029 A 
ATOM     46  C   UNL A   1      37.962  31.530  31.162  1.00  0.00     0.049 A 
ATOM     47  H   UNL A   1      39.456  30.819  32.428  1.00  0.00     0.167 HD
ATOM     48  C   UNL A   1      42.601  29.146  35.013  1.00  0.00     0.037 A 
ATOM     49  C   UNL A   1      37.428  32.616  31.752  1.00  0.00     0.037 A 
ATOM     50  C   UNL A   1      42.140  30.332  35.687  1.00  0.00     0.049 A 
ATOM     51  C   UNL A   1      37.974  33.065  33.079  1.00  0.00     0.074 A 
ATOM     52  C   UNL A   1      42.594  30.882  36.871  1.00  0.00     0.029 A 
ATOM     53  N   UNL A   1      41.115  31.150  35.231  1.00  0.00    -0.354 N 
ATOM     54  N   UNL A   1      38.937  32.536  33.798  1.00  0.00    -0.248 NA
ATOM     55  C   UNL A   1      37.364  34.260  33.676  1.00  0.00     0.031 C 
ATOM     56  C   UNL A   1      41.811  32.007  37.156  1.00  0.00     0.029 A 
ATOM     57  C   UNL A   1      40.907  32.190  36.121  1.00  0.00     0.049 A 
ATOM     58  H   UNL A   1      40.608  31.010  34.399  1.00  0.00     0.167 HD
ATOM     59  C   UNL A   1      39.072  33.353  34.914  1.00  0.00     0.074 A 
ATOM     60  C   UNL A   1      38.095  34.415  34.772  1.00  0.00     0.031 C 
ATOM     61  C   UNL A   1      39.931  33.240  35.959  1.00  0.00     0.037 A 
BRANCH  48  62
ATOM     62  C   UNL A   1      43.687  28.317  35.646  1.00  0.00     0.058 A 
ATOM     63  C   UNL A   1      45.042  28.494  35.312  1.00  0.00     0.135 A 
ATOM     64  C   UNL A   1      43.374  27.315  36.578  1.00  0.00     0.135 A 
ATOM     65  F   UNL A   1      45.402  29.427  34.416  1.00  0.00    -0.206 F 
ATOM     66  C   UNL A   1      46.035  27.671  35.831  1.00  0.00     0.059 A 
ATOM     67  C   UNL A   1      44.355  26.504  37.139  1.00  0.00     0.059 A 
ATOM     68  F   UNL A   1      42.098  27.101  36.939  1.00  0.00    -0.206 F 
ATOM     69  C   UNL A   1      45.680  26.672  36.738  1.00  0.00     0.060 A 
BRANCH  69  70
ATOM     70  S   UNL A   1      46.975  25.586  37.373  1.00  0.00     0.124 S 
ATOM     71  O   UNL A   1      48.171  26.385  37.122  1.00  0.00    -0.237 OA
ATOM     72  O   UNL A   1      46.597  25.434  38.774  1.00  0.00    -0.237 OA
ATOM     73  O   UNL A   1      46.841  24.384  36.556  1.00  0.00    -0.744 OA
ENDBRANCH  69  70
ENDBRANCH  48  62
BRANCH  49  74
ATOM     74  C   UNL A   1      36.358  33.383  31.059  1.00  0.00     0.058 A 
ATOM     75  C   UNL A   1      36.649  34.139  29.913  1.00  0.00     0.135 A 
ATOM     76  C   UNL A   1      35.025  33.347  31.496  1.00  0.00     0.135 A 
ATOM     77  F   UNL A   1      37.910  34.208  29.460  1.00  0.00    -0.206 F 
ATOM     78  C   UNL A   1      35.661  34.835  29.228  1.00  0.00     0.059 A 
ATOM     79  C   UNL A   1      34.014  34.016  30.813  1.00  0.00     0.059 A 
ATOM     80  F   UNL A   1      34.690  32.625  32.577  1.00  0.00    -0.206 F 
ATOM     81  C   UNL A   1      34.343  34.762  29.682  1.00  0.00     0.060 A 
BRANCH  81  82
ATOM     82  S   UNL A   1      33.059  35.615  28.742  1.00  0.00     0.124 S 
ATOM     83  O   UNL A   1      33.842  36.578  27.978  1.00  0.00    -0.237 OA
ATOM     84  O   UNL A   1      32.464  34.523  27.977  1.00  0.00    -0.237 OA
ATOM     85  O   UNL A   1      32.202  36.182  29.780  1.00  0.00    -0.744 OA
ENDBRANCH  81  82
ENDBRANCH  49  74
BRANCH  61  86
ATOM     86  C   UNL A   1      39.882  34.313  37.012  1.00  0.00     0.058 A 
ATOM     87  C   UNL A   1      40.598  35.512  36.884  1.00  0.00     0.135 A 
ATOM     88  C   UNL A   1      39.062  34.156  38.142  1.00  0.00     0.135 A 
ATOM     89  F   UNL A   1      41.402  35.710  35.826  1.00  0.00    -0.206 F 
ATOM     90  C   UNL A   1      40.524  36.508  37.851  1.00  0.00     0.059 A 
ATOM     91  C   UNL A   1      38.949  35.150  39.106  1.00  0.00     0.059 A 
ATOM     92  F   UNL A   1      38.347  33.032  38.308  1.00  0.00    -0.206 F 
ATOM     93  C   UNL A   1      39.694  36.319  38.959  1.00  0.00     0.060 A 
BRANCH  93  94
ATOM     94  S   UNL A   1      39.582  37.635  40.189  1.00  0.00     0.124 S 
ATOM     95  O   UNL A   1      38.558  38.496  39.606  1.00  0.00    -0.237 OA
ATOM     96  O   UNL A   1      39.187  36.906  41.390  1.00  0.00    -0.237 OA
ATOM     97  O   UNL A   1      40.931  38.192  40.215  1.00  0.00    -0.744 OA
ENDBRANCH  93  94
ENDBRANCH  61  86
ENDBRANCH  35  36
ENDBRANCH  27  30
ENDBRANCH  25  26
ENDBRANCH  24  25
ENDBRANCH   1  24
TORSDOF 18
ENDMDL
