MODEL 1
REMARK VINA RESULT:     -12.1      0.000      0.000
REMARK SMILES CC[C@](C)(NC(=O)[C@H]1CNc2ccccc2O1)C(=O)NCCCNC(=O)c1ccc(-c2c3nc(c(-c4c(F)cc(S(=O)(=O)[O-])cc4F)c4ccc([nH]4)c(-c4c(F)cc(S(=O)(=O)[O-])cc4F)c4nc(c(-c5c(F)cc(S(=O)(=O)[O-])cc5F)c5ccc2[nH]5)C=C4)C=C3)cc1
REMARK SMILES IDX 22 1 21 2 20 3 18 4 19 5 3 7 4 8 2 9 1 10 5 11 6 12 7 14
REMARK SMILES IDX 8 15 9 16 17 17 10 18 16 19 11 20 15 22 12 23 14 24 13 25
REMARK SMILES IDX 23 26 24 27 25 28 26 30 27 31 28 32 92 33 29 34 91 35 30 36
REMARK SMILES IDX 31 37 32 38 85 39 33 40 90 41 84 42 86 43 34 44 89 45 83 46
REMARK SMILES IDX 82 47 35 49 69 50 48 51 68 52 49 53 52 54 67 55 87 56 50 57
REMARK SMILES IDX 51 58 66 60 88 61 53 62 36 63 37 64 46 65 38 66 39 67 45 68
REMARK SMILES IDX 47 69 40 70 41 71 42 72 43 73 44 74 70 75 71 76 80 77 72 78
REMARK SMILES IDX 73 79 79 80 81 81 74 82 75 83 76 84 77 85 78 86 54 87 55 88
REMARK SMILES IDX 64 89 56 90 57 91 63 92 65 93 58 94 59 95 60 96 61 97 62 98
REMARK H PARENT 20 6 5 13 10 21 24 29 86 48 52 59
REMARK Flexibility Score: inf
ROOT
ATOM      1  C   UNL A   1      37.456  23.301  25.498  1.00  0.00     0.042 C 
ENDROOT
BRANCH   1   2
ATOM      2  C   UNL A   1      35.999  23.760  25.442  1.00  0.00     0.117 C 
BRANCH   2   3
ATOM      3  N   UNL A   1      35.368  23.898  24.132  1.00  0.00    -0.354 N 
ATOM      4  C   UNL A   1      34.236  23.372  23.567  1.00  0.00     0.245 C 
ATOM      5  O   UNL A   1      33.837  23.922  22.534  1.00  0.00    -0.272 OA
ATOM      6  H   UNL A   1      35.861  24.497  23.527  1.00  0.00     0.163 HD
BRANCH   4   7
ATOM      7  C   UNL A   1      33.434  22.189  24.198  1.00  0.00     0.116 C 
ATOM      8  C   UNL A   1      34.331  21.003  24.617  1.00  0.00     0.045 C 
BRANCH   7   9
ATOM      9  C   UNL A   1      32.471  21.698  23.059  1.00  0.00     0.035 C 
ATOM     10  C   UNL A   1      32.244  20.186  22.994  1.00  0.00     0.007 C 
ENDBRANCH   7   9
BRANCH   7  11
ATOM     11  N   UNL A   1      32.639  22.588  25.395  1.00  0.00    -0.339 N 
ATOM     12  C   UNL A   1      32.273  23.766  25.991  1.00  0.00     0.263 C 
ATOM     13  H   UNL A   1      32.287  21.807  25.879  1.00  0.00     0.164 HD
ATOM     14  O   UNL A   1      31.981  23.620  27.190  1.00  0.00    -0.271 OA
BRANCH  12  15
ATOM     15  C   UNL A   1      32.149  25.183  25.342  1.00  0.00     0.281 C 
ATOM     16  C   UNL A   1      30.820  25.866  25.581  1.00  0.00     0.168 C 
ATOM     17  O   UNL A   1      33.276  25.951  25.854  1.00  0.00    -0.477 OA
ATOM     18  N   UNL A   1      30.790  27.273  25.265  1.00  0.00    -0.378 N 
ATOM     19  C   UNL A   1      33.097  27.304  26.018  1.00  0.00     0.143 A 
ATOM     20  C   UNL A   1      31.869  27.952  25.817  1.00  0.00     0.077 A 
ATOM     21  H   UNL A   1      30.090  27.700  24.723  1.00  0.00     0.160 HD
ATOM     22  C   UNL A   1      34.199  28.036  26.461  1.00  0.00     0.049 A 
ATOM     23  C   UNL A   1      31.733  29.299  26.165  1.00  0.00     0.029 A 
ATOM     24  C   UNL A   1      34.064  29.396  26.756  1.00  0.00     0.004 A 
ATOM     25  C   UNL A   1      32.821  30.016  26.656  1.00  0.00     0.002 A 
ENDBRANCH  12  15
ENDBRANCH   7  11
ENDBRANCH   4   7
ENDBRANCH   2   3
ENDBRANCH   1   2
BRANCH   1  26
ATOM     26  C   UNL A   1      38.365  23.932  26.548  1.00  0.00     0.118 C 
BRANCH  26  27
ATOM     27  N   UNL A   1      39.778  23.885  26.208  1.00  0.00    -0.352 N 
ATOM     28  C   UNL A   1      40.830  24.670  26.620  1.00  0.00     0.251 C 
ATOM     29  H   UNL A   1      40.023  23.170  25.577  1.00  0.00     0.163 HD
ATOM     30  O   UNL A   1      41.939  24.475  26.120  1.00  0.00    -0.269 OA
BRANCH  28  31
ATOM     31  C   UNL A   1      40.665  25.752  27.626  1.00  0.00     0.039 A 
ATOM     32  C   UNL A   1      39.632  25.654  28.566  1.00  0.00     0.014 A 
ATOM     33  C   UNL A   1      41.475  26.886  27.629  1.00  0.00     0.014 A 
ATOM     34  C   UNL A   1      39.467  26.645  29.545  1.00  0.00     0.010 A 
ATOM     35  C   UNL A   1      41.349  27.842  28.642  1.00  0.00     0.010 A 
ATOM     36  C   UNL A   1      40.348  27.735  29.615  1.00  0.00    -0.014 A 
BRANCH  36  37
ATOM     37  C   UNL A   1      40.294  28.723  30.728  1.00  0.00     0.031 A 
ATOM     38  C   UNL A   1      41.141  28.561  31.965  1.00  0.00     0.074 A 
ATOM     39  C   UNL A   1      39.395  29.727  30.669  1.00  0.00     0.049 A 
ATOM     40  N   UNL A   1      41.194  29.317  33.035  1.00  0.00    -0.248 NA
ATOM     41  C   UNL A   1      42.026  27.388  32.021  1.00  0.00     0.031 C 
ATOM     42  C   UNL A   1      38.454  29.947  29.570  1.00  0.00     0.029 A 
ATOM     43  N   UNL A   1      39.109  30.734  31.557  1.00  0.00    -0.354 N 
ATOM     44  C   UNL A   1      42.115  28.717  33.886  1.00  0.00     0.074 A 
ATOM     45  C   UNL A   1      42.557  27.503  33.231  1.00  0.00     0.031 C 
ATOM     46  C   UNL A   1      37.705  31.028  29.842  1.00  0.00     0.029 A 
ATOM     47  C   UNL A   1      38.090  31.562  31.145  1.00  0.00     0.049 A 
ATOM     48  H   UNL A   1      39.588  30.855  32.410  1.00  0.00     0.167 HD
ATOM     49  C   UNL A   1      42.567  29.149  35.091  1.00  0.00     0.037 A 
ATOM     50  C   UNL A   1      37.523  32.628  31.744  1.00  0.00     0.037 A 
ATOM     51  C   UNL A   1      42.125  30.359  35.737  1.00  0.00     0.049 A 
ATOM     52  C   UNL A   1      38.039  33.090  33.080  1.00  0.00     0.074 A 
ATOM     53  C   UNL A   1      42.583  30.920  36.918  1.00  0.00     0.029 A 
ATOM     54  N   UNL A   1      41.115  31.189  35.271  1.00  0.00    -0.354 N 
ATOM     55  N   UNL A   1      38.994  32.573  33.817  1.00  0.00    -0.248 NA
ATOM     56  C   UNL A   1      37.412  34.285  33.663  1.00  0.00     0.031 C 
ATOM     57  C   UNL A   1      41.815  32.056  37.194  1.00  0.00     0.029 A 
ATOM     58  C   UNL A   1      40.918  32.239  36.155  1.00  0.00     0.049 A 
ATOM     59  H   UNL A   1      40.613  31.052  34.436  1.00  0.00     0.167 HD
ATOM     60  C   UNL A   1      39.104  33.399  34.931  1.00  0.00     0.074 A 
ATOM     61  C   UNL A   1      38.123  34.451  34.770  1.00  0.00     0.031 C 
ATOM     62  C   UNL A   1      39.948  33.294  35.986  1.00  0.00     0.037 A 
BRANCH  49  63
ATOM     63  C   UNL A   1      43.609  28.318  35.794  1.00  0.00     0.058 A 
ATOM     64  C   UNL A   1      43.252  27.301  36.696  1.00  0.00     0.135 A 
ATOM     65  C   UNL A   1      44.975  28.487  35.513  1.00  0.00     0.135 A 
ATOM     66  F   UNL A   1      41.962  27.096  37.007  1.00  0.00    -0.206 F 
ATOM     67  C   UNL A   1      44.210  26.503  37.313  1.00  0.00     0.059 A 
ATOM     68  C   UNL A   1      45.950  27.681  36.097  1.00  0.00     0.059 A 
ATOM     69  F   UNL A   1      45.376  29.437  34.653  1.00  0.00    -0.206 F 
ATOM     70  C   UNL A   1      45.558  26.700  37.007  1.00  0.00     0.060 A 
BRANCH  70  71
ATOM     71  S   UNL A   1      46.788  25.652  37.811  1.00  0.00     0.124 S 
ATOM     72  O   UNL A   1      46.703  24.436  37.005  1.00  0.00    -0.237 OA
ATOM     73  O   UNL A   1      48.015  26.431  37.645  1.00  0.00    -0.237 OA
ATOM     74  O   UNL A   1      46.301  25.536  39.177  1.00  0.00    -0.744 OA
ENDBRANCH  70  71
ENDBRANCH  49  63
BRANCH  50  75
ATOM     75  C   UNL A   1      36.422  33.358  31.061  1.00  0.00     0.058 A 
ATOM     76  C   UNL A   1      35.106  33.289  31.541  1.00  0.00     0.135 A 
ATOM     77  C   UNL A   1      36.666  34.157  29.933  1.00  0.00     0.135 A 
ATOM     78  F   UNL A   1      34.823  32.534  32.613  1.00  0.00    -0.206 F 
ATOM     79  C   UNL A   1      34.067  33.975  30.920  1.00  0.00     0.059 A 
ATOM     80  C   UNL A   1      35.647  34.874  29.311  1.00  0.00     0.059 A 
ATOM     81  F   UNL A   1      37.910  34.271  29.445  1.00  0.00    -0.206 F 
ATOM     82  C   UNL A   1      34.349  34.768  29.807  1.00  0.00     0.060 A 
BRANCH  82  83
ATOM     83  S   UNL A   1      33.001  35.695  29.044  1.00  0.00     0.124 S 
ATOM     84  O   UNL A   1      32.224  36.101  30.212  1.00  0.00    -0.237 OA
ATOM     85  O   UNL A   1      33.716  36.764  28.352  1.00  0.00    -0.237 OA
ATOM     86  O   UNL A   1      32.365  34.712  28.174  1.00  0.00    -0.744 OA
ENDBRANCH  82  83
ENDBRANCH  50  75
BRANCH  62  87
ATOM     87  C   UNL A   1      39.891  34.365  37.042  1.00  0.00     0.058 A 
ATOM     88  C   UNL A   1      40.569  35.585  36.899  1.00  0.00     0.135 A 
ATOM     89  C   UNL A   1      39.080  34.197  38.177  1.00  0.00     0.135 A 
ATOM     90  F   UNL A   1      41.365  35.796  35.838  1.00  0.00    -0.206 F 
ATOM     91  C   UNL A   1      40.453  36.598  37.847  1.00  0.00     0.059 A 
ATOM     92  C   UNL A   1      38.927  35.206  39.123  1.00  0.00     0.059 A 
ATOM     93  F   UNL A   1      38.403  33.053  38.361  1.00  0.00    -0.206 F 
ATOM     94  C   UNL A   1      39.622  36.402  38.953  1.00  0.00     0.060 A 
BRANCH  94  95
ATOM     95  S   UNL A   1      39.430  37.748  40.141  1.00  0.00     0.124 S 
ATOM     96  O   UNL A   1      38.261  38.444  39.613  1.00  0.00    -0.237 OA
ATOM     97  O   UNL A   1      39.226  37.030  41.396  1.00  0.00    -0.237 OA
ATOM     98  O   UNL A   1      40.691  38.474  40.040  1.00  0.00    -0.744 OA
ENDBRANCH  94  95
ENDBRANCH  62  87
ENDBRANCH  36  37
ENDBRANCH  28  31
ENDBRANCH  26  27
ENDBRANCH   1  26
TORSDOF 16
ENDMDL
MODEL 2
REMARK VINA RESULT:     -12.0      1.575      2.316
REMARK SMILES CC[C@](C)(NC(=O)[C@H]1CNc2ccccc2O1)C(=O)NCCCNC(=O)c1ccc(-c2c3nc(c(-c4c(F)cc(S(=O)(=O)[O-])cc4F)c4ccc([nH]4)c(-c4c(F)cc(S(=O)(=O)[O-])cc4F)c4nc(c(-c5c(F)cc(S(=O)(=O)[O-])cc5F)c5ccc2[nH]5)C=C4)C=C3)cc1
REMARK SMILES IDX 22 1 21 2 20 3 18 4 19 5 3 7 4 8 2 9 1 10 5 11 6 12 7 14
REMARK SMILES IDX 8 15 9 16 17 17 10 18 16 19 11 20 15 22 12 23 14 24 13 25
REMARK SMILES IDX 23 26 24 27 25 28 26 30 27 31 28 32 92 33 29 34 91 35 30 36
REMARK SMILES IDX 31 37 32 38 85 39 33 40 90 41 84 42 86 43 34 44 89 45 83 46
REMARK SMILES IDX 82 47 35 49 69 50 48 51 68 52 49 53 52 54 67 55 87 56 50 57
REMARK SMILES IDX 51 58 66 60 88 61 53 62 36 63 37 64 46 65 38 66 39 67 45 68
REMARK SMILES IDX 47 69 40 70 41 71 42 72 43 73 44 74 70 75 71 76 80 77 72 78
REMARK SMILES IDX 73 79 79 80 81 81 74 82 75 83 76 84 77 85 78 86 54 87 55 88
REMARK SMILES IDX 64 89 56 90 57 91 63 92 65 93 58 94 59 95 60 96 61 97 62 98
REMARK H PARENT 20 6 5 13 10 21 24 29 86 48 52 59
REMARK Flexibility Score: inf
ROOT
ATOM      1  C   UNL A   1      37.264  23.231  25.778  1.00  0.00     0.042 C 
ENDROOT
BRANCH   1   2
ATOM      2  C   UNL A   1      35.876  23.747  25.398  1.00  0.00     0.117 C 
BRANCH   2   3
ATOM      3  N   UNL A   1      35.295  23.302  24.136  1.00  0.00    -0.354 N 
ATOM      4  C   UNL A   1      34.323  23.806  23.311  1.00  0.00     0.245 C 
ATOM      5  O   UNL A   1      34.275  23.329  22.172  1.00  0.00    -0.272 OA
ATOM      6  H   UNL A   1      35.685  22.460  23.806  1.00  0.00     0.163 HD
BRANCH   4   7
ATOM      7  C   UNL A   1      33.359  24.961  23.730  1.00  0.00     0.116 C 
ATOM      8  C   UNL A   1      34.042  26.033  24.608  1.00  0.00     0.045 C 
BRANCH   7   9
ATOM      9  C   UNL A   1      32.240  24.267  24.584  1.00  0.00     0.035 C 
ATOM     10  C   UNL A   1      32.071  24.801  26.009  1.00  0.00     0.007 C 
ENDBRANCH   7   9
BRANCH   7  11
ATOM     11  N   UNL A   1      32.744  25.666  22.569  1.00  0.00    -0.339 N 
ATOM     12  C   UNL A   1      31.705  26.538  22.377  1.00  0.00     0.263 C 
ATOM     13  H   UNL A   1      33.202  25.451  21.724  1.00  0.00     0.164 HD
ATOM     14  O   UNL A   1      31.286  26.527  21.208  1.00  0.00    -0.271 OA
BRANCH  12  15
ATOM     15  C   UNL A   1      31.062  27.520  23.410  1.00  0.00     0.281 C 
ATOM     16  C   UNL A   1      31.854  28.788  23.643  1.00  0.00     0.168 C 
ATOM     17  O   UNL A   1      29.715  27.780  22.922  1.00  0.00    -0.477 OA
ATOM     18  N   UNL A   1      31.145  29.832  24.342  1.00  0.00    -0.378 N 
ATOM     19  C   UNL A   1      29.174  29.016  23.185  1.00  0.00     0.143 A 
ATOM     20  C   UNL A   1      29.886  30.057  23.800  1.00  0.00     0.077 A 
ATOM     21  H   UNL A   1      31.510  30.325  25.111  1.00  0.00     0.160 HD
ATOM     22  C   UNL A   1      27.865  29.235  22.756  1.00  0.00     0.049 A 
ATOM     23  C   UNL A   1      29.316  31.331  23.880  1.00  0.00     0.029 A 
ATOM     24  C   UNL A   1      27.287  30.501  22.889  1.00  0.00     0.004 A 
ATOM     25  C   UNL A   1      28.028  31.560  23.405  1.00  0.00     0.002 A 
ENDBRANCH  12  15
ENDBRANCH   7  11
ENDBRANCH   4   7
ENDBRANCH   2   3
ENDBRANCH   1   2
BRANCH   1  26
ATOM     26  C   UNL A   1      38.211  24.186  26.498  1.00  0.00     0.118 C 
BRANCH  26  27
ATOM     27  N   UNL A   1      39.484  24.376  25.819  1.00  0.00    -0.352 N 
ATOM     28  C   UNL A   1      40.544  25.204  26.108  1.00  0.00     0.251 C 
ATOM     29  H   UNL A   1      39.607  23.816  25.019  1.00  0.00     0.163 HD
ATOM     30  O   UNL A   1      41.492  25.238  25.323  1.00  0.00    -0.269 OA
BRANCH  28  31
ATOM     31  C   UNL A   1      40.567  26.069  27.317  1.00  0.00     0.039 A 
ATOM     32  C   UNL A   1      41.506  27.105  27.393  1.00  0.00     0.014 A 
ATOM     33  C   UNL A   1      39.717  25.848  28.399  1.00  0.00     0.014 A 
ATOM     34  C   UNL A   1      41.536  27.957  28.508  1.00  0.00     0.010 A 
ATOM     35  C   UNL A   1      39.706  26.734  29.481  1.00  0.00     0.010 A 
ATOM     36  C   UNL A   1      40.609  27.801  29.550  1.00  0.00    -0.014 A 
BRANCH  36  37
ATOM     37  C   UNL A   1      40.515  28.774  30.674  1.00  0.00     0.031 A 
ATOM     38  C   UNL A   1      41.351  28.621  31.919  1.00  0.00     0.074 A 
ATOM     39  C   UNL A   1      39.590  29.755  30.615  1.00  0.00     0.049 A 
ATOM     40  N   UNL A   1      41.370  29.365  32.998  1.00  0.00    -0.248 NA
ATOM     41  C   UNL A   1      42.266  27.470  31.973  1.00  0.00     0.031 C 
ATOM     42  C   UNL A   1      38.657  29.962  29.506  1.00  0.00     0.029 A 
ATOM     43  N   UNL A   1      39.266  30.743  31.511  1.00  0.00    -0.354 N 
ATOM     44  C   UNL A   1      42.296  28.780  33.854  1.00  0.00     0.074 A 
ATOM     45  C   UNL A   1      42.779  27.586  33.192  1.00  0.00     0.031 C 
ATOM     46  C   UNL A   1      37.876  31.019  29.781  1.00  0.00     0.029 A 
ATOM     47  C   UNL A   1      38.230  31.548  31.095  1.00  0.00     0.049 A 
ATOM     48  H   UNL A   1      39.731  30.866  32.370  1.00  0.00     0.167 HD
ATOM     49  C   UNL A   1      42.721  29.209  35.069  1.00  0.00     0.037 A 
ATOM     50  C   UNL A   1      37.628  32.592  31.699  1.00  0.00     0.037 A 
ATOM     51  C   UNL A   1      42.239  30.400  35.723  1.00  0.00     0.049 A 
ATOM     52  C   UNL A   1      38.115  33.051  33.047  1.00  0.00     0.074 A 
ATOM     53  C   UNL A   1      42.668  30.959  36.916  1.00  0.00     0.029 A 
ATOM     54  N   UNL A   1      41.213  31.208  35.254  1.00  0.00    -0.354 N 
ATOM     55  N   UNL A   1      39.074  32.552  33.789  1.00  0.00    -0.248 NA
ATOM     56  C   UNL A   1      37.449  34.223  33.635  1.00  0.00     0.031 C 
ATOM     57  C   UNL A   1      41.866  32.071  37.196  1.00  0.00     0.029 A 
ATOM     58  C   UNL A   1      40.978  32.242  36.148  1.00  0.00     0.049 A 
ATOM     59  H   UNL A   1      40.725  31.068  34.412  1.00  0.00     0.167 HD
ATOM     60  C   UNL A   1      39.148  33.367  34.914  1.00  0.00     0.074 A 
ATOM     61  C   UNL A   1      38.141  34.395  34.753  1.00  0.00     0.031 C 
ATOM     62  C   UNL A   1      39.981  33.273  35.978  1.00  0.00     0.037 A 
BRANCH  49  63
ATOM     63  C   UNL A   1      43.777  28.399  35.777  1.00  0.00     0.058 A 
ATOM     64  C   UNL A   1      43.436  27.369  36.670  1.00  0.00     0.135 A 
ATOM     65  C   UNL A   1      45.141  28.599  35.506  1.00  0.00     0.135 A 
ATOM     66  F   UNL A   1      42.149  27.134  36.971  1.00  0.00    -0.206 F 
ATOM     67  C   UNL A   1      44.407  26.590  37.290  1.00  0.00     0.059 A 
ATOM     68  C   UNL A   1      46.129  27.813  36.093  1.00  0.00     0.059 A 
ATOM     69  F   UNL A   1      45.526  29.563  34.654  1.00  0.00    -0.206 F 
ATOM     70  C   UNL A   1      45.752  26.818  36.996  1.00  0.00     0.060 A 
BRANCH  70  71
ATOM     71  S   UNL A   1      46.999  25.794  37.803  1.00  0.00     0.124 S 
ATOM     72  O   UNL A   1      48.055  25.772  36.794  1.00  0.00    -0.237 OA
ATOM     73  O   UNL A   1      47.300  26.564  39.010  1.00  0.00    -0.237 OA
ATOM     74  O   UNL A   1      46.315  24.529  38.025  1.00  0.00    -0.744 OA
ENDBRANCH  70  71
ENDBRANCH  49  63
BRANCH  50  75
ATOM     75  C   UNL A   1      36.516  33.299  31.010  1.00  0.00     0.058 A 
ATOM     76  C   UNL A   1      35.191  33.160  31.449  1.00  0.00     0.135 A 
ATOM     77  C   UNL A   1      36.757  34.149  29.919  1.00  0.00     0.135 A 
ATOM     78  F   UNL A   1      34.911  32.354  32.485  1.00  0.00    -0.206 F 
ATOM     79  C   UNL A   1      34.141  33.824  30.823  1.00  0.00     0.059 A 
ATOM     80  C   UNL A   1      35.726  34.845  29.293  1.00  0.00     0.059 A 
ATOM     81  F   UNL A   1      38.008  34.331  29.471  1.00  0.00    -0.206 F 
ATOM     82  C   UNL A   1      34.420  34.668  29.747  1.00  0.00     0.060 A 
BRANCH  82  83
ATOM     83  S   UNL A   1      33.055  35.566  28.978  1.00  0.00     0.124 S 
ATOM     84  O   UNL A   1      33.756  36.677  28.342  1.00  0.00    -0.237 OA
ATOM     85  O   UNL A   1      32.499  34.563  28.076  1.00  0.00    -0.237 OA
ATOM     86  O   UNL A   1      32.205  35.921  30.110  1.00  0.00    -0.744 OA
ENDBRANCH  82  83
ENDBRANCH  50  75
BRANCH  62  87
ATOM     87  C   UNL A   1      39.882  34.330  37.046  1.00  0.00     0.058 A 
ATOM     88  C   UNL A   1      40.548  35.559  36.935  1.00  0.00     0.135 A 
ATOM     89  C   UNL A   1      39.044  34.137  38.157  1.00  0.00     0.135 A 
ATOM     90  F   UNL A   1      41.370  35.793  35.899  1.00  0.00    -0.206 F 
ATOM     91  C   UNL A   1      40.394  36.558  37.892  1.00  0.00     0.059 A 
ATOM     92  C   UNL A   1      38.853  35.132  39.111  1.00  0.00     0.059 A 
ATOM     93  F   UNL A   1      38.377  32.982  38.308  1.00  0.00    -0.206 F 
ATOM     94  C   UNL A   1      39.537  36.338  38.973  1.00  0.00     0.060 A 
BRANCH  94  95
ATOM     95  S   UNL A   1      39.296  37.667  40.173  1.00  0.00     0.124 S 
ATOM     96  O   UNL A   1      40.599  38.324  40.151  1.00  0.00    -0.237 OA
ATOM     97  O   UNL A   1      38.196  38.423  39.584  1.00  0.00    -0.237 OA
ATOM     98  O   UNL A   1      38.972  36.958  41.406  1.00  0.00    -0.744 OA
ENDBRANCH  94  95
ENDBRANCH  62  87
ENDBRANCH  36  37
ENDBRANCH  28  31
ENDBRANCH  26  27
ENDBRANCH   1  26
TORSDOF 16
ENDMDL
MODEL 3
REMARK VINA RESULT:     -12.0      1.122      3.586
REMARK SMILES CC[C@](C)(NC(=O)[C@H]1CNc2ccccc2O1)C(=O)NCCCNC(=O)c1ccc(-c2c3nc(c(-c4c(F)cc(S(=O)(=O)[O-])cc4F)c4ccc([nH]4)c(-c4c(F)cc(S(=O)(=O)[O-])cc4F)c4nc(c(-c5c(F)cc(S(=O)(=O)[O-])cc5F)c5ccc2[nH]5)C=C4)C=C3)cc1
REMARK SMILES IDX 22 1 21 2 20 3 18 4 19 5 3 7 4 8 2 9 1 10 5 11 6 12 7 14
REMARK SMILES IDX 8 15 9 16 17 17 10 18 16 19 11 20 15 22 12 23 14 24 13 25
REMARK SMILES IDX 23 26 24 27 25 28 26 30 27 31 28 32 92 33 29 34 91 35 30 36
REMARK SMILES IDX 31 37 32 38 85 39 33 40 90 41 84 42 86 43 34 44 89 45 83 46
REMARK SMILES IDX 82 47 35 49 69 50 48 51 68 52 49 53 52 54 67 55 87 56 50 57
REMARK SMILES IDX 51 58 66 60 88 61 53 62 36 63 37 64 46 65 38 66 39 67 45 68
REMARK SMILES IDX 47 69 40 70 41 71 42 72 43 73 44 74 70 75 71 76 80 77 72 78
REMARK SMILES IDX 73 79 79 80 81 81 74 82 75 83 76 84 77 85 78 86 54 87 55 88
REMARK SMILES IDX 64 89 56 90 57 91 63 92 65 93 58 94 59 95 60 96 61 97 62 98
REMARK H PARENT 20 6 5 13 10 21 24 29 86 48 52 59
REMARK Flexibility Score: inf
ROOT
ATOM      1  C   UNL A   1      37.400  23.978  25.658  1.00  0.00     0.042 C 
ENDROOT
BRANCH   1   2
ATOM      2  C   UNL A   1      36.407  22.852  25.369  1.00  0.00     0.117 C 
BRANCH   2   3
ATOM      3  N   UNL A   1      35.310  22.642  26.308  1.00  0.00    -0.354 N 
ATOM      4  C   UNL A   1      34.027  23.119  26.387  1.00  0.00     0.245 C 
ATOM      5  O   UNL A   1      33.267  22.515  27.152  1.00  0.00    -0.272 OA
ATOM      6  H   UNL A   1      35.539  22.025  27.040  1.00  0.00     0.163 HD
BRANCH   4   7
ATOM      7  C   UNL A   1      33.504  24.314  25.527  1.00  0.00     0.116 C 
ATOM      8  C   UNL A   1      34.299  25.618  25.753  1.00  0.00     0.045 C 
BRANCH   7   9
ATOM      9  C   UNL A   1      32.029  24.547  26.011  1.00  0.00     0.035 C 
ATOM     10  C   UNL A   1      31.680  25.989  26.390  1.00  0.00     0.007 C 
ENDBRANCH   7   9
BRANCH   7  11
ATOM     11  N   UNL A   1      33.517  24.035  24.062  1.00  0.00    -0.339 N 
ATOM     12  C   UNL A   1      33.415  22.926  23.265  1.00  0.00     0.263 C 
ATOM     13  H   UNL A   1      33.625  24.858  23.533  1.00  0.00     0.164 HD
ATOM     14  O   UNL A   1      33.904  23.105  22.138  1.00  0.00    -0.271 OA
BRANCH  12  15
ATOM     15  C   UNL A   1      32.744  21.553  23.597  1.00  0.00     0.281 C 
ATOM     16  C   UNL A   1      32.128  20.854  22.404  1.00  0.00     0.168 C 
ATOM     17  O   UNL A   1      33.776  20.755  24.245  1.00  0.00    -0.477 OA
ATOM     18  N   UNL A   1      31.782  19.470  22.618  1.00  0.00    -0.378 N 
ATOM     19  C   UNL A   1      33.735  19.395  24.057  1.00  0.00     0.143 A 
ATOM     20  C   UNL A   1      32.824  18.759  23.201  1.00  0.00     0.077 A 
ATOM     21  H   UNL A   1      30.912  19.077  22.380  1.00  0.00     0.160 HD
ATOM     22  C   UNL A   1      34.698  18.638  24.724  1.00  0.00     0.049 A 
ATOM     23  C   UNL A   1      32.958  17.391  22.941  1.00  0.00     0.029 A 
ATOM     24  C   UNL A   1      34.790  17.261  24.496  1.00  0.00     0.004 A 
ATOM     25  C   UNL A   1      33.953  16.647  23.568  1.00  0.00     0.002 A 
ENDBRANCH  12  15
ENDBRANCH   7  11
ENDBRANCH   4   7
ENDBRANCH   2   3
ENDBRANCH   1   2
BRANCH   1  26
ATOM     26  C   UNL A   1      38.486  23.725  26.699  1.00  0.00     0.118 C 
BRANCH  26  27
ATOM     27  N   UNL A   1      39.839  23.851  26.179  1.00  0.00    -0.352 N 
ATOM     28  C   UNL A   1      40.828  24.768  26.454  1.00  0.00     0.251 C 
ATOM     29  H   UNL A   1      40.090  23.163  25.521  1.00  0.00     0.163 HD
ATOM     30  O   UNL A   1      41.879  24.705  25.815  1.00  0.00    -0.269 OA
BRANCH  28  31
ATOM     31  C   UNL A   1      40.657  25.836  27.473  1.00  0.00     0.039 A 
ATOM     32  C   UNL A   1      39.642  25.707  28.429  1.00  0.00     0.014 A 
ATOM     33  C   UNL A   1      41.443  26.987  27.475  1.00  0.00     0.014 A 
ATOM     34  C   UNL A   1      39.473  26.684  29.421  1.00  0.00     0.010 A 
ATOM     35  C   UNL A   1      41.314  27.929  28.500  1.00  0.00     0.010 A 
ATOM     36  C   UNL A   1      40.332  27.791  29.488  1.00  0.00    -0.014 A 
BRANCH  36  37
ATOM     37  C   UNL A   1      40.277  28.767  30.612  1.00  0.00     0.031 A 
ATOM     38  C   UNL A   1      41.124  28.594  31.846  1.00  0.00     0.074 A 
ATOM     39  C   UNL A   1      39.375  29.770  30.565  1.00  0.00     0.049 A 
ATOM     40  N   UNL A   1      41.175  29.337  32.925  1.00  0.00    -0.248 NA
ATOM     41  C   UNL A   1      42.012  27.421  31.889  1.00  0.00     0.031 C 
ATOM     42  C   UNL A   1      38.433  30.000  29.468  1.00  0.00     0.029 A 
ATOM     43  N   UNL A   1      39.087  30.766  31.464  1.00  0.00    -0.354 N 
ATOM     44  C   UNL A   1      42.098  28.730  33.769  1.00  0.00     0.074 A 
ATOM     45  C   UNL A   1      42.543  27.525  33.101  1.00  0.00     0.031 C 
ATOM     46  C   UNL A   1      37.681  31.075  29.752  1.00  0.00     0.029 A 
ATOM     47  C   UNL A   1      38.066  31.596  31.061  1.00  0.00     0.049 A 
ATOM     48  H   UNL A   1      39.566  30.878  32.317  1.00  0.00     0.167 HD
ATOM     49  C   UNL A   1      42.549  29.149  34.978  1.00  0.00     0.037 A 
ATOM     50  C   UNL A   1      37.496  32.654  31.672  1.00  0.00     0.037 A 
ATOM     51  C   UNL A   1      42.105  30.352  35.638  1.00  0.00     0.049 A 
ATOM     52  C   UNL A   1      38.012  33.102  33.013  1.00  0.00     0.074 A 
ATOM     53  C   UNL A   1      42.562  30.901  36.825  1.00  0.00     0.029 A 
ATOM     54  N   UNL A   1      41.093  31.185  35.181  1.00  0.00    -0.354 N 
ATOM     55  N   UNL A   1      38.968  32.579  33.743  1.00  0.00    -0.248 NA
ATOM     56  C   UNL A   1      37.382  34.290  33.609  1.00  0.00     0.031 C 
ATOM     57  C   UNL A   1      41.792  32.032  37.114  1.00  0.00     0.029 A 
ATOM     58  C   UNL A   1      40.894  32.224  36.078  1.00  0.00     0.049 A 
ATOM     59  H   UNL A   1      40.590  31.056  34.345  1.00  0.00     0.167 HD
ATOM     60  C   UNL A   1      39.076  33.393  34.866  1.00  0.00     0.074 A 
ATOM     61  C   UNL A   1      38.093  34.445  34.718  1.00  0.00     0.031 C 
ATOM     62  C   UNL A   1      39.921  33.279  35.920  1.00  0.00     0.037 A 
BRANCH  49  63
ATOM     63  C   UNL A   1      43.594  28.314  35.672  1.00  0.00     0.058 A 
ATOM     64  C   UNL A   1      44.966  28.537  35.470  1.00  0.00     0.135 A 
ATOM     65  C   UNL A   1      43.226  27.329  36.605  1.00  0.00     0.135 A 
ATOM     66  F   UNL A   1      45.377  29.462  34.589  1.00  0.00    -0.206 F 
ATOM     67  C   UNL A   1      45.933  27.797  36.144  1.00  0.00     0.059 A 
ATOM     68  C   UNL A   1      44.176  26.596  37.312  1.00  0.00     0.059 A 
ATOM     69  F   UNL A   1      41.929  27.077  36.845  1.00  0.00    -0.206 F 
ATOM     70  C   UNL A   1      45.529  26.829  37.063  1.00  0.00     0.060 A 
BRANCH  70  71
ATOM     71  S   UNL A   1      46.796  25.883  37.934  1.00  0.00     0.124 S 
ATOM     72  O   UNL A   1      47.849  26.883  38.089  1.00  0.00    -0.237 OA
ATOM     73  O   UNL A   1      46.106  25.501  39.166  1.00  0.00    -0.237 OA
ATOM     74  O   UNL A   1      47.096  24.789  37.023  1.00  0.00    -0.744 OA
ENDBRANCH  70  71
ENDBRANCH  49  63
BRANCH  50  75
ATOM     75  C   UNL A   1      36.393  33.389  30.997  1.00  0.00     0.058 A 
ATOM     76  C   UNL A   1      35.079  33.317  31.481  1.00  0.00     0.135 A 
ATOM     77  C   UNL A   1      36.634  34.196  29.874  1.00  0.00     0.135 A 
ATOM     78  F   UNL A   1      34.799  32.554  32.548  1.00  0.00    -0.206 F 
ATOM     79  C   UNL A   1      34.038  34.007  30.868  1.00  0.00     0.059 A 
ATOM     80  C   UNL A   1      35.614  34.918  29.260  1.00  0.00     0.059 A 
ATOM     81  F   UNL A   1      37.877  34.313  29.384  1.00  0.00    -0.206 F 
ATOM     82  C   UNL A   1      34.317  34.808  29.760  1.00  0.00     0.060 A 
BRANCH  82  83
ATOM     83  S   UNL A   1      32.966  35.741  29.007  1.00  0.00     0.124 S 
ATOM     84  O   UNL A   1      32.400  34.753  28.094  1.00  0.00    -0.237 OA
ATOM     85  O   UNL A   1      32.146  36.082  30.166  1.00  0.00    -0.237 OA
ATOM     86  O   UNL A   1      33.646  36.868  28.376  1.00  0.00    -0.744 OA
ENDBRANCH  82  83
ENDBRANCH  50  75
BRANCH  62  87
ATOM     87  C   UNL A   1      39.862  34.338  36.988  1.00  0.00     0.058 A 
ATOM     88  C   UNL A   1      40.578  35.539  36.882  1.00  0.00     0.135 A 
ATOM     89  C   UNL A   1      39.011  34.179  38.095  1.00  0.00     0.135 A 
ATOM     90  F   UNL A   1      41.413  35.740  35.849  1.00  0.00    -0.206 F 
ATOM     91  C   UNL A   1      40.462  36.543  37.839  1.00  0.00     0.059 A 
ATOM     92  C   UNL A   1      38.858  35.181  39.050  1.00  0.00     0.059 A 
ATOM     93  F   UNL A   1      38.297  33.053  38.244  1.00  0.00    -0.206 F 
ATOM     94  C   UNL A   1      39.592  36.358  38.916  1.00  0.00     0.060 A 
BRANCH  94  95
ATOM     95  S   UNL A   1      39.402  37.694  40.116  1.00  0.00     0.124 S 
ATOM     96  O   UNL A   1      38.196  38.358  39.630  1.00  0.00    -0.237 OA
ATOM     97  O   UNL A   1      39.261  36.967  41.374  1.00  0.00    -0.237 OA
ATOM     98  O   UNL A   1      40.638  38.456  39.976  1.00  0.00    -0.744 OA
ENDBRANCH  94  95
ENDBRANCH  62  87
ENDBRANCH  36  37
ENDBRANCH  28  31
ENDBRANCH  26  27
ENDBRANCH   1  26
TORSDOF 16
ENDMDL
