MODEL 1
REMARK VINA RESULT:     -13.7      0.000      0.000
REMARK SMILES O=C(COc1ccccc1/C=C1/SC(=S)N(c2ccc(F)c(Cl)c2)C1=O)NCCCNC(=O)c1ccc(-c2c3nc(c(-c4c(F)cc(S(=O)(=O)[O-])cc4F)c4ccc([nH]4)c(-c4c(F)cc(S(=O)(=O)[O-])cc4F)c4nc(c(-c5c(F)cc(S(=O)(=O)[O-])cc5F)c5ccc2[nH]5)C=C4)C=C3)cc1
REMARK SMILES IDX 28 1 27 2 1 3 2 4 3 6 4 7 5 8 6 9 10 10 7 11 9 12 8 13 11 14
REMARK SMILES IDX 12 15 13 16 25 17 14 18 16 19 26 20 15 21 17 22 18 23 24 24
REMARK SMILES IDX 19 25 22 26 20 27 23 28 21 29 29 30 30 31 31 32 32 33 33 35
REMARK SMILES IDX 34 36 35 37 99 38 36 39 98 40 37 41 38 42 39 43 92 44 40 45
REMARK SMILES IDX 97 46 91 47 93 48 41 49 96 50 90 51 89 52 42 54 76 55 55 56
REMARK SMILES IDX 75 57 56 58 59 59 74 60 94 61 57 62 58 63 73 65 95 66 60 67
REMARK SMILES IDX 43 68 44 69 53 70 45 71 46 72 52 73 54 74 47 75 48 76 49 77
REMARK SMILES IDX 50 78 51 79 77 80 78 81 87 82 79 83 80 84 86 85 88 86 81 87
REMARK SMILES IDX 82 88 83 89 84 90 85 91 61 92 62 93 71 94 63 95 64 96 70 97
REMARK SMILES IDX 72 98 65 99 66 100 67 101 68 102 69 103
REMARK H PARENT 27 5 31 34 93 53 59 64
REMARK Flexibility Score: inf
ROOT
ATOM      1  C   UNL A   1      39.484  23.061  26.787  1.00  0.00     0.117 C 
ENDROOT
BRANCH   1   2
ATOM      2  N   UNL A   1      37.692  22.267  25.984  1.00  0.00    -0.353 N 
ATOM      3  O   UNL A   1      36.823  22.506  23.642  1.00  0.00    -0.271 OA
ATOM      4  C   UNL A   1      36.852  21.960  24.743  1.00  0.00     0.257 C 
ATOM      5  H   UNL A   1      37.163  21.957  26.755  1.00  0.00     0.163 HD
BRANCH   4   6
ATOM      6  C   UNL A   1      36.015  20.694  24.912  1.00  0.00     0.329 C 
BRANCH   6   7
ATOM      7  O   UNL A   1      34.635  20.890  24.740  1.00  0.00    -0.483 OA
BRANCH   7   8
ATOM      8  C   UNL A   1      33.987  21.790  25.562  1.00  0.00     0.127 A 
ATOM      9  C   UNL A   1      34.077  21.353  26.893  1.00  0.00     0.047 A 
ATOM     10  C   UNL A   1      33.056  22.806  25.186  1.00  0.00     0.018 A 
ATOM     11  C   UNL A   1      33.209  21.840  27.859  1.00  0.00     0.004 A 
ATOM     12  C   UNL A   1      32.196  23.285  26.192  1.00  0.00     0.012 A 
ATOM     13  C   UNL A   1      32.256  22.789  27.505  1.00  0.00     0.001 A 
BRANCH  10  14
ATOM     14  C   UNL A   1      32.689  23.157  23.780  1.00  0.00     0.033 C 
ATOM     15  C   UNL A   1      33.203  24.319  23.310  1.00  0.00     0.081 C 
ATOM     16  S   UNL A   1      31.965  25.732  21.957  1.00  0.00    -0.054 SA
ATOM     17  C   UNL A   1      34.155  25.364  24.669  1.00  0.00     0.270 C 
ATOM     18  C   UNL A   1      32.688  27.591  23.311  1.00  0.00     0.152 C 
ATOM     19  N   UNL A   1      33.599  26.979  24.688  1.00  0.00    -0.261 N 
ATOM     20  O   UNL A   1      35.099  24.963  25.338  1.00  0.00    -0.268 OA
ATOM     21  S   UNL A   1      34.164  28.914  23.126  1.00  0.00    -0.051 S 
BRANCH  19  22
ATOM     22  C   UNL A   1      33.481  27.889  25.822  1.00  0.00     0.052 A 
ATOM     23  C   UNL A   1      34.580  28.200  26.606  1.00  0.00     0.030 A 
ATOM     24  C   UNL A   1      32.389  28.811  25.746  1.00  0.00     0.050 A 
ATOM     25  C   UNL A   1      34.652  29.492  27.163  1.00  0.00     0.043 A 
ATOM     26  C   UNL A   1      32.485  30.092  26.278  1.00  0.00     0.078 A 
ATOM     27  C   UNL A   1      33.632  30.435  26.969  1.00  0.00     0.141 A 
ATOM     28  Cl  UNL A   1      31.241  31.237  25.946  1.00  0.00    -0.081 Cl
ATOM     29  F   UNL A   1      33.799  31.683  27.429  1.00  0.00    -0.205 F 
ENDBRANCH  19  22
ENDBRANCH  10  14
ENDBRANCH   7   8
ENDBRANCH   6   7
ENDBRANCH   4   6
ENDBRANCH   1   2
BRANCH   1  30
ATOM     30  C   UNL A   1      41.250  22.378  26.342  1.00  0.00     0.042 C 
BRANCH  30  31
ATOM     31  C   UNL A   1      42.739  23.225  26.211  1.00  0.00     0.118 C 
BRANCH  31  32
ATOM     32  N   UNL A   1      42.820  24.658  25.815  1.00  0.00    -0.352 N 
ATOM     33  C   UNL A   1      41.865  25.654  25.927  1.00  0.00     0.251 C 
ATOM     34  H   UNL A   1      43.675  24.937  25.415  1.00  0.00     0.163 HD
ATOM     35  O   UNL A   1      41.476  26.397  25.025  1.00  0.00    -0.269 OA
BRANCH  33  36
ATOM     36  C   UNL A   1      41.766  26.262  27.206  1.00  0.00     0.039 A 
ATOM     37  C   UNL A   1      40.771  25.879  28.100  1.00  0.00     0.014 A 
ATOM     38  C   UNL A   1      42.484  27.460  27.258  1.00  0.00     0.014 A 
ATOM     39  C   UNL A   1      40.536  26.723  29.154  1.00  0.00     0.010 A 
ATOM     40  C   UNL A   1      42.274  28.278  28.315  1.00  0.00     0.010 A 
ATOM     41  C   UNL A   1      41.305  27.894  29.245  1.00  0.00    -0.014 A 
BRANCH  41  42
ATOM     42  C   UNL A   1      41.183  28.766  30.387  1.00  0.00     0.031 A 
ATOM     43  C   UNL A   1      42.062  28.510  31.553  1.00  0.00     0.074 A 
ATOM     44  C   UNL A   1      40.137  29.601  30.327  1.00  0.00     0.049 A 
ATOM     45  N   UNL A   1      42.026  29.064  32.724  1.00  0.00    -0.248 NA
ATOM     46  C   UNL A   1      43.075  27.443  31.409  1.00  0.00     0.031 C 
ATOM     47  C   UNL A   1      39.208  29.719  29.190  1.00  0.00     0.029 A 
ATOM     48  N   UNL A   1      39.663  30.484  31.236  1.00  0.00    -0.354 N 
ATOM     49  C   UNL A   1      42.998  28.411  33.466  1.00  0.00     0.074 A 
ATOM     50  C   UNL A   1      43.563  27.371  32.639  1.00  0.00     0.031 C 
ATOM     51  C   UNL A   1      38.299  30.663  29.461  1.00  0.00     0.029 A 
ATOM     52  C   UNL A   1      38.572  31.182  30.790  1.00  0.00     0.049 A 
ATOM     53  H   UNL A   1      40.062  30.611  32.127  1.00  0.00     0.167 HD
ATOM     54  C   UNL A   1      43.378  28.705  34.726  1.00  0.00     0.037 A 
ATOM     55  C   UNL A   1      37.901  32.157  31.417  1.00  0.00     0.037 A 
ATOM     56  C   UNL A   1      42.762  29.782  35.457  1.00  0.00     0.049 A 
ATOM     57  C   UNL A   1      38.433  32.546  32.762  1.00  0.00     0.074 A 
ATOM     58  C   UNL A   1      43.052  30.264  36.714  1.00  0.00     0.029 A 
ATOM     59  N   UNL A   1      41.718  30.561  34.953  1.00  0.00    -0.354 N 
ATOM     60  N   UNL A   1      39.398  31.979  33.457  1.00  0.00    -0.248 NA
ATOM     61  C   UNL A   1      37.826  33.711  33.398  1.00  0.00     0.031 C 
ATOM     62  C   UNL A   1      42.172  31.323  36.978  1.00  0.00     0.029 A 
ATOM     63  C   UNL A   1      41.357  31.527  35.870  1.00  0.00     0.049 A 
ATOM     64  H   UNL A   1      41.300  30.437  34.071  1.00  0.00     0.167 HD
ATOM     65  C   UNL A   1      39.528  32.725  34.613  1.00  0.00     0.074 A 
ATOM     66  C   UNL A   1      38.554  33.804  34.501  1.00  0.00     0.031 C 
ATOM     67  C   UNL A   1      40.356  32.551  35.675  1.00  0.00     0.037 A 
BRANCH  54  68
ATOM     68  C   UNL A   1      44.476  27.879  35.334  1.00  0.00     0.058 A 
ATOM     69  C   UNL A   1      45.832  28.200  35.145  1.00  0.00     0.135 A 
ATOM     70  C   UNL A   1      44.181  26.735  36.090  1.00  0.00     0.135 A 
ATOM     71  F   UNL A   1      46.179  29.266  34.405  1.00  0.00    -0.206 F 
ATOM     72  C   UNL A   1      46.852  27.406  35.659  1.00  0.00     0.059 A 
ATOM     73  C   UNL A   1      45.186  25.940  36.639  1.00  0.00     0.059 A 
ATOM     74  F   UNL A   1      42.905  26.365  36.287  1.00  0.00    -0.206 F 
ATOM     75  C   UNL A   1      46.518  26.277  36.407  1.00  0.00     0.060 A 
BRANCH  75  76
ATOM     76  S   UNL A   1      47.852  25.268  37.089  1.00  0.00     0.124 S 
ATOM     77  O   UNL A   1      47.370  25.020  38.444  1.00  0.00    -0.237 OA
ATOM     78  O   UNL A   1      47.857  24.112  36.198  1.00  0.00    -0.237 OA
ATOM     79  O   UNL A   1      49.021  26.136  36.987  1.00  0.00    -0.744 OA
ENDBRANCH  75  76
ENDBRANCH  54  68
BRANCH  55  80
ATOM     80  C   UNL A   1      36.788  32.844  30.724  1.00  0.00     0.058 A 
ATOM     81  C   UNL A   1      35.456  32.569  31.064  1.00  0.00     0.135 A 
ATOM     82  C   UNL A   1      37.027  33.864  29.788  1.00  0.00     0.135 A 
ATOM     83  F   UNL A   1      35.179  31.630  31.982  1.00  0.00    -0.206 F 
ATOM     84  C   UNL A   1      34.398  33.255  30.478  1.00  0.00     0.059 A 
ATOM     85  C   UNL A   1      35.986  34.579  29.205  1.00  0.00     0.059 A 
ATOM     86  F   UNL A   1      38.286  34.205  29.471  1.00  0.00    -0.206 F 
ATOM     87  C   UNL A   1      34.673  34.257  29.546  1.00  0.00     0.060 A 
BRANCH  87  88
ATOM     88  S   UNL A   1      33.292  35.161  28.814  1.00  0.00     0.124 S 
ATOM     89  O   UNL A   1      32.664  34.125  28.001  1.00  0.00    -0.237 OA
ATOM     90  O   UNL A   1      32.545  35.591  29.991  1.00  0.00    -0.237 OA
ATOM     91  O   UNL A   1      33.948  36.234  28.071  1.00  0.00    -0.744 OA
ENDBRANCH  87  88
ENDBRANCH  55  80
BRANCH  67  92
ATOM     92  C   UNL A   1      40.210  33.560  36.767  1.00  0.00     0.058 A 
ATOM     93  C   UNL A   1      41.015  34.707  36.804  1.00  0.00     0.135 A 
ATOM     94  C   UNL A   1      39.256  33.373  37.777  1.00  0.00     0.135 A 
ATOM     95  F   UNL A   1      41.944  34.914  35.856  1.00  0.00    -0.206 F 
ATOM     96  C   UNL A   1      40.913  35.618  37.843  1.00  0.00     0.059 A 
ATOM     97  C   UNL A   1      39.115  34.289  38.808  1.00  0.00     0.059 A 
ATOM     98  F   UNL A   1      38.458  32.293  37.766  1.00  0.00    -0.206 F 
ATOM     99  C   UNL A   1      39.964  35.395  38.843  1.00  0.00     0.060 A 
BRANCH  99 100
ATOM    100  S   UNL A   1      39.846  36.579  40.195  1.00  0.00     0.124 S 
ATOM    101  O   UNL A   1      39.555  35.700  41.324  1.00  0.00    -0.237 OA
ATOM    102  O   UNL A   1      41.171  37.191  40.193  1.00  0.00    -0.237 OA
ATOM    103  O   UNL A   1      38.756  37.456  39.781  1.00  0.00    -0.744 OA
ENDBRANCH  99 100
ENDBRANCH  67  92
ENDBRANCH  41  42
ENDBRANCH  33  36
ENDBRANCH  31  32
ENDBRANCH  30  31
ENDBRANCH   1  30
TORSDOF 17
ENDMDL
MODEL 2
REMARK VINA RESULT:     -13.2      6.054      8.050
REMARK SMILES O=C(COc1ccccc1/C=C1/SC(=S)N(c2ccc(F)c(Cl)c2)C1=O)NCCCNC(=O)c1ccc(-c2c3nc(c(-c4c(F)cc(S(=O)(=O)[O-])cc4F)c4ccc([nH]4)c(-c4c(F)cc(S(=O)(=O)[O-])cc4F)c4nc(c(-c5c(F)cc(S(=O)(=O)[O-])cc5F)c5ccc2[nH]5)C=C4)C=C3)cc1
REMARK SMILES IDX 28 1 27 2 1 3 2 4 3 6 4 7 5 8 6 9 10 10 7 11 9 12 8 13 11 14
REMARK SMILES IDX 12 15 13 16 25 17 14 18 16 19 26 20 15 21 17 22 18 23 24 24
REMARK SMILES IDX 19 25 22 26 20 27 23 28 21 29 29 30 30 31 31 32 32 33 33 35
REMARK SMILES IDX 34 36 35 37 99 38 36 39 98 40 37 41 38 42 39 43 92 44 40 45
REMARK SMILES IDX 97 46 91 47 93 48 41 49 96 50 90 51 89 52 42 54 76 55 55 56
REMARK SMILES IDX 75 57 56 58 59 59 74 60 94 61 57 62 58 63 73 65 95 66 60 67
REMARK SMILES IDX 43 68 44 69 53 70 45 71 46 72 52 73 54 74 47 75 48 76 49 77
REMARK SMILES IDX 50 78 51 79 77 80 78 81 87 82 79 83 80 84 86 85 88 86 81 87
REMARK SMILES IDX 82 88 83 89 84 90 85 91 61 92 62 93 71 94 63 95 64 96 70 97
REMARK SMILES IDX 72 98 65 99 66 100 67 101 68 102 69 103
REMARK H PARENT 27 5 31 34 93 53 59 64
REMARK Flexibility Score: inf
ROOT
ATOM      1  C   UNL A   1      40.315  22.384  26.428  1.00  0.00     0.117 C 
ENDROOT
BRANCH   1   2
ATOM      2  N   UNL A   1      38.518  21.830  25.453  1.00  0.00    -0.353 N 
ATOM      3  O   UNL A   1      37.800  19.529  24.752  1.00  0.00    -0.271 OA
ATOM      4  C   UNL A   1      37.574  20.709  25.014  1.00  0.00     0.257 C 
ATOM      5  H   UNL A   1      38.107  22.670  25.143  1.00  0.00     0.163 HD
BRANCH   4   6
ATOM      6  C   UNL A   1      36.112  21.148  25.029  1.00  0.00     0.329 C 
BRANCH   6   7
ATOM      7  O   UNL A   1      35.890  22.391  25.645  1.00  0.00    -0.483 OA
BRANCH   7   8
ATOM      8  C   UNL A   1      34.603  22.726  26.013  1.00  0.00     0.127 A 
ATOM      9  C   UNL A   1      34.402  22.390  27.361  1.00  0.00     0.047 A 
ATOM     10  C   UNL A   1      33.496  23.018  25.159  1.00  0.00     0.018 A 
ATOM     11  C   UNL A   1      33.122  22.259  27.876  1.00  0.00     0.004 A 
ATOM     12  C   UNL A   1      32.209  22.883  25.714  1.00  0.00     0.012 A 
ATOM     13  C   UNL A   1      32.027  22.484  27.048  1.00  0.00     0.001 A 
BRANCH  10  14
ATOM     14  C   UNL A   1      33.564  23.124  23.669  1.00  0.00     0.033 C 
ATOM     15  C   UNL A   1      33.908  24.340  23.180  1.00  0.00     0.081 C 
ATOM     16  S   UNL A   1      32.909  25.209  21.281  1.00  0.00    -0.054 SA
ATOM     17  C   UNL A   1      34.043  25.731  24.555  1.00  0.00     0.270 C 
ATOM     18  C   UNL A   1      32.640  27.308  22.435  1.00  0.00     0.152 C 
ATOM     19  N   UNL A   1      33.137  27.109  24.112  1.00  0.00    -0.261 N 
ATOM     20  O   UNL A   1      34.765  25.682  25.544  1.00  0.00    -0.268 OA
ATOM     21  S   UNL A   1      33.715  28.982  22.480  1.00  0.00    -0.051 S 
BRANCH  19  22
ATOM     22  C   UNL A   1      32.415  28.040  24.971  1.00  0.00     0.052 A 
ATOM     23  C   UNL A   1      33.074  28.773  25.945  1.00  0.00     0.030 A 
ATOM     24  C   UNL A   1      31.189  28.540  24.426  1.00  0.00     0.050 A 
ATOM     25  C   UNL A   1      32.598  30.067  26.236  1.00  0.00     0.043 A 
ATOM     26  C   UNL A   1      30.746  29.829  24.703  1.00  0.00     0.078 A 
ATOM     27  C   UNL A   1      31.469  30.598  25.594  1.00  0.00     0.141 A 
ATOM     28  Cl  UNL A   1      29.401  30.462  23.831  1.00  0.00    -0.081 Cl
ATOM     29  F   UNL A   1      31.123  31.871  25.829  1.00  0.00    -0.205 F 
ENDBRANCH  19  22
ENDBRANCH  10  14
ENDBRANCH   7   8
ENDBRANCH   6   7
ENDBRANCH   4   6
ENDBRANCH   1   2
BRANCH   1  30
ATOM     30  C   UNL A   1      41.441  21.125  27.391  1.00  0.00     0.042 C 
BRANCH  30  31
ATOM     31  C   UNL A   1      42.088  19.624  26.860  1.00  0.00     0.118 C 
BRANCH  31  32
ATOM     32  N   UNL A   1      43.369  19.519  26.107  1.00  0.00    -0.352 N 
ATOM     33  C   UNL A   1      43.810  20.253  25.019  1.00  0.00     0.251 C 
ATOM     34  H   UNL A   1      43.992  18.828  26.431  1.00  0.00     0.163 HD
ATOM     35  O   UNL A   1      44.233  19.798  23.956  1.00  0.00    -0.269 OA
BRANCH  33  36
ATOM     36  C   UNL A   1      44.371  21.520  25.325  1.00  0.00     0.039 A 
ATOM     37  C   UNL A   1      45.068  21.720  26.512  1.00  0.00     0.014 A 
ATOM     38  C   UNL A   1      43.820  22.528  24.529  1.00  0.00     0.014 A 
ATOM     39  C   UNL A   1      45.285  23.022  26.884  1.00  0.00     0.010 A 
ATOM     40  C   UNL A   1      44.061  23.812  24.879  1.00  0.00     0.010 A 
ATOM     41  C   UNL A   1      44.791  24.037  26.049  1.00  0.00    -0.014 A 
BRANCH  41  42
ATOM     42  C   UNL A   1      45.080  25.422  26.326  1.00  0.00     0.031 A 
ATOM     43  C   UNL A   1      46.486  25.874  26.203  1.00  0.00     0.074 A 
ATOM     44  C   UNL A   1      44.053  26.100  26.855  1.00  0.00     0.049 A 
ATOM     45  N   UNL A   1      46.995  27.018  26.540  1.00  0.00    -0.248 NA
ATOM     46  C   UNL A   1      47.467  24.891  25.699  1.00  0.00     0.031 C 
ATOM     47  C   UNL A   1      42.702  25.555  27.081  1.00  0.00     0.029 A 
ATOM     48  N   UNL A   1      43.980  27.369  27.316  1.00  0.00    -0.354 N 
ATOM     49  C   UNL A   1      48.355  26.895  26.301  1.00  0.00     0.074 A 
ATOM     50  C   UNL A   1      48.608  25.545  25.858  1.00  0.00     0.031 C 
ATOM     51  C   UNL A   1      41.924  26.512  27.601  1.00  0.00     0.029 A 
ATOM     52  C   UNL A   1      42.731  27.709  27.764  1.00  0.00     0.049 A 
ATOM     53  H   UNL A   1      44.748  27.986  27.329  1.00  0.00     0.167 HD
ATOM     54  C   UNL A   1      49.282  27.867  26.429  1.00  0.00     0.037 A 
ATOM     55  C   UNL A   1      42.313  28.893  28.231  1.00  0.00     0.037 A 
ATOM     56  C   UNL A   1      48.918  29.192  26.858  1.00  0.00     0.049 A 
ATOM     57  C   UNL A   1      43.340  29.984  28.236  1.00  0.00     0.074 A 
ATOM     58  C   UNL A   1      49.703  30.316  26.989  1.00  0.00     0.029 A 
ATOM     59  N   UNL A   1      47.619  29.560  27.213  1.00  0.00    -0.354 N 
ATOM     60  N   UNL A   1      44.623  29.903  27.952  1.00  0.00    -0.248 NA
ATOM     61  C   UNL A   1      42.874  31.323  28.584  1.00  0.00     0.031 C 
ATOM     62  C   UNL A   1      48.883  31.359  27.440  1.00  0.00     0.029 A 
ATOM     63  C   UNL A   1      47.576  30.896  27.554  1.00  0.00     0.049 A 
ATOM     64  H   UNL A   1      46.845  28.953  27.218  1.00  0.00     0.167 HD
ATOM     65  C   UNL A   1      45.125  31.185  28.074  1.00  0.00     0.074 A 
ATOM     66  C   UNL A   1      43.988  32.025  28.430  1.00  0.00     0.031 C 
ATOM     67  C   UNL A   1      46.394  31.643  27.918  1.00  0.00     0.037 A 
BRANCH  54  68
ATOM     68  C   UNL A   1      50.705  27.521  26.093  1.00  0.00     0.058 A 
ATOM     69  C   UNL A   1      51.616  27.102  27.079  1.00  0.00     0.135 A 
ATOM     70  C   UNL A   1      51.182  27.635  24.778  1.00  0.00     0.135 A 
ATOM     71  F   UNL A   1      51.227  27.004  28.361  1.00  0.00    -0.206 F 
ATOM     72  C   UNL A   1      52.948  26.835  26.781  1.00  0.00     0.059 A 
ATOM     73  C   UNL A   1      52.506  27.345  24.452  1.00  0.00     0.059 A 
ATOM     74  F   UNL A   1      50.367  28.051  23.796  1.00  0.00    -0.206 F 
ATOM     75  C   UNL A   1      53.384  26.958  25.462  1.00  0.00     0.060 A 
BRANCH  75  76
ATOM     76  S   UNL A   1      55.110  26.585  25.086  1.00  0.00     0.124 S 
ATOM     77  O   UNL A   1      55.037  25.168  24.742  1.00  0.00    -0.237 OA
ATOM     78  O   UNL A   1      55.391  27.490  23.976  1.00  0.00    -0.237 OA
ATOM     79  O   UNL A   1      55.805  26.893  26.332  1.00  0.00    -0.744 OA
ENDBRANCH  75  76
ENDBRANCH  54  68
BRANCH  55  80
ATOM     80  C   UNL A   1      40.891  29.078  28.593  1.00  0.00     0.058 A 
ATOM     81  C   UNL A   1      40.497  29.137  29.938  1.00  0.00     0.135 A 
ATOM     82  C   UNL A   1      39.909  29.306  27.615  1.00  0.00     0.135 A 
ATOM     83  F   UNL A   1      41.406  28.963  30.910  1.00  0.00    -0.206 F 
ATOM     84  C   UNL A   1      39.178  29.383  30.301  1.00  0.00     0.059 A 
ATOM     85  C   UNL A   1      38.588  29.576  27.954  1.00  0.00     0.059 A 
ATOM     86  F   UNL A   1      40.245  29.317  26.315  1.00  0.00    -0.206 F 
ATOM     87  C   UNL A   1      38.228  29.598  29.301  1.00  0.00     0.060 A 
BRANCH  87  88
ATOM     88  S   UNL A   1      36.524  29.945  29.785  1.00  0.00     0.124 S 
ATOM     89  O   UNL A   1      35.780  29.338  28.686  1.00  0.00    -0.237 OA
ATOM     90  O   UNL A   1      36.425  29.270  31.074  1.00  0.00    -0.237 OA
ATOM     91  O   UNL A   1      36.482  31.404  29.845  1.00  0.00    -0.744 OA
ENDBRANCH  87  88
ENDBRANCH  55  80
BRANCH  67  92
ATOM     92  C   UNL A   1      46.572  33.110  28.143  1.00  0.00     0.058 A 
ATOM     93  C   UNL A   1      46.356  34.031  27.109  1.00  0.00     0.135 A 
ATOM     94  C   UNL A   1      46.958  33.588  29.402  1.00  0.00     0.135 A 
ATOM     95  F   UNL A   1      45.992  33.607  25.887  1.00  0.00    -0.206 F 
ATOM     96  C   UNL A   1      46.568  35.386  27.304  1.00  0.00     0.059 A 
ATOM     97  C   UNL A   1      47.145  34.943  29.628  1.00  0.00     0.059 A 
ATOM     98  F   UNL A   1      47.160  32.735  30.420  1.00  0.00    -0.206 F 
ATOM     99  C   UNL A   1      46.969  35.830  28.566  1.00  0.00     0.060 A 
BRANCH  99 100
ATOM    100  S   UNL A   1      47.253  37.592  28.807  1.00  0.00     0.124 S 
ATOM    101  O   UNL A   1      47.258  37.688  30.264  1.00  0.00    -0.237 OA
ATOM    102  O   UNL A   1      48.542  37.795  28.154  1.00  0.00    -0.237 OA
ATOM    103  O   UNL A   1      46.113  38.212  28.138  1.00  0.00    -0.744 OA
ENDBRANCH  99 100
ENDBRANCH  67  92
ENDBRANCH  41  42
ENDBRANCH  33  36
ENDBRANCH  31  32
ENDBRANCH  30  31
ENDBRANCH   1  30
TORSDOF 17
ENDMDL
MODEL 3
REMARK VINA RESULT:     -13.0      0.993      1.820
REMARK SMILES O=C(COc1ccccc1/C=C1/SC(=S)N(c2ccc(F)c(Cl)c2)C1=O)NCCCNC(=O)c1ccc(-c2c3nc(c(-c4c(F)cc(S(=O)(=O)[O-])cc4F)c4ccc([nH]4)c(-c4c(F)cc(S(=O)(=O)[O-])cc4F)c4nc(c(-c5c(F)cc(S(=O)(=O)[O-])cc5F)c5ccc2[nH]5)C=C4)C=C3)cc1
REMARK SMILES IDX 28 1 27 2 1 3 2 4 3 6 4 7 5 8 6 9 10 10 7 11 9 12 8 13 11 14
REMARK SMILES IDX 12 15 13 16 25 17 14 18 16 19 26 20 15 21 17 22 18 23 24 24
REMARK SMILES IDX 19 25 22 26 20 27 23 28 21 29 29 30 30 31 31 32 32 33 33 35
REMARK SMILES IDX 34 36 35 37 99 38 36 39 98 40 37 41 38 42 39 43 92 44 40 45
REMARK SMILES IDX 97 46 91 47 93 48 41 49 96 50 90 51 89 52 42 54 76 55 55 56
REMARK SMILES IDX 75 57 56 58 59 59 74 60 94 61 57 62 58 63 73 65 95 66 60 67
REMARK SMILES IDX 43 68 44 69 53 70 45 71 46 72 52 73 54 74 47 75 48 76 49 77
REMARK SMILES IDX 50 78 51 79 77 80 78 81 87 82 79 83 80 84 86 85 88 86 81 87
REMARK SMILES IDX 82 88 83 89 84 90 85 91 61 92 62 93 71 94 63 95 64 96 70 97
REMARK SMILES IDX 72 98 65 99 66 100 67 101 68 102 69 103
REMARK H PARENT 27 5 31 34 93 53 59 64
REMARK Flexibility Score: inf
ROOT
ATOM      1  C   UNL A   1      39.499  22.876  26.509  1.00  0.00     0.117 C 
ENDROOT
BRANCH   1   2
ATOM      2  N   UNL A   1      38.160  21.669  25.398  1.00  0.00    -0.353 N 
ATOM      3  O   UNL A   1      38.291  19.193  25.005  1.00  0.00    -0.271 OA
ATOM      4  C   UNL A   1      37.685  20.262  25.028  1.00  0.00     0.257 C 
ATOM      5  H   UNL A   1      37.587  22.292  24.894  1.00  0.00     0.163 HD
BRANCH   4   6
ATOM      6  C   UNL A   1      36.183  20.213  24.760  1.00  0.00     0.329 C 
BRANCH   6   7
ATOM      7  O   UNL A   1      35.640  21.424  24.299  1.00  0.00    -0.483 OA
BRANCH   7   8
ATOM      8  C   UNL A   1      34.422  21.836  24.799  1.00  0.00     0.127 A 
ATOM      9  C   UNL A   1      34.255  21.325  26.097  1.00  0.00     0.047 A 
ATOM     10  C   UNL A   1      33.312  22.369  24.075  1.00  0.00     0.018 A 
ATOM     11  C   UNL A   1      32.996  21.255  26.674  1.00  0.00     0.004 A 
ATOM     12  C   UNL A   1      32.050  22.291  24.693  1.00  0.00     0.012 A 
ATOM     13  C   UNL A   1      31.893  21.717  25.965  1.00  0.00     0.001 A 
BRANCH  10  14
ATOM     14  C   UNL A   1      33.314  22.690  22.615  1.00  0.00     0.033 C 
ATOM     15  C   UNL A   1      33.716  23.941  22.287  1.00  0.00     0.081 C 
ATOM     16  S   UNL A   1      32.688  25.141  20.595  1.00  0.00    -0.054 SA
ATOM     17  C   UNL A   1      34.017  25.102  23.838  1.00  0.00     0.270 C 
ATOM     18  C   UNL A   1      32.623  27.059  22.054  1.00  0.00     0.152 C 
ATOM     19  N   UNL A   1      33.188  26.585  23.652  1.00  0.00    -0.261 N 
ATOM     20  O   UNL A   1      34.781  24.864  24.764  1.00  0.00    -0.268 OA
ATOM     21  S   UNL A   1      33.814  28.639  22.276  1.00  0.00    -0.051 S 
BRANCH  19  22
ATOM     22  C   UNL A   1      32.576  27.421  24.678  1.00  0.00     0.052 A 
ATOM     23  C   UNL A   1      31.316  27.132  25.179  1.00  0.00     0.030 A 
ATOM     24  C   UNL A   1      33.499  28.161  25.484  1.00  0.00     0.050 A 
ATOM     25  C   UNL A   1      31.056  27.433  26.530  1.00  0.00     0.043 A 
ATOM     26  C   UNL A   1      33.238  28.428  26.823  1.00  0.00     0.078 A 
ATOM     27  C   UNL A   1      32.020  28.041  27.349  1.00  0.00     0.141 A 
ATOM     28  Cl  UNL A   1      34.483  29.105  27.805  1.00  0.00    -0.081 Cl
ATOM     29  F   UNL A   1      31.759  28.207  28.652  1.00  0.00    -0.205 F 
ENDBRANCH  19  22
ENDBRANCH  10  14
ENDBRANCH   7   8
ENDBRANCH   6   7
ENDBRANCH   4   6
ENDBRANCH   1   2
BRANCH   1  30
ATOM     30  C   UNL A   1      41.354  22.391  26.838  1.00  0.00     0.042 C 
BRANCH  30  31
ATOM     31  C   UNL A   1      42.787  23.096  26.205  1.00  0.00     0.118 C 
BRANCH  31  32
ATOM     32  N   UNL A   1      42.875  24.529  25.811  1.00  0.00    -0.352 N 
ATOM     33  C   UNL A   1      41.927  25.532  25.931  1.00  0.00     0.251 C 
ATOM     34  H   UNL A   1      43.729  24.803  25.406  1.00  0.00     0.163 HD
ATOM     35  O   UNL A   1      41.537  26.278  25.033  1.00  0.00    -0.269 OA
BRANCH  33  36
ATOM     36  C   UNL A   1      41.841  26.138  27.211  1.00  0.00     0.039 A 
ATOM     37  C   UNL A   1      40.843  25.768  28.107  1.00  0.00     0.014 A 
ATOM     38  C   UNL A   1      42.577  27.325  27.264  1.00  0.00     0.014 A 
ATOM     39  C   UNL A   1      40.624  26.613  29.164  1.00  0.00     0.010 A 
ATOM     40  C   UNL A   1      42.383  28.143  28.324  1.00  0.00     0.010 A 
ATOM     41  C   UNL A   1      41.411  27.772  29.256  1.00  0.00    -0.014 A 
BRANCH  41  42
ATOM     42  C   UNL A   1      41.305  28.643  30.400  1.00  0.00     0.031 A 
ATOM     43  C   UNL A   1      42.195  28.381  31.556  1.00  0.00     0.074 A 
ATOM     44  C   UNL A   1      40.263  29.483  30.352  1.00  0.00     0.049 A 
ATOM     45  N   UNL A   1      42.174  28.933  32.729  1.00  0.00    -0.248 NA
ATOM     46  C   UNL A   1      43.201  27.309  31.400  1.00  0.00     0.031 C 
ATOM     47  C   UNL A   1      39.323  29.607  29.225  1.00  0.00     0.029 A 
ATOM     48  N   UNL A   1      39.802  30.367  31.267  1.00  0.00    -0.354 N 
ATOM     49  C   UNL A   1      43.151  28.274  33.459  1.00  0.00     0.074 A 
ATOM     50  C   UNL A   1      43.701  27.233  32.625  1.00  0.00     0.031 C 
ATOM     51  C   UNL A   1      38.421  30.556  29.507  1.00  0.00     0.029 A 
ATOM     52  C   UNL A   1      38.711  31.072  30.834  1.00  0.00     0.049 A 
ATOM     53  H   UNL A   1      40.212  30.491  32.154  1.00  0.00     0.167 HD
ATOM     54  C   UNL A   1      43.545  28.566  34.716  1.00  0.00     0.037 A 
ATOM     55  C   UNL A   1      38.051  32.049  31.469  1.00  0.00     0.037 A 
ATOM     56  C   UNL A   1      42.943  29.644  35.454  1.00  0.00     0.049 A 
ATOM     57  C   UNL A   1      38.599  32.433  32.809  1.00  0.00     0.074 A 
ATOM     58  C   UNL A   1      43.248  30.124  36.709  1.00  0.00     0.029 A 
ATOM     59  N   UNL A   1      41.897  30.429  34.963  1.00  0.00    -0.354 N 
ATOM     60  N   UNL A   1      39.568  31.860  33.492  1.00  0.00    -0.248 NA
ATOM     61  C   UNL A   1      38.004  33.601  33.452  1.00  0.00     0.031 C 
ATOM     62  C   UNL A   1      42.377  31.186  36.983  1.00  0.00     0.029 A 
ATOM     63  C   UNL A   1      41.551  31.395  35.884  1.00  0.00     0.049 A 
ATOM     64  H   UNL A   1      41.470  30.309  34.085  1.00  0.00     0.167 HD
ATOM     65  C   UNL A   1      39.714  32.605  34.648  1.00  0.00     0.074 A 
ATOM     66  C   UNL A   1      38.745  33.689  34.548  1.00  0.00     0.031 C 
ATOM     67  C   UNL A   1      40.552  32.425  35.701  1.00  0.00     0.037 A 
BRANCH  54  68
ATOM     68  C   UNL A   1      44.645  27.733  35.311  1.00  0.00     0.058 A 
ATOM     69  C   UNL A   1      44.371  26.578  36.065  1.00  0.00     0.135 A 
ATOM     70  C   UNL A   1      45.990  28.102  35.158  1.00  0.00     0.135 A 
ATOM     71  F   UNL A   1      43.102  26.191  36.274  1.00  0.00    -0.206 F 
ATOM     72  C   UNL A   1      45.384  25.836  36.665  1.00  0.00     0.059 A 
ATOM     73  C   UNL A   1      47.023  27.358  35.726  1.00  0.00     0.059 A 
ATOM     74  F   UNL A   1      46.314  29.207  34.467  1.00  0.00    -0.206 F 
ATOM     75  C   UNL A   1      46.709  26.234  36.488  1.00  0.00     0.060 A 
BRANCH  75  76
ATOM     76  S   UNL A   1      48.015  25.249  37.252  1.00  0.00     0.124 S 
ATOM     77  O   UNL A   1      49.205  26.024  36.915  1.00  0.00    -0.237 OA
ATOM     78  O   UNL A   1      47.632  25.260  38.661  1.00  0.00    -0.237 OA
ATOM     79  O   UNL A   1      47.899  23.956  36.586  1.00  0.00    -0.744 OA
ENDBRANCH  75  76
ENDBRANCH  54  68
BRANCH  55  80
ATOM     80  C   UNL A   1      36.935  32.743  30.789  1.00  0.00     0.058 A 
ATOM     81  C   UNL A   1      37.183  33.646  29.746  1.00  0.00     0.135 A 
ATOM     82  C   UNL A   1      35.595  32.442  31.089  1.00  0.00     0.135 A 
ATOM     83  F   UNL A   1      38.446  33.936  29.397  1.00  0.00    -0.206 F 
ATOM     84  C   UNL A   1      36.146  34.253  29.045  1.00  0.00     0.059 A 
ATOM     85  C   UNL A   1      34.542  33.020  30.387  1.00  0.00     0.059 A 
ATOM     86  F   UNL A   1      35.305  31.540  32.039  1.00  0.00    -0.206 F 
ATOM     87  C   UNL A   1      34.828  33.937  29.376  1.00  0.00     0.060 A 
BRANCH  87  88
ATOM     88  S   UNL A   1      33.491  34.708  28.440  1.00  0.00     0.124 S 
ATOM     89  O   UNL A   1      34.233  35.599  27.554  1.00  0.00    -0.237 OA
ATOM     90  O   UNL A   1      32.855  33.559  27.805  1.00  0.00    -0.237 OA
ATOM     91  O   UNL A   1      32.694  35.366  29.472  1.00  0.00    -0.744 OA
ENDBRANCH  87  88
ENDBRANCH  55  80
BRANCH  67  92
ATOM     92  C   UNL A   1      40.423  33.434  36.796  1.00  0.00     0.058 A 
ATOM     93  C   UNL A   1      41.245  34.568  36.834  1.00  0.00     0.135 A 
ATOM     94  C   UNL A   1      39.468  33.257  37.807  1.00  0.00     0.135 A 
ATOM     95  F   UNL A   1      42.176  34.764  35.886  1.00  0.00    -0.206 F 
ATOM     96  C   UNL A   1      41.158  35.478  37.876  1.00  0.00     0.059 A 
ATOM     97  C   UNL A   1      39.343  34.173  38.841  1.00  0.00     0.059 A 
ATOM     98  F   UNL A   1      38.655  32.189  37.795  1.00  0.00    -0.206 F 
ATOM     99  C   UNL A   1      40.208  35.266  38.877  1.00  0.00     0.060 A 
BRANCH  99 100
ATOM    100  S   UNL A   1      40.109  36.448  40.233  1.00  0.00     0.124 S 
ATOM    101  O   UNL A   1      39.208  37.453  39.675  1.00  0.00    -0.237 OA
ATOM    102  O   UNL A   1      39.564  35.638  41.317  1.00  0.00    -0.237 OA
ATOM    103  O   UNL A   1      41.494  36.873  40.411  1.00  0.00    -0.744 OA
ENDBRANCH  99 100
ENDBRANCH  67  92
ENDBRANCH  41  42
ENDBRANCH  33  36
ENDBRANCH  31  32
ENDBRANCH  30  31
ENDBRANCH   1  30
TORSDOF 17
ENDMDL
