MODEL 1
REMARK VINA RESULT:     -10.9      0.000      0.000
REMARK SMILES Nc1nc(CC(=O)NC2(CC(=O)NCCCNC(=O)c3ccc(-c4c5nc(c(-c6c(F)cc(S(=O)(=O)[O-])cc6F)c6ccc([nH]6)c(-c6c(F)cc(S(=O)(=O)[O-])cc6F)c6nc(c(-c7c(F)cc(S(=O)(=O)[O-])cc7F)c7ccc4[nH]7)C=C6)C=C5)cc3)CCC2)cs1
REMARK SMILES IDX 14 1 13 2 11 3 12 4 10 6 9 7 86 8 88 9 87 10 8 11 6 12 7 13
REMARK SMILES IDX 5 15 4 16 2 17 3 18 90 19 89 20 1 21 15 24 16 25 17 26 18 27
REMARK SMILES IDX 19 29 20 30 21 31 85 32 22 33 84 34 23 35 24 36 25 37 78 38
REMARK SMILES IDX 26 39 83 40 77 41 79 42 27 43 82 44 76 45 75 46 28 48 62 49
REMARK SMILES IDX 41 50 61 51 42 52 45 53 60 54 80 55 43 56 44 57 59 59 81 60
REMARK SMILES IDX 46 61 29 62 30 63 39 64 31 65 32 66 38 67 40 68 33 69 34 70
REMARK SMILES IDX 35 71 36 72 37 73 63 74 64 75 73 76 65 77 66 78 72 79 74 80
REMARK SMILES IDX 67 81 68 82 69 83 70 84 71 85 47 86 48 87 57 88 49 89 50 90
REMARK SMILES IDX 56 91 58 92 51 93 52 94 53 95 54 96 55 97
REMARK H PARENT 13 5 8 14 1 22 1 23 17 28 79 47 45 58
REMARK Flexibility Score: inf
ROOT
ATOM      1  C   UNL A   1      34.059  30.929  27.660  1.00  0.00     0.117 C 
ENDROOT
BRANCH   1   2
ATOM      2  N   UNL A   1      32.728  31.215  27.165  1.00  0.00    -0.356 N 
ATOM      3  C   UNL A   1      31.933  30.392  26.426  1.00  0.00     0.222 C 
ATOM      4  O   UNL A   1      31.194  30.910  25.591  1.00  0.00    -0.275 OA
ATOM      5  H   UNL A   1      32.356  32.099  27.387  1.00  0.00     0.163 HD
BRANCH   3   6
ATOM      6  C   UNL A   1      31.905  28.922  26.754  1.00  0.00     0.128 C 
BRANCH   6   7
ATOM      7  C   UNL A   1      32.271  27.917  25.662  1.00  0.00     0.049 C 
ATOM      8  C   UNL A   1      31.185  26.812  25.406  1.00  0.00     0.029 C 
ATOM      9  C   UNL A   1      33.171  26.729  26.167  1.00  0.00     0.029 C 
ATOM     10  C   UNL A   1      31.892  25.926  26.442  1.00  0.00     0.005 C 
BRANCH   7  11
ATOM     11  N   UNL A   1      32.799  28.474  24.393  1.00  0.00    -0.350 N 
ATOM     12  C   UNL A   1      32.459  28.297  23.080  1.00  0.00     0.226 C 
ATOM     13  O   UNL A   1      33.259  28.719  22.237  1.00  0.00    -0.275 OA
ATOM     14  H   UNL A   1      33.547  29.101  24.522  1.00  0.00     0.164 HD
BRANCH  12  15
ATOM     15  C   UNL A   1      31.165  27.652  22.638  1.00  0.00     0.157 C 
BRANCH  15  16
ATOM     16  C   UNL A   1      30.020  28.593  22.512  1.00  0.00     0.063 A 
ATOM     17  C   UNL A   1      29.103  30.441  21.694  1.00  0.00     0.180 A 
ATOM     18  N   UNL A   1      30.157  29.672  21.651  1.00  0.00    -0.225 NA
ATOM     19  S   UNL A   1      27.821  29.859  22.673  1.00  0.00    -0.106 S 
ATOM     20  C   UNL A   1      28.784  28.512  23.123  1.00  0.00     0.093 A 
BRANCH  17  21
ATOM     21  N   UNL A   1      29.045  31.606  21.045  1.00  0.00    -0.375 N 
ATOM     22  H   UNL A   1      29.825  31.925  20.535  1.00  0.00     0.159 HD
ATOM     23  H   UNL A   1      28.223  32.147  21.076  1.00  0.00     0.159 HD
ENDBRANCH  17  21
ENDBRANCH  15  16
ENDBRANCH  12  15
ENDBRANCH   7  11
ENDBRANCH   6   7
ENDBRANCH   3   6
ENDBRANCH   1   2
BRANCH   1  24
ATOM     24  C   UNL A   1      34.725  32.214  28.141  1.00  0.00     0.042 C 
BRANCH  24  25
ATOM     25  C   UNL A   1      36.048  31.975  28.855  1.00  0.00     0.118 C 
BRANCH  25  26
ATOM     26  N   UNL A   1      35.853  31.327  30.139  1.00  0.00    -0.352 N 
ATOM     27  C   UNL A   1      36.581  30.321  30.720  1.00  0.00     0.251 C 
ATOM     28  H   UNL A   1      35.089  31.656  30.667  1.00  0.00     0.163 HD
ATOM     29  O   UNL A   1      36.090  29.675  31.641  1.00  0.00    -0.269 OA
BRANCH  27  30
ATOM     30  C   UNL A   1      37.945  30.020  30.237  1.00  0.00     0.039 A 
ATOM     31  C   UNL A   1      38.172  29.922  28.863  1.00  0.00     0.014 A 
ATOM     32  C   UNL A   1      38.986  29.773  31.137  1.00  0.00     0.014 A 
ATOM     33  C   UNL A   1      39.445  29.593  28.395  1.00  0.00     0.010 A 
ATOM     34  C   UNL A   1      40.275  29.547  30.669  1.00  0.00     0.010 A 
ATOM     35  C   UNL A   1      40.509  29.411  29.294  1.00  0.00    -0.014 A 
BRANCH  35  36
ATOM     36  C   UNL A   1      41.850  28.989  28.825  1.00  0.00     0.031 A 
ATOM     37  C   UNL A   1      42.957  30.009  28.730  1.00  0.00     0.074 A 
ATOM     38  C   UNL A   1      42.059  27.715  28.439  1.00  0.00     0.049 A 
ATOM     39  N   UNL A   1      44.177  29.866  28.280  1.00  0.00    -0.248 NA
ATOM     40  C   UNL A   1      42.641  31.382  29.164  1.00  0.00     0.031 C 
ATOM     41  C   UNL A   1      41.046  26.656  28.420  1.00  0.00     0.029 A 
ATOM     42  N   UNL A   1      43.192  27.097  27.976  1.00  0.00    -0.354 N 
ATOM     43  C   UNL A   1      44.755  31.130  28.340  1.00  0.00     0.074 A 
ATOM     44  C   UNL A   1      43.743  32.038  28.828  1.00  0.00     0.031 C 
ATOM     45  C   UNL A   1      41.609  25.517  27.986  1.00  0.00     0.029 A 
ATOM     46  C   UNL A   1      43.012  25.767  27.672  1.00  0.00     0.049 A 
ATOM     47  H   UNL A   1      44.054  27.561  27.871  1.00  0.00     0.167 HD
ATOM     48  C   UNL A   1      46.023  31.495  28.043  1.00  0.00     0.037 A 
ATOM     49  C   UNL A   1      43.884  24.857  27.197  1.00  0.00     0.037 A 
ATOM     50  C   UNL A   1      47.045  30.571  27.632  1.00  0.00     0.049 A 
ATOM     51  C   UNL A   1      45.313  25.271  26.964  1.00  0.00     0.074 A 
ATOM     52  C   UNL A   1      48.385  30.820  27.390  1.00  0.00     0.029 A 
ATOM     53  N   UNL A   1      46.844  29.215  27.422  1.00  0.00    -0.354 N 
ATOM     54  N   UNL A   1      45.858  26.457  27.094  1.00  0.00    -0.248 NA
ATOM     55  C   UNL A   1      46.248  24.222  26.540  1.00  0.00     0.031 C 
ATOM     56  C   UNL A   1      48.990  29.617  27.011  1.00  0.00     0.029 A 
ATOM     57  C   UNL A   1      48.035  28.614  27.054  1.00  0.00     0.049 A 
ATOM     58  H   UNL A   1      45.982  28.749  27.521  1.00  0.00     0.167 HD
ATOM     59  C   UNL A   1      47.206  26.288  26.802  1.00  0.00     0.074 A 
ATOM     60  C   UNL A   1      47.395  24.885  26.499  1.00  0.00     0.031 C 
ATOM     61  C   UNL A   1      48.201  27.210  26.784  1.00  0.00     0.037 A 
BRANCH  48  62
ATOM     62  C   UNL A   1      46.390  32.947  28.174  1.00  0.00     0.058 A 
ATOM     63  C   UNL A   1      46.231  33.847  27.110  1.00  0.00     0.135 A 
ATOM     64  C   UNL A   1      46.846  33.457  29.402  1.00  0.00     0.135 A 
ATOM     65  F   UNL A   1      45.819  33.410  25.909  1.00  0.00    -0.206 F 
ATOM     66  C   UNL A   1      46.521  35.200  27.253  1.00  0.00     0.059 A 
ATOM     67  C   UNL A   1      47.118  34.811  29.574  1.00  0.00     0.059 A 
ATOM     68  F   UNL A   1      47.021  32.638  30.450  1.00  0.00    -0.206 F 
ATOM     69  C   UNL A   1      46.959  35.674  28.491  1.00  0.00     0.060 A 
BRANCH  69  70
ATOM     70  S   UNL A   1      47.285  37.441  28.672  1.00  0.00     0.124 S 
ATOM     71  O   UNL A   1      47.541  37.833  27.290  1.00  0.00    -0.237 OA
ATOM     72  O   UNL A   1      46.037  37.932  29.249  1.00  0.00    -0.237 OA
ATOM     73  O   UNL A   1      48.442  37.483  29.561  1.00  0.00    -0.744 OA
ENDBRANCH  69  70
ENDBRANCH  48  62
BRANCH  49  74
ATOM     74  C   UNL A   1      43.444  23.462  26.938  1.00  0.00     0.058 A 
ATOM     75  C   UNL A   1      43.248  22.996  25.629  1.00  0.00     0.135 A 
ATOM     76  C   UNL A   1      43.197  22.570  27.993  1.00  0.00     0.135 A 
ATOM     77  F   UNL A   1      43.472  23.811  24.587  1.00  0.00    -0.206 F 
ATOM     78  C   UNL A   1      42.788  21.708  25.375  1.00  0.00     0.059 A 
ATOM     79  C   UNL A   1      42.761  21.269  27.764  1.00  0.00     0.059 A 
ATOM     80  F   UNL A   1      43.394  22.958  29.262  1.00  0.00    -0.206 F 
ATOM     81  C   UNL A   1      42.542  20.853  26.450  1.00  0.00     0.060 A 
BRANCH  81  82
ATOM     82  S   UNL A   1      41.961  19.176  26.114  1.00  0.00     0.124 S 
ATOM     83  O   UNL A   1      42.716  18.840  24.913  1.00  0.00    -0.237 OA
ATOM     84  O   UNL A   1      42.346  18.465  27.329  1.00  0.00    -0.237 OA
ATOM     85  O   UNL A   1      40.524  19.353  25.930  1.00  0.00    -0.744 OA
ENDBRANCH  81  82
ENDBRANCH  49  74
BRANCH  61  86
ATOM     86  C   UNL A   1      49.587  26.719  26.483  1.00  0.00     0.058 A 
ATOM     87  C   UNL A   1      50.412  26.178  27.480  1.00  0.00     0.135 A 
ATOM     88  C   UNL A   1      50.079  26.755  25.168  1.00  0.00     0.135 A 
ATOM     89  F   UNL A   1      49.985  26.122  28.752  1.00  0.00    -0.206 F 
ATOM     90  C   UNL A   1      51.692  25.721  27.191  1.00  0.00     0.059 A 
ATOM     91  C   UNL A   1      51.347  26.281  24.852  1.00  0.00     0.059 A 
ATOM     92  F   UNL A   1      49.321  27.251  24.176  1.00  0.00    -0.206 F 
ATOM     93  C   UNL A   1      52.153  25.781  25.874  1.00  0.00     0.060 A 
BRANCH  93  94
ATOM     94  S   UNL A   1      53.813  25.176  25.504  1.00  0.00     0.124 S 
ATOM     95  O   UNL A   1      54.561  25.654  26.662  1.00  0.00    -0.237 OA
ATOM     96  O   UNL A   1      53.613  23.731  25.431  1.00  0.00    -0.237 OA
ATOM     97  O   UNL A   1      54.133  25.823  24.236  1.00  0.00    -0.744 OA
ENDBRANCH  93  94
ENDBRANCH  61  86
ENDBRANCH  35  36
ENDBRANCH  27  30
ENDBRANCH  25  26
ENDBRANCH  24  25
ENDBRANCH   1  24
TORSDOF 18
ENDMDL
MODEL 2
REMARK VINA RESULT:     -10.9      6.309      8.837
REMARK SMILES Nc1nc(CC(=O)NC2(CC(=O)NCCCNC(=O)c3ccc(-c4c5nc(c(-c6c(F)cc(S(=O)(=O)[O-])cc6F)c6ccc([nH]6)c(-c6c(F)cc(S(=O)(=O)[O-])cc6F)c6nc(c(-c7c(F)cc(S(=O)(=O)[O-])cc7F)c7ccc4[nH]7)C=C6)C=C5)cc3)CCC2)cs1
REMARK SMILES IDX 14 1 13 2 11 3 12 4 10 6 9 7 86 8 88 9 87 10 8 11 6 12 7 13
REMARK SMILES IDX 5 15 4 16 2 17 3 18 90 19 89 20 1 21 15 24 16 25 17 26 18 27
REMARK SMILES IDX 19 29 20 30 21 31 85 32 22 33 84 34 23 35 24 36 25 37 78 38
REMARK SMILES IDX 26 39 83 40 77 41 79 42 27 43 82 44 76 45 75 46 28 48 62 49
REMARK SMILES IDX 41 50 61 51 42 52 45 53 60 54 80 55 43 56 44 57 59 59 81 60
REMARK SMILES IDX 46 61 29 62 30 63 39 64 31 65 32 66 38 67 40 68 33 69 34 70
REMARK SMILES IDX 35 71 36 72 37 73 63 74 64 75 73 76 65 77 66 78 72 79 74 80
REMARK SMILES IDX 67 81 68 82 69 83 70 84 71 85 47 86 48 87 57 88 49 89 50 90
REMARK SMILES IDX 56 91 58 92 51 93 52 94 53 95 54 96 55 97
REMARK H PARENT 13 5 8 14 1 22 1 23 17 28 79 47 45 58
REMARK Flexibility Score: inf
ROOT
ATOM      1  C   UNL A   1      31.928  30.308  26.617  1.00  0.00     0.117 C 
ENDROOT
BRANCH   1   2
ATOM      2  N   UNL A   1      32.557  30.105  25.328  1.00  0.00    -0.356 N 
ATOM      3  C   UNL A   1      32.410  29.029  24.505  1.00  0.00     0.222 C 
ATOM      4  O   UNL A   1      33.382  28.686  23.835  1.00  0.00    -0.275 OA
ATOM      5  H   UNL A   1      33.156  30.820  25.013  1.00  0.00     0.163 HD
BRANCH   3   6
ATOM      6  C   UNL A   1      31.047  28.406  24.360  1.00  0.00     0.128 C 
BRANCH   6   7
ATOM      7  C   UNL A   1      30.416  28.333  22.970  1.00  0.00     0.049 C 
ATOM      8  C   UNL A   1      29.968  29.719  22.386  1.00  0.00     0.029 C 
ATOM      9  C   UNL A   1      28.880  27.992  22.986  1.00  0.00     0.029 C 
ATOM     10  C   UNL A   1      28.583  29.498  23.012  1.00  0.00     0.005 C 
BRANCH   7  11
ATOM     11  N   UNL A   1      31.126  27.512  21.958  1.00  0.00    -0.350 N 
ATOM     12  C   UNL A   1      31.589  26.226  21.955  1.00  0.00     0.226 C 
ATOM     13  O   UNL A   1      32.363  25.916  21.041  1.00  0.00    -0.275 OA
ATOM     14  H   UNL A   1      31.298  27.993  21.116  1.00  0.00     0.164 HD
BRANCH  12  15
ATOM     15  C   UNL A   1      31.179  25.193  22.979  1.00  0.00     0.157 C 
BRANCH  15  16
ATOM     16  C   UNL A   1      32.288  24.323  23.454  1.00  0.00     0.063 A 
ATOM     17  C   UNL A   1      34.231  24.040  24.489  1.00  0.00     0.180 A 
ATOM     18  N   UNL A   1      33.300  24.909  24.199  1.00  0.00    -0.225 NA
ATOM     19  S   UNL A   1      33.898  22.432  23.997  1.00  0.00    -0.106 S 
ATOM     20  C   UNL A   1      32.429  22.959  23.284  1.00  0.00     0.093 A 
BRANCH  17  21
ATOM     21  N   UNL A   1      35.367  24.389  25.097  1.00  0.00    -0.375 N 
ATOM     22  H   UNL A   1      35.920  23.704  25.537  1.00  0.00     0.159 HD
ATOM     23  H   UNL A   1      35.652  25.331  25.105  1.00  0.00     0.159 HD
ENDBRANCH  17  21
ENDBRANCH  15  16
ENDBRANCH  12  15
ENDBRANCH   7  11
ENDBRANCH   6   7
ENDBRANCH   3   6
ENDBRANCH   1   2
BRANCH   1  24
ATOM     24  C   UNL A   1      31.753  31.800  26.884  1.00  0.00     0.042 C 
BRANCH  24  25
ATOM     25  C   UNL A   1      33.049  32.497  27.277  1.00  0.00     0.118 C 
BRANCH  25  26
ATOM     26  N   UNL A   1      32.815  33.872  27.677  1.00  0.00    -0.352 N 
ATOM     27  C   UNL A   1      33.270  34.540  28.785  1.00  0.00     0.251 C 
ATOM     28  H   UNL A   1      32.250  34.400  27.067  1.00  0.00     0.163 HD
ATOM     29  O   UNL A   1      32.715  35.578  29.134  1.00  0.00    -0.269 OA
BRANCH  27  30
ATOM     30  C   UNL A   1      34.417  34.010  29.551  1.00  0.00     0.039 A 
ATOM     31  C   UNL A   1      35.712  34.358  29.161  1.00  0.00     0.014 A 
ATOM     32  C   UNL A   1      34.221  33.122  30.613  1.00  0.00     0.014 A 
ATOM     33  C   UNL A   1      36.806  33.828  29.848  1.00  0.00     0.010 A 
ATOM     34  C   UNL A   1      35.305  32.676  31.359  1.00  0.00     0.010 A 
ATOM     35  C   UNL A   1      36.610  32.989  30.958  1.00  0.00    -0.014 A 
BRANCH  35  36
ATOM     36  C   UNL A   1      37.755  32.356  31.656  1.00  0.00     0.031 A 
ATOM     37  C   UNL A   1      38.166  32.863  33.016  1.00  0.00     0.074 A 
ATOM     38  C   UNL A   1      38.451  31.372  31.053  1.00  0.00     0.049 A 
ATOM     39  N   UNL A   1      39.176  32.499  33.763  1.00  0.00    -0.248 NA
ATOM     40  C   UNL A   1      37.357  33.948  33.599  1.00  0.00     0.031 C 
ATOM     41  C   UNL A   1      38.190  30.847  29.710  1.00  0.00     0.029 A 
ATOM     42  N   UNL A   1      39.529  30.645  31.489  1.00  0.00    -0.354 N 
ATOM     43  C   UNL A   1      39.145  33.333  34.876  1.00  0.00     0.074 A 
ATOM     44  C   UNL A   1      38.045  34.250  34.690  1.00  0.00     0.031 C 
ATOM     45  C   UNL A   1      39.073  29.871  29.441  1.00  0.00     0.029 A 
ATOM     46  C   UNL A   1      39.976  29.717  30.577  1.00  0.00     0.049 A 
ATOM     47  H   UNL A   1      39.944  30.775  32.372  1.00  0.00     0.167 HD
ATOM     48  C   UNL A   1      39.944  33.316  35.968  1.00  0.00     0.037 A 
ATOM     49  C   UNL A   1      40.996  28.843  30.654  1.00  0.00     0.037 A 
ATOM     50  C   UNL A   1      40.988  32.349  36.180  1.00  0.00     0.049 A 
ATOM     51  C   UNL A   1      41.810  28.784  31.920  1.00  0.00     0.074 A 
ATOM     52  C   UNL A   1      41.799  32.186  37.289  1.00  0.00     0.029 A 
ATOM     53  N   UNL A   1      41.350  31.368  35.270  1.00  0.00    -0.354 N 
ATOM     54  N   UNL A   1      41.719  29.534  32.992  1.00  0.00    -0.248 NA
ATOM     55  C   UNL A   1      42.848  27.748  31.996  1.00  0.00     0.031 C 
ATOM     56  C   UNL A   1      42.669  31.120  37.040  1.00  0.00     0.029 A 
ATOM     57  C   UNL A   1      42.373  30.596  35.792  1.00  0.00     0.049 A 
ATOM     58  H   UNL A   1      40.940  31.239  34.384  1.00  0.00     0.167 HD
ATOM     59  C   UNL A   1      42.665  29.038  33.882  1.00  0.00     0.074 A 
ATOM     60  C   UNL A   1      43.308  27.918  33.227  1.00  0.00     0.031 C 
ATOM     61  C   UNL A   1      42.977  29.470  35.130  1.00  0.00     0.037 A 
BRANCH  48  62
ATOM     62  C   UNL A   1      39.710  34.351  37.032  1.00  0.00     0.058 A 
ATOM     63  C   UNL A   1      38.983  34.061  38.197  1.00  0.00     0.135 A 
ATOM     64  C   UNL A   1      40.276  35.632  36.914  1.00  0.00     0.135 A 
ATOM     65  F   UNL A   1      38.403  32.860  38.351  1.00  0.00    -0.206 F 
ATOM     66  C   UNL A   1      38.815  35.006  39.203  1.00  0.00     0.059 A 
ATOM     67  C   UNL A   1      40.141  36.585  37.920  1.00  0.00     0.059 A 
ATOM     68  F   UNL A   1      40.975  35.963  35.818  1.00  0.00    -0.206 F 
ATOM     69  C   UNL A   1      39.402  36.265  39.058  1.00  0.00     0.060 A 
BRANCH  69  70
ATOM     70  S   UNL A   1      39.215  37.464  40.395  1.00  0.00     0.124 S 
ATOM     71  O   UNL A   1      40.552  38.047  40.452  1.00  0.00    -0.237 OA
ATOM     72  O   UNL A   1      38.164  38.339  39.886  1.00  0.00    -0.237 OA
ATOM     73  O   UNL A   1      38.840  36.639  41.540  1.00  0.00    -0.744 OA
ENDBRANCH  69  70
ENDBRANCH  48  62
BRANCH  49  74
ATOM     74  C   UNL A   1      41.291  27.932  29.518  1.00  0.00     0.058 A 
ATOM     75  C   UNL A   1      40.448  26.850  29.221  1.00  0.00     0.135 A 
ATOM     76  C   UNL A   1      42.427  28.115  28.716  1.00  0.00     0.135 A 
ATOM     77  F   UNL A   1      39.349  26.634  29.959  1.00  0.00    -0.206 F 
ATOM     78  C   UNL A   1      40.739  25.960  28.192  1.00  0.00     0.059 A 
ATOM     79  C   UNL A   1      42.727  27.254  27.664  1.00  0.00     0.059 A 
ATOM     80  F   UNL A   1      43.251  29.149  28.942  1.00  0.00    -0.206 F 
ATOM     81  C   UNL A   1      41.885  26.167  27.423  1.00  0.00     0.060 A 
BRANCH  81  82
ATOM     82  S   UNL A   1      42.250  25.019  26.076  1.00  0.00     0.124 S 
ATOM     83  O   UNL A   1      43.659  24.728  26.314  1.00  0.00    -0.237 OA
ATOM     84  O   UNL A   1      41.319  23.926  26.340  1.00  0.00    -0.237 OA
ATOM     85  O   UNL A   1      41.958  25.805  24.881  1.00  0.00    -0.744 OA
ENDBRANCH  81  82
ENDBRANCH  49  74
BRANCH  61  86
ATOM     86  C   UNL A   1      44.016  28.693  35.885  1.00  0.00     0.058 A 
ATOM     87  C   UNL A   1      45.375  29.035  35.834  1.00  0.00     0.135 A 
ATOM     88  C   UNL A   1      43.637  27.615  36.701  1.00  0.00     0.135 A 
ATOM     89  F   UNL A   1      45.786  30.058  35.068  1.00  0.00    -0.206 F 
ATOM     90  C   UNL A   1      46.330  28.313  36.540  1.00  0.00     0.059 A 
ATOM     91  C   UNL A   1      44.571  26.895  37.435  1.00  0.00     0.059 A 
ATOM     92  F   UNL A   1      42.345  27.258  36.794  1.00  0.00    -0.206 F 
ATOM     93  C   UNL A   1      45.919  27.241  37.335  1.00  0.00     0.060 A 
BRANCH  93  94
ATOM     94  S   UNL A   1      47.163  26.314  38.258  1.00  0.00     0.124 S 
ATOM     95  O   UNL A   1      47.738  27.358  39.100  1.00  0.00    -0.237 OA
ATOM     96  O   UNL A   1      46.360  25.311  38.951  1.00  0.00    -0.237 OA
ATOM     97  O   UNL A   1      48.039  25.793  37.213  1.00  0.00    -0.744 OA
ENDBRANCH  93  94
ENDBRANCH  61  86
ENDBRANCH  35  36
ENDBRANCH  27  30
ENDBRANCH  25  26
ENDBRANCH  24  25
ENDBRANCH   1  24
TORSDOF 18
ENDMDL
MODEL 3
REMARK VINA RESULT:     -10.9      6.622     12.236
REMARK SMILES Nc1nc(CC(=O)NC2(CC(=O)NCCCNC(=O)c3ccc(-c4c5nc(c(-c6c(F)cc(S(=O)(=O)[O-])cc6F)c6ccc([nH]6)c(-c6c(F)cc(S(=O)(=O)[O-])cc6F)c6nc(c(-c7c(F)cc(S(=O)(=O)[O-])cc7F)c7ccc4[nH]7)C=C6)C=C5)cc3)CCC2)cs1
REMARK SMILES IDX 14 1 13 2 11 3 12 4 10 6 9 7 86 8 88 9 87 10 8 11 6 12 7 13
REMARK SMILES IDX 5 15 4 16 2 17 3 18 90 19 89 20 1 21 15 24 16 25 17 26 18 27
REMARK SMILES IDX 19 29 20 30 21 31 85 32 22 33 84 34 23 35 24 36 25 37 78 38
REMARK SMILES IDX 26 39 83 40 77 41 79 42 27 43 82 44 76 45 75 46 28 48 62 49
REMARK SMILES IDX 41 50 61 51 42 52 45 53 60 54 80 55 43 56 44 57 59 59 81 60
REMARK SMILES IDX 46 61 29 62 30 63 39 64 31 65 32 66 38 67 40 68 33 69 34 70
REMARK SMILES IDX 35 71 36 72 37 73 63 74 64 75 73 76 65 77 66 78 72 79 74 80
REMARK SMILES IDX 67 81 68 82 69 83 70 84 71 85 47 86 48 87 57 88 49 89 50 90
REMARK SMILES IDX 56 91 58 92 51 93 52 94 53 95 54 96 55 97
REMARK H PARENT 13 5 8 14 1 22 1 23 17 28 79 47 45 58
REMARK Flexibility Score: inf
ROOT
ATOM      1  C   UNL A   1      38.330  22.004  26.092  1.00  0.00     0.117 C 
ENDROOT
BRANCH   1   2
ATOM      2  N   UNL A   1      38.074  22.846  24.942  1.00  0.00    -0.356 N 
ATOM      3  C   UNL A   1      36.880  23.035  24.313  1.00  0.00     0.222 C 
ATOM      4  O   UNL A   1      36.897  23.213  23.097  1.00  0.00    -0.275 OA
ATOM      5  H   UNL A   1      38.845  23.335  24.573  1.00  0.00     0.163 HD
BRANCH   3   6
ATOM      6  C   UNL A   1      35.631  23.147  25.146  1.00  0.00     0.128 C 
BRANCH   6   7
ATOM      7  C   UNL A   1      34.289  22.777  24.513  1.00  0.00     0.049 C 
ATOM      8  C   UNL A   1      33.050  22.976  25.456  1.00  0.00     0.029 C 
ATOM      9  C   UNL A   1      33.946  21.244  24.602  1.00  0.00     0.029 C 
ATOM     10  C   UNL A   1      33.216  21.522  25.924  1.00  0.00     0.005 C 
BRANCH   7  11
ATOM     11  N   UNL A   1      34.031  23.296  23.148  1.00  0.00    -0.350 N 
ATOM     12  C   UNL A   1      33.631  24.513  22.670  1.00  0.00     0.226 C 
ATOM     13  O   UNL A   1      33.266  24.554  21.489  1.00  0.00    -0.275 OA
ATOM     14  H   UNL A   1      34.178  22.627  22.440  1.00  0.00     0.164 HD
BRANCH  12  15
ATOM     15  C   UNL A   1      33.648  25.777  23.499  1.00  0.00     0.157 C 
BRANCH  15  16
ATOM     16  C   UNL A   1      32.465  26.658  23.303  1.00  0.00     0.063 A 
ATOM     17  C   UNL A   1      31.521  28.492  22.484  1.00  0.00     0.180 A 
ATOM     18  N   UNL A   1      32.620  27.787  22.513  1.00  0.00    -0.225 NA
ATOM     19  S   UNL A   1      30.187  27.787  23.299  1.00  0.00    -0.106 S 
ATOM     20  C   UNL A   1      31.182  26.474  23.780  1.00  0.00     0.093 A 
BRANCH  17  21
ATOM     21  N   UNL A   1      31.455  29.685  21.889  1.00  0.00    -0.375 N 
ATOM     22  H   UNL A   1      30.609  30.188  21.886  1.00  0.00     0.159 HD
ATOM     23  H   UNL A   1      32.253  30.063  21.453  1.00  0.00     0.159 HD
ENDBRANCH  17  21
ENDBRANCH  15  16
ENDBRANCH  12  15
ENDBRANCH   7  11
ENDBRANCH   6   7
ENDBRANCH   3   6
ENDBRANCH   1   2
BRANCH   1  24
ATOM     24  C   UNL A   1      39.796  22.109  26.501  1.00  0.00     0.042 C 
BRANCH  24  25
ATOM     25  C   UNL A   1      40.186  23.498  26.989  1.00  0.00     0.118 C 
BRANCH  25  26
ATOM     26  N   UNL A   1      41.043  24.177  26.034  1.00  0.00    -0.352 N 
ATOM     27  C   UNL A   1      41.416  25.496  25.991  1.00  0.00     0.251 C 
ATOM     28  H   UNL A   1      41.409  23.610  25.316  1.00  0.00     0.163 HD
ATOM     29  O   UNL A   1      41.866  25.962  24.948  1.00  0.00    -0.269 OA
BRANCH  27  30
ATOM     30  C   UNL A   1      41.274  26.345  27.192  1.00  0.00     0.039 A 
ATOM     31  C   UNL A   1      40.228  26.093  28.082  1.00  0.00     0.014 A 
ATOM     32  C   UNL A   1      42.132  27.428  27.411  1.00  0.00     0.014 A 
ATOM     33  C   UNL A   1      40.055  26.915  29.196  1.00  0.00     0.010 A 
ATOM     34  C   UNL A   1      42.021  28.182  28.572  1.00  0.00     0.010 A 
ATOM     35  C   UNL A   1      40.955  27.962  29.454  1.00  0.00    -0.014 A 
BRANCH  35  36
ATOM     36  C   UNL A   1      40.749  28.894  30.590  1.00  0.00     0.031 A 
ATOM     37  C   UNL A   1      41.585  28.740  31.836  1.00  0.00     0.074 A 
ATOM     38  C   UNL A   1      39.786  29.834  30.523  1.00  0.00     0.049 A 
ATOM     39  N   UNL A   1      41.517  29.399  32.963  1.00  0.00    -0.248 NA
ATOM     40  C   UNL A   1      42.609  27.680  31.829  1.00  0.00     0.031 C 
ATOM     41  C   UNL A   1      38.869  30.032  29.397  1.00  0.00     0.029 A 
ATOM     42  N   UNL A   1      39.411  30.793  31.428  1.00  0.00    -0.354 N 
ATOM     43  C   UNL A   1      42.455  28.811  33.805  1.00  0.00     0.074 A 
ATOM     44  C   UNL A   1      43.050  27.715  33.078  1.00  0.00     0.031 C 
ATOM     45  C   UNL A   1      38.050  31.060  29.673  1.00  0.00     0.029 A 
ATOM     46  C   UNL A   1      38.365  31.578  31.000  1.00  0.00     0.049 A 
ATOM     47  H   UNL A   1      39.849  30.909  32.301  1.00  0.00     0.167 HD
ATOM     48  C   UNL A   1      42.808  29.171  35.060  1.00  0.00     0.037 A 
ATOM     49  C   UNL A   1      37.737  32.599  31.613  1.00  0.00     0.037 A 
ATOM     50  C   UNL A   1      42.265  30.313  35.747  1.00  0.00     0.049 A 
ATOM     51  C   UNL A   1      38.215  33.037  32.972  1.00  0.00     0.074 A 
ATOM     52  C   UNL A   1      42.616  30.819  36.986  1.00  0.00     0.029 A 
ATOM     53  N   UNL A   1      41.270  31.136  35.243  1.00  0.00    -0.354 N 
ATOM     54  N   UNL A   1      39.153  32.512  33.723  1.00  0.00    -0.248 NA
ATOM     55  C   UNL A   1      37.565  34.217  33.557  1.00  0.00     0.031 C 
ATOM     56  C   UNL A   1      41.816  31.937  37.242  1.00  0.00     0.029 A 
ATOM     57  C   UNL A   1      40.994  32.147  36.146  1.00  0.00     0.049 A 
ATOM     58  H   UNL A   1      40.827  31.019  34.372  1.00  0.00     0.167 HD
ATOM     59  C   UNL A   1      39.228  33.318  34.854  1.00  0.00     0.074 A 
ATOM     60  C   UNL A   1      38.249  34.371  34.682  1.00  0.00     0.031 C 
ATOM     61  C   UNL A   1      40.034  33.199  35.938  1.00  0.00     0.037 A 
BRANCH  48  62
ATOM     62  C   UNL A   1      43.847  28.346  35.767  1.00  0.00     0.058 A 
ATOM     63  C   UNL A   1      43.495  27.263  36.587  1.00  0.00     0.135 A 
ATOM     64  C   UNL A   1      45.214  28.601  35.568  1.00  0.00     0.135 A 
ATOM     65  F   UNL A   1      42.203  26.988  36.828  1.00  0.00    -0.206 F 
ATOM     66  C   UNL A   1      44.461  26.469  37.196  1.00  0.00     0.059 A 
ATOM     67  C   UNL A   1      46.197  27.803  36.147  1.00  0.00     0.059 A 
ATOM     68  F   UNL A   1      45.604  29.628  34.797  1.00  0.00    -0.206 F 
ATOM     69  C   UNL A   1      45.810  26.743  36.965  1.00  0.00     0.060 A 
BRANCH  69  70
ATOM     70  S   UNL A   1      47.051  25.673  37.723  1.00  0.00     0.124 S 
ATOM     71  O   UNL A   1      48.199  26.571  37.807  1.00  0.00    -0.237 OA
ATOM     72  O   UNL A   1      46.428  25.323  38.996  1.00  0.00    -0.237 OA
ATOM     73  O   UNL A   1      47.181  24.575  36.770  1.00  0.00    -0.744 OA
ENDBRANCH  69  70
ENDBRANCH  48  62
BRANCH  49  74
ATOM     74  C   UNL A   1      36.612  33.299  30.940  1.00  0.00     0.058 A 
ATOM     75  C   UNL A   1      35.285  33.098  31.352  1.00  0.00     0.135 A 
ATOM     76  C   UNL A   1      36.837  34.171  29.864  1.00  0.00     0.135 A 
ATOM     77  F   UNL A   1      35.019  32.274  32.377  1.00  0.00    -0.206 F 
ATOM     78  C   UNL A   1      34.219  33.706  30.698  1.00  0.00     0.059 A 
ATOM     79  C   UNL A   1      35.789  34.812  29.211  1.00  0.00     0.059 A 
ATOM     80  F   UNL A   1      38.089  34.417  29.449  1.00  0.00    -0.206 F 
ATOM     81  C   UNL A   1      34.481  34.558  29.624  1.00  0.00     0.060 A 
BRANCH  81  82
ATOM     82  S   UNL A   1      33.094  35.360  28.790  1.00  0.00     0.124 S 
ATOM     83  O   UNL A   1      32.490  34.238  28.082  1.00  0.00    -0.237 OA
ATOM     84  O   UNL A   1      32.327  35.896  29.909  1.00  0.00    -0.237 OA
ATOM     85  O   UNL A   1      33.746  36.362  27.951  1.00  0.00    -0.744 OA
ENDBRANCH  81  82
ENDBRANCH  49  74
BRANCH  61  86
ATOM     86  C   UNL A   1      39.929  34.264  36.991  1.00  0.00     0.058 A 
ATOM     87  C   UNL A   1      40.620  35.480  36.883  1.00  0.00     0.135 A 
ATOM     88  C   UNL A   1      39.093  34.077  38.104  1.00  0.00     0.135 A 
ATOM     89  F   UNL A   1      41.432  35.704  35.837  1.00  0.00    -0.206 F 
ATOM     90  C   UNL A   1      40.514  36.462  37.860  1.00  0.00     0.059 A 
ATOM     91  C   UNL A   1      38.952  35.056  39.080  1.00  0.00     0.059 A 
ATOM     92  F   UNL A   1      38.400  32.936  38.245  1.00  0.00    -0.206 F 
ATOM     93  C   UNL A   1      39.681  36.239  38.959  1.00  0.00     0.060 A 
BRANCH  93  94
ATOM     94  S   UNL A   1      39.539  37.524  40.218  1.00  0.00     0.124 S 
ATOM     95  O   UNL A   1      40.921  37.980  40.326  1.00  0.00    -0.237 OA
ATOM     96  O   UNL A   1      38.607  38.466  39.606  1.00  0.00    -0.237 OA
ATOM     97  O   UNL A   1      39.021  36.804  41.377  1.00  0.00    -0.744 OA
ENDBRANCH  93  94
ENDBRANCH  61  86
ENDBRANCH  35  36
ENDBRANCH  27  30
ENDBRANCH  25  26
ENDBRANCH  24  25
ENDBRANCH   1  24
TORSDOF 18
ENDMDL
