MODEL 1
REMARK VINA RESULT:     -11.2      0.000      0.000
REMARK SMILES C[C@@H](C(=O)NCCCNC(=O)c1ccc(-c2c3nc(c(-c4c(F)cc(S(=O)(=O)[O-])cc4F)c4ccc([nH]4)c(-c4c(F)cc(S(=O)(=O)[O-])cc4F)c4nc(c(-c5c(F)cc(S(=O)(=O)[O-])cc5F)c5ccc2[nH]5)C=C4)C=C3)cc1)[C@H]1CCOC2(CCCCC2)C1
REMARK SMILES IDX 8 1 7 2 6 3 5 4 3 5 4 6 2 8 1 9 78 10 79 11 88 12 80 13
REMARK SMILES IDX 82 14 81 15 83 16 87 17 84 18 86 19 85 20 9 21 10 22 11 24
REMARK SMILES IDX 12 25 13 26 77 27 14 28 76 29 15 30 16 31 17 32 70 33 18 34
REMARK SMILES IDX 75 35 69 36 71 37 19 38 74 39 68 40 67 41 20 43 54 44 33 45
REMARK SMILES IDX 53 46 34 47 37 48 52 49 72 50 35 51 36 52 51 54 73 55 38 56
REMARK SMILES IDX 21 57 22 58 31 59 23 60 24 61 30 62 32 63 25 64 26 65 27 66
REMARK SMILES IDX 28 67 29 68 55 69 56 70 65 71 57 72 58 73 64 74 66 75 59 76
REMARK SMILES IDX 60 77 61 78 62 79 63 80 39 81 40 82 49 83 41 84 42 85 48 86
REMARK SMILES IDX 50 87 43 88 44 89 45 90 46 91 47 92
REMARK H PARENT 5 7 9 23 71 42 37 53
REMARK Flexibility Score: inf
ROOT
ATOM      1  C   UNL A   1      33.741  28.414  26.901  1.00  0.00     0.118 C 
ENDROOT
BRANCH   1   2
ATOM      2  C   UNL A   1      32.423  27.649  26.882  1.00  0.00     0.042 C 
BRANCH   2   3
ATOM      3  C   UNL A   1      31.576  27.868  25.628  1.00  0.00     0.117 C 
BRANCH   3   4
ATOM      4  N   UNL A   1      31.124  26.613  25.057  1.00  0.00    -0.356 N 
ATOM      5  C   UNL A   1      31.763  25.702  24.272  1.00  0.00     0.223 C 
ATOM      6  O   UNL A   1      31.046  24.849  23.750  1.00  0.00    -0.275 OA
ATOM      7  H   UNL A   1      30.193  26.379  25.276  1.00  0.00     0.163 HD
BRANCH   5   8
ATOM      8  C   UNL A   1      33.283  25.797  24.051  1.00  0.00     0.078 C 
ATOM      9  C   UNL A   1      33.571  25.641  22.552  1.00  0.00     0.018 C 
BRANCH   8  10
ATOM     10  C   UNL A   1      34.196  24.898  24.975  1.00  0.00     0.006 C 
ATOM     11  C   UNL A   1      33.488  24.086  26.069  1.00  0.00     0.033 C 
ATOM     12  C   UNL A   1      35.118  23.941  24.192  1.00  0.00     0.040 C 
ATOM     13  C   UNL A   1      34.463  23.263  26.897  1.00  0.00     0.161 C 
ATOM     14  C   UNL A   1      36.031  23.073  25.077  1.00  0.00     0.069 C 
ATOM     15  O   UNL A   1      35.256  22.408  26.082  1.00  0.00    -0.375 OA
ATOM     16  C   UNL A   1      37.176  23.899  25.704  1.00  0.00     0.035 C 
ATOM     17  C   UNL A   1      36.646  21.962  24.194  1.00  0.00     0.035 C 
ATOM     18  C   UNL A   1      38.151  23.022  26.490  1.00  0.00     0.003 C 
ATOM     19  C   UNL A   1      37.636  21.083  24.957  1.00  0.00     0.003 C 
ATOM     20  C   UNL A   1      38.730  21.914  25.618  1.00  0.00     0.000 C 
ENDBRANCH   8  10
ENDBRANCH   5   8
ENDBRANCH   3   4
ENDBRANCH   2   3
ENDBRANCH   1   2
BRANCH   1  21
ATOM     21  N   UNL A   1      33.598  29.754  27.439  1.00  0.00    -0.352 N 
ATOM     22  C   UNL A   1      34.484  30.498  28.175  1.00  0.00     0.251 C 
ATOM     23  H   UNL A   1      32.738  30.194  27.248  1.00  0.00     0.163 HD
ATOM     24  O   UNL A   1      34.091  31.537  28.706  1.00  0.00    -0.269 OA
BRANCH  22  25
ATOM     25  C   UNL A   1      35.889  30.065  28.345  1.00  0.00     0.039 A 
ATOM     26  C   UNL A   1      36.287  29.561  29.586  1.00  0.00     0.014 A 
ATOM     27  C   UNL A   1      36.831  30.205  27.319  1.00  0.00     0.014 A 
ATOM     28  C   UNL A   1      37.616  29.181  29.793  1.00  0.00     0.010 A 
ATOM     29  C   UNL A   1      38.136  29.752  27.501  1.00  0.00     0.010 A 
ATOM     30  C   UNL A   1      38.550  29.264  28.749  1.00  0.00    -0.014 A 
BRANCH  30  31
ATOM     31  C   UNL A   1      39.975  28.910  28.973  1.00  0.00     0.031 A 
ATOM     32  C   UNL A   1      40.922  29.929  29.553  1.00  0.00     0.074 A 
ATOM     33  C   UNL A   1      40.427  27.688  28.631  1.00  0.00     0.049 A 
ATOM     34  N   UNL A   1      42.202  29.823  29.802  1.00  0.00    -0.248 NA
ATOM     35  C   UNL A   1      40.358  31.252  29.868  1.00  0.00     0.031 C 
ATOM     36  C   UNL A   1      39.624  26.633  28.009  1.00  0.00     0.029 A 
ATOM     37  N   UNL A   1      41.673  27.128  28.753  1.00  0.00    -0.354 N 
ATOM     38  C   UNL A   1      42.598  31.064  30.289  1.00  0.00     0.074 A 
ATOM     39  C   UNL A   1      41.437  31.925  30.242  1.00  0.00     0.031 C 
ATOM     40  C   UNL A   1      40.393  25.547  27.822  1.00  0.00     0.029 A 
ATOM     41  C   UNL A   1      41.746  25.836  28.290  1.00  0.00     0.049 A 
ATOM     42  H   UNL A   1      42.443  27.607  29.137  1.00  0.00     0.167 HD
ATOM     43  C   UNL A   1      43.808  31.446  30.763  1.00  0.00     0.037 A 
ATOM     44  C   UNL A   1      42.784  24.978  28.253  1.00  0.00     0.037 A 
ATOM     45  C   UNL A   1      44.954  30.578  30.833  1.00  0.00     0.049 A 
ATOM     46  C   UNL A   1      44.109  25.406  28.825  1.00  0.00     0.074 A 
ATOM     47  C   UNL A   1      46.219  30.854  31.324  1.00  0.00     0.029 A 
ATOM     48  N   UNL A   1      44.971  29.258  30.406  1.00  0.00    -0.354 N 
ATOM     49  N   UNL A   1      44.452  26.568  29.328  1.00  0.00    -0.248 NA
ATOM     50  C   UNL A   1      45.179  24.399  28.848  1.00  0.00     0.031 C 
ATOM     51  C   UNL A   1      47.007  29.706  31.172  1.00  0.00     0.029 A 
ATOM     52  C   UNL A   1      46.222  28.705  30.624  1.00  0.00     0.049 A 
ATOM     53  H   UNL A   1      44.206  28.783  30.007  1.00  0.00     0.167 HD
ATOM     54  C   UNL A   1      45.769  26.426  29.750  1.00  0.00     0.074 A 
ATOM     55  C   UNL A   1      46.155  25.059  29.455  1.00  0.00     0.031 C 
ATOM     56  C   UNL A   1      46.584  27.339  30.333  1.00  0.00     0.037 A 
BRANCH  43  57
ATOM     57  C   UNL A   1      43.940  32.863  31.251  1.00  0.00     0.058 A 
ATOM     58  C   UNL A   1      43.723  33.199  32.598  1.00  0.00     0.135 A 
ATOM     59  C   UNL A   1      44.285  33.899  30.367  1.00  0.00     0.135 A 
ATOM     60  F   UNL A   1      43.376  32.252  33.483  1.00  0.00    -0.206 F 
ATOM     61  C   UNL A   1      43.797  34.516  33.041  1.00  0.00     0.059 A 
ATOM     62  C   UNL A   1      44.394  35.219  30.795  1.00  0.00     0.059 A 
ATOM     63  F   UNL A   1      44.506  33.635  29.069  1.00  0.00    -0.206 F 
ATOM     64  C   UNL A   1      44.128  35.519  32.130  1.00  0.00     0.060 A 
BRANCH  64  65
ATOM     65  S   UNL A   1      44.200  37.226  32.715  1.00  0.00     0.124 S 
ATOM     66  O   UNL A   1      44.023  37.967  31.470  1.00  0.00    -0.237 OA
ATOM     67  O   UNL A   1      43.081  37.286  33.651  1.00  0.00    -0.237 OA
ATOM     68  O   UNL A   1      45.524  37.322  33.320  1.00  0.00    -0.744 OA
ENDBRANCH  64  65
ENDBRANCH  43  57
BRANCH  44  69
ATOM     69  C   UNL A   1      42.593  23.616  27.691  1.00  0.00     0.058 A 
ATOM     70  C   UNL A   1      42.676  23.385  26.310  1.00  0.00     0.135 A 
ATOM     71  C   UNL A   1      42.364  22.512  28.527  1.00  0.00     0.135 A 
ATOM     72  F   UNL A   1      42.891  24.409  25.471  1.00  0.00    -0.206 F 
ATOM     73  C   UNL A   1      42.526  22.110  25.774  1.00  0.00     0.059 A 
ATOM     74  C   UNL A   1      42.232  21.225  28.016  1.00  0.00     0.059 A 
ATOM     75  F   UNL A   1      42.296  22.679  29.857  1.00  0.00    -0.206 F 
ATOM     76  C   UNL A   1      42.308  21.035  26.637  1.00  0.00     0.060 A 
BRANCH  76  77
ATOM     77  S   UNL A   1      42.183  19.374  25.939  1.00  0.00     0.124 S 
ATOM     78  O   UNL A   1      42.716  18.558  27.024  1.00  0.00    -0.237 OA
ATOM     79  O   UNL A   1      40.750  19.251  25.691  1.00  0.00    -0.237 OA
ATOM     80  O   UNL A   1      43.013  19.452  24.741  1.00  0.00    -0.744 OA
ENDBRANCH  76  77
ENDBRANCH  44  69
BRANCH  56  81
ATOM     81  C   UNL A   1      47.960  26.882  30.728  1.00  0.00     0.058 A 
ATOM     82  C   UNL A   1      49.072  27.074  29.895  1.00  0.00     0.135 A 
ATOM     83  C   UNL A   1      48.171  26.271  31.976  1.00  0.00     0.135 A 
ATOM     84  F   UNL A   1      48.923  27.650  28.691  1.00  0.00    -0.206 F 
ATOM     85  C   UNL A   1      50.343  26.648  30.270  1.00  0.00     0.059 A 
ATOM     86  C   UNL A   1      49.437  25.861  32.381  1.00  0.00     0.059 A 
ATOM     87  F   UNL A   1      47.143  26.076  32.815  1.00  0.00    -0.206 F 
ATOM     88  C   UNL A   1      50.514  26.038  31.514  1.00  0.00     0.060 A 
BRANCH  88  89
ATOM     89  S   UNL A   1      52.167  25.500  31.998  1.00  0.00     0.124 S 
ATOM     90  O   UNL A   1      52.947  25.852  30.815  1.00  0.00    -0.237 OA
ATOM     91  O   UNL A   1      52.425  26.304  33.188  1.00  0.00    -0.237 OA
ATOM     92  O   UNL A   1      52.002  24.070  32.239  1.00  0.00    -0.744 OA
ENDBRANCH  88  89
ENDBRANCH  56  81
ENDBRANCH  30  31
ENDBRANCH  22  25
ENDBRANCH   1  21
TORSDOF 14
ENDMDL
MODEL 2
REMARK VINA RESULT:     -11.1      4.840     10.628
REMARK SMILES C[C@@H](C(=O)NCCCNC(=O)c1ccc(-c2c3nc(c(-c4c(F)cc(S(=O)(=O)[O-])cc4F)c4ccc([nH]4)c(-c4c(F)cc(S(=O)(=O)[O-])cc4F)c4nc(c(-c5c(F)cc(S(=O)(=O)[O-])cc5F)c5ccc2[nH]5)C=C4)C=C3)cc1)[C@H]1CCOC2(CCCCC2)C1
REMARK SMILES IDX 8 1 7 2 6 3 5 4 3 5 4 6 2 8 1 9 78 10 79 11 88 12 80 13
REMARK SMILES IDX 82 14 81 15 83 16 87 17 84 18 86 19 85 20 9 21 10 22 11 24
REMARK SMILES IDX 12 25 13 26 77 27 14 28 76 29 15 30 16 31 17 32 70 33 18 34
REMARK SMILES IDX 75 35 69 36 71 37 19 38 74 39 68 40 67 41 20 43 54 44 33 45
REMARK SMILES IDX 53 46 34 47 37 48 52 49 72 50 35 51 36 52 51 54 73 55 38 56
REMARK SMILES IDX 21 57 22 58 31 59 23 60 24 61 30 62 32 63 25 64 26 65 27 66
REMARK SMILES IDX 28 67 29 68 55 69 56 70 65 71 57 72 58 73 64 74 66 75 59 76
REMARK SMILES IDX 60 77 61 78 62 79 63 80 39 81 40 82 49 83 41 84 42 85 48 86
REMARK SMILES IDX 50 87 43 88 44 89 45 90 46 91 47 92
REMARK H PARENT 5 7 9 23 71 42 37 53
REMARK Flexibility Score: inf
ROOT
ATOM      1  C   UNL A   1      40.306  23.292  27.094  1.00  0.00     0.118 C 
ENDROOT
BRANCH   1   2
ATOM      2  C   UNL A   1      39.091  22.589  26.500  1.00  0.00     0.042 C 
BRANCH   2   3
ATOM      3  C   UNL A   1      37.952  23.522  26.086  1.00  0.00     0.117 C 
BRANCH   3   4
ATOM      4  N   UNL A   1      37.712  23.478  24.656  1.00  0.00    -0.356 N 
ATOM      5  C   UNL A   1      36.565  23.307  23.943  1.00  0.00     0.223 C 
ATOM      6  O   UNL A   1      36.710  23.081  22.742  1.00  0.00    -0.275 OA
ATOM      7  H   UNL A   1      38.520  23.594  24.105  1.00  0.00     0.163 HD
BRANCH   5   8
ATOM      8  C   UNL A   1      35.197  23.363  24.647  1.00  0.00     0.078 C 
ATOM      9  C   UNL A   1      34.508  22.001  24.488  1.00  0.00     0.018 C 
BRANCH   8  10
ATOM     10  C   UNL A   1      34.268  24.593  24.305  1.00  0.00     0.006 C 
ATOM     11  C   UNL A   1      32.905  24.277  23.672  1.00  0.00     0.033 C 
ATOM     12  C   UNL A   1      34.031  25.542  25.497  1.00  0.00     0.040 C 
ATOM     13  C   UNL A   1      32.099  25.534  23.382  1.00  0.00     0.161 C 
ATOM     14  C   UNL A   1      33.145  26.760  25.174  1.00  0.00     0.069 C 
ATOM     15  O   UNL A   1      31.929  26.331  24.547  1.00  0.00    -0.375 OA
ATOM     16  C   UNL A   1      33.891  27.797  24.307  1.00  0.00     0.035 C 
ATOM     17  C   UNL A   1      32.737  27.427  26.508  1.00  0.00     0.035 C 
ATOM     18  C   UNL A   1      33.055  29.058  24.079  1.00  0.00     0.003 C 
ATOM     19  C   UNL A   1      31.915  28.699  26.303  1.00  0.00     0.003 C 
ATOM     20  C   UNL A   1      32.636  29.694  25.400  1.00  0.00     0.000 C 
ENDBRANCH   8  10
ENDBRANCH   5   8
ENDBRANCH   3   4
ENDBRANCH   2   3
ENDBRANCH   1   2
BRANCH   1  21
ATOM     21  N   UNL A   1      41.088  23.990  26.090  1.00  0.00    -0.352 N 
ATOM     22  C   UNL A   1      41.491  25.301  26.055  1.00  0.00     0.251 C 
ATOM     23  H   UNL A   1      41.371  23.443  25.323  1.00  0.00     0.163 HD
ATOM     24  O   UNL A   1      41.978  25.745  25.015  1.00  0.00    -0.269 OA
BRANCH  22  25
ATOM     25  C   UNL A   1      41.338  26.180  27.236  1.00  0.00     0.039 A 
ATOM     26  C   UNL A   1      40.238  25.986  28.075  1.00  0.00     0.014 A 
ATOM     27  C   UNL A   1      42.229  27.230  27.491  1.00  0.00     0.014 A 
ATOM     28  C   UNL A   1      40.042  26.824  29.176  1.00  0.00     0.010 A 
ATOM     29  C   UNL A   1      42.076  28.014  28.632  1.00  0.00     0.010 A 
ATOM     30  C   UNL A   1      40.964  27.840  29.469  1.00  0.00    -0.014 A 
BRANCH  30  31
ATOM     31  C   UNL A   1      40.738  28.768  30.607  1.00  0.00     0.031 A 
ATOM     32  C   UNL A   1      41.575  28.645  31.855  1.00  0.00     0.074 A 
ATOM     33  C   UNL A   1      39.769  29.700  30.534  1.00  0.00     0.049 A 
ATOM     34  N   UNL A   1      41.518  29.341  32.962  1.00  0.00    -0.248 NA
ATOM     35  C   UNL A   1      42.590  27.579  31.869  1.00  0.00     0.031 C 
ATOM     36  C   UNL A   1      38.855  29.884  29.405  1.00  0.00     0.029 A 
ATOM     37  N   UNL A   1      39.387  30.666  31.431  1.00  0.00    -0.354 N 
ATOM     38  C   UNL A   1      42.477  28.790  33.805  1.00  0.00     0.074 A 
ATOM     39  C   UNL A   1      43.057  27.665  33.106  1.00  0.00     0.031 C 
ATOM     40  C   UNL A   1      38.032  30.912  29.668  1.00  0.00     0.029 A 
ATOM     41  C   UNL A   1      38.344  31.445  30.991  1.00  0.00     0.049 A 
ATOM     42  H   UNL A   1      39.820  30.789  32.307  1.00  0.00     0.167 HD
ATOM     43  C   UNL A   1      42.865  29.202  35.037  1.00  0.00     0.037 A 
ATOM     44  C   UNL A   1      37.714  32.478  31.585  1.00  0.00     0.037 A 
ATOM     45  C   UNL A   1      42.303  30.338  35.718  1.00  0.00     0.049 A 
ATOM     46  C   UNL A   1      38.188  32.948  32.933  1.00  0.00     0.074 A 
ATOM     47  C   UNL A   1      42.644  30.860  36.954  1.00  0.00     0.029 A 
ATOM     48  N   UNL A   1      41.286  31.137  35.214  1.00  0.00    -0.354 N 
ATOM     49  N   UNL A   1      39.131  32.446  33.696  1.00  0.00    -0.248 NA
ATOM     50  C   UNL A   1      37.532  34.138  33.491  1.00  0.00     0.031 C 
ATOM     51  C   UNL A   1      41.816  31.961  37.207  1.00  0.00     0.029 A 
ATOM     52  C   UNL A   1      40.988  32.149  36.112  1.00  0.00     0.049 A 
ATOM     53  H   UNL A   1      40.842  31.005  34.345  1.00  0.00     0.167 HD
ATOM     54  C   UNL A   1      39.198  33.274  34.812  1.00  0.00     0.074 A 
ATOM     55  C   UNL A   1      38.208  34.315  34.617  1.00  0.00     0.031 C 
ATOM     56  C   UNL A   1      40.007  33.183  35.896  1.00  0.00     0.037 A 
BRANCH  43  57
ATOM     57  C   UNL A   1      43.956  28.416  35.713  1.00  0.00     0.058 A 
ATOM     58  C   UNL A   1      45.313  28.705  35.491  1.00  0.00     0.135 A 
ATOM     59  C   UNL A   1      43.647  27.364  36.589  1.00  0.00     0.135 A 
ATOM     60  F   UNL A   1      45.666  29.690  34.651  1.00  0.00    -0.206 F 
ATOM     61  C   UNL A   1      46.323  27.950  36.077  1.00  0.00     0.059 A 
ATOM     62  C   UNL A   1      44.642  26.614  37.210  1.00  0.00     0.059 A 
ATOM     63  F   UNL A   1      42.367  27.046  36.840  1.00  0.00    -0.206 F 
ATOM     64  C   UNL A   1      45.977  26.902  36.931  1.00  0.00     0.060 A 
BRANCH  64  65
ATOM     65  S   UNL A   1      47.299  25.916  37.668  1.00  0.00     0.124 S 
ATOM     66  O   UNL A   1      47.689  25.069  36.545  1.00  0.00    -0.237 OA
ATOM     67  O   UNL A   1      48.269  26.933  38.061  1.00  0.00    -0.237 OA
ATOM     68  O   UNL A   1      46.634  25.229  38.771  1.00  0.00    -0.744 OA
ENDBRANCH  64  65
ENDBRANCH  43  57
BRANCH  44  69
ATOM     69  C   UNL A   1      36.596  33.160  30.882  1.00  0.00     0.058 A 
ATOM     70  C   UNL A   1      35.271  33.014  31.318  1.00  0.00     0.135 A 
ATOM     71  C   UNL A   1      36.836  34.002  29.785  1.00  0.00     0.135 A 
ATOM     72  F   UNL A   1      34.993  32.217  32.361  1.00  0.00    -0.206 F 
ATOM     73  C   UNL A   1      34.220  33.669  30.685  1.00  0.00     0.059 A 
ATOM     74  C   UNL A   1      35.803  34.684  29.150  1.00  0.00     0.059 A 
ATOM     75  F   UNL A   1      38.089  34.190  29.343  1.00  0.00    -0.206 F 
ATOM     76  C   UNL A   1      34.497  34.506  29.604  1.00  0.00     0.060 A 
BRANCH  76  77
ATOM     77  S   UNL A   1      33.135  35.406  28.831  1.00  0.00     0.124 S 
ATOM     78  O   UNL A   1      32.497  34.356  28.046  1.00  0.00    -0.237 OA
ATOM     79  O   UNL A   1      32.385  35.883  29.990  1.00  0.00    -0.237 OA
ATOM     80  O   UNL A   1      33.813  36.446  28.065  1.00  0.00    -0.744 OA
ENDBRANCH  76  77
ENDBRANCH  44  69
BRANCH  56  81
ATOM     81  C   UNL A   1      39.886  34.260  36.937  1.00  0.00     0.058 A 
ATOM     82  C   UNL A   1      40.589  35.470  36.836  1.00  0.00     0.135 A 
ATOM     83  C   UNL A   1      39.025  34.089  38.034  1.00  0.00     0.135 A 
ATOM     84  F   UNL A   1      41.425  35.681  35.807  1.00  0.00    -0.206 F 
ATOM     85  C   UNL A   1      40.469  36.463  37.804  1.00  0.00     0.059 A 
ATOM     86  C   UNL A   1      38.871  35.079  39.000  1.00  0.00     0.059 A 
ATOM     87  F   UNL A   1      38.321  32.956  38.170  1.00  0.00    -0.206 F 
ATOM     88  C   UNL A   1      39.610  36.255  38.885  1.00  0.00     0.060 A 
BRANCH  88  89
ATOM     89  S   UNL A   1      39.451  37.553  40.129  1.00  0.00     0.124 S 
ATOM     90  O   UNL A   1      40.801  38.106  40.149  1.00  0.00    -0.237 OA
ATOM     91  O   UNL A   1      38.421  38.415  39.556  1.00  0.00    -0.237 OA
ATOM     92  O   UNL A   1      39.052  36.825  41.329  1.00  0.00    -0.744 OA
ENDBRANCH  88  89
ENDBRANCH  56  81
ENDBRANCH  30  31
ENDBRANCH  22  25
ENDBRANCH   1  21
TORSDOF 14
ENDMDL
MODEL 3
REMARK VINA RESULT:     -11.1      3.290      5.307
REMARK SMILES C[C@@H](C(=O)NCCCNC(=O)c1ccc(-c2c3nc(c(-c4c(F)cc(S(=O)(=O)[O-])cc4F)c4ccc([nH]4)c(-c4c(F)cc(S(=O)(=O)[O-])cc4F)c4nc(c(-c5c(F)cc(S(=O)(=O)[O-])cc5F)c5ccc2[nH]5)C=C4)C=C3)cc1)[C@H]1CCOC2(CCCCC2)C1
REMARK SMILES IDX 8 1 7 2 6 3 5 4 3 5 4 6 2 8 1 9 78 10 79 11 88 12 80 13
REMARK SMILES IDX 82 14 81 15 83 16 87 17 84 18 86 19 85 20 9 21 10 22 11 24
REMARK SMILES IDX 12 25 13 26 77 27 14 28 76 29 15 30 16 31 17 32 70 33 18 34
REMARK SMILES IDX 75 35 69 36 71 37 19 38 74 39 68 40 67 41 20 43 54 44 33 45
REMARK SMILES IDX 53 46 34 47 37 48 52 49 72 50 35 51 36 52 51 54 73 55 38 56
REMARK SMILES IDX 21 57 22 58 31 59 23 60 24 61 30 62 32 63 25 64 26 65 27 66
REMARK SMILES IDX 28 67 29 68 55 69 56 70 65 71 57 72 58 73 64 74 66 75 59 76
REMARK SMILES IDX 60 77 61 78 62 79 63 80 39 81 40 82 49 83 41 84 42 85 48 86
REMARK SMILES IDX 50 87 43 88 44 89 45 90 46 91 47 92
REMARK H PARENT 5 7 9 23 71 42 37 53
REMARK Flexibility Score: inf
ROOT
ATOM      1  C   UNL A   1      35.526  30.254  28.055  1.00  0.00     0.118 C 
ENDROOT
BRANCH   1   2
ATOM      2  C   UNL A   1      34.611  29.142  27.556  1.00  0.00     0.042 C 
BRANCH   2   3
ATOM      3  C   UNL A   1      33.572  29.585  26.526  1.00  0.00     0.117 C 
BRANCH   3   4
ATOM      4  N   UNL A   1      34.023  29.345  25.167  1.00  0.00    -0.356 N 
ATOM      5  C   UNL A   1      33.627  28.433  24.238  1.00  0.00     0.223 C 
ATOM      6  O   UNL A   1      34.357  28.318  23.255  1.00  0.00    -0.275 OA
ATOM      7  H   UNL A   1      34.741  29.948  24.865  1.00  0.00     0.163 HD
BRANCH   5   8
ATOM      8  C   UNL A   1      32.357  27.593  24.466  1.00  0.00     0.078 C 
ATOM      9  C   UNL A   1      32.702  26.114  24.247  1.00  0.00     0.018 C 
BRANCH   8  10
ATOM     10  C   UNL A   1      31.047  28.061  23.718  1.00  0.00     0.006 C 
ATOM     11  C   UNL A   1      29.794  27.193  23.908  1.00  0.00     0.033 C 
ATOM     12  C   UNL A   1      30.660  29.526  24.004  1.00  0.00     0.040 C 
ATOM     13  C   UNL A   1      28.597  27.735  23.141  1.00  0.00     0.161 C 
ATOM     14  C   UNL A   1      29.396  30.005  23.265  1.00  0.00     0.069 C 
ATOM     15  O   UNL A   1      28.319  29.086  23.486  1.00  0.00    -0.375 OA
ATOM     16  C   UNL A   1      29.659  30.215  21.758  1.00  0.00     0.035 C 
ATOM     17  C   UNL A   1      28.956  31.352  23.885  1.00  0.00     0.035 C 
ATOM     18  C   UNL A   1      28.441  30.799  21.041  1.00  0.00     0.003 C 
ATOM     19  C   UNL A   1      27.749  31.961  23.172  1.00  0.00     0.003 C 
ATOM     20  C   UNL A   1      27.998  32.112  21.676  1.00  0.00     0.000 C 
ENDBRANCH   8  10
ENDBRANCH   5   8
ENDBRANCH   3   4
ENDBRANCH   2   3
ENDBRANCH   1   2
BRANCH   1  21
ATOM     21  N   UNL A   1      35.502  30.385  29.501  1.00  0.00    -0.352 N 
ATOM     22  C   UNL A   1      36.478  30.092  30.419  1.00  0.00     0.251 C 
ATOM     23  H   UNL A   1      34.663  30.736  29.877  1.00  0.00     0.163 HD
ATOM     24  O   UNL A   1      36.185  30.085  31.615  1.00  0.00    -0.269 OA
BRANCH  22  25
ATOM     25  C   UNL A   1      37.859  29.775  29.992  1.00  0.00     0.039 A 
ATOM     26  C   UNL A   1      38.196  29.932  28.646  1.00  0.00     0.014 A 
ATOM     27  C   UNL A   1      38.807  29.268  30.890  1.00  0.00     0.014 A 
ATOM     28  C   UNL A   1      39.480  29.604  28.203  1.00  0.00     0.010 A 
ATOM     29  C   UNL A   1      40.109  29.016  30.463  1.00  0.00     0.010 A 
ATOM     30  C   UNL A   1      40.450  29.151  29.109  1.00  0.00    -0.014 A 
BRANCH  30  31
ATOM     31  C   UNL A   1      41.803  28.752  28.641  1.00  0.00     0.031 A 
ATOM     32  C   UNL A   1      42.904  29.778  28.561  1.00  0.00     0.074 A 
ATOM     33  C   UNL A   1      42.036  27.481  28.261  1.00  0.00     0.049 A 
ATOM     34  N   UNL A   1      44.141  29.636  28.158  1.00  0.00    -0.248 NA
ATOM     35  C   UNL A   1      42.559  31.152  28.961  1.00  0.00     0.031 C 
ATOM     36  C   UNL A   1      41.040  26.409  28.239  1.00  0.00     0.029 A 
ATOM     37  N   UNL A   1      43.185  26.876  27.818  1.00  0.00    -0.354 N 
ATOM     38  C   UNL A   1      44.716  30.899  28.243  1.00  0.00     0.074 A 
ATOM     39  C   UNL A   1      43.676  31.807  28.676  1.00  0.00     0.031 C 
ATOM     40  C   UNL A   1      41.625  25.273  27.822  1.00  0.00     0.029 A 
ATOM     41  C   UNL A   1      43.030  25.542  27.528  1.00  0.00     0.049 A 
ATOM     42  H   UNL A   1      44.040  27.354  27.716  1.00  0.00     0.167 HD
ATOM     43  C   UNL A   1      45.999  31.267  28.014  1.00  0.00     0.037 A 
ATOM     44  C   UNL A   1      43.921  24.635  27.082  1.00  0.00     0.037 A 
ATOM     45  C   UNL A   1      47.037  30.357  27.609  1.00  0.00     0.049 A 
ATOM     46  C   UNL A   1      45.351  25.053  26.877  1.00  0.00     0.074 A 
ATOM     47  C   UNL A   1      48.376  30.619  27.379  1.00  0.00     0.029 A 
ATOM     48  N   UNL A   1      46.851  29.000  27.381  1.00  0.00    -0.354 N 
ATOM     49  N   UNL A   1      45.889  26.243  27.009  1.00  0.00    -0.248 NA
ATOM     50  C   UNL A   1      46.301  24.004  26.484  1.00  0.00     0.031 C 
ATOM     51  C   UNL A   1      48.996  29.425  26.990  1.00  0.00     0.029 A 
ATOM     52  C   UNL A   1      48.051  28.412  27.016  1.00  0.00     0.049 A 
ATOM     53  H   UNL A   1      45.993  28.525  27.467  1.00  0.00     0.167 HD
ATOM     54  C   UNL A   1      47.244  26.080  26.742  1.00  0.00     0.074 A 
ATOM     55  C   UNL A   1      47.444  24.674  26.452  1.00  0.00     0.031 C 
ATOM     56  C   UNL A   1      48.233  27.008  26.741  1.00  0.00     0.037 A 
BRANCH  43  57
ATOM     57  C   UNL A   1      46.343  32.719  28.210  1.00  0.00     0.058 A 
ATOM     58  C   UNL A   1      46.192  33.655  27.172  1.00  0.00     0.135 A 
ATOM     59  C   UNL A   1      46.830  33.184  29.442  1.00  0.00     0.135 A 
ATOM     60  F   UNL A   1      45.745  33.263  25.969  1.00  0.00    -0.206 F 
ATOM     61  C   UNL A   1      46.554  34.988  27.335  1.00  0.00     0.059 A 
ATOM     62  C   UNL A   1      47.171  34.519  29.636  1.00  0.00     0.059 A 
ATOM     63  F   UNL A   1      46.993  32.335  30.468  1.00  0.00    -0.206 F 
ATOM     64  C   UNL A   1      47.049  35.410  28.570  1.00  0.00     0.060 A 
BRANCH  64  65
ATOM     65  S   UNL A   1      47.535  37.138  28.761  1.00  0.00     0.124 S 
ATOM     66  O   UNL A   1      48.076  37.139  30.116  1.00  0.00    -0.237 OA
ATOM     67  O   UNL A   1      48.512  37.311  27.689  1.00  0.00    -0.237 OA
ATOM     68  O   UNL A   1      46.282  37.864  28.584  1.00  0.00    -0.744 OA
ENDBRANCH  64  65
ENDBRANCH  43  57
BRANCH  44  69
ATOM     69  C   UNL A   1      43.488  23.234  26.845  1.00  0.00     0.058 A 
ATOM     70  C   UNL A   1      43.358  22.727  25.544  1.00  0.00     0.135 A 
ATOM     71  C   UNL A   1      43.234  22.362  27.915  1.00  0.00     0.135 A 
ATOM     72  F   UNL A   1      43.587  23.523  24.489  1.00  0.00    -0.206 F 
ATOM     73  C   UNL A   1      42.980  21.409  25.309  1.00  0.00     0.059 A 
ATOM     74  C   UNL A   1      42.876  21.034  27.706  1.00  0.00     0.059 A 
ATOM     75  F   UNL A   1      43.365  22.794  29.179  1.00  0.00    -0.206 F 
ATOM     76  C   UNL A   1      42.745  20.569  26.398  1.00  0.00     0.060 A 
BRANCH  76  77
ATOM     77  S   UNL A   1      42.322  18.841  26.085  1.00  0.00     0.124 S 
ATOM     78  O   UNL A   1      43.238  18.506  25.001  1.00  0.00    -0.237 OA
ATOM     79  O   UNL A   1      42.601  18.217  27.375  1.00  0.00    -0.237 OA
ATOM     80  O   UNL A   1      40.909  18.903  25.723  1.00  0.00    -0.744 OA
ENDBRANCH  76  77
ENDBRANCH  44  69
BRANCH  56  81
ATOM     81  C   UNL A   1      49.627  26.526  26.457  1.00  0.00     0.058 A 
ATOM     82  C   UNL A   1      50.442  25.981  27.461  1.00  0.00     0.135 A 
ATOM     83  C   UNL A   1      50.142  26.581  25.151  1.00  0.00     0.135 A 
ATOM     84  F   UNL A   1      49.998  25.910  28.726  1.00  0.00    -0.206 F 
ATOM     85  C   UNL A   1      51.732  25.537  27.188  1.00  0.00     0.059 A 
ATOM     86  C   UNL A   1      51.419  26.118  24.851  1.00  0.00     0.059 A 
ATOM     87  F   UNL A   1      49.399  27.081  24.152  1.00  0.00    -0.206 F 
ATOM     88  C   UNL A   1      52.213  25.613  25.880  1.00  0.00     0.060 A 
BRANCH  88  89
ATOM     89  S   UNL A   1      53.882  25.022  25.532  1.00  0.00     0.124 S 
ATOM     90  O   UNL A   1      54.607  25.483  26.712  1.00  0.00    -0.237 OA
ATOM     91  O   UNL A   1      53.691  23.578  25.430  1.00  0.00    -0.237 OA
ATOM     92  O   UNL A   1      54.226  25.692  24.281  1.00  0.00    -0.744 OA
ENDBRANCH  88  89
ENDBRANCH  56  81
ENDBRANCH  30  31
ENDBRANCH  22  25
ENDBRANCH   1  21
TORSDOF 14
ENDMDL
