MODEL 1
REMARK VINA RESULT:     -15.0      0.000      0.000
REMARK SMILES Cc1ccc(C(=O)N2C[C@@H](C(=O)NCCCNC(=O)c3ccc(-c4c5nc(c(-c6c(F)cc(S(=O)(=O)[O-])cc6F)c6ccc([nH]6)c(-c6c(F)cc(S(=O)(=O)[O-])cc6F)c6nc(c(-c7c(F)cc(S(=O)(=O)[O-])cc7F)c7ccc4[nH]7)C=C6)C=C5)cc3)C[C@H](C(=O)N3CCOCC3)C2)cc1F
REMARK SMILES IDX 15 1 14 2 13 3 11 4 12 5 10 7 8 8 9 9 96 10 87 11 86 12 6 13
REMARK SMILES IDX 7 14 5 15 1 16 2 17 3 18 98 19 4 20 97 21 99 22 88 23 89 24
REMARK SMILES IDX 90 25 91 26 95 27 92 28 94 29 93 30 16 31 17 32 18 33 19 35
REMARK SMILES IDX 20 36 21 37 85 38 22 39 84 40 23 41 24 42 25 43 78 44 26 45
REMARK SMILES IDX 83 46 77 47 79 48 27 49 82 50 76 51 75 52 28 54 62 55 41 56
REMARK SMILES IDX 61 57 42 58 45 59 60 60 80 61 43 62 44 63 59 65 81 66 46 67
REMARK SMILES IDX 29 68 30 69 39 70 31 71 32 72 38 73 40 74 33 75 34 76 35 77
REMARK SMILES IDX 36 78 37 79 63 80 64 81 73 82 65 83 66 84 72 85 74 86 67 87
REMARK SMILES IDX 68 88 69 89 70 90 71 91 47 92 48 93 57 94 49 95 50 96 56 97
REMARK SMILES IDX 58 98 51 99 52 100 53 101 54 102 55 103
REMARK H PARENT 13 6 17 34 79 53 45 64
REMARK Flexibility Score: inf
ROOT
ATOM      1  C   UNL A   1      34.190  31.084  27.265  1.00  0.00     0.042 C 
ENDROOT
BRANCH   1   2
ATOM      2  C   UNL A   1      32.993  30.402  26.616  1.00  0.00     0.117 C 
BRANCH   2   3
ATOM      3  N   UNL A   1      32.272  29.516  27.518  1.00  0.00    -0.356 N 
ATOM      4  C   UNL A   1      31.942  28.203  27.368  1.00  0.00     0.224 C 
ATOM      5  O   UNL A   1      31.324  27.633  28.270  1.00  0.00    -0.275 OA
ATOM      6  H   UNL A   1      31.980  29.927  28.364  1.00  0.00     0.163 HD
BRANCH   4   7
ATOM      7  C   UNL A   1      32.313  27.446  26.101  1.00  0.00     0.099 C 
ATOM      8  N   UNL A   1      31.127  26.707  23.987  1.00  0.00    -0.337 N 
ATOM      9  C   UNL A   1      31.313  27.750  24.989  1.00  0.00     0.133 C 
ATOM     10  C   UNL A   1      31.174  25.313  24.422  1.00  0.00     0.133 C 
ATOM     11  C   UNL A   1      32.412  24.986  25.267  1.00  0.00     0.099 C 
ATOM     12  C   UNL A   1      32.644  25.977  26.396  1.00  0.00     0.030 C 
BRANCH   8  13
ATOM     13  C   UNL A   1      30.670  27.140  22.743  1.00  0.00     0.254 C 
ATOM     14  O   UNL A   1      31.117  26.696  21.685  1.00  0.00    -0.269 OA
BRANCH  13  15
ATOM     15  C   UNL A   1      29.673  28.229  22.628  1.00  0.00     0.042 A 
ATOM     16  C   UNL A   1      27.209  31.710  23.189  1.00  0.00     0.047 C 
ATOM     17  C   UNL A   1      28.018  30.477  22.924  1.00  0.00    -0.015 A 
ATOM     18  C   UNL A   1      27.554  29.207  23.290  1.00  0.00     0.007 A 
ATOM     19  C   UNL A   1      29.300  30.594  22.377  1.00  0.00     0.126 A 
ATOM     20  C   UNL A   1      28.381  28.086  23.150  1.00  0.00     0.014 A 
ATOM     21  C   UNL A   1      30.128  29.488  22.231  1.00  0.00     0.053 A 
ATOM     22  F   UNL A   1      29.769  31.803  22.037  1.00  0.00    -0.207 F 
ENDBRANCH  13  15
ENDBRANCH   8  13
BRANCH  11  23
ATOM     23  C   UNL A   1      33.555  24.566  24.335  1.00  0.00     0.227 C 
ATOM     24  O   UNL A   1      34.370  25.438  24.000  1.00  0.00    -0.275 OA
ATOM     25  N   UNL A   1      33.834  23.245  24.099  1.00  0.00    -0.338 N 
ATOM     26  C   UNL A   1      32.920  22.184  23.681  1.00  0.00     0.148 C 
ATOM     27  C   UNL A   1      35.229  22.813  24.079  1.00  0.00     0.148 C 
ATOM     28  C   UNL A   1      33.124  20.940  24.553  1.00  0.00     0.181 C 
ATOM     29  C   UNL A   1      35.372  21.564  24.957  1.00  0.00     0.181 C 
ATOM     30  O   UNL A   1      34.499  20.513  24.504  1.00  0.00    -0.378 OA
ENDBRANCH  11  23
ENDBRANCH   4   7
ENDBRANCH   2   3
ENDBRANCH   1   2
BRANCH   1  31
ATOM     31  C   UNL A   1      34.770  30.269  28.392  1.00  0.00     0.118 C 
BRANCH  31  32
ATOM     32  N   UNL A   1      35.635  31.053  29.272  1.00  0.00    -0.352 N 
ATOM     33  C   UNL A   1      36.429  30.377  30.195  1.00  0.00     0.251 C 
ATOM     34  H   UNL A   1      35.656  32.035  29.214  1.00  0.00     0.163 HD
ATOM     35  O   UNL A   1      36.161  30.345  31.383  1.00  0.00    -0.269 OA
BRANCH  33  36
ATOM     36  C   UNL A   1      37.460  29.495  29.571  1.00  0.00     0.039 A 
ATOM     37  C   UNL A   1      38.204  29.942  28.478  1.00  0.00     0.014 A 
ATOM     38  C   UNL A   1      37.859  28.358  30.270  1.00  0.00     0.014 A 
ATOM     39  C   UNL A   1      39.432  29.337  28.201  1.00  0.00     0.010 A 
ATOM     40  C   UNL A   1      39.130  27.885  30.114  1.00  0.00     0.010 A 
ATOM     41  C   UNL A   1      39.925  28.358  29.074  1.00  0.00    -0.014 A 
BRANCH  41  42
ATOM     42  C   UNL A   1      41.266  27.782  29.000  1.00  0.00     0.031 A 
ATOM     43  C   UNL A   1      41.481  26.420  28.485  1.00  0.00     0.074 A 
ATOM     44  C   UNL A   1      42.305  28.529  29.437  1.00  0.00     0.049 A 
ATOM     45  N   UNL A   1      42.336  25.591  28.973  1.00  0.00    -0.248 NA
ATOM     46  C   UNL A   1      40.723  25.879  27.360  1.00  0.00     0.031 C 
ATOM     47  C   UNL A   1      43.726  28.227  29.440  1.00  0.00     0.029 A 
ATOM     48  N   UNL A   1      42.206  29.685  30.205  1.00  0.00    -0.354 N 
ATOM     49  C   UNL A   1      42.446  24.537  28.089  1.00  0.00     0.074 A 
ATOM     50  C   UNL A   1      41.362  24.720  27.149  1.00  0.00     0.031 C 
ATOM     51  C   UNL A   1      44.314  28.978  30.394  1.00  0.00     0.029 A 
ATOM     52  C   UNL A   1      43.266  29.704  31.102  1.00  0.00     0.049 A 
ATOM     53  H   UNL A   1      41.505  30.372  30.125  1.00  0.00     0.167 HD
ATOM     54  C   UNL A   1      43.538  23.719  28.156  1.00  0.00     0.037 A 
ATOM     55  C   UNL A   1      42.970  29.626  32.435  1.00  0.00     0.037 A 
ATOM     56  C   UNL A   1      44.450  24.174  29.205  1.00  0.00     0.049 A 
ATOM     57  C   UNL A   1      43.480  28.345  33.042  1.00  0.00     0.074 A 
ATOM     58  C   UNL A   1      45.550  25.015  29.150  1.00  0.00     0.029 A 
ATOM     59  N   UNL A   1      44.085  24.089  30.545  1.00  0.00    -0.354 N 
ATOM     60  N   UNL A   1      43.756  27.271  32.353  1.00  0.00    -0.248 NA
ATOM     61  C   UNL A   1      43.766  28.190  34.464  1.00  0.00     0.031 C 
ATOM     62  C   UNL A   1      45.785  25.515  30.452  1.00  0.00     0.029 A 
ATOM     63  C   UNL A   1      44.850  24.957  31.306  1.00  0.00     0.049 A 
ATOM     64  H   UNL A   1      43.384  23.496  30.901  1.00  0.00     0.167 HD
ATOM     65  C   UNL A   1      44.255  26.309  33.189  1.00  0.00     0.074 A 
ATOM     66  C   UNL A   1      44.248  26.936  34.500  1.00  0.00     0.031 C 
ATOM     67  C   UNL A   1      44.649  25.081  32.742  1.00  0.00     0.037 A 
BRANCH  54  68
ATOM     68  C   UNL A   1      43.930  22.739  27.067  1.00  0.00     0.058 A 
ATOM     69  C   UNL A   1      43.105  21.637  26.750  1.00  0.00     0.135 A 
ATOM     70  C   UNL A   1      45.122  22.816  26.317  1.00  0.00     0.135 A 
ATOM     71  F   UNL A   1      41.903  21.473  27.317  1.00  0.00    -0.206 F 
ATOM     72  C   UNL A   1      43.474  20.640  25.845  1.00  0.00     0.059 A 
ATOM     73  C   UNL A   1      45.534  21.808  25.435  1.00  0.00     0.059 A 
ATOM     74  F   UNL A   1      45.915  23.895  26.393  1.00  0.00    -0.206 F 
ATOM     75  C   UNL A   1      44.706  20.716  25.212  1.00  0.00     0.060 A 
BRANCH  75  76
ATOM     76  S   UNL A   1      45.188  19.374  24.106  1.00  0.00     0.124 S 
ATOM     77  O   UNL A   1      46.635  19.552  24.019  1.00  0.00    -0.237 OA
ATOM     78  O   UNL A   1      44.736  18.198  24.840  1.00  0.00    -0.237 OA
ATOM     79  O   UNL A   1      44.455  19.666  22.877  1.00  0.00    -0.744 OA
ENDBRANCH  75  76
ENDBRANCH  54  68
BRANCH  55  80
ATOM     80  C   UNL A   1      41.683  30.331  32.775  1.00  0.00     0.058 A 
ATOM     81  C   UNL A   1      40.565  29.521  33.067  1.00  0.00     0.135 A 
ATOM     82  C   UNL A   1      41.663  31.642  33.283  1.00  0.00     0.135 A 
ATOM     83  F   UNL A   1      40.516  28.261  32.603  1.00  0.00    -0.206 F 
ATOM     84  C   UNL A   1      39.565  29.924  33.951  1.00  0.00     0.059 A 
ATOM     85  C   UNL A   1      40.664  32.069  34.173  1.00  0.00     0.059 A 
ATOM     86  F   UNL A   1      42.682  32.476  33.032  1.00  0.00    -0.206 F 
ATOM     87  C   UNL A   1      39.658  31.177  34.552  1.00  0.00     0.060 A 
BRANCH  87  88
ATOM     88  S   UNL A   1      38.517  31.550  35.912  1.00  0.00     0.124 S 
ATOM     89  O   UNL A   1      37.305  31.946  35.205  1.00  0.00    -0.237 OA
ATOM     90  O   UNL A   1      38.435  30.270  36.617  1.00  0.00    -0.237 OA
ATOM     91  O   UNL A   1      39.188  32.611  36.653  1.00  0.00    -0.744 OA
ENDBRANCH  87  88
ENDBRANCH  55  80
BRANCH  67  92
ATOM     92  C   UNL A   1      44.995  23.915  33.627  1.00  0.00     0.058 A 
ATOM     93  C   UNL A   1      44.072  22.922  33.993  1.00  0.00     0.135 A 
ATOM     94  C   UNL A   1      46.337  23.684  34.015  1.00  0.00     0.135 A 
ATOM     95  F   UNL A   1      42.795  22.975  33.587  1.00  0.00    -0.206 F 
ATOM     96  C   UNL A   1      44.435  21.813  34.755  1.00  0.00     0.059 A 
ATOM     97  C   UNL A   1      46.731  22.554  34.723  1.00  0.00     0.059 A 
ATOM     98  F   UNL A   1      47.314  24.548  33.704  1.00  0.00    -0.206 F 
ATOM     99  C   UNL A   1      45.767  21.636  35.115  1.00  0.00     0.060 A 
BRANCH  99 100
ATOM    100  S   UNL A   1      46.254  20.173  36.042  1.00  0.00     0.124 S 
ATOM    101  O   UNL A   1      45.743  20.489  37.371  1.00  0.00    -0.237 OA
ATOM    102  O   UNL A   1      45.560  19.097  35.340  1.00  0.00    -0.237 OA
ATOM    103  O   UNL A   1      47.707  20.163  35.907  1.00  0.00    -0.744 OA
ENDBRANCH  99 100
ENDBRANCH  67  92
ENDBRANCH  41  42
ENDBRANCH  33  36
ENDBRANCH  31  32
ENDBRANCH   1  31
TORSDOF 16
ENDMDL
MODEL 2
REMARK VINA RESULT:     -14.8      5.081     11.813
REMARK SMILES Cc1ccc(C(=O)N2C[C@@H](C(=O)NCCCNC(=O)c3ccc(-c4c5nc(c(-c6c(F)cc(S(=O)(=O)[O-])cc6F)c6ccc([nH]6)c(-c6c(F)cc(S(=O)(=O)[O-])cc6F)c6nc(c(-c7c(F)cc(S(=O)(=O)[O-])cc7F)c7ccc4[nH]7)C=C6)C=C5)cc3)C[C@H](C(=O)N3CCOCC3)C2)cc1F
REMARK SMILES IDX 15 1 14 2 13 3 11 4 12 5 10 7 8 8 9 9 96 10 87 11 86 12 6 13
REMARK SMILES IDX 7 14 5 15 1 16 2 17 3 18 98 19 4 20 97 21 99 22 88 23 89 24
REMARK SMILES IDX 90 25 91 26 95 27 92 28 94 29 93 30 16 31 17 32 18 33 19 35
REMARK SMILES IDX 20 36 21 37 85 38 22 39 84 40 23 41 24 42 25 43 78 44 26 45
REMARK SMILES IDX 83 46 77 47 79 48 27 49 82 50 76 51 75 52 28 54 62 55 41 56
REMARK SMILES IDX 61 57 42 58 45 59 60 60 80 61 43 62 44 63 59 65 81 66 46 67
REMARK SMILES IDX 29 68 30 69 39 70 31 71 32 72 38 73 40 74 33 75 34 76 35 77
REMARK SMILES IDX 36 78 37 79 63 80 64 81 73 82 65 83 66 84 72 85 74 86 67 87
REMARK SMILES IDX 68 88 69 89 70 90 71 91 47 92 48 93 57 94 49 95 50 96 56 97
REMARK SMILES IDX 58 98 51 99 52 100 53 101 54 102 55 103
REMARK H PARENT 13 6 17 34 79 53 45 64
REMARK Flexibility Score: inf
ROOT
ATOM      1  C   UNL A   1      38.829  22.434  26.473  1.00  0.00     0.042 C 
ENDROOT
BRANCH   1   2
ATOM      2  C   UNL A   1      37.537  22.024  25.779  1.00  0.00     0.117 C 
BRANCH   2   3
ATOM      3  N   UNL A   1      37.497  22.385  24.370  1.00  0.00    -0.356 N 
ATOM      4  C   UNL A   1      36.490  22.944  23.642  1.00  0.00     0.224 C 
ATOM      5  O   UNL A   1      36.670  23.175  22.446  1.00  0.00    -0.275 OA
ATOM      6  H   UNL A   1      38.322  22.198  23.866  1.00  0.00     0.163 HD
BRANCH   4   7
ATOM      7  C   UNL A   1      35.150  23.269  24.288  1.00  0.00     0.099 C 
ATOM      8  N   UNL A   1      32.817  22.281  24.279  1.00  0.00    -0.337 N 
ATOM      9  C   UNL A   1      34.255  22.034  24.301  1.00  0.00     0.133 C 
ATOM     10  C   UNL A   1      32.321  23.405  23.490  1.00  0.00     0.133 C 
ATOM     11  C   UNL A   1      33.052  24.720  23.786  1.00  0.00     0.099 C 
ATOM     12  C   UNL A   1      34.566  24.582  23.750  1.00  0.00     0.030 C 
BRANCH   8  13
ATOM     13  C   UNL A   1      32.022  21.266  24.811  1.00  0.00     0.254 C 
ATOM     14  O   UNL A   1      31.139  21.487  25.640  1.00  0.00    -0.269 OA
BRANCH  13  15
ATOM     15  C   UNL A   1      32.260  19.845  24.469  1.00  0.00     0.042 A 
ATOM     16  C   UNL A   1      33.951  16.006  23.516  1.00  0.00     0.047 C 
ATOM     17  C   UNL A   1      33.283  17.309  23.833  1.00  0.00    -0.015 A 
ATOM     18  C   UNL A   1      32.808  18.151  22.820  1.00  0.00     0.007 A 
ATOM     19  C   UNL A   1      33.201  17.740  25.161  1.00  0.00     0.126 A 
ATOM     20  C   UNL A   1      32.304  19.419  23.134  1.00  0.00     0.014 A 
ATOM     21  C   UNL A   1      32.701  18.995  25.485  1.00  0.00     0.053 A 
ATOM     22  F   UNL A   1      33.667  16.956  26.144  1.00  0.00    -0.207 F 
ENDBRANCH  13  15
ENDBRANCH   8  13
BRANCH  11  23
ATOM     23  C   UNL A   1      32.350  25.432  24.948  1.00  0.00     0.227 C 
ATOM     24  O   UNL A   1      32.785  25.228  26.090  1.00  0.00    -0.275 OA
ATOM     25  N   UNL A   1      31.466  26.455  24.727  1.00  0.00    -0.338 N 
ATOM     26  C   UNL A   1      30.310  26.481  23.832  1.00  0.00     0.148 C 
ATOM     27  C   UNL A   1      31.527  27.636  25.584  1.00  0.00     0.148 C 
ATOM     28  C   UNL A   1      30.319  27.767  22.999  1.00  0.00     0.181 C 
ATOM     29  C   UNL A   1      31.523  28.890  24.701  1.00  0.00     0.181 C 
ATOM     30  O   UNL A   1      30.355  28.922  23.860  1.00  0.00    -0.378 OA
ENDBRANCH  11  23
ENDBRANCH   4   7
ENDBRANCH   2   3
ENDBRANCH   1   2
BRANCH   1  31
ATOM     31  C   UNL A   1      39.444  23.664  25.856  1.00  0.00     0.118 C 
BRANCH  31  32
ATOM     32  N   UNL A   1      40.801  23.920  26.333  1.00  0.00    -0.352 N 
ATOM     33  C   UNL A   1      41.321  25.204  26.193  1.00  0.00     0.251 C 
ATOM     34  H   UNL A   1      41.335  23.202  26.743  1.00  0.00     0.163 HD
ATOM     35  O   UNL A   1      42.149  25.481  25.344  1.00  0.00    -0.269 OA
BRANCH  33  36
ATOM     36  C   UNL A   1      40.591  26.240  26.984  1.00  0.00     0.039 A 
ATOM     37  C   UNL A   1      40.133  25.952  28.271  1.00  0.00     0.014 A 
ATOM     38  C   UNL A   1      40.636  27.557  26.536  1.00  0.00     0.014 A 
ATOM     39  C   UNL A   1      39.879  27.007  29.151  1.00  0.00     0.010 A 
ATOM     40  C   UNL A   1      40.562  28.578  27.441  1.00  0.00     0.010 A 
ATOM     41  C   UNL A   1      40.172  28.318  28.752  1.00  0.00    -0.014 A 
BRANCH  41  42
ATOM     42  C   UNL A   1      40.126  29.482  29.633  1.00  0.00     0.031 A 
ATOM     43  C   UNL A   1      38.996  30.424  29.588  1.00  0.00     0.074 A 
ATOM     44  C   UNL A   1      41.161  29.682  30.480  1.00  0.00     0.049 A 
ATOM     45  N   UNL A   1      39.115  31.700  29.711  1.00  0.00    -0.248 NA
ATOM     46  C   UNL A   1      37.618  29.986  29.390  1.00  0.00     0.031 C 
ATOM     47  C   UNL A   1      41.352  30.718  31.480  1.00  0.00     0.029 A 
ATOM     48  N   UNL A   1      42.398  29.050  30.412  1.00  0.00    -0.354 N 
ATOM     49  C   UNL A   1      37.850  32.223  29.884  1.00  0.00     0.074 A 
ATOM     50  C   UNL A   1      36.949  31.130  29.590  1.00  0.00     0.031 C 
ATOM     51  C   UNL A   1      42.676  30.843  31.709  1.00  0.00     0.029 A 
ATOM     52  C   UNL A   1      43.376  29.963  30.780  1.00  0.00     0.049 A 
ATOM     53  H   UNL A   1      42.553  28.113  30.148  1.00  0.00     0.167 HD
ATOM     54  C   UNL A   1      37.709  33.474  30.413  1.00  0.00     0.037 A 
ATOM     55  C   UNL A   1      44.290  30.331  29.831  1.00  0.00     0.037 A 
ATOM     56  C   UNL A   1      39.019  34.037  30.741  1.00  0.00     0.049 A 
ATOM     57  C   UNL A   1      44.154  31.786  29.465  1.00  0.00     0.074 A 
ATOM     58  C   UNL A   1      39.742  34.026  31.923  1.00  0.00     0.029 A 
ATOM     59  N   UNL A   1      39.917  34.373  29.732  1.00  0.00    -0.354 N 
ATOM     60  N   UNL A   1      43.070  32.488  29.659  1.00  0.00    -0.248 NA
ATOM     61  C   UNL A   1      45.240  32.575  28.896  1.00  0.00     0.031 C 
ATOM     62  C   UNL A   1      41.102  34.259  31.608  1.00  0.00     0.029 A 
ATOM     63  C   UNL A   1      41.203  34.443  30.240  1.00  0.00     0.049 A 
ATOM     64  H   UNL A   1      39.672  34.537  28.793  1.00  0.00     0.167 HD
ATOM     65  C   UNL A   1      43.292  33.783  29.276  1.00  0.00     0.074 A 
ATOM     66  C   UNL A   1      44.669  33.789  28.813  1.00  0.00     0.031 C 
ATOM     67  C   UNL A   1      42.338  34.753  29.383  1.00  0.00     0.037 A 
BRANCH  54  68
ATOM     68  C   UNL A   1      36.400  34.029  30.939  1.00  0.00     0.058 A 
ATOM     69  C   UNL A   1      35.334  34.331  30.061  1.00  0.00     0.135 A 
ATOM     70  C   UNL A   1      36.141  34.312  32.295  1.00  0.00     0.135 A 
ATOM     71  F   UNL A   1      35.396  34.042  28.755  1.00  0.00    -0.206 F 
ATOM     72  C   UNL A   1      34.156  34.956  30.474  1.00  0.00     0.059 A 
ATOM     73  C   UNL A   1      34.985  34.976  32.729  1.00  0.00     0.059 A 
ATOM     74  F   UNL A   1      36.993  33.923  33.255  1.00  0.00    -0.206 F 
ATOM     75  C   UNL A   1      34.000  35.303  31.807  1.00  0.00     0.060 A 
BRANCH  75  76
ATOM     76  S   UNL A   1      32.500  36.178  32.298  1.00  0.00     0.124 S 
ATOM     77  O   UNL A   1      32.140  36.886  31.073  1.00  0.00    -0.237 OA
ATOM     78  O   UNL A   1      31.619  35.080  32.679  1.00  0.00    -0.237 OA
ATOM     79  O   UNL A   1      32.948  37.032  33.396  1.00  0.00    -0.744 OA
ENDBRANCH  75  76
ENDBRANCH  54  68
BRANCH  55  80
ATOM     80  C   UNL A   1      44.631  29.198  28.899  1.00  0.00     0.058 A 
ATOM     81  C   UNL A   1      44.071  29.239  27.605  1.00  0.00     0.135 A 
ATOM     82  C   UNL A   1      45.798  28.428  29.059  1.00  0.00     0.135 A 
ATOM     83  F   UNL A   1      42.951  29.950  27.387  1.00  0.00    -0.206 F 
ATOM     84  C   UNL A   1      44.718  28.695  26.497  1.00  0.00     0.059 A 
ATOM     85  C   UNL A   1      46.463  27.868  27.956  1.00  0.00     0.059 A 
ATOM     86  F   UNL A   1      46.378  28.326  30.263  1.00  0.00    -0.206 F 
ATOM     87  C   UNL A   1      45.949  28.066  26.672  1.00  0.00     0.060 A 
BRANCH  87  88
ATOM     88  S   UNL A   1      46.899  27.637  25.188  1.00  0.00     0.124 S 
ATOM     89  O   UNL A   1      46.771  28.841  24.375  1.00  0.00    -0.237 OA
ATOM     90  O   UNL A   1      48.237  27.392  25.728  1.00  0.00    -0.237 OA
ATOM     91  O   UNL A   1      46.226  26.453  24.670  1.00  0.00    -0.744 OA
ENDBRANCH  87  88
ENDBRANCH  55  80
BRANCH  67  92
ATOM     92  C   UNL A   1      42.441  36.130  28.785  1.00  0.00     0.058 A 
ATOM     93  C   UNL A   1      43.193  37.167  29.360  1.00  0.00     0.135 A 
ATOM     94  C   UNL A   1      41.891  36.399  27.509  1.00  0.00     0.135 A 
ATOM     95  F   UNL A   1      43.853  36.992  30.514  1.00  0.00    -0.206 F 
ATOM     96  C   UNL A   1      43.330  38.412  28.750  1.00  0.00     0.059 A 
ATOM     97  C   UNL A   1      42.068  37.613  26.855  1.00  0.00     0.059 A 
ATOM     98  F   UNL A   1      41.173  35.480  26.847  1.00  0.00    -0.206 F 
ATOM     99  C   UNL A   1      42.766  38.626  27.496  1.00  0.00     0.060 A 
BRANCH  99 100
ATOM    100  S   UNL A   1      42.997  40.210  26.672  1.00  0.00     0.124 S 
ATOM    101  O   UNL A   1      43.208  41.099  27.810  1.00  0.00    -0.237 OA
ATOM    102  O   UNL A   1      44.167  39.973  25.833  1.00  0.00    -0.237 OA
ATOM    103  O   UNL A   1      41.743  40.393  25.949  1.00  0.00    -0.744 OA
ENDBRANCH  99 100
ENDBRANCH  67  92
ENDBRANCH  41  42
ENDBRANCH  33  36
ENDBRANCH  31  32
ENDBRANCH   1  31
TORSDOF 16
ENDMDL
MODEL 3
REMARK VINA RESULT:     -14.7      5.083     11.164
REMARK SMILES Cc1ccc(C(=O)N2C[C@@H](C(=O)NCCCNC(=O)c3ccc(-c4c5nc(c(-c6c(F)cc(S(=O)(=O)[O-])cc6F)c6ccc([nH]6)c(-c6c(F)cc(S(=O)(=O)[O-])cc6F)c6nc(c(-c7c(F)cc(S(=O)(=O)[O-])cc7F)c7ccc4[nH]7)C=C6)C=C5)cc3)C[C@H](C(=O)N3CCOCC3)C2)cc1F
REMARK SMILES IDX 15 1 14 2 13 3 11 4 12 5 10 7 8 8 9 9 96 10 87 11 86 12 6 13
REMARK SMILES IDX 7 14 5 15 1 16 2 17 3 18 98 19 4 20 97 21 99 22 88 23 89 24
REMARK SMILES IDX 90 25 91 26 95 27 92 28 94 29 93 30 16 31 17 32 18 33 19 35
REMARK SMILES IDX 20 36 21 37 85 38 22 39 84 40 23 41 24 42 25 43 78 44 26 45
REMARK SMILES IDX 83 46 77 47 79 48 27 49 82 50 76 51 75 52 28 54 62 55 41 56
REMARK SMILES IDX 61 57 42 58 45 59 60 60 80 61 43 62 44 63 59 65 81 66 46 67
REMARK SMILES IDX 29 68 30 69 39 70 31 71 32 72 38 73 40 74 33 75 34 76 35 77
REMARK SMILES IDX 36 78 37 79 63 80 64 81 73 82 65 83 66 84 72 85 74 86 67 87
REMARK SMILES IDX 68 88 69 89 70 90 71 91 47 92 48 93 57 94 49 95 50 96 56 97
REMARK SMILES IDX 58 98 51 99 52 100 53 101 54 102 55 103
REMARK H PARENT 13 6 17 34 79 53 45 64
REMARK Flexibility Score: inf
ROOT
ATOM      1  C   UNL A   1      39.122  21.925  25.767  1.00  0.00     0.042 C 
ENDROOT
BRANCH   1   2
ATOM      2  C   UNL A   1      37.667  21.584  25.474  1.00  0.00     0.117 C 
BRANCH   2   3
ATOM      3  N   UNL A   1      36.733  22.177  26.419  1.00  0.00    -0.356 N 
ATOM      4  C   UNL A   1      35.377  22.294  26.346  1.00  0.00     0.224 C 
ATOM      5  O   UNL A   1      34.770  22.835  27.271  1.00  0.00    -0.275 OA
ATOM      6  H   UNL A   1      37.140  22.551  27.233  1.00  0.00     0.163 HD
BRANCH   4   7
ATOM      7  C   UNL A   1      34.615  21.777  25.133  1.00  0.00     0.099 C 
ATOM      8  N   UNL A   1      33.024  22.743  23.414  1.00  0.00    -0.337 N 
ATOM      9  C   UNL A   1      34.224  22.936  24.220  1.00  0.00     0.133 C 
ATOM     10  C   UNL A   1      31.909  22.004  24.000  1.00  0.00     0.133 C 
ATOM     11  C   UNL A   1      32.328  20.660  24.607  1.00  0.00     0.099 C 
ATOM     12  C   UNL A   1      33.528  20.772  25.534  1.00  0.00     0.030 C 
BRANCH   8  13
ATOM     13  C   UNL A   1      32.954  23.501  22.245  1.00  0.00     0.254 C 
ATOM     14  O   UNL A   1      33.370  23.086  21.164  1.00  0.00    -0.269 OA
BRANCH  13  15
ATOM     15  C   UNL A   1      32.447  24.893  22.263  1.00  0.00     0.042 A 
ATOM     16  C   UNL A   1      31.475  28.971  23.227  1.00  0.00     0.047 C 
ATOM     17  C   UNL A   1      31.762  27.558  22.821  1.00  0.00    -0.015 A 
ATOM     18  C   UNL A   1      30.843  26.528  23.062  1.00  0.00     0.007 A 
ATOM     19  C   UNL A   1      33.004  27.235  22.265  1.00  0.00     0.126 A 
ATOM     20  C   UNL A   1      31.186  25.198  22.791  1.00  0.00     0.014 A 
ATOM     21  C   UNL A   1      33.354  25.919  21.990  1.00  0.00     0.053 A 
ATOM     22  F   UNL A   1      33.904  28.204  22.044  1.00  0.00    -0.207 F 
ENDBRANCH  13  15
ENDBRANCH   8  13
BRANCH  11  23
ATOM     23  C   UNL A   1      32.265  19.580  23.521  1.00  0.00     0.227 C 
ATOM     24  O   UNL A   1      32.152  19.955  22.346  1.00  0.00    -0.275 OA
ATOM     25  N   UNL A   1      32.593  18.276  23.792  1.00  0.00    -0.338 N 
ATOM     26  C   UNL A   1      32.098  17.419  24.868  1.00  0.00     0.148 C 
ATOM     27  C   UNL A   1      33.404  17.539  22.827  1.00  0.00     0.148 C 
ATOM     28  C   UNL A   1      33.269  16.712  25.558  1.00  0.00     0.181 C 
ATOM     29  C   UNL A   1      34.551  16.846  23.571  1.00  0.00     0.181 C 
ATOM     30  O   UNL A   1      34.044  15.970  24.595  1.00  0.00    -0.378 OA
ENDBRANCH  11  23
ENDBRANCH   4   7
ENDBRANCH   2   3
ENDBRANCH   1   2
BRANCH   1  31
ATOM     31  C   UNL A   1      39.306  23.375  26.135  1.00  0.00     0.118 C 
BRANCH  31  32
ATOM     32  N   UNL A   1      40.684  23.696  26.504  1.00  0.00    -0.352 N 
ATOM     33  C   UNL A   1      41.163  24.974  26.227  1.00  0.00     0.251 C 
ATOM     34  H   UNL A   1      41.259  23.025  26.936  1.00  0.00     0.163 HD
ATOM     35  O   UNL A   1      41.929  25.196  25.307  1.00  0.00    -0.269 OA
BRANCH  33  36
ATOM     36  C   UNL A   1      40.457  26.057  26.975  1.00  0.00     0.039 A 
ATOM     37  C   UNL A   1      39.909  25.804  28.234  1.00  0.00     0.014 A 
ATOM     38  C   UNL A   1      40.612  27.368  26.531  1.00  0.00     0.014 A 
ATOM     39  C   UNL A   1      39.674  26.875  29.099  1.00  0.00     0.010 A 
ATOM     40  C   UNL A   1      40.553  28.394  27.431  1.00  0.00     0.010 A 
ATOM     41  C   UNL A   1      40.074  28.163  28.717  1.00  0.00    -0.014 A 
BRANCH  41  42
ATOM     42  C   UNL A   1      40.052  29.331  29.595  1.00  0.00     0.031 A 
ATOM     43  C   UNL A   1      38.938  30.292  29.554  1.00  0.00     0.074 A 
ATOM     44  C   UNL A   1      41.096  29.516  30.434  1.00  0.00     0.049 A 
ATOM     45  N   UNL A   1      39.080  31.566  29.672  1.00  0.00    -0.248 NA
ATOM     46  C   UNL A   1      37.551  29.876  29.366  1.00  0.00     0.031 C 
ATOM     47  C   UNL A   1      41.311  30.552  31.430  1.00  0.00     0.029 A 
ATOM     48  N   UNL A   1      42.322  28.863  30.361  1.00  0.00    -0.354 N 
ATOM     49  C   UNL A   1      37.825  32.111  29.851  1.00  0.00     0.074 A 
ATOM     50  C   UNL A   1      36.903  31.032  29.566  1.00  0.00     0.031 C 
ATOM     51  C   UNL A   1      42.638  30.656  31.650  1.00  0.00     0.029 A 
ATOM     52  C   UNL A   1      43.318  29.761  30.720  1.00  0.00     0.049 A 
ATOM     53  H   UNL A   1      42.459  27.924  30.099  1.00  0.00     0.167 HD
ATOM     54  C   UNL A   1      37.708  33.366  30.377  1.00  0.00     0.037 A 
ATOM     55  C   UNL A   1      44.231  30.111  29.764  1.00  0.00     0.037 A 
ATOM     56  C   UNL A   1      39.029  33.907  30.695  1.00  0.00     0.049 A 
ATOM     57  C   UNL A   1      44.117  31.566  29.393  1.00  0.00     0.074 A 
ATOM     58  C   UNL A   1      39.760  33.888  31.872  1.00  0.00     0.029 A 
ATOM     59  N   UNL A   1      39.926  34.225  29.679  1.00  0.00    -0.354 N 
ATOM     60  N   UNL A   1      43.047  32.287  29.592  1.00  0.00    -0.248 NA
ATOM     61  C   UNL A   1      45.213  32.335  28.815  1.00  0.00     0.031 C 
ATOM     62  C   UNL A   1      41.121  34.098  31.548  1.00  0.00     0.029 A 
ATOM     63  C   UNL A   1      41.217  34.276  30.178  1.00  0.00     0.049 A 
ATOM     64  H   UNL A   1      39.678  34.391  28.741  1.00  0.00     0.167 HD
ATOM     65  C   UNL A   1      43.288  33.577  29.204  1.00  0.00     0.074 A 
ATOM     66  C   UNL A   1      44.662  33.558  28.731  1.00  0.00     0.031 C 
ATOM     67  C   UNL A   1      42.351  34.564  29.314  1.00  0.00     0.037 A 
BRANCH  54  68
ATOM     68  C   UNL A   1      36.412  33.945  30.909  1.00  0.00     0.058 A 
ATOM     69  C   UNL A   1      35.358  34.293  30.034  1.00  0.00     0.135 A 
ATOM     70  C   UNL A   1      36.155  34.206  32.270  1.00  0.00     0.135 A 
ATOM     71  F   UNL A   1      35.419  34.030  28.722  1.00  0.00    -0.206 F 
ATOM     72  C   UNL A   1      34.196  34.941  30.455  1.00  0.00     0.059 A 
ATOM     73  C   UNL A   1      35.015  34.892  32.714  1.00  0.00     0.059 A 
ATOM     74  F   UNL A   1      36.991  33.774  33.225  1.00  0.00    -0.206 F 
ATOM     75  C   UNL A   1      34.043  35.264  31.795  1.00  0.00     0.060 A 
BRANCH  75  76
ATOM     76  S   UNL A   1      32.564  36.168  32.298  1.00  0.00     0.124 S 
ATOM     77  O   UNL A   1      32.213  36.890  31.078  1.00  0.00    -0.237 OA
ATOM     78  O   UNL A   1      31.662  35.087  32.678  1.00  0.00    -0.237 OA
ATOM     79  O   UNL A   1      33.036  37.006  33.397  1.00  0.00    -0.744 OA
ENDBRANCH  75  76
ENDBRANCH  54  68
BRANCH  55  80
ATOM     80  C   UNL A   1      44.547  28.969  28.834  1.00  0.00     0.058 A 
ATOM     81  C   UNL A   1      44.020  29.040  27.527  1.00  0.00     0.135 A 
ATOM     82  C   UNL A   1      45.677  28.150  29.016  1.00  0.00     0.135 A 
ATOM     83  F   UNL A   1      42.936  29.797  27.287  1.00  0.00    -0.206 F 
ATOM     84  C   UNL A   1      44.670  28.474  26.431  1.00  0.00     0.059 A 
ATOM     85  C   UNL A   1      46.344  27.568  27.926  1.00  0.00     0.059 A 
ATOM     86  F   UNL A   1      46.223  28.018  30.233  1.00  0.00    -0.206 F 
ATOM     87  C   UNL A   1      45.870  27.795  26.632  1.00  0.00     0.060 A 
BRANCH  87  88
ATOM     88  S   UNL A   1      46.836  27.334  25.167  1.00  0.00     0.124 S 
ATOM     89  O   UNL A   1      46.176  26.111  24.729  1.00  0.00    -0.237 OA
ATOM     90  O   UNL A   1      46.651  28.490  24.289  1.00  0.00    -0.237 OA
ATOM     91  O   UNL A   1      48.191  27.169  25.679  1.00  0.00    -0.744 OA
ENDBRANCH  87  88
ENDBRANCH  55  80
BRANCH  67  92
ATOM     92  C   UNL A   1      42.473  35.936  28.710  1.00  0.00     0.058 A 
ATOM     93  C   UNL A   1      41.857  36.307  27.504  1.00  0.00     0.135 A 
ATOM     94  C   UNL A   1      43.107  36.980  29.426  1.00  0.00     0.135 A 
ATOM     95  F   UNL A   1      41.132  35.431  26.793  1.00  0.00    -0.206 F 
ATOM     96  C   UNL A   1      41.927  37.605  27.002  1.00  0.00     0.059 A 
ATOM     97  C   UNL A   1      43.136  38.294  28.973  1.00  0.00     0.059 A 
ATOM     98  F   UNL A   1      43.710  36.755  30.603  1.00  0.00    -0.206 F 
ATOM     99  C   UNL A   1      42.567  38.593  27.744  1.00  0.00     0.060 A 
BRANCH  99 100
ATOM    100  S   UNL A   1      42.602  40.286  27.133  1.00  0.00     0.124 S 
ATOM    101  O   UNL A   1      41.222  40.464  26.696  1.00  0.00    -0.237 OA
ATOM    102  O   UNL A   1      42.993  41.050  28.314  1.00  0.00    -0.237 OA
ATOM    103  O   UNL A   1      43.602  40.234  26.071  1.00  0.00    -0.744 OA
ENDBRANCH  99 100
ENDBRANCH  67  92
ENDBRANCH  41  42
ENDBRANCH  33  36
ENDBRANCH  31  32
ENDBRANCH   1  31
TORSDOF 16
ENDMDL
