MODEL 1
REMARK VINA RESULT:     -12.6      0.000      0.000
REMARK SMILES CCOc1ccc(CNC(=O)Cc2c(C(=O)NCCCNC(=O)c3ccc(-c4c5nc(c(-c6c(F)cc(S(=O)(=O)[O-])cc6F)c6ccc([nH]6)c(-c6c(F)cc(S(=O)(=O)[O-])cc6F)c6nc(c(-c7c(F)cc(S(=O)(=O)[O-])cc7F)c7ccc4[nH]7)C=C6)C=C5)cc3)c(C)cn2C)cc1
REMARK SMILES IDX 15 1 16 2 17 3 14 5 13 6 93 7 90 8 92 9 94 10 91 11 12 12
REMARK SMILES IDX 10 13 9 14 11 16 8 17 7 18 4 19 5 20 96 21 6 22 95 23 3 24
REMARK SMILES IDX 2 25 1 26 18 27 19 28 20 29 21 30 22 31 23 33 24 34 25 35
REMARK SMILES IDX 89 36 26 37 88 38 27 39 28 40 29 41 82 42 30 43 87 44 81 45
REMARK SMILES IDX 83 46 31 47 86 48 80 49 79 50 32 52 66 53 45 54 65 55 46 56
REMARK SMILES IDX 49 57 64 58 84 59 47 60 48 61 63 63 85 64 50 65 33 66 34 67
REMARK SMILES IDX 43 68 35 69 36 70 42 71 44 72 37 73 38 74 39 75 40 76 41 77
REMARK SMILES IDX 67 78 68 79 77 80 69 81 70 82 76 83 78 84 71 85 72 86 73 87
REMARK SMILES IDX 74 88 75 89 51 90 52 91 61 92 53 93 54 94 60 95 62 96 55 97
REMARK SMILES IDX 56 98 57 99 58 100 59 101
REMARK H PARENT 17 4 9 15 21 32 83 51 49 62
REMARK Flexibility Score: inf
ROOT
ATOM      1  C   UNL A   1      34.774  21.519  26.492  1.00  0.00     0.253 C 
ATOM      2  O   UNL A   1      34.424  21.561  27.671  1.00  0.00    -0.269 OA
ATOM      3  N   UNL A   1      36.121  21.609  26.261  1.00  0.00    -0.352 N 
ATOM      4  H   UNL A   1      36.663  21.639  27.083  1.00  0.00     0.163 HD
ENDROOT
BRANCH   1   5
ATOM      5  C   UNL A   1      33.771  21.322  25.430  1.00  0.00     0.064 A 
ATOM      6  C   UNL A   1      32.974  22.391  24.976  1.00  0.00     0.040 A 
ATOM      7  N   UNL A   1      32.337  21.978  23.829  1.00  0.00    -0.353 N 
ATOM      8  C   UNL A   1      33.412  20.186  24.603  1.00  0.00    -0.020 A 
ATOM      9  C   UNL A   1      32.504  20.639  23.667  1.00  0.00     0.089 A 
ATOM     10  C   UNL A   1      31.659  22.822  22.866  1.00  0.00     0.149 C 
ATOM     11  C   UNL A   1      33.881  18.778  24.606  1.00  0.00     0.047 C 
BRANCH   6  12
ATOM     12  C   UNL A   1      32.838  23.819  25.466  1.00  0.00     0.154 C 
BRANCH  12  13
ATOM     13  C   UNL A   1      31.606  24.115  26.312  1.00  0.00     0.226 C 
ATOM     14  N   UNL A   1      30.664  25.021  25.922  1.00  0.00    -0.352 N 
ATOM     15  H   UNL A   1      29.808  24.967  26.405  1.00  0.00     0.163 HD
ATOM     16  O   UNL A   1      31.477  23.629  27.438  1.00  0.00    -0.275 OA
BRANCH  14  17
ATOM     17  C   UNL A   1      30.731  26.046  24.905  1.00  0.00     0.151 C 
BRANCH  17  18
ATOM     18  C   UNL A   1      31.079  27.391  25.491  1.00  0.00    -0.029 A 
ATOM     19  C   UNL A   1      31.951  29.823  26.586  1.00  0.00     0.119 A 
ATOM     20  C   UNL A   1      31.934  28.683  27.373  1.00  0.00     0.047 A 
ATOM     21  C   UNL A   1      31.507  29.774  25.268  1.00  0.00     0.047 A 
ATOM     22  C   UNL A   1      31.489  27.479  26.826  1.00  0.00     0.009 A 
ATOM     23  C   UNL A   1      31.067  28.562  24.722  1.00  0.00     0.009 A 
BRANCH  19  24
ATOM     24  O   UNL A   1      32.533  30.967  27.049  1.00  0.00    -0.494 OA
BRANCH  24  25
ATOM     25  C   UNL A   1      33.918  30.796  27.356  1.00  0.00     0.226 C 
ATOM     26  C   UNL A   1      34.479  32.100  27.893  1.00  0.00     0.049 C 
ENDBRANCH  24  25
ENDBRANCH  19  24
ENDBRANCH  17  18
ENDBRANCH  14  17
ENDBRANCH  12  13
ENDBRANCH   6  12
ENDBRANCH   1   5
BRANCH   3  27
ATOM     27  C   UNL A   1      36.902  21.672  25.049  1.00  0.00     0.118 C 
BRANCH  27  28
ATOM     28  C   UNL A   1      38.314  21.124  25.266  1.00  0.00     0.042 C 
BRANCH  28  29
ATOM     29  C   UNL A   1      39.156  21.994  26.178  1.00  0.00     0.118 C 
BRANCH  29  30
ATOM     30  N   UNL A   1      40.578  21.922  25.846  1.00  0.00    -0.352 N 
ATOM     31  C   UNL A   1      41.516  22.936  25.930  1.00  0.00     0.251 C 
ATOM     32  H   UNL A   1      40.907  21.051  25.525  1.00  0.00     0.163 HD
ATOM     33  O   UNL A   1      42.535  22.904  25.267  1.00  0.00    -0.269 OA
BRANCH  31  34
ATOM     34  C   UNL A   1      41.223  24.062  26.837  1.00  0.00     0.039 A 
ATOM     35  C   UNL A   1      41.824  24.144  28.091  1.00  0.00     0.014 A 
ATOM     36  C   UNL A   1      40.411  25.087  26.356  1.00  0.00     0.014 A 
ATOM     37  C   UNL A   1      41.688  25.326  28.811  1.00  0.00     0.010 A 
ATOM     38  C   UNL A   1      40.408  26.303  26.995  1.00  0.00     0.010 A 
ATOM     39  C   UNL A   1      41.015  26.424  28.238  1.00  0.00    -0.014 A 
BRANCH  39  40
ATOM     40  C   UNL A   1      41.072  27.733  28.883  1.00  0.00     0.031 A 
ATOM     41  C   UNL A   1      42.153  28.618  28.370  1.00  0.00     0.074 A 
ATOM     42  C   UNL A   1      40.154  28.205  29.754  1.00  0.00     0.049 A 
ATOM     43  N   UNL A   1      43.298  28.838  28.925  1.00  0.00    -0.248 NA
ATOM     44  C   UNL A   1      42.038  29.172  27.012  1.00  0.00     0.031 C 
ATOM     45  C   UNL A   1      38.862  27.626  30.136  1.00  0.00     0.029 A 
ATOM     46  N   UNL A   1      40.165  29.380  30.441  1.00  0.00    -0.354 N 
ATOM     47  C   UNL A   1      43.940  29.772  28.119  1.00  0.00     0.074 A 
ATOM     48  C   UNL A   1      43.228  29.762  26.867  1.00  0.00     0.031 C 
ATOM     49  C   UNL A   1      38.129  28.545  30.801  1.00  0.00     0.029 A 
ATOM     50  C   UNL A   1      38.962  29.705  31.059  1.00  0.00     0.049 A 
ATOM     51  H   UNL A   1      40.962  29.955  30.496  1.00  0.00     0.167 HD
ATOM     52  C   UNL A   1      44.832  30.655  28.653  1.00  0.00     0.037 A 
ATOM     53  C   UNL A   1      38.673  30.844  31.739  1.00  0.00     0.037 A 
ATOM     54  C   UNL A   1      45.211  30.250  29.989  1.00  0.00     0.049 A 
ATOM     55  C   UNL A   1      39.970  31.430  32.164  1.00  0.00     0.074 A 
ATOM     56  C   UNL A   1      45.766  29.111  30.542  1.00  0.00     0.029 A 
ATOM     57  N   UNL A   1      44.640  30.932  31.037  1.00  0.00    -0.354 N 
ATOM     58  N   UNL A   1      40.765  30.879  33.040  1.00  0.00    -0.248 NA
ATOM     59  C   UNL A   1      40.599  32.398  31.279  1.00  0.00     0.031 C 
ATOM     60  C   UNL A   1      45.076  28.928  31.777  1.00  0.00     0.029 A 
ATOM     61  C   UNL A   1      44.208  30.007  31.952  1.00  0.00     0.049 A 
ATOM     62  H   UNL A   1      44.556  31.910  31.117  1.00  0.00     0.167 HD
ATOM     63  C   UNL A   1      42.040  31.075  32.533  1.00  0.00     0.074 A 
ATOM     64  C   UNL A   1      41.882  32.101  31.503  1.00  0.00     0.031 C 
ATOM     65  C   UNL A   1      43.048  30.192  32.797  1.00  0.00     0.037 A 
BRANCH  52  66
ATOM     66  C   UNL A   1      45.056  32.070  28.163  1.00  0.00     0.058 A 
ATOM     67  C   UNL A   1      46.348  32.444  27.728  1.00  0.00     0.135 A 
ATOM     68  C   UNL A   1      44.159  33.140  28.370  1.00  0.00     0.135 A 
ATOM     69  F   UNL A   1      47.287  31.513  27.492  1.00  0.00    -0.206 F 
ATOM     70  C   UNL A   1      46.743  33.776  27.605  1.00  0.00     0.059 A 
ATOM     71  C   UNL A   1      44.515  34.473  28.200  1.00  0.00     0.059 A 
ATOM     72  F   UNL A   1      42.919  32.960  28.837  1.00  0.00    -0.206 F 
ATOM     73  C   UNL A   1      45.820  34.785  27.860  1.00  0.00     0.060 A 
BRANCH  73  74
ATOM     74  S   UNL A   1      46.349  36.503  27.791  1.00  0.00     0.124 S 
ATOM     75  O   UNL A   1      45.770  37.035  29.018  1.00  0.00    -0.237 OA
ATOM     76  O   UNL A   1      47.802  36.371  27.772  1.00  0.00    -0.237 OA
ATOM     77  O   UNL A   1      45.753  36.986  26.548  1.00  0.00    -0.744 OA
ENDBRANCH  73  74
ENDBRANCH  52  66
BRANCH  53  78
ATOM     78  C   UNL A   1      37.400  31.608  31.793  1.00  0.00     0.058 A 
ATOM     79  C   UNL A   1      36.754  31.851  33.019  1.00  0.00     0.135 A 
ATOM     80  C   UNL A   1      36.959  32.376  30.696  1.00  0.00     0.135 A 
ATOM     81  F   UNL A   1      37.114  31.171  34.118  1.00  0.00    -0.206 F 
ATOM     82  C   UNL A   1      35.784  32.847  33.167  1.00  0.00     0.059 A 
ATOM     83  C   UNL A   1      35.988  33.370  30.818  1.00  0.00     0.059 A 
ATOM     84  F   UNL A   1      37.535  32.251  29.491  1.00  0.00    -0.206 F 
ATOM     85  C   UNL A   1      35.427  33.622  32.065  1.00  0.00     0.060 A 
BRANCH  85  86
ATOM     86  S   UNL A   1      34.330  35.043  32.301  1.00  0.00     0.124 S 
ATOM     87  O   UNL A   1      34.068  35.454  30.924  1.00  0.00    -0.237 OA
ATOM     88  O   UNL A   1      33.203  34.449  33.012  1.00  0.00    -0.237 OA
ATOM     89  O   UNL A   1      35.139  35.970  33.087  1.00  0.00    -0.744 OA
ENDBRANCH  85  86
ENDBRANCH  53  78
BRANCH  65  90
ATOM     90  C   UNL A   1      42.870  29.215  33.932  1.00  0.00     0.058 A 
ATOM     91  C   UNL A   1      43.140  29.480  35.287  1.00  0.00     0.135 A 
ATOM     92  C   UNL A   1      42.276  27.979  33.631  1.00  0.00     0.135 A 
ATOM     93  F   UNL A   1      43.607  30.674  35.681  1.00  0.00    -0.206 F 
ATOM     94  C   UNL A   1      42.883  28.534  36.285  1.00  0.00     0.059 A 
ATOM     95  C   UNL A   1      41.978  27.039  34.610  1.00  0.00     0.059 A 
ATOM     96  F   UNL A   1      41.937  27.686  32.363  1.00  0.00    -0.206 F 
ATOM     97  C   UNL A   1      42.303  27.313  35.934  1.00  0.00     0.060 A 
BRANCH  97  98
ATOM     98  S   UNL A   1      41.935  26.103  37.223  1.00  0.00     0.124 S 
ATOM     99  O   UNL A   1      42.905  26.449  38.256  1.00  0.00    -0.237 OA
ATOM    100  O   UNL A   1      40.539  26.392  37.541  1.00  0.00    -0.237 OA
ATOM    101  O   UNL A   1      42.160  24.820  36.561  1.00  0.00    -0.744 OA
ENDBRANCH  97  98
ENDBRANCH  65  90
ENDBRANCH  39  40
ENDBRANCH  31  34
ENDBRANCH  29  30
ENDBRANCH  28  29
ENDBRANCH  27  28
ENDBRANCH   3  27
TORSDOF 19
ENDMDL
MODEL 2
REMARK VINA RESULT:     -11.9      3.057      9.186
REMARK SMILES CCOc1ccc(CNC(=O)Cc2c(C(=O)NCCCNC(=O)c3ccc(-c4c5nc(c(-c6c(F)cc(S(=O)(=O)[O-])cc6F)c6ccc([nH]6)c(-c6c(F)cc(S(=O)(=O)[O-])cc6F)c6nc(c(-c7c(F)cc(S(=O)(=O)[O-])cc7F)c7ccc4[nH]7)C=C6)C=C5)cc3)c(C)cn2C)cc1
REMARK SMILES IDX 15 1 16 2 17 3 14 5 13 6 93 7 90 8 92 9 94 10 91 11 12 12
REMARK SMILES IDX 10 13 9 14 11 16 8 17 7 18 4 19 5 20 96 21 6 22 95 23 3 24
REMARK SMILES IDX 2 25 1 26 18 27 19 28 20 29 21 30 22 31 23 33 24 34 25 35
REMARK SMILES IDX 89 36 26 37 88 38 27 39 28 40 29 41 82 42 30 43 87 44 81 45
REMARK SMILES IDX 83 46 31 47 86 48 80 49 79 50 32 52 66 53 45 54 65 55 46 56
REMARK SMILES IDX 49 57 64 58 84 59 47 60 48 61 63 63 85 64 50 65 33 66 34 67
REMARK SMILES IDX 43 68 35 69 36 70 42 71 44 72 37 73 38 74 39 75 40 76 41 77
REMARK SMILES IDX 67 78 68 79 77 80 69 81 70 82 76 83 78 84 71 85 72 86 73 87
REMARK SMILES IDX 74 88 75 89 51 90 52 91 61 92 53 93 54 94 60 95 62 96 55 97
REMARK SMILES IDX 56 98 57 99 58 100 59 101
REMARK H PARENT 17 4 9 15 21 32 83 51 49 62
REMARK Flexibility Score: inf
ROOT
ATOM      1  C   UNL A   1      31.373  25.010  26.351  1.00  0.00     0.253 C 
ATOM      2  O   UNL A   1      30.204  24.670  26.532  1.00  0.00    -0.269 OA
ATOM      3  N   UNL A   1      31.685  26.297  26.698  1.00  0.00    -0.352 N 
ATOM      4  H   UNL A   1      30.939  26.788  27.114  1.00  0.00     0.163 HD
ENDROOT
BRANCH   1   5
ATOM      5  C   UNL A   1      32.356  24.035  25.844  1.00  0.00     0.064 A 
ATOM      6  C   UNL A   1      32.614  23.915  24.464  1.00  0.00     0.040 A 
ATOM      7  N   UNL A   1      33.739  23.136  24.317  1.00  0.00    -0.353 N 
ATOM      8  C   UNL A   1      33.269  23.118  26.496  1.00  0.00    -0.020 A 
ATOM      9  C   UNL A   1      34.064  22.569  25.509  1.00  0.00     0.089 A 
ATOM     10  C   UNL A   1      34.535  22.988  23.117  1.00  0.00     0.149 C 
ATOM     11  C   UNL A   1      33.466  22.773  27.926  1.00  0.00     0.047 C 
BRANCH   6  12
ATOM     12  C   UNL A   1      31.956  24.561  23.261  1.00  0.00     0.154 C 
BRANCH  12  13
ATOM     13  C   UNL A   1      32.264  26.038  23.050  1.00  0.00     0.226 C 
ATOM     14  N   UNL A   1      31.337  27.009  23.289  1.00  0.00    -0.352 N 
ATOM     15  H   UNL A   1      31.697  27.922  23.353  1.00  0.00     0.163 HD
ATOM     16  O   UNL A   1      33.329  26.398  22.543  1.00  0.00    -0.275 OA
BRANCH  14  17
ATOM     17  C   UNL A   1      29.906  26.899  23.465  1.00  0.00     0.151 C 
BRANCH  17  18
ATOM     18  C   UNL A   1      29.237  28.249  23.445  1.00  0.00    -0.029 A 
ATOM     19  C   UNL A   1      28.116  30.812  23.216  1.00  0.00     0.119 A 
ATOM     20  C   UNL A   1      29.432  30.672  23.624  1.00  0.00     0.047 A 
ATOM     21  C   UNL A   1      27.339  29.687  22.953  1.00  0.00     0.047 A 
ATOM     22  C   UNL A   1      29.981  29.395  23.747  1.00  0.00     0.009 A 
ATOM     23  C   UNL A   1      27.896  28.408  23.072  1.00  0.00     0.009 A 
BRANCH  19  24
ATOM     24  O   UNL A   1      27.613  32.048  22.933  1.00  0.00    -0.494 OA
BRANCH  24  25
ATOM     25  C   UNL A   1      28.431  32.781  22.019  1.00  0.00     0.226 C 
ATOM     26  C   UNL A   1      27.766  32.804  20.655  1.00  0.00     0.049 C 
ENDBRANCH  24  25
ENDBRANCH  19  24
ENDBRANCH  17  18
ENDBRANCH  14  17
ENDBRANCH  12  13
ENDBRANCH   6  12
ENDBRANCH   1   5
BRANCH   3  27
ATOM     27  C   UNL A   1      32.893  27.077  26.573  1.00  0.00     0.118 C 
BRANCH  27  28
ATOM     28  C   UNL A   1      32.694  28.503  27.092  1.00  0.00     0.042 C 
BRANCH  28  29
ATOM     29  C   UNL A   1      33.998  29.233  27.342  1.00  0.00     0.118 C 
BRANCH  29  30
ATOM     30  N   UNL A   1      33.780  30.618  27.758  1.00  0.00    -0.352 N 
ATOM     31  C   UNL A   1      34.651  31.434  28.459  1.00  0.00     0.251 C 
ATOM     32  H   UNL A   1      32.914  31.016  27.512  1.00  0.00     0.163 HD
ATOM     33  O   UNL A   1      34.243  32.386  29.097  1.00  0.00    -0.269 OA
BRANCH  31  34
ATOM     34  C   UNL A   1      36.086  31.095  28.416  1.00  0.00     0.039 A 
ATOM     35  C   UNL A   1      37.003  31.764  29.224  1.00  0.00     0.014 A 
ATOM     36  C   UNL A   1      36.474  30.018  27.622  1.00  0.00     0.014 A 
ATOM     37  C   UNL A   1      38.297  31.262  29.310  1.00  0.00     0.010 A 
ATOM     38  C   UNL A   1      37.701  29.434  27.828  1.00  0.00     0.010 A 
ATOM     39  C   UNL A   1      38.631  30.066  28.644  1.00  0.00    -0.014 A 
BRANCH  39  40
ATOM     40  C   UNL A   1      39.907  29.410  28.917  1.00  0.00     0.031 A 
ATOM     41  C   UNL A   1      40.147  29.120  30.356  1.00  0.00     0.074 A 
ATOM     42  C   UNL A   1      40.752  28.944  27.972  1.00  0.00     0.049 A 
ATOM     43  N   UNL A   1      40.882  29.803  31.168  1.00  0.00    -0.248 NA
ATOM     44  C   UNL A   1      39.347  28.078  31.017  1.00  0.00     0.031 C 
ATOM     45  C   UNL A   1      40.550  28.843  26.523  1.00  0.00     0.029 A 
ATOM     46  N   UNL A   1      41.980  28.380  28.138  1.00  0.00    -0.354 N 
ATOM     47  C   UNL A   1      40.852  29.119  32.378  1.00  0.00     0.074 A 
ATOM     48  C   UNL A   1      39.732  28.218  32.289  1.00  0.00     0.031 C 
ATOM     49  C   UNL A   1      41.510  28.060  25.982  1.00  0.00     0.029 A 
ATOM     50  C   UNL A   1      42.496  27.763  27.004  1.00  0.00     0.049 A 
ATOM     51  H   UNL A   1      42.464  28.406  28.995  1.00  0.00     0.167 HD
ATOM     52  C   UNL A   1      41.912  29.174  33.235  1.00  0.00     0.037 A 
ATOM     53  C   UNL A   1      43.655  27.062  26.911  1.00  0.00     0.037 A 
ATOM     54  C   UNL A   1      42.816  30.238  32.857  1.00  0.00     0.049 A 
ATOM     55  C   UNL A   1      44.516  27.503  28.039  1.00  0.00     0.074 A 
ATOM     56  C   UNL A   1      42.693  31.602  32.672  1.00  0.00     0.029 A 
ATOM     57  N   UNL A   1      43.974  29.878  32.209  1.00  0.00    -0.354 N 
ATOM     58  N   UNL A   1      45.022  28.701  28.141  1.00  0.00    -0.248 NA
ATOM     59  C   UNL A   1      44.438  26.754  29.283  1.00  0.00     0.031 C 
ATOM     60  C   UNL A   1      43.493  31.892  31.527  1.00  0.00     0.029 A 
ATOM     61  C   UNL A   1      44.128  30.713  31.133  1.00  0.00     0.049 A 
ATOM     62  H   UNL A   1      44.584  29.150  32.470  1.00  0.00     0.167 HD
ATOM     63  C   UNL A   1      44.902  29.022  29.484  1.00  0.00     0.074 A 
ATOM     64  C   UNL A   1      44.631  27.750  30.152  1.00  0.00     0.031 C 
ATOM     65  C   UNL A   1      44.754  30.318  29.890  1.00  0.00     0.037 A 
BRANCH  52  66
ATOM     66  C   UNL A   1      42.354  28.049  34.147  1.00  0.00     0.058 A 
ATOM     67  C   UNL A   1      42.374  28.271  35.543  1.00  0.00     0.135 A 
ATOM     68  C   UNL A   1      43.024  26.884  33.714  1.00  0.00     0.135 A 
ATOM     69  F   UNL A   1      41.765  29.344  36.074  1.00  0.00    -0.206 F 
ATOM     70  C   UNL A   1      43.086  27.456  36.423  1.00  0.00     0.059 A 
ATOM     71  C   UNL A   1      43.694  26.027  34.581  1.00  0.00     0.059 A 
ATOM     72  F   UNL A   1      43.147  26.561  32.423  1.00  0.00    -0.206 F 
ATOM     73  C   UNL A   1      43.757  26.344  35.927  1.00  0.00     0.060 A 
BRANCH  73  74
ATOM     74  S   UNL A   1      44.750  25.341  37.044  1.00  0.00     0.124 S 
ATOM     75  O   UNL A   1      44.699  24.040  36.389  1.00  0.00    -0.237 OA
ATOM     76  O   UNL A   1      46.036  26.030  37.003  1.00  0.00    -0.237 OA
ATOM     77  O   UNL A   1      44.032  25.442  38.311  1.00  0.00    -0.744 OA
ENDBRANCH  73  74
ENDBRANCH  52  66
BRANCH  53  78
ATOM     78  C   UNL A   1      43.956  25.848  26.110  1.00  0.00     0.058 A 
ATOM     79  C   UNL A   1      45.120  25.769  25.324  1.00  0.00     0.135 A 
ATOM     80  C   UNL A   1      43.280  24.632  26.341  1.00  0.00     0.135 A 
ATOM     81  F   UNL A   1      45.832  26.876  25.059  1.00  0.00    -0.206 F 
ATOM     82  C   UNL A   1      45.627  24.552  24.858  1.00  0.00     0.059 A 
ATOM     83  C   UNL A   1      43.762  23.406  25.881  1.00  0.00     0.059 A 
ATOM     84  F   UNL A   1      42.182  24.589  27.110  1.00  0.00    -0.206 F 
ATOM     85  C   UNL A   1      44.954  23.370  25.166  1.00  0.00     0.060 A 
BRANCH  85  86
ATOM     86  S   UNL A   1      45.717  21.783  24.745  1.00  0.00     0.124 S 
ATOM     87  O   UNL A   1      44.708  21.184  23.875  1.00  0.00    -0.237 OA
ATOM     88  O   UNL A   1      46.954  22.198  24.092  1.00  0.00    -0.237 OA
ATOM     89  O   UNL A   1      45.889  21.134  26.041  1.00  0.00    -0.744 OA
ENDBRANCH  85  86
ENDBRANCH  53  78
BRANCH  65  90
ATOM     90  C   UNL A   1      45.092  31.420  28.917  1.00  0.00     0.058 A 
ATOM     91  C   UNL A   1      46.366  31.985  28.734  1.00  0.00     0.135 A 
ATOM     92  C   UNL A   1      44.078  31.836  28.039  1.00  0.00     0.135 A 
ATOM     93  F   UNL A   1      47.420  31.570  29.454  1.00  0.00    -0.206 F 
ATOM     94  C   UNL A   1      46.604  32.960  27.760  1.00  0.00     0.059 A 
ATOM     95  C   UNL A   1      44.301  32.778  27.040  1.00  0.00     0.059 A 
ATOM     96  F   UNL A   1      42.852  31.293  28.121  1.00  0.00    -0.206 F 
ATOM     97  C   UNL A   1      45.561  33.352  26.919  1.00  0.00     0.060 A 
BRANCH  97  98
ATOM     98  S   UNL A   1      45.871  34.583  25.635  1.00  0.00     0.124 S 
ATOM     99  O   UNL A   1      47.292  34.395  25.364  1.00  0.00    -0.237 OA
ATOM    100  O   UNL A   1      44.961  34.169  24.570  1.00  0.00    -0.237 OA
ATOM    101  O   UNL A   1      45.522  35.847  26.282  1.00  0.00    -0.744 OA
ENDBRANCH  97  98
ENDBRANCH  65  90
ENDBRANCH  39  40
ENDBRANCH  31  34
ENDBRANCH  29  30
ENDBRANCH  28  29
ENDBRANCH  27  28
ENDBRANCH   3  27
TORSDOF 19
ENDMDL
MODEL 3
REMARK VINA RESULT:     -11.8      1.883      2.642
REMARK SMILES CCOc1ccc(CNC(=O)Cc2c(C(=O)NCCCNC(=O)c3ccc(-c4c5nc(c(-c6c(F)cc(S(=O)(=O)[O-])cc6F)c6ccc([nH]6)c(-c6c(F)cc(S(=O)(=O)[O-])cc6F)c6nc(c(-c7c(F)cc(S(=O)(=O)[O-])cc7F)c7ccc4[nH]7)C=C6)C=C5)cc3)c(C)cn2C)cc1
REMARK SMILES IDX 15 1 16 2 17 3 14 5 13 6 93 7 90 8 92 9 94 10 91 11 12 12
REMARK SMILES IDX 10 13 9 14 11 16 8 17 7 18 4 19 5 20 96 21 6 22 95 23 3 24
REMARK SMILES IDX 2 25 1 26 18 27 19 28 20 29 21 30 22 31 23 33 24 34 25 35
REMARK SMILES IDX 89 36 26 37 88 38 27 39 28 40 29 41 82 42 30 43 87 44 81 45
REMARK SMILES IDX 83 46 31 47 86 48 80 49 79 50 32 52 66 53 45 54 65 55 46 56
REMARK SMILES IDX 49 57 64 58 84 59 47 60 48 61 63 63 85 64 50 65 33 66 34 67
REMARK SMILES IDX 43 68 35 69 36 70 42 71 44 72 37 73 38 74 39 75 40 76 41 77
REMARK SMILES IDX 67 78 68 79 77 80 69 81 70 82 76 83 78 84 71 85 72 86 73 87
REMARK SMILES IDX 74 88 75 89 51 90 52 91 61 92 53 93 54 94 60 95 62 96 55 97
REMARK SMILES IDX 56 98 57 99 58 100 59 101
REMARK H PARENT 17 4 9 15 21 32 83 51 49 62
REMARK Flexibility Score: inf
ROOT
ATOM      1  C   UNL A   1      32.714  23.155  26.150  1.00  0.00     0.253 C 
ATOM      2  O   UNL A   1      31.880  23.372  27.029  1.00  0.00    -0.269 OA
ATOM      3  N   UNL A   1      33.859  23.904  26.209  1.00  0.00    -0.352 N 
ATOM      4  H   UNL A   1      33.905  24.496  26.996  1.00  0.00     0.163 HD
ENDROOT
BRANCH   1   5
ATOM      5  C   UNL A   1      32.475  22.099  25.150  1.00  0.00     0.064 A 
ATOM      6  C   UNL A   1      31.929  22.405  23.887  1.00  0.00     0.040 A 
ATOM      7  N   UNL A   1      32.067  21.290  23.093  1.00  0.00    -0.353 N 
ATOM      8  C   UNL A   1      32.757  20.678  25.121  1.00  0.00    -0.020 A 
ATOM      9  C   UNL A   1      32.453  20.230  23.851  1.00  0.00     0.089 A 
ATOM     10  C   UNL A   1      31.921  21.233  21.653  1.00  0.00     0.149 C 
ATOM     11  C   UNL A   1      33.314  19.763  26.149  1.00  0.00     0.047 C 
BRANCH   6  12
ATOM     12  C   UNL A   1      31.381  23.699  23.318  1.00  0.00     0.154 C 
BRANCH  12  13
ATOM     13  C   UNL A   1      32.419  24.712  22.854  1.00  0.00     0.226 C 
ATOM     14  N   UNL A   1      32.603  25.902  23.495  1.00  0.00    -0.352 N 
ATOM     15  H   UNL A   1      33.438  26.371  23.272  1.00  0.00     0.163 HD
ATOM     16  O   UNL A   1      33.052  24.538  21.809  1.00  0.00    -0.275 OA
BRANCH  14  17
ATOM     17  C   UNL A   1      31.756  26.577  24.452  1.00  0.00     0.151 C 
BRANCH  17  18
ATOM     18  C   UNL A   1      30.789  27.516  23.776  1.00  0.00    -0.029 A 
ATOM     19  C   UNL A   1      29.057  29.171  22.313  1.00  0.00     0.119 A 
ATOM     20  C   UNL A   1      30.423  29.403  22.277  1.00  0.00     0.047 A 
ATOM     21  C   UNL A   1      28.540  28.143  23.096  1.00  0.00     0.047 A 
ATOM     22  C   UNL A   1      31.277  28.584  23.016  1.00  0.00     0.009 A 
ATOM     23  C   UNL A   1      29.402  27.320  23.830  1.00  0.00     0.009 A 
BRANCH  19  24
ATOM     24  O   UNL A   1      28.223  29.851  21.475  1.00  0.00    -0.494 OA
BRANCH  24  25
ATOM     25  C   UNL A   1      28.744  31.125  21.092  1.00  0.00     0.226 C 
ATOM     26  C   UNL A   1      28.084  32.210  21.923  1.00  0.00     0.049 C 
ENDBRANCH  24  25
ENDBRANCH  19  24
ENDBRANCH  17  18
ENDBRANCH  14  17
ENDBRANCH  12  13
ENDBRANCH   6  12
ENDBRANCH   1   5
BRANCH   3  27
ATOM     27  C   UNL A   1      35.010  23.998  25.344  1.00  0.00     0.118 C 
BRANCH  27  28
ATOM     28  C   UNL A   1      36.047  22.923  25.677  1.00  0.00     0.042 C 
BRANCH  28  29
ATOM     29  C   UNL A   1      37.468  23.355  25.375  1.00  0.00     0.118 C 
BRANCH  29  30
ATOM     30  N   UNL A   1      38.429  22.275  25.600  1.00  0.00    -0.352 N 
ATOM     31  C   UNL A   1      39.675  22.366  26.195  1.00  0.00     0.251 C 
ATOM     32  H   UNL A   1      38.157  21.379  25.294  1.00  0.00     0.163 HD
ATOM     33  O   UNL A   1      40.538  21.538  25.972  1.00  0.00    -0.269 OA
BRANCH  31  34
ATOM     34  C   UNL A   1      39.921  23.512  27.089  1.00  0.00     0.039 A 
ATOM     35  C   UNL A   1      41.106  23.610  27.817  1.00  0.00     0.014 A 
ATOM     36  C   UNL A   1      38.979  24.539  27.101  1.00  0.00     0.014 A 
ATOM     37  C   UNL A   1      41.383  24.807  28.468  1.00  0.00     0.010 A 
ATOM     38  C   UNL A   1      39.325  25.767  27.611  1.00  0.00     0.010 A 
ATOM     39  C   UNL A   1      40.509  25.903  28.325  1.00  0.00    -0.014 A 
BRANCH  39  40
ATOM     40  C   UNL A   1      40.907  27.223  28.806  1.00  0.00     0.031 A 
ATOM     41  C   UNL A   1      42.102  27.786  28.121  1.00  0.00     0.074 A 
ATOM     42  C   UNL A   1      40.198  27.974  29.675  1.00  0.00     0.049 A 
ATOM     43  N   UNL A   1      43.314  27.797  28.566  1.00  0.00    -0.248 NA
ATOM     44  C   UNL A   1      41.985  28.213  26.717  1.00  0.00     0.031 C 
ATOM     45  C   UNL A   1      38.852  27.742  30.210  1.00  0.00     0.029 A 
ATOM     46  N   UNL A   1      40.526  29.179  30.218  1.00  0.00    -0.354 N 
ATOM     47  C   UNL A   1      44.065  28.477  27.614  1.00  0.00     0.074 A 
ATOM     48  C   UNL A   1      43.256  28.502  26.423  1.00  0.00     0.031 C 
ATOM     49  C   UNL A   1      38.400  28.865  30.811  1.00  0.00     0.029 A 
ATOM     50  C   UNL A   1      39.485  29.827  30.873  1.00  0.00     0.049 A 
ATOM     51  H   UNL A   1      41.431  29.562  30.151  1.00  0.00     0.167 HD
ATOM     52  C   UNL A   1      45.173  29.184  27.978  1.00  0.00     0.037 A 
ATOM     53  C   UNL A   1      39.514  31.063  31.432  1.00  0.00     0.037 A 
ATOM     54  C   UNL A   1      45.577  28.839  29.324  1.00  0.00     0.049 A 
ATOM     55  C   UNL A   1      40.940  31.382  31.696  1.00  0.00     0.074 A 
ATOM     56  C   UNL A   1      45.921  27.665  29.968  1.00  0.00     0.029 A 
ATOM     57  N   UNL A   1      45.267  29.733  30.321  1.00  0.00    -0.354 N 
ATOM     58  N   UNL A   1      41.674  30.755  32.575  1.00  0.00    -0.248 NA
ATOM     59  C   UNL A   1      41.679  32.089  30.663  1.00  0.00     0.031 C 
ATOM     60  C   UNL A   1      45.325  27.767  31.260  1.00  0.00     0.029 A 
ATOM     61  C   UNL A   1      44.731  29.026  31.366  1.00  0.00     0.049 A 
ATOM     62  H   UNL A   1      45.404  30.708  30.291  1.00  0.00     0.167 HD
ATOM     63  C   UNL A   1      42.909  30.607  31.963  1.00  0.00     0.074 A 
ATOM     64  C   UNL A   1      42.883  31.535  30.833  1.00  0.00     0.031 C 
ATOM     65  C   UNL A   1      43.722  29.551  32.260  1.00  0.00     0.037 A 
BRANCH  52  66
ATOM     66  C   UNL A   1      45.652  30.457  27.311  1.00  0.00     0.058 A 
ATOM     67  C   UNL A   1      47.029  30.600  27.027  1.00  0.00     0.135 A 
ATOM     68  C   UNL A   1      44.890  31.640  27.206  1.00  0.00     0.135 A 
ATOM     69  F   UNL A   1      47.855  29.542  27.088  1.00  0.00    -0.206 F 
ATOM     70  C   UNL A   1      47.616  31.836  26.757  1.00  0.00     0.059 A 
ATOM     71  C   UNL A   1      45.446  32.874  26.885  1.00  0.00     0.059 A 
ATOM     72  F   UNL A   1      43.587  31.687  27.500  1.00  0.00    -0.206 F 
ATOM     73  C   UNL A   1      46.815  32.971  26.705  1.00  0.00     0.060 A 
BRANCH  73  74
ATOM     74  S   UNL A   1      47.579  34.580  26.446  1.00  0.00     0.124 S 
ATOM     75  O   UNL A   1      47.846  34.548  25.013  1.00  0.00    -0.237 OA
ATOM     76  O   UNL A   1      46.522  35.488  26.881  1.00  0.00    -0.237 OA
ATOM     77  O   UNL A   1      48.754  34.535  27.311  1.00  0.00    -0.744 OA
ENDBRANCH  73  74
ENDBRANCH  52  66
BRANCH  53  78
ATOM     78  C   UNL A   1      38.447  32.096  31.483  1.00  0.00     0.058 A 
ATOM     79  C   UNL A   1      37.725  32.449  30.328  1.00  0.00     0.135 A 
ATOM     80  C   UNL A   1      37.903  32.528  32.710  1.00  0.00     0.135 A 
ATOM     81  F   UNL A   1      38.165  32.073  29.117  1.00  0.00    -0.206 F 
ATOM     82  C   UNL A   1      36.502  33.122  30.388  1.00  0.00     0.059 A 
ATOM     83  C   UNL A   1      36.687  33.207  32.795  1.00  0.00     0.059 A 
ATOM     84  F   UNL A   1      38.491  32.211  33.874  1.00  0.00    -0.206 F 
ATOM     85  C   UNL A   1      35.975  33.473  31.630  1.00  0.00     0.060 A 
BRANCH  85  86
ATOM     86  S   UNL A   1      34.301  34.154  31.722  1.00  0.00     0.124 S 
ATOM     87  O   UNL A   1      33.858  34.057  30.334  1.00  0.00    -0.237 OA
ATOM     88  O   UNL A   1      33.649  33.248  32.662  1.00  0.00    -0.237 OA
ATOM     89  O   UNL A   1      34.512  35.511  32.216  1.00  0.00    -0.744 OA
ENDBRANCH  85  86
ENDBRANCH  53  78
BRANCH  65  90
ATOM     90  C   UNL A   1      43.443  28.757  33.511  1.00  0.00     0.058 A 
ATOM     91  C   UNL A   1      43.837  29.118  34.812  1.00  0.00     0.135 A 
ATOM     92  C   UNL A   1      42.620  27.625  33.386  1.00  0.00     0.135 A 
ATOM     93  F   UNL A   1      44.533  30.242  35.040  1.00  0.00    -0.206 F 
ATOM     94  C   UNL A   1      43.478  28.354  35.927  1.00  0.00     0.059 A 
ATOM     95  C   UNL A   1      42.220  26.872  34.484  1.00  0.00     0.059 A 
ATOM     96  F   UNL A   1      42.159  27.259  32.178  1.00  0.00    -0.206 F 
ATOM     97  C   UNL A   1      42.669  27.229  35.751  1.00  0.00     0.060 A 
BRANCH  97  98
ATOM     98  S   UNL A   1      42.170  26.260  37.190  1.00  0.00     0.124 S 
ATOM     99  O   UNL A   1      42.133  24.905  36.652  1.00  0.00    -0.237 OA
ATOM    100  O   UNL A   1      43.240  26.534  38.146  1.00  0.00    -0.237 OA
ATOM    101  O   UNL A   1      40.870  26.824  37.548  1.00  0.00    -0.744 OA
ENDBRANCH  97  98
ENDBRANCH  65  90
ENDBRANCH  39  40
ENDBRANCH  31  34
ENDBRANCH  29  30
ENDBRANCH  28  29
ENDBRANCH  27  28
ENDBRANCH   3  27
TORSDOF 19
ENDMDL
