MODEL 1
REMARK VINA RESULT:     -13.2      0.000      0.000
REMARK SMILES CC(C)C[C@H](C(=O)NCCCNC(=O)c1ccc(-c2c3nc(c(-c4c(F)cc(S(=O)(=O)[O-])cc4F)c4ccc([nH]4)c(-c4c(F)cc(S(=O)(=O)[O-])cc4F)c4nc(c(-c5c(F)cc(S(=O)(=O)[O-])cc5F)c5ccc2[nH]5)C=C4)C=C3)cc1)N1C(=O)/C(=C2\C(=O)Nc3ccc(Br)cc32)SC1=S
REMARK SMILES IDX 10 1 9 2 8 3 6 4 7 5 5 7 4 8 2 9 1 10 3 11 81 12 82 13 97 14
REMARK SMILES IDX 83 15 84 16 96 17 98 18 85 19 86 20 95 21 87 22 88 23 89 24
REMARK SMILES IDX 94 25 90 27 92 28 91 29 93 30 11 31 12 32 13 33 14 35 15 36
REMARK SMILES IDX 16 37 80 38 17 39 79 40 18 41 19 42 20 43 73 44 21 45 78 46
REMARK SMILES IDX 72 47 74 48 22 49 77 50 71 51 70 52 23 54 57 55 36 56 56 57
REMARK SMILES IDX 37 58 40 59 55 60 75 61 38 62 39 63 54 65 76 66 41 67 24 68
REMARK SMILES IDX 25 69 34 70 26 71 27 72 33 73 35 74 28 75 29 76 30 77 31 78
REMARK SMILES IDX 32 79 58 80 59 81 68 82 60 83 61 84 67 85 69 86 62 87 63 88
REMARK SMILES IDX 64 89 65 90 66 91 42 92 43 93 52 94 44 95 45 96 51 97 53 98
REMARK SMILES IDX 46 99 47 100 48 101 49 102 50 103
REMARK H PARENT 8 6 88 26 12 34 74 53 40 64
REMARK Flexibility Score: inf
ROOT
ATOM      1  C   UNL A   1      34.111  30.996  27.619  1.00  0.00     0.042 C 
ENDROOT
BRANCH   1   2
ATOM      2  C   UNL A   1      33.994  29.484  27.390  1.00  0.00     0.117 C 
BRANCH   2   3
ATOM      3  N   UNL A   1      32.658  28.971  27.627  1.00  0.00    -0.354 N 
ATOM      4  C   UNL A   1      31.960  27.906  27.177  1.00  0.00     0.243 C 
ATOM      5  O   UNL A   1      30.964  27.654  27.886  1.00  0.00    -0.273 OA
ATOM      6  H   UNL A   1      32.143  29.523  28.260  1.00  0.00     0.163 HD
BRANCH   4   7
ATOM      7  C   UNL A   1      32.077  27.118  25.826  1.00  0.00     0.181 C 
BRANCH   7   8
ATOM      8  C   UNL A   1      33.597  27.133  25.435  1.00  0.00     0.038 C 
BRANCH   8   9
ATOM      9  C   UNL A   1      33.921  27.853  24.102  1.00  0.00    -0.015 C 
ATOM     10  C   UNL A   1      33.829  26.922  22.890  1.00  0.00     0.007 C 
ATOM     11  C   UNL A   1      32.972  29.035  23.889  1.00  0.00     0.007 C 
ENDBRANCH   8   9
ENDBRANCH   7   8
BRANCH   7  12
ATOM     12  N   UNL A   1      31.486  25.830  25.377  1.00  0.00    -0.280 N 
ATOM     13  C   UNL A   1      31.788  24.661  26.007  1.00  0.00     0.267 C 
ATOM     14  C   UNL A   1      30.861  25.612  24.165  1.00  0.00     0.149 C 
ATOM     15  O   UNL A   1      31.521  24.418  27.170  1.00  0.00    -0.268 OA
ATOM     16  C   UNL A   1      31.997  23.549  25.064  1.00  0.00     0.093 C 
ATOM     17  S   UNL A   1      31.090  23.916  23.660  1.00  0.00    -0.053 SA
ATOM     18  S   UNL A   1      30.028  26.700  23.212  1.00  0.00    -0.052 S 
ATOM     19  C   UNL A   1      32.641  22.441  25.454  1.00  0.00     0.069 C 
ATOM     20  C   UNL A   1      33.407  22.379  26.761  1.00  0.00     0.257 C 
ATOM     21  C   UNL A   1      32.674  21.084  24.900  1.00  0.00     0.013 A 
ATOM     22  O   UNL A   1      33.887  23.308  27.391  1.00  0.00    -0.269 OA
ATOM     23  N   UNL A   1      33.575  21.037  27.018  1.00  0.00    -0.321 N 
ATOM     24  C   UNL A   1      33.173  20.270  25.931  1.00  0.00     0.049 A 
ATOM     25  C   UNL A   1      32.340  20.529  23.681  1.00  0.00     0.026 A 
ATOM     26  H   UNL A   1      33.931  20.669  27.858  1.00  0.00     0.170 HD
ATOM     27  C   UNL A   1      33.298  18.902  25.817  1.00  0.00     0.028 A 
ATOM     28  C   UNL A   1      32.489  19.143  23.538  1.00  0.00     0.018 A 
ATOM     29  C   UNL A   1      32.944  18.333  24.594  1.00  0.00     0.018 A 
ATOM     30  Br  UNL A   1      32.082  18.343  21.871  1.00  0.00    -0.051 Br
ENDBRANCH   7  12
ENDBRANCH   4   7
ENDBRANCH   2   3
ENDBRANCH   1   2
BRANCH   1  31
ATOM     31  C   UNL A   1      35.418  31.460  28.246  1.00  0.00     0.118 C 
BRANCH  31  32
ATOM     32  N   UNL A   1      35.421  31.245  29.690  1.00  0.00    -0.352 N 
ATOM     33  C   UNL A   1      36.260  30.516  30.499  1.00  0.00     0.251 C 
ATOM     34  H   UNL A   1      34.694  31.704  30.170  1.00  0.00     0.163 HD
ATOM     35  O   UNL A   1      35.873  30.235  31.633  1.00  0.00    -0.269 OA
BRANCH  33  36
ATOM     36  C   UNL A   1      37.608  30.072  30.060  1.00  0.00     0.039 A 
ATOM     37  C   UNL A   1      38.543  29.700  31.036  1.00  0.00     0.014 A 
ATOM     38  C   UNL A   1      38.008  30.119  28.724  1.00  0.00     0.014 A 
ATOM     39  C   UNL A   1      39.848  29.345  30.670  1.00  0.00     0.010 A 
ATOM     40  C   UNL A   1      39.283  29.688  28.351  1.00  0.00     0.010 A 
ATOM     41  C   UNL A   1      40.223  29.313  29.320  1.00  0.00    -0.014 A 
BRANCH  41  42
ATOM     42  C   UNL A   1      41.597  28.921  28.901  1.00  0.00     0.031 A 
ATOM     43  C   UNL A   1      42.695  29.953  28.839  1.00  0.00     0.074 A 
ATOM     44  C   UNL A   1      41.843  27.654  28.512  1.00  0.00     0.049 A 
ATOM     45  N   UNL A   1      43.921  29.832  28.396  1.00  0.00    -0.248 NA
ATOM     46  C   UNL A   1      42.362  31.307  29.311  1.00  0.00     0.031 C 
ATOM     47  C   UNL A   1      40.860  26.570  28.484  1.00  0.00     0.029 A 
ATOM     48  N   UNL A   1      42.995  27.066  28.051  1.00  0.00    -0.354 N 
ATOM     49  C   UNL A   1      44.495  31.094  28.513  1.00  0.00     0.074 A 
ATOM     50  C   UNL A   1      43.471  31.976  29.029  1.00  0.00     0.031 C 
ATOM     51  C   UNL A   1      41.451  25.448  28.044  1.00  0.00     0.029 A 
ATOM     52  C   UNL A   1      42.846  25.739  27.724  1.00  0.00     0.049 A 
ATOM     53  H   UNL A   1      43.849  27.549  27.964  1.00  0.00     0.167 HD
ATOM     54  C   UNL A   1      45.765  31.479  28.235  1.00  0.00     0.037 A 
ATOM     55  C   UNL A   1      43.728  24.857  27.215  1.00  0.00     0.037 A 
ATOM     56  C   UNL A   1      46.794  30.590  27.763  1.00  0.00     0.049 A 
ATOM     57  C   UNL A   1      45.140  25.301  26.943  1.00  0.00     0.074 A 
ATOM     58  C   UNL A   1      48.125  30.872  27.507  1.00  0.00     0.029 A 
ATOM     59  N   UNL A   1      46.611  29.243  27.487  1.00  0.00    -0.354 N 
ATOM     60  N   UNL A   1      45.673  26.489  27.099  1.00  0.00    -0.248 NA
ATOM     61  C   UNL A   1      46.070  24.284  26.433  1.00  0.00     0.031 C 
ATOM     62  C   UNL A   1      48.741  29.701  27.051  1.00  0.00     0.029 A 
ATOM     63  C   UNL A   1      47.802  28.683  27.056  1.00  0.00     0.049 A 
ATOM     64  H   UNL A   1      45.760  28.758  27.581  1.00  0.00     0.167 HD
ATOM     65  C   UNL A   1      47.005  26.358  26.726  1.00  0.00     0.074 A 
ATOM     66  C   UNL A   1      47.201  24.972  26.351  1.00  0.00     0.031 C 
ATOM     67  C   UNL A   1      47.980  27.300  26.694  1.00  0.00     0.037 A 
BRANCH  54  68
ATOM     68  C   UNL A   1      46.119  32.925  28.451  1.00  0.00     0.058 A 
ATOM     69  C   UNL A   1      46.006  33.870  27.419  1.00  0.00     0.135 A 
ATOM     70  C   UNL A   1      46.531  33.381  29.713  1.00  0.00     0.135 A 
ATOM     71  F   UNL A   1      45.630  33.485  26.190  1.00  0.00    -0.206 F 
ATOM     72  C   UNL A   1      46.313  35.211  27.623  1.00  0.00     0.059 A 
ATOM     73  C   UNL A   1      46.821  34.722  29.947  1.00  0.00     0.059 A 
ATOM     74  F   UNL A   1      46.655  32.520  30.736  1.00  0.00    -0.206 F 
ATOM     75  C   UNL A   1      46.722  35.629  28.891  1.00  0.00     0.060 A 
BRANCH  75  76
ATOM     76  S   UNL A   1      47.104  37.374  29.144  1.00  0.00     0.124 S 
ATOM     77  O   UNL A   1      45.825  38.001  28.826  1.00  0.00    -0.237 OA
ATOM     78  O   UNL A   1      47.493  37.411  30.551  1.00  0.00    -0.237 OA
ATOM     79  O   UNL A   1      48.181  37.627  28.193  1.00  0.00    -0.744 OA
ENDBRANCH  75  76
ENDBRANCH  54  68
BRANCH  55  80
ATOM     80  C   UNL A   1      43.306  23.458  26.944  1.00  0.00     0.058 A 
ATOM     81  C   UNL A   1      43.173  22.988  25.629  1.00  0.00     0.135 A 
ATOM     82  C   UNL A   1      43.042  22.563  27.990  1.00  0.00     0.135 A 
ATOM     83  F   UNL A   1      43.410  23.811  24.597  1.00  0.00    -0.206 F 
ATOM     84  C   UNL A   1      42.779  21.682  25.359  1.00  0.00     0.059 A 
ATOM     85  C   UNL A   1      42.667  21.245  27.746  1.00  0.00     0.059 A 
ATOM     86  F   UNL A   1      43.177  22.958  29.266  1.00  0.00    -0.206 F 
ATOM     87  C   UNL A   1      42.530  20.816  26.426  1.00  0.00     0.060 A 
BRANCH  87  88
ATOM     88  S   UNL A   1      42.086  19.102  26.073  1.00  0.00     0.124 S 
ATOM     89  O   UNL A   1      42.854  18.844  24.861  1.00  0.00    -0.237 OA
ATOM     90  O   UNL A   1      42.537  18.412  27.277  1.00  0.00    -0.237 OA
ATOM     91  O   UNL A   1      40.638  19.165  25.907  1.00  0.00    -0.744 OA
ENDBRANCH  87  88
ENDBRANCH  55  80
BRANCH  67  92
ATOM     92  C   UNL A   1      49.349  26.857  26.267  1.00  0.00     0.058 A 
ATOM     93  C   UNL A   1      49.805  27.048  24.953  1.00  0.00     0.135 A 
ATOM     94  C   UNL A   1      50.229  26.272  27.191  1.00  0.00     0.135 A 
ATOM     95  F   UNL A   1      48.998  27.597  24.031  1.00  0.00    -0.206 F 
ATOM     96  C   UNL A   1      51.079  26.651  24.563  1.00  0.00     0.059 A 
ATOM     97  C   UNL A   1      51.516  25.888  26.829  1.00  0.00     0.059 A 
ATOM     98  F   UNL A   1      49.843  26.077  28.462  1.00  0.00    -0.206 F 
ATOM     99  C   UNL A   1      51.928  26.070  25.509  1.00  0.00     0.060 A 
BRANCH  99 100
ATOM    100  S   UNL A   1      53.589  25.582  25.000  1.00  0.00     0.124 S 
ATOM    101  O   UNL A   1      54.415  26.492  25.786  1.00  0.00    -0.237 OA
ATOM    102  O   UNL A   1      53.641  24.177  25.396  1.00  0.00    -0.237 OA
ATOM    103  O   UNL A   1      53.585  25.819  23.560  1.00  0.00    -0.744 OA
ENDBRANCH  99 100
ENDBRANCH  67  92
ENDBRANCH  41  42
ENDBRANCH  33  36
ENDBRANCH  31  32
ENDBRANCH   1  31
TORSDOF 16
ENDMDL
MODEL 2
REMARK VINA RESULT:     -12.9      1.231      2.151
REMARK SMILES CC(C)C[C@H](C(=O)NCCCNC(=O)c1ccc(-c2c3nc(c(-c4c(F)cc(S(=O)(=O)[O-])cc4F)c4ccc([nH]4)c(-c4c(F)cc(S(=O)(=O)[O-])cc4F)c4nc(c(-c5c(F)cc(S(=O)(=O)[O-])cc5F)c5ccc2[nH]5)C=C4)C=C3)cc1)N1C(=O)/C(=C2\C(=O)Nc3ccc(Br)cc32)SC1=S
REMARK SMILES IDX 10 1 9 2 8 3 6 4 7 5 5 7 4 8 2 9 1 10 3 11 81 12 82 13 97 14
REMARK SMILES IDX 83 15 84 16 96 17 98 18 85 19 86 20 95 21 87 22 88 23 89 24
REMARK SMILES IDX 94 25 90 27 92 28 91 29 93 30 11 31 12 32 13 33 14 35 15 36
REMARK SMILES IDX 16 37 80 38 17 39 79 40 18 41 19 42 20 43 73 44 21 45 78 46
REMARK SMILES IDX 72 47 74 48 22 49 77 50 71 51 70 52 23 54 57 55 36 56 56 57
REMARK SMILES IDX 37 58 40 59 55 60 75 61 38 62 39 63 54 65 76 66 41 67 24 68
REMARK SMILES IDX 25 69 34 70 26 71 27 72 33 73 35 74 28 75 29 76 30 77 31 78
REMARK SMILES IDX 32 79 58 80 59 81 68 82 60 83 61 84 67 85 69 86 62 87 63 88
REMARK SMILES IDX 64 89 65 90 66 91 42 92 43 93 52 94 44 95 45 96 51 97 53 98
REMARK SMILES IDX 46 99 47 100 48 101 49 102 50 103
REMARK H PARENT 8 6 88 26 12 34 74 53 40 64
REMARK Flexibility Score: inf
ROOT
ATOM      1  C   UNL A   1      33.847  31.312  27.608  1.00  0.00     0.042 C 
ENDROOT
BRANCH   1   2
ATOM      2  C   UNL A   1      33.158  30.333  26.651  1.00  0.00     0.117 C 
BRANCH   2   3
ATOM      3  N   UNL A   1      32.150  29.513  27.297  1.00  0.00    -0.354 N 
ATOM      4  C   UNL A   1      31.576  28.324  27.015  1.00  0.00     0.243 C 
ATOM      5  O   UNL A   1      30.997  27.828  28.003  1.00  0.00    -0.273 OA
ATOM      6  H   UNL A   1      31.807  29.914  28.128  1.00  0.00     0.163 HD
BRANCH   4   7
ATOM      7  C   UNL A   1      31.339  27.616  25.636  1.00  0.00     0.181 C 
BRANCH   7   8
ATOM      8  C   UNL A   1      30.898  28.739  24.632  1.00  0.00     0.038 C 
BRANCH   8   9
ATOM      9  C   UNL A   1      30.272  28.225  23.311  1.00  0.00    -0.015 C 
ATOM     10  C   UNL A   1      28.816  27.785  23.478  1.00  0.00     0.007 C 
ATOM     11  C   UNL A   1      30.339  29.309  22.231  1.00  0.00     0.007 C 
ENDBRANCH   8   9
ENDBRANCH   7   8
BRANCH   7  12
ATOM     12  N   UNL A   1      32.136  26.605  24.893  1.00  0.00    -0.280 N 
ATOM     13  C   UNL A   1      31.760  25.297  24.864  1.00  0.00     0.267 C 
ATOM     14  C   UNL A   1      33.430  26.776  24.442  1.00  0.00     0.149 C 
ATOM     15  O   UNL A   1      30.722  24.890  24.373  1.00  0.00    -0.268 OA
ATOM     16  C   UNL A   1      32.902  24.377  25.010  1.00  0.00     0.093 C 
ATOM     17  S   UNL A   1      34.280  25.207  24.425  1.00  0.00    -0.053 SA
ATOM     18  S   UNL A   1      34.199  28.187  23.994  1.00  0.00    -0.052 S 
ATOM     19  C   UNL A   1      32.704  23.100  25.362  1.00  0.00     0.069 C 
ATOM     20  C   UNL A   1      31.366  22.612  25.882  1.00  0.00     0.257 C 
ATOM     21  C   UNL A   1      33.546  21.908  25.227  1.00  0.00     0.013 A 
ATOM     22  O   UNL A   1      30.488  23.268  26.420  1.00  0.00    -0.269 OA
ATOM     23  N   UNL A   1      31.406  21.242  25.750  1.00  0.00    -0.321 N 
ATOM     24  C   UNL A   1      32.679  20.815  25.392  1.00  0.00     0.049 A 
ATOM     25  C   UNL A   1      34.891  21.694  24.996  1.00  0.00     0.026 A 
ATOM     26  H   UNL A   1      30.636  20.645  25.891  1.00  0.00     0.170 HD
ATOM     27  C   UNL A   1      33.087  19.503  25.274  1.00  0.00     0.028 A 
ATOM     28  C   UNL A   1      35.329  20.367  24.903  1.00  0.00     0.018 A 
ATOM     29  C   UNL A   1      34.441  19.282  25.020  1.00  0.00     0.018 A 
ATOM     30  Br  UNL A   1      37.171  20.025  24.626  1.00  0.00    -0.051 Br
ENDBRANCH   7  12
ENDBRANCH   4   7
ENDBRANCH   2   3
ENDBRANCH   1   2
BRANCH   1  31
ATOM     31  C   UNL A   1      35.219  30.881  28.105  1.00  0.00     0.118 C 
BRANCH  31  32
ATOM     32  N   UNL A   1      35.345  31.065  29.548  1.00  0.00    -0.352 N 
ATOM     33  C   UNL A   1      36.300  30.638  30.439  1.00  0.00     0.251 C 
ATOM     34  H   UNL A   1      34.618  31.590  29.955  1.00  0.00     0.163 HD
ATOM     35  O   UNL A   1      36.022  30.649  31.638  1.00  0.00    -0.269 OA
BRANCH  33  36
ATOM     36  C   UNL A   1      37.646  30.179  30.011  1.00  0.00     0.039 A 
ATOM     37  C   UNL A   1      38.563  29.777  30.992  1.00  0.00     0.014 A 
ATOM     38  C   UNL A   1      38.064  30.240  28.681  1.00  0.00     0.014 A 
ATOM     39  C   UNL A   1      39.867  29.407  30.638  1.00  0.00     0.010 A 
ATOM     40  C   UNL A   1      39.337  29.795  28.317  1.00  0.00     0.010 A 
ATOM     41  C   UNL A   1      40.259  29.390  29.292  1.00  0.00    -0.014 A 
BRANCH  41  42
ATOM     42  C   UNL A   1      41.632  28.982  28.884  1.00  0.00     0.031 A 
ATOM     43  C   UNL A   1      42.740  30.003  28.826  1.00  0.00     0.074 A 
ATOM     44  C   UNL A   1      41.868  27.711  28.503  1.00  0.00     0.049 A 
ATOM     45  N   UNL A   1      43.968  29.868  28.392  1.00  0.00    -0.248 NA
ATOM     46  C   UNL A   1      42.417  31.362  29.290  1.00  0.00     0.031 C 
ATOM     47  C   UNL A   1      40.874  26.637  28.473  1.00  0.00     0.029 A 
ATOM     48  N   UNL A   1      43.017  27.110  28.053  1.00  0.00    -0.354 N 
ATOM     49  C   UNL A   1      44.553  31.124  28.507  1.00  0.00     0.074 A 
ATOM     50  C   UNL A   1      43.535  32.019  29.013  1.00  0.00     0.031 C 
ATOM     51  C   UNL A   1      41.458  25.507  28.041  1.00  0.00     0.029 A 
ATOM     52  C   UNL A   1      42.857  25.783  27.730  1.00  0.00     0.049 A 
ATOM     53  H   UNL A   1      43.876  27.584  27.969  1.00  0.00     0.167 HD
ATOM     54  C   UNL A   1      45.829  31.496  28.237  1.00  0.00     0.037 A 
ATOM     55  C   UNL A   1      43.734  24.890  27.231  1.00  0.00     0.037 A 
ATOM     56  C   UNL A   1      46.852  30.595  27.776  1.00  0.00     0.049 A 
ATOM     57  C   UNL A   1      45.152  25.319  26.967  1.00  0.00     0.074 A 
ATOM     58  C   UNL A   1      48.188  30.863  27.527  1.00  0.00     0.029 A 
ATOM     59  N   UNL A   1      46.658  29.249  27.504  1.00  0.00    -0.354 N 
ATOM     60  N   UNL A   1      45.695  26.502  27.121  1.00  0.00    -0.248 NA
ATOM     61  C   UNL A   1      46.075  24.291  26.468  1.00  0.00     0.031 C 
ATOM     62  C   UNL A   1      48.796  29.683  27.081  1.00  0.00     0.029 A 
ATOM     63  C   UNL A   1      47.847  28.675  27.084  1.00  0.00     0.049 A 
ATOM     64  H   UNL A   1      45.802  28.772  27.595  1.00  0.00     0.167 HD
ATOM     65  C   UNL A   1      47.029  26.356  26.759  1.00  0.00     0.074 A 
ATOM     66  C   UNL A   1      47.214  24.967  26.391  1.00  0.00     0.031 C 
ATOM     67  C   UNL A   1      48.013  27.288  26.730  1.00  0.00     0.037 A 
BRANCH  54  68
ATOM     68  C   UNL A   1      46.196  32.939  28.449  1.00  0.00     0.058 A 
ATOM     69  C   UNL A   1      46.738  33.388  29.663  1.00  0.00     0.135 A 
ATOM     70  C   UNL A   1      46.047  33.875  27.413  1.00  0.00     0.135 A 
ATOM     71  F   UNL A   1      46.888  32.538  30.690  1.00  0.00    -0.206 F 
ATOM     72  C   UNL A   1      47.097  34.719  29.852  1.00  0.00     0.059 A 
ATOM     73  C   UNL A   1      46.422  35.207  27.571  1.00  0.00     0.059 A 
ATOM     74  F   UNL A   1      45.534  33.500  26.230  1.00  0.00    -0.206 F 
ATOM     75  C   UNL A   1      46.934  35.622  28.800  1.00  0.00     0.060 A 
BRANCH  75  76
ATOM     76  S   UNL A   1      47.417  37.342  29.056  1.00  0.00     0.124 S 
ATOM     77  O   UNL A   1      48.679  37.401  28.325  1.00  0.00    -0.237 OA
ATOM     78  O   UNL A   1      46.304  38.074  28.458  1.00  0.00    -0.237 OA
ATOM     79  O   UNL A   1      47.527  37.452  30.507  1.00  0.00    -0.744 OA
ENDBRANCH  75  76
ENDBRANCH  54  68
BRANCH  55  80
ATOM     80  C   UNL A   1      43.300  23.494  26.963  1.00  0.00     0.058 A 
ATOM     81  C   UNL A   1      43.096  22.589  28.016  1.00  0.00     0.135 A 
ATOM     82  C   UNL A   1      43.070  23.042  25.656  1.00  0.00     0.135 A 
ATOM     83  F   UNL A   1      43.309  22.976  29.282  1.00  0.00    -0.206 F 
ATOM     84  C   UNL A   1      42.691  21.280  27.781  1.00  0.00     0.059 A 
ATOM     85  C   UNL A   1      42.644  21.743  25.397  1.00  0.00     0.059 A 
ATOM     86  F   UNL A   1      43.231  23.876  24.616  1.00  0.00    -0.206 F 
ATOM     87  C   UNL A   1      42.465  20.866  26.467  1.00  0.00     0.060 A 
BRANCH  87  88
ATOM     88  S   UNL A   1      41.873  19.186  26.171  1.00  0.00     0.124 S 
ATOM     89  O   UNL A   1      42.653  18.802  25.000  1.00  0.00    -0.237 OA
ATOM     90  O   UNL A   1      42.217  18.513  27.420  1.00  0.00    -0.237 OA
ATOM     91  O   UNL A   1      40.443  19.375  25.949  1.00  0.00    -0.744 OA
ENDBRANCH  87  88
ENDBRANCH  55  80
BRANCH  67  92
ATOM     92  C   UNL A   1      49.381  26.830  26.314  1.00  0.00     0.058 A 
ATOM     93  C   UNL A   1      50.273  26.254  27.232  1.00  0.00     0.135 A 
ATOM     94  C   UNL A   1      49.789  26.933  24.974  1.00  0.00     0.135 A 
ATOM     95  F   UNL A   1      49.931  26.141  28.525  1.00  0.00    -0.206 F 
ATOM     96  C   UNL A   1      51.533  25.816  26.840  1.00  0.00     0.059 A 
ATOM     97  C   UNL A   1      51.036  26.481  24.556  1.00  0.00     0.059 A 
ATOM     98  F   UNL A   1      48.968  27.468  24.057  1.00  0.00    -0.206 F 
ATOM     99  C   UNL A   1      51.907  25.936  25.500  1.00  0.00     0.060 A 
BRANCH  99 100
ATOM    100  S   UNL A   1      53.535  25.342  24.997  1.00  0.00     0.124 S 
ATOM    101  O   UNL A   1      53.462  23.934  25.372  1.00  0.00    -0.237 OA
ATOM    102  O   UNL A   1      53.543  25.616  23.562  1.00  0.00    -0.237 OA
ATOM    103  O   UNL A   1      54.452  26.157  25.788  1.00  0.00    -0.744 OA
ENDBRANCH  99 100
ENDBRANCH  67  92
ENDBRANCH  41  42
ENDBRANCH  33  36
ENDBRANCH  31  32
ENDBRANCH   1  31
TORSDOF 16
ENDMDL
MODEL 3
REMARK VINA RESULT:     -12.7      1.335      8.154
REMARK SMILES CC(C)C[C@H](C(=O)NCCCNC(=O)c1ccc(-c2c3nc(c(-c4c(F)cc(S(=O)(=O)[O-])cc4F)c4ccc([nH]4)c(-c4c(F)cc(S(=O)(=O)[O-])cc4F)c4nc(c(-c5c(F)cc(S(=O)(=O)[O-])cc5F)c5ccc2[nH]5)C=C4)C=C3)cc1)N1C(=O)/C(=C2\C(=O)Nc3ccc(Br)cc32)SC1=S
REMARK SMILES IDX 10 1 9 2 8 3 6 4 7 5 5 7 4 8 2 9 1 10 3 11 81 12 82 13 97 14
REMARK SMILES IDX 83 15 84 16 96 17 98 18 85 19 86 20 95 21 87 22 88 23 89 24
REMARK SMILES IDX 94 25 90 27 92 28 91 29 93 30 11 31 12 32 13 33 14 35 15 36
REMARK SMILES IDX 16 37 80 38 17 39 79 40 18 41 19 42 20 43 73 44 21 45 78 46
REMARK SMILES IDX 72 47 74 48 22 49 77 50 71 51 70 52 23 54 57 55 36 56 56 57
REMARK SMILES IDX 37 58 40 59 55 60 75 61 38 62 39 63 54 65 76 66 41 67 24 68
REMARK SMILES IDX 25 69 34 70 26 71 27 72 33 73 35 74 28 75 29 76 30 77 31 78
REMARK SMILES IDX 32 79 58 80 59 81 68 82 60 83 61 84 67 85 69 86 62 87 63 88
REMARK SMILES IDX 64 89 65 90 66 91 42 92 43 93 52 94 44 95 45 96 51 97 53 98
REMARK SMILES IDX 46 99 47 100 48 101 49 102 50 103
REMARK H PARENT 8 6 88 26 12 34 74 53 40 64
REMARK Flexibility Score: inf
ROOT
ATOM      1  C   UNL A   1      34.018  31.323  27.835  1.00  0.00     0.042 C 
ENDROOT
BRANCH   1   2
ATOM      2  C   UNL A   1      33.249  30.499  26.795  1.00  0.00     0.117 C 
BRANCH   2   3
ATOM      3  N   UNL A   1      32.201  29.680  27.374  1.00  0.00    -0.354 N 
ATOM      4  C   UNL A   1      31.604  28.521  27.024  1.00  0.00     0.243 C 
ATOM      5  O   UNL A   1      30.982  27.999  27.972  1.00  0.00    -0.273 OA
ATOM      6  H   UNL A   1      31.842  30.055  28.211  1.00  0.00     0.163 HD
BRANCH   4   7
ATOM      7  C   UNL A   1      31.393  27.878  25.608  1.00  0.00     0.181 C 
BRANCH   7   8
ATOM      8  C   UNL A   1      31.084  29.064  24.627  1.00  0.00     0.038 C 
BRANCH   8   9
ATOM      9  C   UNL A   1      29.885  28.827  23.674  1.00  0.00    -0.015 C 
ATOM     10  C   UNL A   1      29.121  30.115  23.355  1.00  0.00     0.007 C 
ATOM     11  C   UNL A   1      30.361  28.199  22.362  1.00  0.00     0.007 C 
ENDBRANCH   8   9
ENDBRANCH   7   8
BRANCH   7  12
ATOM     12  N   UNL A   1      32.156  26.839  24.870  1.00  0.00    -0.280 N 
ATOM     13  C   UNL A   1      31.762  25.536  24.882  1.00  0.00     0.267 C 
ATOM     14  C   UNL A   1      33.440  26.981  24.381  1.00  0.00     0.149 C 
ATOM     15  O   UNL A   1      30.706  25.132  24.428  1.00  0.00    -0.268 OA
ATOM     16  C   UNL A   1      32.894  24.604  25.019  1.00  0.00     0.093 C 
ATOM     17  S   UNL A   1      34.268  25.400  24.379  1.00  0.00    -0.053 SA
ATOM     18  S   UNL A   1      34.215  28.370  23.878  1.00  0.00    -0.052 S 
ATOM     19  C   UNL A   1      32.689  23.338  25.408  1.00  0.00     0.069 C 
ATOM     20  C   UNL A   1      31.359  22.882  25.974  1.00  0.00     0.257 C 
ATOM     21  C   UNL A   1      33.511  22.132  25.279  1.00  0.00     0.013 A 
ATOM     22  O   UNL A   1      30.505  23.562  26.519  1.00  0.00    -0.269 OA
ATOM     23  N   UNL A   1      31.376  21.509  25.874  1.00  0.00    -0.321 N 
ATOM     24  C   UNL A   1      32.633  21.055  25.493  1.00  0.00     0.049 A 
ATOM     25  C   UNL A   1      34.846  21.893  25.018  1.00  0.00     0.026 A 
ATOM     26  H   UNL A   1      30.603  20.926  26.050  1.00  0.00     0.170 HD
ATOM     27  C   UNL A   1      33.021  19.736  25.395  1.00  0.00     0.028 A 
ATOM     28  C   UNL A   1      35.263  20.558  24.945  1.00  0.00     0.018 A 
ATOM     29  C   UNL A   1      34.364  19.489  25.112  1.00  0.00     0.018 A 
ATOM     30  Br  UNL A   1      37.092  20.184  24.628  1.00  0.00    -0.051 Br
ENDBRANCH   7  12
ENDBRANCH   4   7
ENDBRANCH   2   3
ENDBRANCH   1   2
BRANCH   1  31
ATOM     31  C   UNL A   1      35.383  30.772  28.223  1.00  0.00     0.118 C 
BRANCH  31  32
ATOM     32  N   UNL A   1      35.524  30.675  29.672  1.00  0.00    -0.352 N 
ATOM     33  C   UNL A   1      36.494  30.093  30.454  1.00  0.00     0.251 C 
ATOM     34  H   UNL A   1      34.797  31.102  30.181  1.00  0.00     0.163 HD
ATOM     35  O   UNL A   1      36.230  29.869  31.635  1.00  0.00    -0.269 OA
BRANCH  33  36
ATOM     36  C   UNL A   1      37.839  29.742  29.932  1.00  0.00     0.039 A 
ATOM     37  C   UNL A   1      38.819  29.308  30.835  1.00  0.00     0.014 A 
ATOM     38  C   UNL A   1      38.191  29.936  28.595  1.00  0.00     0.014 A 
ATOM     39  C   UNL A   1      40.121  29.036  30.395  1.00  0.00     0.010 A 
ATOM     40  C   UNL A   1      39.465  29.588  28.141  1.00  0.00     0.010 A 
ATOM     41  C   UNL A   1      40.450  29.151  29.037  1.00  0.00    -0.014 A 
BRANCH  41  42
ATOM     42  C   UNL A   1      41.820  28.851  28.538  1.00  0.00     0.031 A 
ATOM     43  C   UNL A   1      42.176  27.454  28.093  1.00  0.00     0.074 A 
ATOM     44  C   UNL A   1      42.763  29.814  28.546  1.00  0.00     0.049 A 
ATOM     45  N   UNL A   1      43.338  26.971  27.732  1.00  0.00    -0.248 NA
ATOM     46  C   UNL A   1      41.087  26.464  28.078  1.00  0.00     0.031 C 
ATOM     47  C   UNL A   1      42.561  31.194  28.992  1.00  0.00     0.029 A 
ATOM     48  N   UNL A   1      44.086  29.776  28.182  1.00  0.00    -0.354 N 
ATOM     49  C   UNL A   1      43.126  25.621  27.473  1.00  0.00     0.074 A 
ATOM     50  C   UNL A   1      41.733  25.351  27.757  1.00  0.00     0.031 C 
ATOM     51  C   UNL A   1      43.712  31.873  28.863  1.00  0.00     0.029 A 
ATOM     52  C   UNL A   1      44.743  30.970  28.360  1.00  0.00     0.049 A 
ATOM     53  H   UNL A   1      44.524  28.969  27.827  1.00  0.00     0.167 HD
ATOM     54  C   UNL A   1      44.005  24.694  27.020  1.00  0.00     0.037 A 
ATOM     55  C   UNL A   1      46.032  31.301  28.152  1.00  0.00     0.037 A 
ATOM     56  C   UNL A   1      45.380  24.975  26.697  1.00  0.00     0.049 A 
ATOM     57  C   UNL A   1      46.983  30.262  27.621  1.00  0.00     0.074 A 
ATOM     58  C   UNL A   1      46.335  24.117  26.178  1.00  0.00     0.029 A 
ATOM     59  N   UNL A   1      45.993  26.209  26.850  1.00  0.00    -0.354 N 
ATOM     60  N   UNL A   1      46.752  29.002  27.344  1.00  0.00    -0.248 NA
ATOM     61  C   UNL A   1      48.365  30.693  27.368  1.00  0.00     0.031 C 
ATOM     62  C   UNL A   1      47.534  24.827  26.041  1.00  0.00     0.029 A 
ATOM     63  C   UNL A   1      47.315  26.134  26.442  1.00  0.00     0.049 A 
ATOM     64  H   UNL A   1      45.555  27.019  27.198  1.00  0.00     0.167 HD
ATOM     65  C   UNL A   1      47.953  28.493  26.864  1.00  0.00     0.074 A 
ATOM     66  C   UNL A   1      48.905  29.586  26.875  1.00  0.00     0.031 C 
ATOM     67  C   UNL A   1      48.245  27.235  26.454  1.00  0.00     0.037 A 
BRANCH  54  68
ATOM     68  C   UNL A   1      43.504  23.290  26.831  1.00  0.00     0.058 A 
ATOM     69  C   UNL A   1      43.293  22.751  25.551  1.00  0.00     0.135 A 
ATOM     70  C   UNL A   1      43.274  22.455  27.937  1.00  0.00     0.135 A 
ATOM     71  F   UNL A   1      43.484  23.509  24.461  1.00  0.00    -0.206 F 
ATOM     72  C   UNL A   1      42.849  21.445  25.375  1.00  0.00     0.059 A 
ATOM     73  C   UNL A   1      42.853  21.138  27.784  1.00  0.00     0.059 A 
ATOM     74  F   UNL A   1      43.460  22.919  29.183  1.00  0.00    -0.206 F 
ATOM     75  C   UNL A   1      42.630  20.645  26.498  1.00  0.00     0.060 A 
BRANCH  75  76
ATOM     76  S   UNL A   1      42.067  18.947  26.253  1.00  0.00     0.124 S 
ATOM     77  O   UNL A   1      43.002  18.475  25.237  1.00  0.00    -0.237 OA
ATOM     78  O   UNL A   1      42.230  18.367  27.582  1.00  0.00    -0.237 OA
ATOM     79  O   UNL A   1      40.687  19.109  25.808  1.00  0.00    -0.744 OA
ENDBRANCH  75  76
ENDBRANCH  54  68
BRANCH  55  80
ATOM     80  C   UNL A   1      46.498  32.684  28.431  1.00  0.00     0.058 A 
ATOM     81  C   UNL A   1      46.990  33.037  29.696  1.00  0.00     0.135 A 
ATOM     82  C   UNL A   1      46.473  33.675  27.438  1.00  0.00     0.135 A 
ATOM     83  F   UNL A   1      47.028  32.125  30.678  1.00  0.00    -0.206 F 
ATOM     84  C   UNL A   1      47.429  34.327  29.973  1.00  0.00     0.059 A 
ATOM     85  C   UNL A   1      46.926  34.967  27.684  1.00  0.00     0.059 A 
ATOM     86  F   UNL A   1      46.032  33.381  26.205  1.00  0.00    -0.206 F 
ATOM     87  C   UNL A   1      47.396  35.286  28.958  1.00  0.00     0.060 A 
BRANCH  87  88
ATOM     88  S   UNL A   1      48.030  36.941  29.301  1.00  0.00     0.124 S 
ATOM     89  O   UNL A   1      49.089  37.062  28.306  1.00  0.00    -0.237 OA
ATOM     90  O   UNL A   1      46.851  37.774  29.086  1.00  0.00    -0.237 OA
ATOM     91  O   UNL A   1      48.470  36.844  30.689  1.00  0.00    -0.744 OA
ENDBRANCH  87  88
ENDBRANCH  55  80
BRANCH  67  92
ATOM     92  C   UNL A   1      49.639  26.980  25.957  1.00  0.00     0.058 A 
ATOM     93  C   UNL A   1      50.651  26.521  26.815  1.00  0.00     0.135 A 
ATOM     94  C   UNL A   1      49.955  27.159  24.601  1.00  0.00     0.135 A 
ATOM     95  F   UNL A   1      50.399  26.342  28.121  1.00  0.00    -0.206 F 
ATOM     96  C   UNL A   1      51.937  26.271  26.349  1.00  0.00     0.059 A 
ATOM     97  C   UNL A   1      51.228  26.893  24.109  1.00  0.00     0.059 A 
ATOM     98  F   UNL A   1      49.019  27.586  23.739  1.00  0.00    -0.206 F 
ATOM     99  C   UNL A   1      52.217  26.461  24.994  1.00  0.00     0.060 A 
BRANCH  99 100
ATOM    100  S   UNL A   1      53.882  26.109  24.394  1.00  0.00     0.124 S 
ATOM    101  O   UNL A   1      54.050  24.717  24.795  1.00  0.00    -0.237 OA
ATOM    102  O   UNL A   1      53.758  26.345  22.958  1.00  0.00    -0.237 OA
ATOM    103  O   UNL A   1      54.711  27.075  25.110  1.00  0.00    -0.744 OA
ENDBRANCH  99 100
ENDBRANCH  67  92
ENDBRANCH  41  42
ENDBRANCH  33  36
ENDBRANCH  31  32
ENDBRANCH   1  31
TORSDOF 16
ENDMDL
