MODEL 1
REMARK VINA RESULT:     -10.5      0.000      0.000
REMARK SMILES Cc1ccc(C(=O)N2CCC(CC(=O)NCCCNC(=O)c3ccc(-c4c5nc(c(-c6c(F)cc(S(=O)(=O)[O-])cc6F)c6ccc([nH]6)c(-c6c(F)cc(S(=O)(=O)[O-])cc6F)c6nc(c(-c7c(F)cc(S(=O)(=O)[O-])cc7F)c7ccc4[nH]7)C=C6)C=C5)cc3)CC2)cn1
REMARK SMILES IDX 17 1 16 2 15 3 13 4 14 5 12 7 11 8 6 9 7 10 8 11 9 12 89 13
REMARK SMILES IDX 10 14 88 15 5 16 1 17 2 18 3 19 91 20 4 21 90 22 18 23 19 24
REMARK SMILES IDX 20 25 21 27 22 28 23 29 87 30 24 31 86 32 25 33 26 34 27 35
REMARK SMILES IDX 80 36 28 37 85 38 79 39 81 40 29 41 84 42 78 43 77 44 30 46
REMARK SMILES IDX 64 47 43 48 63 49 44 50 47 51 62 52 82 53 45 54 46 55 61 57
REMARK SMILES IDX 83 58 48 59 31 60 32 61 41 62 33 63 34 64 40 65 42 66 35 67
REMARK SMILES IDX 36 68 37 69 38 70 39 71 65 72 66 73 75 74 67 75 68 76 74 77
REMARK SMILES IDX 76 78 69 79 70 80 71 81 72 82 73 83 49 84 50 85 59 86 51 87
REMARK SMILES IDX 52 88 58 89 60 90 53 91 54 92 55 93 56 94 57 95
REMARK H PARENT 15 6 19 26 81 45 47 56
REMARK Flexibility Score: inf
ROOT
ATOM      1  C   UNL A   1      40.934  20.204  26.295  1.00  0.00     0.042 C 
ENDROOT
BRANCH   1   2
ATOM      2  C   UNL A   1      42.383  19.740  26.431  1.00  0.00     0.117 C 
BRANCH   2   3
ATOM      3  N   UNL A   1      42.994  19.404  25.151  1.00  0.00    -0.356 N 
ATOM      4  C   UNL A   1      44.169  19.807  24.587  1.00  0.00     0.220 C 
ATOM      5  O   UNL A   1      44.462  19.371  23.473  1.00  0.00    -0.275 OA
ATOM      6  H   UNL A   1      42.469  18.779  24.599  1.00  0.00     0.163 HD
BRANCH   4   7
ATOM      7  C   UNL A   1      45.081  20.778  25.305  1.00  0.00     0.103 C 
BRANCH   7   8
ATOM      8  C   UNL A   1      44.353  22.038  25.801  1.00  0.00     0.002 C 
ATOM      9  C   UNL A   1      45.063  25.921  25.560  1.00  0.00     0.255 C 
ATOM     10  O   UNL A   1      45.931  25.715  24.720  1.00  0.00    -0.269 OA
ATOM     11  N   UNL A   1      44.198  24.931  26.004  1.00  0.00    -0.339 N 
ATOM     12  C   UNL A   1      44.556  24.172  27.189  1.00  0.00     0.120 C 
ATOM     13  C   UNL A   1      43.366  24.246  25.036  1.00  0.00     0.120 C 
ATOM     14  C   UNL A   1      45.197  22.843  26.802  1.00  0.00     0.026 C 
ATOM     15  C   UNL A   1      43.980  22.921  24.597  1.00  0.00     0.026 C 
BRANCH   9  16
ATOM     16  C   UNL A   1      44.798  27.284  26.088  1.00  0.00     0.058 A 
ATOM     17  C   UNL A   1      43.711  31.087  27.666  1.00  0.00     0.066 C 
ATOM     18  C   UNL A   1      44.109  29.741  27.134  1.00  0.00     0.037 A 
ATOM     19  C   UNL A   1      45.369  29.218  27.410  1.00  0.00     0.024 A 
ATOM     20  N   UNL A   1      43.205  29.084  26.365  1.00  0.00    -0.261 NA
ATOM     21  C   UNL A   1      45.712  27.973  26.888  1.00  0.00     0.017 A 
ATOM     22  C   UNL A   1      43.570  27.881  25.854  1.00  0.00     0.125 A 
ENDBRANCH   9  16
ENDBRANCH   7   8
ENDBRANCH   4   7
ENDBRANCH   2   3
ENDBRANCH   1   2
BRANCH   1  23
ATOM     23  C   UNL A   1      40.749  21.715  26.368  1.00  0.00     0.118 C 
BRANCH  23  24
ATOM     24  N   UNL A   1      39.487  22.130  25.784  1.00  0.00    -0.352 N 
ATOM     25  C   UNL A   1      38.726  23.249  26.030  1.00  0.00     0.251 C 
ATOM     26  H   UNL A   1      39.117  21.516  25.109  1.00  0.00     0.163 HD
ATOM     27  O   UNL A   1      37.566  23.276  25.620  1.00  0.00    -0.269 OA
BRANCH  25  28
ATOM     28  C   UNL A   1      39.266  24.412  26.778  1.00  0.00     0.039 A 
ATOM     29  C   UNL A   1      38.905  24.572  28.121  1.00  0.00     0.014 A 
ATOM     30  C   UNL A   1      40.045  25.395  26.159  1.00  0.00     0.014 A 
ATOM     31  C   UNL A   1      39.346  25.687  28.845  1.00  0.00     0.010 A 
ATOM     32  C   UNL A   1      40.540  26.473  26.899  1.00  0.00     0.010 A 
ATOM     33  C   UNL A   1      40.180  26.642  28.245  1.00  0.00    -0.014 A 
BRANCH  33  34
ATOM     34  C   UNL A   1      40.645  27.843  28.993  1.00  0.00     0.031 A 
ATOM     35  C   UNL A   1      42.022  27.867  29.607  1.00  0.00     0.074 A 
ATOM     36  C   UNL A   1      39.821  28.895  29.165  1.00  0.00     0.049 A 
ATOM     37  N   UNL A   1      42.574  28.780  30.366  1.00  0.00    -0.248 NA
ATOM     38  C   UNL A   1      42.883  26.700  29.352  1.00  0.00     0.031 C 
ATOM     39  C   UNL A   1      38.450  28.990  28.658  1.00  0.00     0.029 A 
ATOM     40  N   UNL A   1      40.011  30.083  29.828  1.00  0.00    -0.354 N 
ATOM     41  C   UNL A   1      43.830  28.286  30.704  1.00  0.00     0.074 A 
ATOM     42  C   UNL A   1      43.948  26.981  30.092  1.00  0.00     0.031 C 
ATOM     43  C   UNL A   1      37.928  30.174  29.021  1.00  0.00     0.029 A 
ATOM     44  C   UNL A   1      38.913  30.911  29.809  1.00  0.00     0.049 A 
ATOM     45  H   UNL A   1      40.855  30.320  30.276  1.00  0.00     0.167 HD
ATOM     46  C   UNL A   1      44.804  28.873  31.440  1.00  0.00     0.037 A 
ATOM     47  C   UNL A   1      38.716  32.120  30.367  1.00  0.00     0.037 A 
ATOM     48  C   UNL A   1      44.712  30.192  32.008  1.00  0.00     0.049 A 
ATOM     49  C   UNL A   1      39.827  32.768  31.148  1.00  0.00     0.074 A 
ATOM     50  C   UNL A   1      45.675  30.895  32.713  1.00  0.00     0.029 A 
ATOM     51  N   UNL A   1      43.599  31.014  31.925  1.00  0.00    -0.354 N 
ATOM     52  N   UNL A   1      41.022  32.303  31.420  1.00  0.00    -0.248 NA
ATOM     53  C   UNL A   1      39.564  34.108  31.696  1.00  0.00     0.031 C 
ATOM     54  C   UNL A   1      45.134  32.134  33.078  1.00  0.00     0.029 A 
ATOM     55  C   UNL A   1      43.846  32.213  32.574  1.00  0.00     0.049 A 
ATOM     56  H   UNL A   1      42.757  30.781  31.472  1.00  0.00     0.167 HD
ATOM     57  C   UNL A   1      41.659  33.298  32.153  1.00  0.00     0.074 A 
ATOM     58  C   UNL A   1      40.723  34.396  32.273  1.00  0.00     0.031 C 
ATOM     59  C   UNL A   1      42.908  33.300  32.678  1.00  0.00     0.037 A 
BRANCH  46  60
ATOM     60  C   UNL A   1      46.066  28.092  31.671  1.00  0.00     0.058 A 
ATOM     61  C   UNL A   1      46.145  27.096  32.657  1.00  0.00     0.135 A 
ATOM     62  C   UNL A   1      47.199  28.315  30.871  1.00  0.00     0.135 A 
ATOM     63  F   UNL A   1      45.094  26.854  33.456  1.00  0.00    -0.206 F 
ATOM     64  C   UNL A   1      47.310  26.365  32.859  1.00  0.00     0.059 A 
ATOM     65  C   UNL A   1      48.369  27.580  31.042  1.00  0.00     0.059 A 
ATOM     66  F   UNL A   1      47.176  29.255  29.914  1.00  0.00    -0.206 F 
ATOM     67  C   UNL A   1      48.419  26.617  32.049  1.00  0.00     0.060 A 
BRANCH  67  68
ATOM     68  S   UNL A   1      49.926  25.659  32.320  1.00  0.00     0.124 S 
ATOM     69  O   UNL A   1      49.520  24.786  33.416  1.00  0.00    -0.237 OA
ATOM     70  O   UNL A   1      50.121  25.006  31.029  1.00  0.00    -0.237 OA
ATOM     71  O   UNL A   1      50.917  26.677  32.659  1.00  0.00    -0.744 OA
ENDBRANCH  67  68
ENDBRANCH  46  60
BRANCH  47  72
ATOM     72  C   UNL A   1      37.409  32.807  30.204  1.00  0.00     0.058 A 
ATOM     73  C   UNL A   1      36.380  32.635  31.141  1.00  0.00     0.135 A 
ATOM     74  C   UNL A   1      37.166  33.652  29.111  1.00  0.00     0.135 A 
ATOM     75  F   UNL A   1      36.565  31.830  32.198  1.00  0.00    -0.206 F 
ATOM     76  C   UNL A   1      35.147  33.264  30.992  1.00  0.00     0.059 A 
ATOM     77  C   UNL A   1      35.949  34.306  28.951  1.00  0.00     0.059 A 
ATOM     78  F   UNL A   1      38.124  33.860  28.195  1.00  0.00    -0.206 F 
ATOM     79  C   UNL A   1      34.942  34.097  29.891  1.00  0.00     0.060 A 
BRANCH  79  80
ATOM     80  S   UNL A   1      33.353  34.941  29.719  1.00  0.00     0.124 S 
ATOM     81  O   UNL A   1      32.871  34.939  31.094  1.00  0.00    -0.237 OA
ATOM     82  O   UNL A   1      33.747  36.239  29.181  1.00  0.00    -0.237 OA
ATOM     83  O   UNL A   1      32.620  34.081  28.791  1.00  0.00    -0.744 OA
ENDBRANCH  79  80
ENDBRANCH  47  72
BRANCH  59  84
ATOM     84  C   UNL A   1      43.347  34.536  33.411  1.00  0.00     0.058 A 
ATOM     85  C   UNL A   1      43.858  35.649  32.728  1.00  0.00     0.135 A 
ATOM     86  C   UNL A   1      43.203  34.626  34.804  1.00  0.00     0.135 A 
ATOM     87  F   UNL A   1      44.020  35.609  31.397  1.00  0.00    -0.206 F 
ATOM     88  C   UNL A   1      44.227  36.808  33.404  1.00  0.00     0.059 A 
ATOM     89  C   UNL A   1      43.548  35.781  35.499  1.00  0.00     0.059 A 
ATOM     90  F   UNL A   1      42.710  33.590  35.502  1.00  0.00    -0.206 F 
ATOM     91  C   UNL A   1      44.069  36.864  34.791  1.00  0.00     0.060 A 
BRANCH  91  92
ATOM     92  S   UNL A   1      44.514  38.384  35.658  1.00  0.00     0.124 S 
ATOM     93  O   UNL A   1      45.971  38.311  35.650  1.00  0.00    -0.237 OA
ATOM     94  O   UNL A   1      43.926  39.417  34.808  1.00  0.00    -0.237 OA
ATOM     95  O   UNL A   1      43.882  38.225  36.965  1.00  0.00    -0.744 OA
ENDBRANCH  91  92
ENDBRANCH  59  84
ENDBRANCH  33  34
ENDBRANCH  25  28
ENDBRANCH  23  24
ENDBRANCH   1  23
TORSDOF 15
ENDMDL
MODEL 2
REMARK VINA RESULT:     -10.5      4.814     11.870
REMARK SMILES Cc1ccc(C(=O)N2CCC(CC(=O)NCCCNC(=O)c3ccc(-c4c5nc(c(-c6c(F)cc(S(=O)(=O)[O-])cc6F)c6ccc([nH]6)c(-c6c(F)cc(S(=O)(=O)[O-])cc6F)c6nc(c(-c7c(F)cc(S(=O)(=O)[O-])cc7F)c7ccc4[nH]7)C=C6)C=C5)cc3)CC2)cn1
REMARK SMILES IDX 17 1 16 2 15 3 13 4 14 5 12 7 11 8 6 9 7 10 8 11 9 12 89 13
REMARK SMILES IDX 10 14 88 15 5 16 1 17 2 18 3 19 91 20 4 21 90 22 18 23 19 24
REMARK SMILES IDX 20 25 21 27 22 28 23 29 87 30 24 31 86 32 25 33 26 34 27 35
REMARK SMILES IDX 80 36 28 37 85 38 79 39 81 40 29 41 84 42 78 43 77 44 30 46
REMARK SMILES IDX 64 47 43 48 63 49 44 50 47 51 62 52 82 53 45 54 46 55 61 57
REMARK SMILES IDX 83 58 48 59 31 60 32 61 41 62 33 63 34 64 40 65 42 66 35 67
REMARK SMILES IDX 36 68 37 69 38 70 39 71 65 72 66 73 75 74 67 75 68 76 74 77
REMARK SMILES IDX 76 78 69 79 70 80 71 81 72 82 73 83 49 84 50 85 59 86 51 87
REMARK SMILES IDX 52 88 58 89 60 90 53 91 54 92 55 93 56 94 57 95
REMARK H PARENT 15 6 19 26 81 45 47 56
REMARK Flexibility Score: inf
ROOT
ATOM      1  C   UNL A   1      34.269  31.294  27.602  1.00  0.00     0.042 C 
ENDROOT
BRANCH   1   2
ATOM      2  C   UNL A   1      33.980  29.895  27.059  1.00  0.00     0.117 C 
BRANCH   2   3
ATOM      3  N   UNL A   1      32.830  29.266  27.696  1.00  0.00    -0.356 N 
ATOM      4  C   UNL A   1      32.065  28.204  27.313  1.00  0.00     0.220 C 
ATOM      5  O   UNL A   1      31.131  27.864  28.040  1.00  0.00    -0.275 OA
ATOM      6  H   UNL A   1      32.558  29.679  28.548  1.00  0.00     0.163 HD
BRANCH   4   7
ATOM      7  C   UNL A   1      32.347  27.472  26.018  1.00  0.00     0.103 C 
BRANCH   7   8
ATOM      8  C   UNL A   1      32.990  26.092  26.232  1.00  0.00     0.002 C 
ATOM      9  C   UNL A   1      33.101  22.737  24.141  1.00  0.00     0.255 C 
ATOM     10  O   UNL A   1      32.653  23.326  23.164  1.00  0.00    -0.269 OA
ATOM     11  N   UNL A   1      33.518  23.396  25.289  1.00  0.00    -0.339 N 
ATOM     12  C   UNL A   1      32.569  23.577  26.373  1.00  0.00     0.120 C 
ATOM     13  C   UNL A   1      34.558  24.399  25.178  1.00  0.00     0.120 C 
ATOM     14  C   UNL A   1      31.945  24.969  26.314  1.00  0.00     0.026 C 
ATOM     15  C   UNL A   1      33.981  25.808  25.089  1.00  0.00     0.026 C 
BRANCH   9  16
ATOM     16  C   UNL A   1      33.336  21.271  24.127  1.00  0.00     0.058 A 
ATOM     17  C   UNL A   1      34.157  17.101  24.401  1.00  0.00     0.066 C 
ATOM     18  C   UNL A   1      33.840  18.565  24.310  1.00  0.00     0.037 A 
ATOM     19  C   UNL A   1      32.642  18.993  23.745  1.00  0.00     0.024 A 
ATOM     20  N   UNL A   1      34.772  19.434  24.775  1.00  0.00    -0.261 NA
ATOM     21  C   UNL A   1      32.386  20.360  23.661  1.00  0.00     0.017 A 
ATOM     22  C   UNL A   1      34.506  20.760  24.666  1.00  0.00     0.125 A 
ENDBRANCH   9  16
ENDBRANCH   7   8
ENDBRANCH   4   7
ENDBRANCH   2   3
ENDBRANCH   1   2
BRANCH   1  23
ATOM     23  C   UNL A   1      35.620  31.432  28.294  1.00  0.00     0.118 C 
BRANCH  23  24
ATOM     24  N   UNL A   1      35.513  31.222  29.726  1.00  0.00    -0.352 N 
ATOM     25  C   UNL A   1      36.369  30.579  30.590  1.00  0.00     0.251 C 
ATOM     26  H   UNL A   1      34.703  31.594  30.144  1.00  0.00     0.163 HD
ATOM     27  O   UNL A   1      35.963  30.286  31.713  1.00  0.00    -0.269 OA
BRANCH  25  28
ATOM     28  C   UNL A   1      37.758  30.230  30.198  1.00  0.00     0.039 A 
ATOM     29  C   UNL A   1      38.070  30.152  28.835  1.00  0.00     0.014 A 
ATOM     30  C   UNL A   1      38.732  29.888  31.141  1.00  0.00     0.014 A 
ATOM     31  C   UNL A   1      39.353  29.768  28.423  1.00  0.00     0.010 A 
ATOM     32  C   UNL A   1      40.030  29.571  30.732  1.00  0.00     0.010 A 
ATOM     33  C   UNL A   1      40.351  29.488  29.368  1.00  0.00    -0.014 A 
BRANCH  33  34
ATOM     34  C   UNL A   1      41.715  29.062  28.950  1.00  0.00     0.031 A 
ATOM     35  C   UNL A   1      42.839  30.066  28.896  1.00  0.00     0.074 A 
ATOM     36  C   UNL A   1      41.941  27.788  28.572  1.00  0.00     0.049 A 
ATOM     37  N   UNL A   1      44.069  29.910  28.476  1.00  0.00    -0.248 NA
ATOM     38  C   UNL A   1      42.532  31.431  29.354  1.00  0.00     0.031 C 
ATOM     39  C   UNL A   1      40.937  26.723  28.539  1.00  0.00     0.029 A 
ATOM     40  N   UNL A   1      43.088  27.176  28.129  1.00  0.00    -0.354 N 
ATOM     41  C   UNL A   1      44.672  31.158  28.589  1.00  0.00     0.074 A 
ATOM     42  C   UNL A   1      43.665  32.068  29.090  1.00  0.00     0.031 C 
ATOM     43  C   UNL A   1      41.514  25.587  28.109  1.00  0.00     0.029 A 
ATOM     44  C   UNL A   1      42.919  25.849  27.809  1.00  0.00     0.049 A 
ATOM     45  H   UNL A   1      43.951  27.643  28.050  1.00  0.00     0.167 HD
ATOM     46  C   UNL A   1      45.952  31.512  28.320  1.00  0.00     0.037 A 
ATOM     47  C   UNL A   1      43.792  24.946  27.320  1.00  0.00     0.037 A 
ATOM     48  C   UNL A   1      46.970  30.599  27.871  1.00  0.00     0.049 A 
ATOM     49  C   UNL A   1      45.218  25.354  27.065  1.00  0.00     0.074 A 
ATOM     50  C   UNL A   1      48.311  30.855  27.635  1.00  0.00     0.029 A 
ATOM     51  N   UNL A   1      46.767  29.255  27.603  1.00  0.00    -0.354 N 
ATOM     52  N   UNL A   1      45.778  26.529  27.220  1.00  0.00    -0.248 NA
ATOM     53  C   UNL A   1      46.131  24.311  26.573  1.00  0.00     0.031 C 
ATOM     54  C   UNL A   1      48.914  29.668  27.201  1.00  0.00     0.029 A 
ATOM     55  C   UNL A   1      47.954  28.669  27.195  1.00  0.00     0.049 A 
ATOM     56  H   UNL A   1      45.907  28.786  27.689  1.00  0.00     0.167 HD
ATOM     57  C   UNL A   1      47.112  26.363  26.862  1.00  0.00     0.074 A 
ATOM     58  C   UNL A   1      47.278  24.972  26.494  1.00  0.00     0.031 C 
ATOM     59  C   UNL A   1      48.108  27.282  26.841  1.00  0.00     0.037 A 
BRANCH  46  60
ATOM     60  C   UNL A   1      46.329  32.953  28.511  1.00  0.00     0.058 A 
ATOM     61  C   UNL A   1      46.222  33.885  27.467  1.00  0.00     0.135 A 
ATOM     62  C   UNL A   1      46.766  33.416  29.762  1.00  0.00     0.135 A 
ATOM     63  F   UNL A   1      45.822  33.490  26.248  1.00  0.00    -0.206 F 
ATOM     64  C   UNL A   1      46.559  35.222  27.649  1.00  0.00     0.059 A 
ATOM     65  C   UNL A   1      47.088  34.754  29.973  1.00  0.00     0.059 A 
ATOM     66  F   UNL A   1      46.886  32.566  30.793  1.00  0.00    -0.206 F 
ATOM     67  C   UNL A   1      46.995  35.646  28.906  1.00  0.00     0.060 A 
BRANCH  67  68
ATOM     68  S   UNL A   1      47.428  37.385  29.132  1.00  0.00     0.124 S 
ATOM     69  O   UNL A   1      46.111  37.988  29.314  1.00  0.00    -0.237 OA
ATOM     70  O   UNL A   1      48.277  37.348  30.318  1.00  0.00    -0.237 OA
ATOM     71  O   UNL A   1      48.109  37.728  27.887  1.00  0.00    -0.744 OA
ENDBRANCH  67  68
ENDBRANCH  46  60
BRANCH  47  72
ATOM     72  C   UNL A   1      43.343  23.558  27.043  1.00  0.00     0.058 A 
ATOM     73  C   UNL A   1      43.115  23.121  25.730  1.00  0.00     0.135 A 
ATOM     74  C   UNL A   1      43.138  22.641  28.084  1.00  0.00     0.135 A 
ATOM     75  F   UNL A   1      43.290  23.966  24.703  1.00  0.00    -0.206 F 
ATOM     76  C   UNL A   1      42.683  21.826  25.459  1.00  0.00     0.059 A 
ATOM     77  C   UNL A   1      42.726  21.336  27.836  1.00  0.00     0.059 A 
ATOM     78  F   UNL A   1      43.357  23.008  29.356  1.00  0.00    -0.206 F 
ATOM     79  C   UNL A   1      42.489  20.941  26.521  1.00  0.00     0.060 A 
BRANCH  79  80
ATOM     80  S   UNL A   1      41.964  19.250  26.164  1.00  0.00     0.124 S 
ATOM     81  O   UNL A   1      40.526  19.421  25.993  1.00  0.00    -0.237 OA
ATOM     82  O   UNL A   1      42.718  18.937  24.956  1.00  0.00    -0.237 OA
ATOM     83  O   UNL A   1      42.374  18.516  27.360  1.00  0.00    -0.744 OA
ENDBRANCH  79  80
ENDBRANCH  47  72
BRANCH  59  84
ATOM     84  C   UNL A   1      49.473  26.811  26.430  1.00  0.00     0.058 A 
ATOM     85  C   UNL A   1      50.359  26.237  27.354  1.00  0.00     0.135 A 
ATOM     86  C   UNL A   1      49.877  26.884  25.087  1.00  0.00     0.135 A 
ATOM     87  F   UNL A   1      50.020  26.150  28.649  1.00  0.00    -0.206 F 
ATOM     88  C   UNL A   1      51.608  25.765  26.964  1.00  0.00     0.059 A 
ATOM     89  C   UNL A   1      51.115  26.401  24.672  1.00  0.00     0.059 A 
ATOM     90  F   UNL A   1      49.061  27.416  24.163  1.00  0.00    -0.206 F 
ATOM     91  C   UNL A   1      51.977  25.852  25.620  1.00  0.00     0.060 A 
BRANCH  91  92
ATOM     92  S   UNL A   1      53.584  25.202  25.114  1.00  0.00     0.124 S 
ATOM     93  O   UNL A   1      53.682  25.696  23.745  1.00  0.00    -0.237 OA
ATOM     94  O   UNL A   1      54.493  25.820  26.077  1.00  0.00    -0.237 OA
ATOM     95  O   UNL A   1      53.424  23.758  25.253  1.00  0.00    -0.744 OA
ENDBRANCH  91  92
ENDBRANCH  59  84
ENDBRANCH  33  34
ENDBRANCH  25  28
ENDBRANCH  23  24
ENDBRANCH   1  23
TORSDOF 15
ENDMDL
MODEL 3
REMARK VINA RESULT:     -10.5      4.635      6.912
REMARK SMILES Cc1ccc(C(=O)N2CCC(CC(=O)NCCCNC(=O)c3ccc(-c4c5nc(c(-c6c(F)cc(S(=O)(=O)[O-])cc6F)c6ccc([nH]6)c(-c6c(F)cc(S(=O)(=O)[O-])cc6F)c6nc(c(-c7c(F)cc(S(=O)(=O)[O-])cc7F)c7ccc4[nH]7)C=C6)C=C5)cc3)CC2)cn1
REMARK SMILES IDX 17 1 16 2 15 3 13 4 14 5 12 7 11 8 6 9 7 10 8 11 9 12 89 13
REMARK SMILES IDX 10 14 88 15 5 16 1 17 2 18 3 19 91 20 4 21 90 22 18 23 19 24
REMARK SMILES IDX 20 25 21 27 22 28 23 29 87 30 24 31 86 32 25 33 26 34 27 35
REMARK SMILES IDX 80 36 28 37 85 38 79 39 81 40 29 41 84 42 78 43 77 44 30 46
REMARK SMILES IDX 64 47 43 48 63 49 44 50 47 51 62 52 82 53 45 54 46 55 61 57
REMARK SMILES IDX 83 58 48 59 31 60 32 61 41 62 33 63 34 64 40 65 42 66 35 67
REMARK SMILES IDX 36 68 37 69 38 70 39 71 65 72 66 73 75 74 67 75 68 76 74 77
REMARK SMILES IDX 76 78 69 79 70 80 71 81 72 82 73 83 49 84 50 85 59 86 51 87
REMARK SMILES IDX 52 88 58 89 60 90 53 91 54 92 55 93 56 94 57 95
REMARK H PARENT 15 6 19 26 81 45 47 56
REMARK Flexibility Score: inf
ROOT
ATOM      1  C   UNL A   1      39.214  21.908  26.188  1.00  0.00     0.042 C 
ENDROOT
BRANCH   1   2
ATOM      2  C   UNL A   1      37.743  22.004  25.783  1.00  0.00     0.117 C 
BRANCH   2   3
ATOM      3  N   UNL A   1      37.563  22.317  24.371  1.00  0.00    -0.356 N 
ATOM      4  C   UNL A   1      36.497  22.840  23.700  1.00  0.00     0.220 C 
ATOM      5  O   UNL A   1      36.599  23.011  22.484  1.00  0.00    -0.275 OA
ATOM      6  H   UNL A   1      38.344  22.116  23.805  1.00  0.00     0.163 HD
BRANCH   4   7
ATOM      7  C   UNL A   1      35.217  23.189  24.428  1.00  0.00     0.103 C 
BRANCH   7   8
ATOM      8  C   UNL A   1      34.663  24.572  24.048  1.00  0.00     0.002 C 
ATOM      9  C   UNL A   1      31.150  26.348  24.439  1.00  0.00     0.255 C 
ATOM     10  O   UNL A   1      30.784  25.465  25.205  1.00  0.00    -0.269 OA
ATOM     11  N   UNL A   1      32.464  26.469  24.005  1.00  0.00    -0.339 N 
ATOM     12  C   UNL A   1      32.849  25.827  22.761  1.00  0.00     0.120 C 
ATOM     13  C   UNL A   1      33.512  26.626  24.993  1.00  0.00     0.120 C 
ATOM     14  C   UNL A   1      33.512  24.480  23.035  1.00  0.00     0.026 C 
ATOM     15  C   UNL A   1      34.188  25.298  25.319  1.00  0.00     0.026 C 
BRANCH   9  16
ATOM     16  C   UNL A   1      30.233  27.430  24.001  1.00  0.00     0.058 A 
ATOM     17  C   UNL A   1      27.872  30.677  22.580  1.00  0.00     0.066 C 
ATOM     18  C   UNL A   1      28.692  29.516  23.061  1.00  0.00     0.037 A 
ATOM     19  C   UNL A   1      28.143  28.237  23.107  1.00  0.00     0.024 A 
ATOM     20  N   UNL A   1      29.960  29.774  23.465  1.00  0.00    -0.261 NA
ATOM     21  C   UNL A   1      28.926  27.183  23.575  1.00  0.00     0.017 A 
ATOM     22  C   UNL A   1      30.696  28.734  23.932  1.00  0.00     0.125 A 
ENDBRANCH   9  16
ENDBRANCH   7   8
ENDBRANCH   4   7
ENDBRANCH   2   3
ENDBRANCH   1   2
BRANCH   1  23
ATOM     23  C   UNL A   1      39.791  23.196  26.764  1.00  0.00     0.118 C 
BRANCH  23  24
ATOM     24  N   UNL A   1      41.030  23.569  26.105  1.00  0.00    -0.352 N 
ATOM     25  C   UNL A   1      41.763  24.729  26.196  1.00  0.00     0.251 C 
ATOM     26  H   UNL A   1      41.403  22.888  25.500  1.00  0.00     0.163 HD
ATOM     27  O   UNL A   1      42.637  24.942  25.358  1.00  0.00    -0.269 OA
BRANCH  25  28
ATOM     28  C   UNL A   1      41.520  25.724  27.273  1.00  0.00     0.039 A 
ATOM     29  C   UNL A   1      42.357  26.843  27.351  1.00  0.00     0.014 A 
ATOM     30  C   UNL A   1      40.547  25.528  28.258  1.00  0.00     0.014 A 
ATOM     31  C   UNL A   1      42.199  27.774  28.386  1.00  0.00     0.010 A 
ATOM     32  C   UNL A   1      40.347  26.490  29.251  1.00  0.00     0.010 A 
ATOM     33  C   UNL A   1      41.182  27.615  29.339  1.00  0.00    -0.014 A 
BRANCH  33  34
ATOM     34  C   UNL A   1      41.010  28.584  30.456  1.00  0.00     0.031 A 
ATOM     35  C   UNL A   1      41.882  28.490  31.682  1.00  0.00     0.074 A 
ATOM     36  C   UNL A   1      40.043  29.521  30.397  1.00  0.00     0.049 A 
ATOM     37  N   UNL A   1      41.827  29.182  32.792  1.00  0.00    -0.248 NA
ATOM     38  C   UNL A   1      42.940  27.466  31.668  1.00  0.00     0.031 C 
ATOM     39  C   UNL A   1      39.104  29.701  29.287  1.00  0.00     0.029 A 
ATOM     40  N   UNL A   1      39.680  30.491  31.298  1.00  0.00    -0.354 N 
ATOM     41  C   UNL A   1      42.819  28.661  33.616  1.00  0.00     0.074 A 
ATOM     42  C   UNL A   1      43.440  27.574  32.891  1.00  0.00     0.031 C 
ATOM     43  C   UNL A   1      38.279  30.724  29.571  1.00  0.00     0.029 A 
ATOM     44  C   UNL A   1      38.611  31.254  30.891  1.00  0.00     0.049 A 
ATOM     45  H   UNL A   1      40.142  30.628  32.157  1.00  0.00     0.167 HD
ATOM     46  C   UNL A   1      43.191  29.060  34.856  1.00  0.00     0.037 A 
ATOM     47  C   UNL A   1      37.963  32.260  31.510  1.00  0.00     0.037 A 
ATOM     48  C   UNL A   1      42.611  30.173  35.561  1.00  0.00     0.049 A 
ATOM     49  C   UNL A   1      38.421  32.712  32.871  1.00  0.00     0.074 A 
ATOM     50  C   UNL A   1      42.969  30.692  36.794  1.00  0.00     0.029 A 
ATOM     51  N   UNL A   1      41.561  30.947  35.091  1.00  0.00    -0.354 N 
ATOM     52  N   UNL A   1      39.388  32.233  33.615  1.00  0.00    -0.248 NA
ATOM     53  C   UNL A   1      37.701  33.843  33.474  1.00  0.00     0.031 C 
ATOM     54  C   UNL A   1      42.119  31.767  37.081  1.00  0.00     0.029 A 
ATOM     55  C   UNL A   1      41.252  31.933  36.014  1.00  0.00     0.049 A 
ATOM     56  H   UNL A   1      41.103  30.816  34.231  1.00  0.00     0.167 HD
ATOM     57  C   UNL A   1      39.405  33.015  34.764  1.00  0.00     0.074 A 
ATOM     58  C   UNL A   1      38.360  34.005  34.614  1.00  0.00     0.031 C 
ATOM     59  C   UNL A   1      40.215  32.919  35.847  1.00  0.00     0.037 A 
BRANCH  46  60
ATOM     60  C   UNL A   1      44.289  28.291  35.534  1.00  0.00     0.058 A 
ATOM     61  C   UNL A   1      44.013  27.203  36.375  1.00  0.00     0.135 A 
ATOM     62  C   UNL A   1      45.636  28.622  35.309  1.00  0.00     0.135 A 
ATOM     63  F   UNL A   1      42.743  26.855  36.633  1.00  0.00    -0.206 F 
ATOM     64  C   UNL A   1      45.032  26.483  36.990  1.00  0.00     0.059 A 
ATOM     65  C   UNL A   1      46.672  27.902  35.897  1.00  0.00     0.059 A 
ATOM     66  F   UNL A   1      45.954  29.654  34.513  1.00  0.00    -0.206 F 
ATOM     67  C   UNL A   1      46.358  26.844  36.748  1.00  0.00     0.060 A 
BRANCH  67  68
ATOM     68  S   UNL A   1      47.673  25.900  37.551  1.00  0.00     0.124 S 
ATOM     69  O   UNL A   1      48.740  25.992  36.560  1.00  0.00    -0.237 OA
ATOM     70  O   UNL A   1      47.890  26.647  38.786  1.00  0.00    -0.237 OA
ATOM     71  O   UNL A   1      47.084  24.575  37.719  1.00  0.00    -0.744 OA
ENDBRANCH  67  68
ENDBRANCH  46  60
BRANCH  47  72
ATOM     72  C   UNL A   1      36.810  32.920  30.845  1.00  0.00     0.058 A 
ATOM     73  C   UNL A   1      35.492  32.611  31.212  1.00  0.00     0.135 A 
ATOM     74  C   UNL A   1      37.004  33.872  29.834  1.00  0.00     0.135 A 
ATOM     75  F   UNL A   1      35.259  31.700  32.168  1.00  0.00    -0.206 F 
ATOM     76  C   UNL A   1      34.404  33.213  30.588  1.00  0.00     0.059 A 
ATOM     77  C   UNL A   1      35.932  34.502  29.210  1.00  0.00     0.059 A 
ATOM     78  F   UNL A   1      38.247  34.211  29.458  1.00  0.00    -0.206 F 
ATOM     79  C   UNL A   1      34.636  34.157  29.585  1.00  0.00     0.060 A 
BRANCH  79  80
ATOM     80  S   UNL A   1      33.222  34.964  28.801  1.00  0.00     0.124 S 
ATOM     81  O   UNL A   1      32.353  35.208  29.946  1.00  0.00    -0.237 OA
ATOM     82  O   UNL A   1      33.832  36.145  28.199  1.00  0.00    -0.237 OA
ATOM     83  O   UNL A   1      32.750  33.958  27.853  1.00  0.00    -0.744 OA
ENDBRANCH  79  80
ENDBRANCH  47  72
BRANCH  59  84
ATOM     84  C   UNL A   1      40.022  33.925  36.945  1.00  0.00     0.058 A 
ATOM     85  C   UNL A   1      40.691  35.158  36.935  1.00  0.00     0.135 A 
ATOM     86  C   UNL A   1      39.116  33.675  37.988  1.00  0.00     0.135 A 
ATOM     87  F   UNL A   1      41.571  35.440  35.962  1.00  0.00    -0.206 F 
ATOM     88  C   UNL A   1      40.481  36.105  37.932  1.00  0.00     0.059 A 
ATOM     89  C   UNL A   1      38.877  34.615  38.986  1.00  0.00     0.059 A 
ATOM     90  F   UNL A   1      38.445  32.514  38.037  1.00  0.00    -0.206 F 
ATOM     91  C   UNL A   1      39.572  35.824  38.954  1.00  0.00     0.060 A 
BRANCH  91  92
ATOM     92  S   UNL A   1      39.276  37.073  40.224  1.00  0.00     0.124 S 
ATOM     93  O   UNL A   1      38.551  38.091  39.470  1.00  0.00    -0.237 OA
ATOM     94  O   UNL A   1      38.491  36.339  41.213  1.00  0.00    -0.237 OA
ATOM     95  O   UNL A   1      40.621  37.446  40.653  1.00  0.00    -0.744 OA
ENDBRANCH  91  92
ENDBRANCH  59  84
ENDBRANCH  33  34
ENDBRANCH  25  28
ENDBRANCH  23  24
ENDBRANCH   1  23
TORSDOF 15
ENDMDL
