MODEL 1
REMARK VINA RESULT:     -10.1      0.000      0.000
REMARK SMILES C=C(C)C[N@@H+]1CC[C@H](C(=O)NCCCNC(=O)c2ccc(-c3c4nc(c(-c5c(F)cc(S(=O)(=O)[O-])cc5F)c5ccc([nH]5)c(-c5c(F)cc(S(=O)(=O)[O-])cc5F)c5nc(c(-c6c(F)cc(S(=O)(=O)[O-])cc6F)c6ccc3[nH]6)C=C5)C=C4)cc2)[C@H]1C
REMARK SMILES IDX 13 1 12 2 11 3 9 4 10 5 8 7 5 8 6 9 84 10 7 12 85 13 4 14
REMARK SMILES IDX 2 15 1 16 3 17 14 18 15 19 16 20 17 22 18 23 19 24 83 25
REMARK SMILES IDX 20 26 82 27 21 28 22 29 23 30 76 31 24 32 81 33 75 34 77 35
REMARK SMILES IDX 25 36 80 37 74 38 73 39 26 41 60 42 39 43 59 44 40 45 43 46
REMARK SMILES IDX 58 47 78 48 41 49 42 50 57 52 79 53 44 54 27 55 28 56 37 57
REMARK SMILES IDX 29 58 30 59 36 60 38 61 31 62 32 63 33 64 34 65 35 66 61 67
REMARK SMILES IDX 62 68 71 69 63 70 64 71 70 72 72 73 65 74 66 75 67 76 68 77
REMARK SMILES IDX 69 78 45 79 46 80 55 81 47 82 48 83 54 84 56 85 49 86 50 87
REMARK SMILES IDX 51 88 52 89 53 90
REMARK H PARENT 11 6 5 11 15 21 77 40 43 51
REMARK Flexibility Score: inf
ROOT
ATOM      1  C   UNL A   1      33.554  33.715  28.112  1.00  0.00     0.042 C 
ENDROOT
BRANCH   1   2
ATOM      2  C   UNL A   1      33.949  34.815  29.089  1.00  0.00     0.117 C 
BRANCH   2   3
ATOM      3  N   UNL A   1      33.271  34.676  30.364  1.00  0.00    -0.356 N 
ATOM      4  C   UNL A   1      33.775  34.639  31.627  1.00  0.00     0.229 C 
ATOM      5  O   UNL A   1      32.974  34.553  32.560  1.00  0.00    -0.275 OA
ATOM      6  H   UNL A   1      32.292  34.596  30.307  1.00  0.00     0.163 HD
BRANCH   4   7
ATOM      7  C   UNL A   1      35.278  34.681  31.851  1.00  0.00     0.142 C 
ATOM      8  N   UNL A   1      36.582  33.119  33.080  1.00  0.00    -0.329 N 
ATOM      9  C   UNL A   1      35.805  33.893  34.047  1.00  0.00     0.263 C 
ATOM     10  C   UNL A   1      35.863  33.253  31.793  1.00  0.00     0.193 C 
ATOM     11  H   UNL A   1      37.533  33.471  32.977  1.00  0.00     0.348 HD
ATOM     12  C   UNL A   1      35.583  35.172  33.267  1.00  0.00     0.081 C 
ATOM     13  C   UNL A   1      36.800  33.090  30.598  1.00  0.00     0.076 C 
BRANCH   8  14
ATOM     14  C   UNL A   1      36.807  31.743  33.522  1.00  0.00     0.293 C 
BRANCH  14  15
ATOM     15  C   UNL A   1      38.146  31.606  34.209  1.00  0.00    -0.026 C 
ATOM     16  C   UNL A   1      38.281  31.007  35.405  1.00  0.00     0.013 C 
ATOM     17  C   UNL A   1      39.335  32.167  33.477  1.00  0.00     0.045 C 
ENDBRANCH  14  15
ENDBRANCH   8  14
ENDBRANCH   4   7
ENDBRANCH   2   3
ENDBRANCH   1   2
BRANCH   1  18
ATOM     18  C   UNL A   1      34.554  32.567  28.020  1.00  0.00     0.118 C 
BRANCH  18  19
ATOM     19  N   UNL A   1      33.915  31.266  27.881  1.00  0.00    -0.352 N 
ATOM     20  C   UNL A   1      34.467  30.006  27.887  1.00  0.00     0.251 C 
ATOM     21  H   UNL A   1      32.937  31.291  27.766  1.00  0.00     0.163 HD
ATOM     22  O   UNL A   1      33.779  29.040  27.581  1.00  0.00    -0.269 OA
BRANCH  20  23
ATOM     23  C   UNL A   1      35.894  29.825  28.234  1.00  0.00     0.039 A 
ATOM     24  C   UNL A   1      36.233  29.457  29.540  1.00  0.00     0.014 A 
ATOM     25  C   UNL A   1      36.895  30.013  27.278  1.00  0.00     0.014 A 
ATOM     26  C   UNL A   1      37.569  29.199  29.861  1.00  0.00     0.010 A 
ATOM     27  C   UNL A   1      38.210  29.674  27.578  1.00  0.00     0.010 A 
ATOM     28  C   UNL A   1      38.563  29.262  28.872  1.00  0.00    -0.014 A 
BRANCH  28  29
ATOM     29  C   UNL A   1      39.975  28.895  29.157  1.00  0.00     0.031 A 
ATOM     30  C   UNL A   1      40.914  29.919  29.737  1.00  0.00     0.074 A 
ATOM     31  C   UNL A   1      40.432  27.674  28.811  1.00  0.00     0.049 A 
ATOM     32  N   UNL A   1      42.202  29.832  29.946  1.00  0.00    -0.248 NA
ATOM     33  C   UNL A   1      40.335  31.221  30.105  1.00  0.00     0.031 C 
ATOM     34  C   UNL A   1      39.628  26.608  28.209  1.00  0.00     0.029 A 
ATOM     35  N   UNL A   1      41.688  27.127  28.899  1.00  0.00    -0.354 N 
ATOM     36  C   UNL A   1      42.590  31.072  30.443  1.00  0.00     0.074 A 
ATOM     37  C   UNL A   1      41.410  31.906  30.465  1.00  0.00     0.031 C 
ATOM     38  C   UNL A   1      40.405  25.532  28.002  1.00  0.00     0.029 A 
ATOM     39  C   UNL A   1      41.772  25.846  28.406  1.00  0.00     0.049 A 
ATOM     40  H   UNL A   1      42.459  27.609  29.280  1.00  0.00     0.167 HD
ATOM     41  C   UNL A   1      43.817  31.470  30.857  1.00  0.00     0.037 A 
ATOM     42  C   UNL A   1      42.831  25.022  28.276  1.00  0.00     0.037 A 
ATOM     43  C   UNL A   1      44.978  30.619  30.863  1.00  0.00     0.049 A 
ATOM     44  C   UNL A   1      44.188  25.498  28.728  1.00  0.00     0.074 A 
ATOM     45  C   UNL A   1      46.247  30.905  31.335  1.00  0.00     0.029 A 
ATOM     46  N   UNL A   1      45.017  29.323  30.370  1.00  0.00    -0.354 N 
ATOM     47  N   UNL A   1      44.522  26.648  29.262  1.00  0.00    -0.248 NA
ATOM     48  C   UNL A   1      45.311  24.566  28.560  1.00  0.00     0.031 C 
ATOM     49  C   UNL A   1      47.069  29.805  31.071  1.00  0.00     0.029 A 
ATOM     50  C   UNL A   1      46.296  28.808  30.496  1.00  0.00     0.049 A 
ATOM     51  H   UNL A   1      44.248  28.841  29.986  1.00  0.00     0.167 HD
ATOM     52  C   UNL A   1      45.883  26.561  29.531  1.00  0.00     0.074 A 
ATOM     53  C   UNL A   1      46.312  25.247  29.102  1.00  0.00     0.031 C 
ATOM     54  C   UNL A   1      46.703  27.487  30.088  1.00  0.00     0.037 A 
BRANCH  41  55
ATOM     55  C   UNL A   1      43.977  32.888  31.335  1.00  0.00     0.058 A 
ATOM     56  C   UNL A   1      44.415  33.914  30.484  1.00  0.00     0.135 A 
ATOM     57  C   UNL A   1      43.626  33.234  32.650  1.00  0.00     0.135 A 
ATOM     58  F   UNL A   1      44.778  33.637  29.221  1.00  0.00    -0.206 F 
ATOM     59  C   UNL A   1      44.519  35.229  30.923  1.00  0.00     0.059 A 
ATOM     60  C   UNL A   1      43.692  34.549  33.103  1.00  0.00     0.059 A 
ATOM     61  F   UNL A   1      43.202  32.293  33.508  1.00  0.00    -0.206 F 
ATOM     62  C   UNL A   1      44.150  35.538  32.234  1.00  0.00     0.060 A 
BRANCH  62  63
ATOM     63  S   UNL A   1      44.270  37.254  32.780  1.00  0.00     0.124 S 
ATOM     64  O   UNL A   1      43.063  37.386  33.592  1.00  0.00    -0.237 OA
ATOM     65  O   UNL A   1      45.530  37.260  33.515  1.00  0.00    -0.237 OA
ATOM     66  O   UNL A   1      44.271  38.010  31.532  1.00  0.00    -0.744 OA
ENDBRANCH  62  63
ENDBRANCH  41  55
BRANCH  42  67
ATOM     67  C   UNL A   1      42.657  23.659  27.706  1.00  0.00     0.058 A 
ATOM     68  C   UNL A   1      42.469  22.547  28.542  1.00  0.00     0.135 A 
ATOM     69  C   UNL A   1      42.684  23.433  26.320  1.00  0.00     0.135 A 
ATOM     70  F   UNL A   1      42.443  22.708  29.874  1.00  0.00    -0.206 F 
ATOM     71  C   UNL A   1      42.341  21.260  28.030  1.00  0.00     0.059 A 
ATOM     72  C   UNL A   1      42.527  22.159  25.782  1.00  0.00     0.059 A 
ATOM     73  F   UNL A   1      42.844  24.462  25.474  1.00  0.00    -0.206 F 
ATOM     74  C   UNL A   1      42.371  21.077  26.646  1.00  0.00     0.060 A 
BRANCH  74  75
ATOM     75  S   UNL A   1      42.176  19.405  25.991  1.00  0.00     0.124 S 
ATOM     76  O   UNL A   1      43.004  19.461  24.792  1.00  0.00    -0.237 OA
ATOM     77  O   UNL A   1      42.688  18.586  27.085  1.00  0.00    -0.237 OA
ATOM     78  O   UNL A   1      40.738  19.302  25.761  1.00  0.00    -0.744 OA
ENDBRANCH  74  75
ENDBRANCH  42  67
BRANCH  54  79
ATOM     79  C   UNL A   1      48.138  27.104  30.324  1.00  0.00     0.058 A 
ATOM     80  C   UNL A   1      49.127  27.287  29.346  1.00  0.00     0.135 A 
ATOM     81  C   UNL A   1      48.541  26.631  31.585  1.00  0.00     0.135 A 
ATOM     82  F   UNL A   1      48.795  27.727  28.123  1.00  0.00    -0.206 F 
ATOM     83  C   UNL A   1      50.465  27.008  29.608  1.00  0.00     0.059 A 
ATOM     84  C   UNL A   1      49.876  26.375  31.877  1.00  0.00     0.059 A 
ATOM     85  F   UNL A   1      47.636  26.445  32.559  1.00  0.00    -0.206 F 
ATOM     86  C   UNL A   1      50.831  26.562  30.880  1.00  0.00     0.060 A 
BRANCH  86  87
ATOM     87  S   UNL A   1      52.579  26.273  31.224  1.00  0.00     0.124 S 
ATOM     88  O   UNL A   1      52.853  27.287  32.237  1.00  0.00    -0.237 OA
ATOM     89  O   UNL A   1      52.580  24.892  31.693  1.00  0.00    -0.237 OA
ATOM     90  O   UNL A   1      53.221  26.490  29.931  1.00  0.00    -0.744 OA
ENDBRANCH  86  87
ENDBRANCH  54  79
ENDBRANCH  28  29
ENDBRANCH  20  23
ENDBRANCH  18  19
ENDBRANCH   1  18
TORSDOF 15
ENDMDL
MODEL 2
REMARK VINA RESULT:     -10.0      3.233     11.273
REMARK SMILES C=C(C)C[N@@H+]1CC[C@H](C(=O)NCCCNC(=O)c2ccc(-c3c4nc(c(-c5c(F)cc(S(=O)(=O)[O-])cc5F)c5ccc([nH]5)c(-c5c(F)cc(S(=O)(=O)[O-])cc5F)c5nc(c(-c6c(F)cc(S(=O)(=O)[O-])cc6F)c6ccc3[nH]6)C=C5)C=C4)cc2)[C@H]1C
REMARK SMILES IDX 13 1 12 2 11 3 9 4 10 5 8 7 5 8 6 9 84 10 7 12 85 13 4 14
REMARK SMILES IDX 2 15 1 16 3 17 14 18 15 19 16 20 17 22 18 23 19 24 83 25
REMARK SMILES IDX 20 26 82 27 21 28 22 29 23 30 76 31 24 32 81 33 75 34 77 35
REMARK SMILES IDX 25 36 80 37 74 38 73 39 26 41 60 42 39 43 59 44 40 45 43 46
REMARK SMILES IDX 58 47 78 48 41 49 42 50 57 52 79 53 44 54 27 55 28 56 37 57
REMARK SMILES IDX 29 58 30 59 36 60 38 61 31 62 32 63 33 64 34 65 35 66 61 67
REMARK SMILES IDX 62 68 71 69 63 70 64 71 70 72 72 73 65 74 66 75 67 76 68 77
REMARK SMILES IDX 69 78 45 79 46 80 55 81 47 82 48 83 54 84 56 85 49 86 50 87
REMARK SMILES IDX 51 88 52 89 53 90
REMARK H PARENT 11 6 5 11 15 21 77 40 43 51
REMARK Flexibility Score: inf
ROOT
ATOM      1  C   UNL A   1      40.848  20.518  26.442  1.00  0.00     0.042 C 
ENDROOT
BRANCH   1   2
ATOM      2  C   UNL A   1      42.365  20.473  26.578  1.00  0.00     0.117 C 
BRANCH   2   3
ATOM      3  N   UNL A   1      43.030  20.724  25.314  1.00  0.00    -0.356 N 
ATOM      4  C   UNL A   1      44.053  21.568  25.012  1.00  0.00     0.229 C 
ATOM      5  O   UNL A   1      44.472  21.567  23.853  1.00  0.00    -0.275 OA
ATOM      6  H   UNL A   1      42.688  20.200  24.554  1.00  0.00     0.163 HD
BRANCH   4   7
ATOM      7  C   UNL A   1      44.626  22.485  26.080  1.00  0.00     0.142 C 
ATOM      8  N   UNL A   1      44.872  24.846  25.951  1.00  0.00    -0.329 N 
ATOM      9  C   UNL A   1      45.871  24.256  25.063  1.00  0.00     0.263 C 
ATOM     10  C   UNL A   1      43.832  23.809  26.125  1.00  0.00     0.193 C 
ATOM     11  H   UNL A   1      45.261  25.094  26.860  1.00  0.00     0.348 HD
ATOM     12  C   UNL A   1      46.051  22.898  25.707  1.00  0.00     0.081 C 
ATOM     13  C   UNL A   1      43.091  23.962  27.452  1.00  0.00     0.076 C 
BRANCH   8  14
ATOM     14  C   UNL A   1      44.384  26.135  25.460  1.00  0.00     0.293 C 
BRANCH  14  15
ATOM     15  C   UNL A   1      44.616  27.225  26.481  1.00  0.00    -0.026 C 
ATOM     16  C   UNL A   1      43.842  28.323  26.547  1.00  0.00     0.013 C 
ATOM     17  C   UNL A   1      45.756  27.015  27.439  1.00  0.00     0.045 C 
ENDBRANCH  14  15
ENDBRANCH   8  14
ENDBRANCH   4   7
ENDBRANCH   2   3
ENDBRANCH   1   2
BRANCH   1  18
ATOM     18  C   UNL A   1      40.204  21.783  27.000  1.00  0.00     0.118 C 
BRANCH  18  19
ATOM     19  N   UNL A   1      39.187  22.339  26.118  1.00  0.00    -0.352 N 
ATOM     20  C   UNL A   1      38.648  23.604  26.081  1.00  0.00     0.251 C 
ATOM     21  H   UNL A   1      38.830  21.713  25.446  1.00  0.00     0.163 HD
ATOM     22  O   UNL A   1      37.674  23.827  25.373  1.00  0.00    -0.269 OA
BRANCH  20  23
ATOM     23  C   UNL A   1      39.229  24.681  26.913  1.00  0.00     0.039 A 
ATOM     24  C   UNL A   1      40.075  25.619  26.315  1.00  0.00     0.014 A 
ATOM     25  C   UNL A   1      38.938  24.770  28.276  1.00  0.00     0.014 A 
ATOM     26  C   UNL A   1      40.563  26.690  27.068  1.00  0.00     0.010 A 
ATOM     27  C   UNL A   1      39.353  25.883  29.001  1.00  0.00     0.010 A 
ATOM     28  C   UNL A   1      40.170  26.857  28.405  1.00  0.00    -0.014 A 
BRANCH  28  29
ATOM     29  C   UNL A   1      40.588  28.039  29.203  1.00  0.00     0.031 A 
ATOM     30  C   UNL A   1      41.901  28.022  29.939  1.00  0.00     0.074 A 
ATOM     31  C   UNL A   1      39.749  29.087  29.337  1.00  0.00     0.049 A 
ATOM     32  N   UNL A   1      42.389  28.899  30.778  1.00  0.00    -0.248 NA
ATOM     33  C   UNL A   1      42.769  26.852  29.727  1.00  0.00     0.031 C 
ATOM     34  C   UNL A   1      38.434  29.205  28.702  1.00  0.00     0.029 A 
ATOM     35  N   UNL A   1      39.867  30.244  30.065  1.00  0.00    -0.354 N 
ATOM     36  C   UNL A   1      43.602  28.376  31.211  1.00  0.00     0.074 A 
ATOM     37  C   UNL A   1      43.758  27.087  30.576  1.00  0.00     0.031 C 
ATOM     38  C   UNL A   1      37.879  30.377  29.052  1.00  0.00     0.029 A 
ATOM     39  C   UNL A   1      38.771  31.070  29.976  1.00  0.00     0.049 A 
ATOM     40  H   UNL A   1      40.663  30.463  30.602  1.00  0.00     0.167 HD
ATOM     41  C   UNL A   1      44.509  28.930  32.051  1.00  0.00     0.037 A 
ATOM     42  C   UNL A   1      38.504  32.245  30.583  1.00  0.00     0.037 A 
ATOM     43  C   UNL A   1      44.360  30.230  32.650  1.00  0.00     0.049 A 
ATOM     44  C   UNL A   1      39.523  32.829  31.525  1.00  0.00     0.074 A 
ATOM     45  C   UNL A   1      45.258  30.912  33.453  1.00  0.00     0.029 A 
ATOM     46  N   UNL A   1      43.243  31.042  32.522  1.00  0.00    -0.354 N 
ATOM     47  N   UNL A   1      40.698  32.354  31.867  1.00  0.00    -0.248 NA
ATOM     48  C   UNL A   1      39.184  34.107  32.166  1.00  0.00     0.031 C 
ATOM     49  C   UNL A   1      44.659  32.107  33.860  1.00  0.00     0.029 A 
ATOM     50  C   UNL A   1      43.415  32.202  33.256  1.00  0.00     0.049 A 
ATOM     51  H   UNL A   1      42.444  30.824  31.987  1.00  0.00     0.167 HD
ATOM     52  C   UNL A   1      41.252  33.295  32.729  1.00  0.00     0.074 A 
ATOM     53  C   UNL A   1      40.287  34.366  32.857  1.00  0.00     0.031 C 
ATOM     54  C   UNL A   1      42.455  33.273  33.354  1.00  0.00     0.037 A 
BRANCH  41  55
ATOM     55  C   UNL A   1      45.745  28.138  32.380  1.00  0.00     0.058 A 
ATOM     56  C   UNL A   1      45.822  27.318  33.516  1.00  0.00     0.135 A 
ATOM     57  C   UNL A   1      46.847  28.152  31.508  1.00  0.00     0.135 A 
ATOM     58  F   UNL A   1      44.804  27.277  34.391  1.00  0.00    -0.206 F 
ATOM     59  C   UNL A   1      46.953  26.556  33.789  1.00  0.00     0.059 A 
ATOM     60  C   UNL A   1      47.978  27.375  31.745  1.00  0.00     0.059 A 
ATOM     61  F   UNL A   1      46.830  28.919  30.407  1.00  0.00    -0.206 F 
ATOM     62  C   UNL A   1      48.024  26.587  32.894  1.00  0.00     0.060 A 
BRANCH  62  63
ATOM     63  S   UNL A   1      49.475  25.574  33.253  1.00  0.00     0.124 S 
ATOM     64  O   UNL A   1      48.859  24.296  33.597  1.00  0.00    -0.237 OA
ATOM     65  O   UNL A   1      50.197  25.607  31.986  1.00  0.00    -0.237 OA
ATOM     66  O   UNL A   1      50.118  26.278  34.358  1.00  0.00    -0.744 OA
ENDBRANCH  62  63
ENDBRANCH  41  55
BRANCH  42  67
ATOM     67  C   UNL A   1      37.226  32.957  30.312  1.00  0.00     0.058 A 
ATOM     68  C   UNL A   1      36.165  32.907  31.229  1.00  0.00     0.135 A 
ATOM     69  C   UNL A   1      37.031  33.693  29.132  1.00  0.00     0.135 A 
ATOM     70  F   UNL A   1      36.298  32.212  32.368  1.00  0.00    -0.206 F 
ATOM     71  C   UNL A   1      34.951  33.536  30.977  1.00  0.00     0.059 A 
ATOM     72  C   UNL A   1      35.836  34.357  28.870  1.00  0.00     0.059 A 
ATOM     73  F   UNL A   1      38.019  33.788  28.227  1.00  0.00    -0.206 F 
ATOM     74  C   UNL A   1      34.797  34.260  29.793  1.00  0.00     0.060 A 
BRANCH  74  75
ATOM     75  S   UNL A   1      33.224  35.096  29.489  1.00  0.00     0.124 S 
ATOM     76  O   UNL A   1      32.572  34.973  30.787  1.00  0.00    -0.237 OA
ATOM     77  O   UNL A   1      33.658  36.438  29.116  1.00  0.00    -0.237 OA
ATOM     78  O   UNL A   1      32.632  34.313  28.409  1.00  0.00    -0.744 OA
ENDBRANCH  74  75
ENDBRANCH  42  67
BRANCH  54  79
ATOM     79  C   UNL A   1      42.834  34.464  34.191  1.00  0.00     0.058 A 
ATOM     80  C   UNL A   1      42.643  34.487  35.581  1.00  0.00     0.135 A 
ATOM     81  C   UNL A   1      43.482  35.562  33.599  1.00  0.00     0.135 A 
ATOM     82  F   UNL A   1      42.020  33.469  36.194  1.00  0.00    -0.206 F 
ATOM     83  C   UNL A   1      43.075  35.560  36.354  1.00  0.00     0.059 A 
ATOM     84  C   UNL A   1      43.949  36.631  34.357  1.00  0.00     0.059 A 
ATOM     85  F   UNL A   1      43.697  35.587  32.274  1.00  0.00    -0.206 F 
ATOM     86  C   UNL A   1      43.738  36.623  35.734  1.00  0.00     0.060 A 
BRANCH  86  87
ATOM     87  S   UNL A   1      44.355  37.973  36.760  1.00  0.00     0.124 S 
ATOM     88  O   UNL A   1      45.680  37.483  37.127  1.00  0.00    -0.237 OA
ATOM     89  O   UNL A   1      44.330  39.102  35.837  1.00  0.00    -0.237 OA
ATOM     90  O   UNL A   1      43.388  38.041  37.852  1.00  0.00    -0.744 OA
ENDBRANCH  86  87
ENDBRANCH  54  79
ENDBRANCH  28  29
ENDBRANCH  20  23
ENDBRANCH  18  19
ENDBRANCH   1  18
TORSDOF 15
ENDMDL
MODEL 3
REMARK VINA RESULT:     -10.0      2.799      5.445
REMARK SMILES C=C(C)C[N@@H+]1CC[C@H](C(=O)NCCCNC(=O)c2ccc(-c3c4nc(c(-c5c(F)cc(S(=O)(=O)[O-])cc5F)c5ccc([nH]5)c(-c5c(F)cc(S(=O)(=O)[O-])cc5F)c5nc(c(-c6c(F)cc(S(=O)(=O)[O-])cc6F)c6ccc3[nH]6)C=C5)C=C4)cc2)[C@H]1C
REMARK SMILES IDX 13 1 12 2 11 3 9 4 10 5 8 7 5 8 6 9 84 10 7 12 85 13 4 14
REMARK SMILES IDX 2 15 1 16 3 17 14 18 15 19 16 20 17 22 18 23 19 24 83 25
REMARK SMILES IDX 20 26 82 27 21 28 22 29 23 30 76 31 24 32 81 33 75 34 77 35
REMARK SMILES IDX 25 36 80 37 74 38 73 39 26 41 60 42 39 43 59 44 40 45 43 46
REMARK SMILES IDX 58 47 78 48 41 49 42 50 57 52 79 53 44 54 27 55 28 56 37 57
REMARK SMILES IDX 29 58 30 59 36 60 38 61 31 62 32 63 33 64 34 65 35 66 61 67
REMARK SMILES IDX 62 68 71 69 63 70 64 71 70 72 72 73 65 74 66 75 67 76 68 77
REMARK SMILES IDX 69 78 45 79 46 80 55 81 47 82 48 83 54 84 56 85 49 86 50 87
REMARK SMILES IDX 51 88 52 89 53 90
REMARK H PARENT 11 6 5 11 15 21 77 40 43 51
REMARK Flexibility Score: inf
ROOT
ATOM      1  C   UNL A   1      32.015  27.892  27.181  1.00  0.00     0.042 C 
ENDROOT
BRANCH   1   2
ATOM      2  C   UNL A   1      31.904  26.757  26.171  1.00  0.00     0.117 C 
BRANCH   2   3
ATOM      3  N   UNL A   1      31.515  25.508  26.799  1.00  0.00    -0.356 N 
ATOM      4  C   UNL A   1      31.865  24.229  26.500  1.00  0.00     0.229 C 
ATOM      5  O   UNL A   1      31.424  23.332  27.221  1.00  0.00    -0.275 OA
ATOM      6  H   UNL A   1      30.901  25.602  27.563  1.00  0.00     0.163 HD
BRANCH   4   7
ATOM      7  C   UNL A   1      32.752  23.941  25.300  1.00  0.00     0.142 C 
ATOM      8  N   UNL A   1      34.712  22.595  25.264  1.00  0.00    -0.329 N 
ATOM      9  C   UNL A   1      35.043  23.826  25.978  1.00  0.00     0.263 C 
ATOM     10  C   UNL A   1      33.238  22.475  25.339  1.00  0.00     0.193 C 
ATOM     11  H   UNL A   1      35.001  22.624  24.286  1.00  0.00     0.348 HD
ATOM     12  C   UNL A   1      34.029  24.778  25.379  1.00  0.00     0.081 C 
ATOM     13  C   UNL A   1      32.671  21.675  24.168  1.00  0.00     0.076 C 
BRANCH   8  14
ATOM     14  C   UNL A   1      35.452  21.440  25.773  1.00  0.00     0.293 C 
BRANCH  14  15
ATOM     15  C   UNL A   1      36.608  21.094  24.863  1.00  0.00    -0.026 C 
ATOM     16  C   UNL A   1      37.127  21.979  23.994  1.00  0.00     0.013 C 
ATOM     17  C   UNL A   1      37.166  19.702  24.988  1.00  0.00     0.045 C 
ENDBRANCH  14  15
ENDBRANCH   8  14
ENDBRANCH   4   7
ENDBRANCH   2   3
ENDBRANCH   1   2
BRANCH   1  18
ATOM     18  C   UNL A   1      33.411  28.494  27.300  1.00  0.00     0.118 C 
BRANCH  18  19
ATOM     19  N   UNL A   1      33.392  29.914  27.623  1.00  0.00    -0.352 N 
ATOM     20  C   UNL A   1      34.364  30.701  28.195  1.00  0.00     0.251 C 
ATOM     21  H   UNL A   1      32.556  30.383  27.396  1.00  0.00     0.163 HD
ATOM     22  O   UNL A   1      34.091  31.843  28.546  1.00  0.00    -0.269 OA
BRANCH  20  23
ATOM     23  C   UNL A   1      35.724  30.160  28.410  1.00  0.00     0.039 A 
ATOM     24  C   UNL A   1      36.625  30.146  27.342  1.00  0.00     0.014 A 
ATOM     25  C   UNL A   1      36.112  29.671  29.660  1.00  0.00     0.014 A 
ATOM     26  C   UNL A   1      37.939  29.717  27.551  1.00  0.00     0.010 A 
ATOM     27  C   UNL A   1      37.441  29.327  29.886  1.00  0.00     0.010 A 
ATOM     28  C   UNL A   1      38.371  29.346  28.834  1.00  0.00    -0.014 A 
BRANCH  28  29
ATOM     29  C   UNL A   1      39.785  28.984  29.111  1.00  0.00     0.031 A 
ATOM     30  C   UNL A   1      40.729  30.014  29.671  1.00  0.00     0.074 A 
ATOM     31  C   UNL A   1      40.240  27.758  28.777  1.00  0.00     0.049 A 
ATOM     32  N   UNL A   1      42.019  29.931  29.870  1.00  0.00    -0.248 NA
ATOM     33  C   UNL A   1      40.153  31.321  30.028  1.00  0.00     0.031 C 
ATOM     34  C   UNL A   1      39.431  26.685  28.194  1.00  0.00     0.029 A 
ATOM     35  N   UNL A   1      41.497  27.213  28.860  1.00  0.00    -0.354 N 
ATOM     36  C   UNL A   1      42.411  31.176  30.348  1.00  0.00     0.074 A 
ATOM     37  C   UNL A   1      41.230  32.011  30.371  1.00  0.00     0.031 C 
ATOM     38  C   UNL A   1      40.207  25.607  27.993  1.00  0.00     0.029 A 
ATOM     39  C   UNL A   1      41.577  25.926  28.382  1.00  0.00     0.049 A 
ATOM     40  H   UNL A   1      42.271  27.699  29.229  1.00  0.00     0.167 HD
ATOM     41  C   UNL A   1      43.640  31.580  30.747  1.00  0.00     0.037 A 
ATOM     42  C   UNL A   1      42.636  25.101  28.253  1.00  0.00     0.037 A 
ATOM     43  C   UNL A   1      44.802  30.730  30.754  1.00  0.00     0.049 A 
ATOM     44  C   UNL A   1      43.995  25.582  28.687  1.00  0.00     0.074 A 
ATOM     45  C   UNL A   1      46.075  31.021  31.211  1.00  0.00     0.029 A 
ATOM     46  N   UNL A   1      44.837  29.428  30.276  1.00  0.00    -0.354 N 
ATOM     47  N   UNL A   1      44.333  26.740  29.205  1.00  0.00    -0.248 NA
ATOM     48  C   UNL A   1      45.118  24.649  28.520  1.00  0.00     0.031 C 
ATOM     49  C   UNL A   1      46.895  29.919  30.954  1.00  0.00     0.029 A 
ATOM     50  C   UNL A   1      46.117  28.915  30.398  1.00  0.00     0.049 A 
ATOM     51  H   UNL A   1      44.065  28.941  29.905  1.00  0.00     0.167 HD
ATOM     52  C   UNL A   1      45.697  26.656  29.463  1.00  0.00     0.074 A 
ATOM     53  C   UNL A   1      46.123  25.337  29.046  1.00  0.00     0.031 C 
ATOM     54  C   UNL A   1      46.521  27.589  30.002  1.00  0.00     0.037 A 
BRANCH  41  55
ATOM     55  C   UNL A   1      43.804  33.003  31.207  1.00  0.00     0.058 A 
ATOM     56  C   UNL A   1      43.707  33.363  32.560  1.00  0.00     0.135 A 
ATOM     57  C   UNL A   1      44.126  34.012  30.283  1.00  0.00     0.135 A 
ATOM     58  F   UNL A   1      43.387  32.442  33.484  1.00  0.00    -0.206 F 
ATOM     59  C   UNL A   1      43.902  34.674  32.980  1.00  0.00     0.059 A 
ATOM     60  C   UNL A   1      44.355  35.325  30.685  1.00  0.00     0.059 A 
ATOM     61  F   UNL A   1      44.229  33.725  28.976  1.00  0.00    -0.206 F 
ATOM     62  C   UNL A   1      44.231  35.648  32.035  1.00  0.00     0.060 A 
BRANCH  62  63
ATOM     63  S   UNL A   1      44.504  37.340  32.602  1.00  0.00     0.124 S 
ATOM     64  O   UNL A   1      44.537  38.069  31.337  1.00  0.00    -0.237 OA
ATOM     65  O   UNL A   1      43.334  37.579  33.439  1.00  0.00    -0.237 OA
ATOM     66  O   UNL A   1      45.776  37.260  33.312  1.00  0.00    -0.744 OA
ENDBRANCH  62  63
ENDBRANCH  41  55
BRANCH  42  67
ATOM     67  C   UNL A   1      42.457  23.731  27.701  1.00  0.00     0.058 A 
ATOM     68  C   UNL A   1      42.303  22.626  28.552  1.00  0.00     0.135 A 
ATOM     69  C   UNL A   1      42.446  23.492  26.317  1.00  0.00     0.135 A 
ATOM     70  F   UNL A   1      42.313  22.799  29.882  1.00  0.00    -0.206 F 
ATOM     71  C   UNL A   1      42.171  21.333  28.056  1.00  0.00     0.059 A 
ATOM     72  C   UNL A   1      42.286  22.212  25.795  1.00  0.00     0.059 A 
ATOM     73  F   UNL A   1      42.574  24.515  25.457  1.00  0.00    -0.206 F 
ATOM     74  C   UNL A   1      42.163  21.137  26.673  1.00  0.00     0.060 A 
BRANCH  74  75
ATOM     75  S   UNL A   1      41.964  19.457  26.040  1.00  0.00     0.124 S 
ATOM     76  O   UNL A   1      42.856  19.470  24.887  1.00  0.00    -0.237 OA
ATOM     77  O   UNL A   1      42.397  18.649  27.175  1.00  0.00    -0.237 OA
ATOM     78  O   UNL A   1      40.539  19.382  25.734  1.00  0.00    -0.744 OA
ENDBRANCH  74  75
ENDBRANCH  42  67
BRANCH  54  79
ATOM     79  C   UNL A   1      47.959  27.209  30.230  1.00  0.00     0.058 A 
ATOM     80  C   UNL A   1      48.963  27.502  29.295  1.00  0.00     0.135 A 
ATOM     81  C   UNL A   1      48.346  26.624  31.448  1.00  0.00     0.135 A 
ATOM     82  F   UNL A   1      48.646  28.051  28.113  1.00  0.00    -0.206 F 
ATOM     83  C   UNL A   1      50.301  27.221  29.557  1.00  0.00     0.059 A 
ATOM     84  C   UNL A   1      49.680  26.363  31.742  1.00  0.00     0.059 A 
ATOM     85  F   UNL A   1      47.426  26.330  32.381  1.00  0.00    -0.206 F 
ATOM     86  C   UNL A   1      50.650  26.662  30.788  1.00  0.00     0.060 A 
BRANCH  86  87
ATOM     87  S   UNL A   1      52.397  26.370  31.139  1.00  0.00     0.124 S 
ATOM     88  O   UNL A   1      52.963  26.316  29.796  1.00  0.00    -0.237 OA
ATOM     89  O   UNL A   1      52.755  27.543  31.931  1.00  0.00    -0.237 OA
ATOM     90  O   UNL A   1      52.391  25.106  31.869  1.00  0.00    -0.744 OA
ENDBRANCH  86  87
ENDBRANCH  54  79
ENDBRANCH  28  29
ENDBRANCH  20  23
ENDBRANCH  18  19
ENDBRANCH   1  18
TORSDOF 15
ENDMDL
