MODEL 1
REMARK VINA RESULT:     -11.3      0.000      0.000
REMARK SMILES CC1=C(CCC(=O)NCCCNC(=O)c2ccc(-c3c4nc(c(-c5c(F)cc(S(=O)(=O)[O-])cc5F)c5ccc([nH]5)c(-c5c(F)cc(S(=O)(=O)[O-])cc5F)c5nc(c(-c6c(F)cc(S(=O)(=O)[O-])cc6F)c6ccc3[nH]6)C=C5)C=C4)cc2)N=N[C@H]1C
REMARK SMILES IDX 10 1 9 2 8 3 6 4 7 5 5 7 4 8 3 9 1 10 2 11 83 12 81 13 82 14
REMARK SMILES IDX 84 15 11 16 12 17 13 18 14 20 15 21 16 22 80 23 17 24 79 25
REMARK SMILES IDX 18 26 19 27 20 28 73 29 21 30 78 31 72 32 74 33 22 34 77 35
REMARK SMILES IDX 71 36 70 37 23 39 57 40 36 41 56 42 37 43 40 44 55 45 75 46
REMARK SMILES IDX 38 47 39 48 54 50 76 51 41 52 24 53 25 54 34 55 26 56 27 57
REMARK SMILES IDX 33 58 35 59 28 60 29 61 30 62 31 63 32 64 58 65 59 66 68 67
REMARK SMILES IDX 60 68 61 69 67 70 69 71 62 72 63 73 64 74 65 75 66 76 42 77
REMARK SMILES IDX 43 78 52 79 44 80 45 81 51 82 53 83 46 84 47 85 48 86 49 87
REMARK SMILES IDX 50 88
REMARK H PARENT 8 6 12 19 74 38 40 49
REMARK Flexibility Score: inf
ROOT
ATOM      1  C   UNL A   1      33.314  31.643  27.414  1.00  0.00     0.042 C 
ENDROOT
BRANCH   1   2
ATOM      2  C   UNL A   1      33.864  30.245  27.166  1.00  0.00     0.117 C 
BRANCH   2   3
ATOM      3  N   UNL A   1      32.995  29.243  27.763  1.00  0.00    -0.356 N 
ATOM      4  C   UNL A   1      31.993  28.516  27.192  1.00  0.00     0.220 C 
ATOM      5  O   UNL A   1      31.240  27.875  27.926  1.00  0.00    -0.275 OA
ATOM      6  H   UNL A   1      33.153  29.064  28.718  1.00  0.00     0.163 HD
BRANCH   4   7
ATOM      7  C   UNL A   1      31.857  28.433  25.684  1.00  0.00     0.106 C 
BRANCH   7   8
ATOM      8  C   UNL A   1      31.371  29.723  25.012  1.00  0.00     0.068 C 
BRANCH   8   9
ATOM      9  C   UNL A   1      30.391  29.500  23.900  1.00  0.00     0.064 C 
ATOM     10  C   UNL A   1      28.989  31.652  23.861  1.00  0.00     0.044 C 
ATOM     11  C   UNL A   1      29.398  30.288  23.470  1.00  0.00    -0.024 C 
ATOM     12  C   UNL A   1      28.685  29.500  22.425  1.00  0.00     0.153 C 
ATOM     13  N   UNL A   1      30.515  28.383  23.115  1.00  0.00    -0.160 NA
ATOM     14  N   UNL A   1      29.576  28.322  22.273  1.00  0.00    -0.181 NA
ATOM     15  C   UNL A   1      27.303  29.039  22.894  1.00  0.00     0.040 C 
ENDBRANCH   8   9
ENDBRANCH   7   8
ENDBRANCH   4   7
ENDBRANCH   2   3
ENDBRANCH   1   2
BRANCH   1  16
ATOM     16  C   UNL A   1      34.301  32.594  28.027  1.00  0.00     0.118 C 
BRANCH  16  17
ATOM     17  N   UNL A   1      34.119  32.816  29.460  1.00  0.00    -0.352 N 
ATOM     18  C   UNL A   1      34.929  32.339  30.489  1.00  0.00     0.251 C 
ATOM     19  H   UNL A   1      33.343  33.359  29.726  1.00  0.00     0.163 HD
ATOM     20  O   UNL A   1      34.553  32.369  31.643  1.00  0.00    -0.269 OA
BRANCH  18  21
ATOM     21  C   UNL A   1      36.252  31.770  30.120  1.00  0.00     0.039 A 
ATOM     22  C   UNL A   1      37.388  32.566  29.977  1.00  0.00     0.014 A 
ATOM     23  C   UNL A   1      36.356  30.388  30.034  1.00  0.00     0.014 A 
ATOM     24  C   UNL A   1      38.628  31.935  29.846  1.00  0.00     0.010 A 
ATOM     25  C   UNL A   1      37.573  29.790  30.187  1.00  0.00     0.010 A 
ATOM     26  C   UNL A   1      38.716  30.538  29.992  1.00  0.00    -0.014 A 
BRANCH  26  27
ATOM     27  C   UNL A   1      39.997  29.839  30.051  1.00  0.00     0.031 A 
ATOM     28  C   UNL A   1      40.479  29.612  31.434  1.00  0.00     0.074 A 
ATOM     29  C   UNL A   1      40.604  29.271  28.982  1.00  0.00     0.049 A 
ATOM     30  N   UNL A   1      41.375  30.298  32.061  1.00  0.00    -0.248 NA
ATOM     31  C   UNL A   1      39.747  28.667  32.293  1.00  0.00     0.031 C 
ATOM     32  C   UNL A   1      40.096  29.140  27.607  1.00  0.00     0.029 A 
ATOM     33  N   UNL A   1      41.784  28.595  28.915  1.00  0.00    -0.354 N 
ATOM     34  C   UNL A   1      41.536  29.660  33.284  1.00  0.00     0.074 A 
ATOM     35  C   UNL A   1      40.352  28.865  33.468  1.00  0.00     0.031 C 
ATOM     36  C   UNL A   1      40.834  28.237  26.925  1.00  0.00     0.029 A 
ATOM     37  C   UNL A   1      41.980  27.878  27.734  1.00  0.00     0.049 A 
ATOM     38  H   UNL A   1      42.447  28.610  29.642  1.00  0.00     0.167 HD
ATOM     39  C   UNL A   1      42.768  29.590  33.862  1.00  0.00     0.037 A 
ATOM     40  C   UNL A   1      43.018  27.058  27.430  1.00  0.00     0.037 A 
ATOM     41  C   UNL A   1      43.679  30.518  33.224  1.00  0.00     0.049 A 
ATOM     42  C   UNL A   1      44.140  27.451  28.316  1.00  0.00     0.074 A 
ATOM     43  C   UNL A   1      43.692  31.880  32.993  1.00  0.00     0.029 A 
ATOM     44  N   UNL A   1      44.590  29.977  32.349  1.00  0.00    -0.354 N 
ATOM     45  N   UNL A   1      44.758  28.598  28.238  1.00  0.00    -0.248 NA
ATOM     46  C   UNL A   1      44.295  26.747  29.577  1.00  0.00     0.031 C 
ATOM     47  C   UNL A   1      44.278  32.035  31.700  1.00  0.00     0.029 A 
ATOM     48  C   UNL A   1      44.670  30.777  31.240  1.00  0.00     0.049 A 
ATOM     49  H   UNL A   1      45.102  29.148  32.495  1.00  0.00     0.167 HD
ATOM     50  C   UNL A   1      44.978  28.967  29.556  1.00  0.00     0.074 A 
ATOM     51  C   UNL A   1      44.795  27.736  30.323  1.00  0.00     0.031 C 
ATOM     52  C   UNL A   1      44.996  30.285  29.917  1.00  0.00     0.037 A 
BRANCH  39  53
ATOM     53  C   UNL A   1      43.276  28.404  34.660  1.00  0.00     0.058 A 
ATOM     54  C   UNL A   1      43.837  28.638  35.934  1.00  0.00     0.135 A 
ATOM     55  C   UNL A   1      43.509  27.115  34.127  1.00  0.00     0.135 A 
ATOM     56  F   UNL A   1      43.684  29.824  36.541  1.00  0.00    -0.206 F 
ATOM     57  C   UNL A   1      44.642  27.700  36.583  1.00  0.00     0.059 A 
ATOM     58  C   UNL A   1      44.261  26.147  34.782  1.00  0.00     0.059 A 
ATOM     59  F   UNL A   1      43.105  26.751  32.907  1.00  0.00    -0.206 F 
ATOM     60  C   UNL A   1      44.859  26.462  35.989  1.00  0.00     0.060 A 
BRANCH  60  61
ATOM     61  S   UNL A   1      45.961  25.281  36.781  1.00  0.00     0.124 S 
ATOM     62  O   UNL A   1      45.009  24.365  37.397  1.00  0.00    -0.237 OA
ATOM     63  O   UNL A   1      46.710  24.759  35.643  1.00  0.00    -0.237 OA
ATOM     64  O   UNL A   1      46.732  26.110  37.704  1.00  0.00    -0.744 OA
ENDBRANCH  60  61
ENDBRANCH  39  53
BRANCH  40  65
ATOM     65  C   UNL A   1      43.038  25.802  26.634  1.00  0.00     0.058 A 
ATOM     66  C   UNL A   1      43.837  25.689  25.480  1.00  0.00     0.135 A 
ATOM     67  C   UNL A   1      42.526  24.595  27.151  1.00  0.00     0.135 A 
ATOM     68  F   UNL A   1      44.372  26.784  24.920  1.00  0.00    -0.206 F 
ATOM     69  C   UNL A   1      44.176  24.451  24.921  1.00  0.00     0.059 A 
ATOM     70  C   UNL A   1      42.842  23.350  26.605  1.00  0.00     0.059 A 
ATOM     71  F   UNL A   1      41.779  24.584  28.265  1.00  0.00    -0.206 F 
ATOM     72  C   UNL A   1      43.695  23.283  25.509  1.00  0.00     0.060 A 
BRANCH  72  73
ATOM     73  S   UNL A   1      44.294  21.681  24.917  1.00  0.00     0.124 S 
ATOM     74  O   UNL A   1      43.205  20.790  25.300  1.00  0.00    -0.237 OA
ATOM     75  O   UNL A   1      44.450  21.918  23.486  1.00  0.00    -0.237 OA
ATOM     76  O   UNL A   1      45.541  21.493  25.653  1.00  0.00    -0.744 OA
ENDBRANCH  72  73
ENDBRANCH  40  65
BRANCH  52  77
ATOM     77  C   UNL A   1      45.204  31.313  28.831  1.00  0.00     0.058 A 
ATOM     78  C   UNL A   1      44.202  31.835  27.993  1.00  0.00     0.135 A 
ATOM     79  C   UNL A   1      46.489  31.863  28.703  1.00  0.00     0.135 A 
ATOM     80  F   UNL A   1      42.924  31.448  28.115  1.00  0.00    -0.206 F 
ATOM     81  C   UNL A   1      44.482  32.811  27.031  1.00  0.00     0.059 A 
ATOM     82  C   UNL A   1      46.782  32.861  27.779  1.00  0.00     0.059 A 
ATOM     83  F   UNL A   1      47.481  31.452  29.511  1.00  0.00    -0.206 F 
ATOM     84  C   UNL A   1      45.778  33.314  26.929  1.00  0.00     0.060 A 
BRANCH  84  85
ATOM     85  S   UNL A   1      46.139  34.594  25.707  1.00  0.00     0.124 S 
ATOM     86  O   UNL A   1      47.543  34.344  25.403  1.00  0.00    -0.237 OA
ATOM     87  O   UNL A   1      45.194  34.288  24.637  1.00  0.00    -0.237 OA
ATOM     88  O   UNL A   1      45.869  35.838  26.426  1.00  0.00    -0.744 OA
ENDBRANCH  84  85
ENDBRANCH  52  77
ENDBRANCH  26  27
ENDBRANCH  18  21
ENDBRANCH  16  17
ENDBRANCH   1  16
TORSDOF 15
ENDMDL
MODEL 2
REMARK VINA RESULT:     -11.3      3.900      9.874
REMARK SMILES CC1=C(CCC(=O)NCCCNC(=O)c2ccc(-c3c4nc(c(-c5c(F)cc(S(=O)(=O)[O-])cc5F)c5ccc([nH]5)c(-c5c(F)cc(S(=O)(=O)[O-])cc5F)c5nc(c(-c6c(F)cc(S(=O)(=O)[O-])cc6F)c6ccc3[nH]6)C=C5)C=C4)cc2)N=N[C@H]1C
REMARK SMILES IDX 10 1 9 2 8 3 6 4 7 5 5 7 4 8 3 9 1 10 2 11 83 12 81 13 82 14
REMARK SMILES IDX 84 15 11 16 12 17 13 18 14 20 15 21 16 22 80 23 17 24 79 25
REMARK SMILES IDX 18 26 19 27 20 28 73 29 21 30 78 31 72 32 74 33 22 34 77 35
REMARK SMILES IDX 71 36 70 37 23 39 57 40 36 41 56 42 37 43 40 44 55 45 75 46
REMARK SMILES IDX 38 47 39 48 54 50 76 51 41 52 24 53 25 54 34 55 26 56 27 57
REMARK SMILES IDX 33 58 35 59 28 60 29 61 30 62 31 63 32 64 58 65 59 66 68 67
REMARK SMILES IDX 60 68 61 69 67 70 69 71 62 72 63 73 64 74 65 75 66 76 42 77
REMARK SMILES IDX 43 78 52 79 44 80 45 81 51 82 53 83 46 84 47 85 48 86 49 87
REMARK SMILES IDX 50 88
REMARK H PARENT 8 6 12 19 74 38 40 49
REMARK Flexibility Score: inf
ROOT
ATOM      1  C   UNL A   1      37.243  21.933  25.066  1.00  0.00     0.042 C 
ENDROOT
BRANCH   1   2
ATOM      2  C   UNL A   1      35.906  21.542  25.680  1.00  0.00     0.117 C 
BRANCH   2   3
ATOM      3  N   UNL A   1      35.421  20.301  25.097  1.00  0.00    -0.356 N 
ATOM      4  C   UNL A   1      34.146  19.931  24.786  1.00  0.00     0.220 C 
ATOM      5  O   UNL A   1      33.929  18.754  24.498  1.00  0.00    -0.275 OA
ATOM      6  H   UNL A   1      36.113  19.630  24.898  1.00  0.00     0.163 HD
BRANCH   4   7
ATOM      7  C   UNL A   1      33.034  20.961  24.720  1.00  0.00     0.106 C 
BRANCH   7   8
ATOM      8  C   UNL A   1      32.661  21.411  23.303  1.00  0.00     0.068 C 
BRANCH   8   9
ATOM      9  C   UNL A   1      32.984  22.847  23.014  1.00  0.00     0.064 C 
ATOM     10  C   UNL A   1      30.762  24.077  23.403  1.00  0.00     0.044 C 
ATOM     11  C   UNL A   1      32.181  23.917  23.024  1.00  0.00    -0.024 C 
ATOM     12  C   UNL A   1      33.020  25.051  22.539  1.00  0.00     0.153 C 
ATOM     13  N   UNL A   1      34.284  23.202  22.770  1.00  0.00    -0.160 NA
ATOM     14  N   UNL A   1      34.367  24.430  22.486  1.00  0.00    -0.181 NA
ATOM     15  C   UNL A   1      32.612  25.512  21.138  1.00  0.00     0.040 C 
ENDBRANCH   8   9
ENDBRANCH   7   8
ENDBRANCH   4   7
ENDBRANCH   2   3
ENDBRANCH   1   2
BRANCH   1  16
ATOM     16  C   UNL A   1      38.297  22.306  26.069  1.00  0.00     0.118 C 
BRANCH  16  17
ATOM     17  N   UNL A   1      39.652  21.899  25.703  1.00  0.00    -0.352 N 
ATOM     18  C   UNL A   1      40.833  22.591  25.968  1.00  0.00     0.251 C 
ATOM     19  H   UNL A   1      39.740  21.046  25.220  1.00  0.00     0.163 HD
ATOM     20  O   UNL A   1      41.868  22.294  25.408  1.00  0.00    -0.269 OA
BRANCH  18  21
ATOM     21  C   UNL A   1      40.772  23.719  26.934  1.00  0.00     0.039 A 
ATOM     22  C   UNL A   1      41.616  23.793  28.042  1.00  0.00     0.014 A 
ATOM     23  C   UNL A   1      39.918  24.773  26.639  1.00  0.00     0.014 A 
ATOM     24  C   UNL A   1      41.648  24.982  28.775  1.00  0.00     0.010 A 
ATOM     25  C   UNL A   1      40.155  26.005  27.176  1.00  0.00     0.010 A 
ATOM     26  C   UNL A   1      40.937  26.104  28.309  1.00  0.00    -0.014 A 
BRANCH  26  27
ATOM     27  C   UNL A   1      41.074  27.423  28.921  1.00  0.00     0.031 A 
ATOM     28  C   UNL A   1      42.150  28.243  28.315  1.00  0.00     0.074 A 
ATOM     29  C   UNL A   1      40.196  27.943  29.812  1.00  0.00     0.049 A 
ATOM     30  N   UNL A   1      43.334  28.435  28.791  1.00  0.00    -0.248 NA
ATOM     31  C   UNL A   1      41.979  28.729  26.936  1.00  0.00     0.031 C 
ATOM     32  C   UNL A   1      38.916  27.378  30.268  1.00  0.00     0.029 A 
ATOM     33  N   UNL A   1      40.214  29.151  30.440  1.00  0.00    -0.354 N 
ATOM     34  C   UNL A   1      43.941  29.326  27.916  1.00  0.00     0.074 A 
ATOM     35  C   UNL A   1      43.185  29.251  26.695  1.00  0.00     0.031 C 
ATOM     36  C   UNL A   1      38.187  28.329  30.891  1.00  0.00     0.029 A 
ATOM     37  C   UNL A   1      39.016  29.504  31.061  1.00  0.00     0.049 A 
ATOM     38  H   UNL A   1      41.010  29.730  30.454  1.00  0.00     0.167 HD
ATOM     39  C   UNL A   1      44.794  30.277  28.391  1.00  0.00     0.037 A 
ATOM     40  C   UNL A   1      38.725  30.673  31.687  1.00  0.00     0.037 A 
ATOM     41  C   UNL A   1      45.186  29.970  29.752  1.00  0.00     0.049 A 
ATOM     42  C   UNL A   1      40.023  31.288  32.057  1.00  0.00     0.074 A 
ATOM     43  C   UNL A   1      45.782  28.896  30.384  1.00  0.00     0.029 A 
ATOM     44  N   UNL A   1      44.582  30.705  30.743  1.00  0.00    -0.354 N 
ATOM     45  N   UNL A   1      40.839  30.782  32.940  1.00  0.00    -0.248 NA
ATOM     46  C   UNL A   1      40.618  32.236  31.131  1.00  0.00     0.031 C 
ATOM     47  C   UNL A   1      45.135  28.802  31.654  1.00  0.00     0.029 A 
ATOM     48  C   UNL A   1      44.241  29.867  31.772  1.00  0.00     0.049 A 
ATOM     49  H   UNL A   1      44.419  31.676  30.719  1.00  0.00     0.167 HD
ATOM     50  C   UNL A   1      42.102  30.979  32.401  1.00  0.00     0.074 A 
ATOM     51  C   UNL A   1      41.910  31.989  31.363  1.00  0.00     0.031 C 
ATOM     52  C   UNL A   1      43.111  30.093  32.652  1.00  0.00     0.037 A 
BRANCH  39  53
ATOM     53  C   UNL A   1      44.911  31.682  27.833  1.00  0.00     0.058 A 
ATOM     54  C   UNL A   1      46.138  32.081  27.260  1.00  0.00     0.135 A 
ATOM     55  C   UNL A   1      43.999  32.731  28.092  1.00  0.00     0.135 A 
ATOM     56  F   UNL A   1      47.084  31.174  26.970  1.00  0.00    -0.206 F 
ATOM     57  C   UNL A   1      46.468  33.420  27.050  1.00  0.00     0.059 A 
ATOM     58  C   UNL A   1      44.287  34.067  27.839  1.00  0.00     0.059 A 
ATOM     59  F   UNL A   1      42.821  32.537  28.691  1.00  0.00    -0.206 F 
ATOM     60  C   UNL A   1      45.539  34.408  27.358  1.00  0.00     0.060 A 
BRANCH  60  61
ATOM     61  S   UNL A   1      45.988  36.139  27.167  1.00  0.00     0.124 S 
ATOM     62  O   UNL A   1      46.719  36.386  28.404  1.00  0.00    -0.237 OA
ATOM     63  O   UNL A   1      46.786  36.109  25.945  1.00  0.00    -0.237 OA
ATOM     64  O   UNL A   1      44.696  36.809  27.048  1.00  0.00    -0.744 OA
ENDBRANCH  60  61
ENDBRANCH  39  53
BRANCH  40  65
ATOM     65  C   UNL A   1      37.442  31.422  31.756  1.00  0.00     0.058 A 
ATOM     66  C   UNL A   1      36.863  31.751  32.996  1.00  0.00     0.135 A 
ATOM     67  C   UNL A   1      36.925  32.099  30.634  1.00  0.00     0.135 A 
ATOM     68  F   UNL A   1      37.295  31.162  34.121  1.00  0.00    -0.206 F 
ATOM     69  C   UNL A   1      35.886  32.746  33.127  1.00  0.00     0.059 A 
ATOM     70  C   UNL A   1      35.946  33.089  30.738  1.00  0.00     0.059 A 
ATOM     71  F   UNL A   1      37.427  31.886  29.408  1.00  0.00    -0.206 F 
ATOM     72  C   UNL A   1      35.454  33.430  31.993  1.00  0.00     0.060 A 
BRANCH  72  73
ATOM     73  S   UNL A   1      34.349  34.852  32.182  1.00  0.00     0.124 S 
ATOM     74  O   UNL A   1      33.193  34.251  32.837  1.00  0.00    -0.237 OA
ATOM     75  O   UNL A   1      35.147  35.757  33.002  1.00  0.00    -0.237 OA
ATOM     76  O   UNL A   1      34.128  35.294  30.808  1.00  0.00    -0.744 OA
ENDBRANCH  72  73
ENDBRANCH  40  65
BRANCH  52  77
ATOM     77  C   UNL A   1      42.963  29.168  33.835  1.00  0.00     0.058 A 
ATOM     78  C   UNL A   1      43.253  29.494  35.173  1.00  0.00     0.135 A 
ATOM     79  C   UNL A   1      42.404  27.902  33.597  1.00  0.00     0.135 A 
ATOM     80  F   UNL A   1      43.690  30.715  35.510  1.00  0.00    -0.206 F 
ATOM     81  C   UNL A   1      43.055  28.579  36.212  1.00  0.00     0.059 A 
ATOM     82  C   UNL A   1      42.164  26.991  34.620  1.00  0.00     0.059 A 
ATOM     83  F   UNL A   1      42.049  27.547  32.350  1.00  0.00    -0.206 F 
ATOM     84  C   UNL A   1      42.514  27.327  35.924  1.00  0.00     0.060 A 
BRANCH  84  85
ATOM     85  S   UNL A   1      42.231  26.153  37.266  1.00  0.00     0.124 S 
ATOM     86  O   UNL A   1      42.542  24.877  36.631  1.00  0.00    -0.237 OA
ATOM     87  O   UNL A   1      43.176  26.601  38.285  1.00  0.00    -0.237 OA
ATOM     88  O   UNL A   1      40.823  26.353  37.605  1.00  0.00    -0.744 OA
ENDBRANCH  84  85
ENDBRANCH  52  77
ENDBRANCH  26  27
ENDBRANCH  18  21
ENDBRANCH  16  17
ENDBRANCH   1  16
TORSDOF 15
ENDMDL
MODEL 3
REMARK VINA RESULT:     -11.2      3.254      9.681
REMARK SMILES CC1=C(CCC(=O)NCCCNC(=O)c2ccc(-c3c4nc(c(-c5c(F)cc(S(=O)(=O)[O-])cc5F)c5ccc([nH]5)c(-c5c(F)cc(S(=O)(=O)[O-])cc5F)c5nc(c(-c6c(F)cc(S(=O)(=O)[O-])cc6F)c6ccc3[nH]6)C=C5)C=C4)cc2)N=N[C@H]1C
REMARK SMILES IDX 10 1 9 2 8 3 6 4 7 5 5 7 4 8 3 9 1 10 2 11 83 12 81 13 82 14
REMARK SMILES IDX 84 15 11 16 12 17 13 18 14 20 15 21 16 22 80 23 17 24 79 25
REMARK SMILES IDX 18 26 19 27 20 28 73 29 21 30 78 31 72 32 74 33 22 34 77 35
REMARK SMILES IDX 71 36 70 37 23 39 57 40 36 41 56 42 37 43 40 44 55 45 75 46
REMARK SMILES IDX 38 47 39 48 54 50 76 51 41 52 24 53 25 54 34 55 26 56 27 57
REMARK SMILES IDX 33 58 35 59 28 60 29 61 30 62 31 63 32 64 58 65 59 66 68 67
REMARK SMILES IDX 60 68 61 69 67 70 69 71 62 72 63 73 64 74 65 75 66 76 42 77
REMARK SMILES IDX 43 78 52 79 44 80 45 81 51 82 53 83 46 84 47 85 48 86 49 87
REMARK SMILES IDX 50 88
REMARK H PARENT 8 6 12 19 74 38 40 49
REMARK Flexibility Score: inf
ROOT
ATOM      1  C   UNL A   1      38.685  23.502  26.393  1.00  0.00     0.042 C 
ENDROOT
BRANCH   1   2
ATOM      2  C   UNL A   1      37.828  22.379  25.825  1.00  0.00     0.117 C 
BRANCH   2   3
ATOM      3  N   UNL A   1      36.479  22.445  26.364  1.00  0.00    -0.356 N 
ATOM      4  C   UNL A   1      35.433  23.233  25.985  1.00  0.00     0.220 C 
ATOM      5  O   UNL A   1      34.441  23.284  26.712  1.00  0.00    -0.275 OA
ATOM      6  H   UNL A   1      36.294  21.832  27.112  1.00  0.00     0.163 HD
BRANCH   4   7
ATOM      7  C   UNL A   1      35.458  23.970  24.659  1.00  0.00     0.106 C 
BRANCH   7   8
ATOM      8  C   UNL A   1      34.123  23.981  23.906  1.00  0.00     0.068 C 
BRANCH   8   9
ATOM      9  C   UNL A   1      33.814  25.284  23.231  1.00  0.00     0.064 C 
ATOM     10  C   UNL A   1      33.593  26.955  25.170  1.00  0.00     0.044 C 
ATOM     11  C   UNL A   1      33.562  26.482  23.771  1.00  0.00    -0.024 C 
ATOM     12  C   UNL A   1      33.203  27.369  22.627  1.00  0.00     0.153 C 
ATOM     13  N   UNL A   1      33.850  25.351  21.864  1.00  0.00    -0.160 NA
ATOM     14  N   UNL A   1      33.505  26.499  21.463  1.00  0.00    -0.181 NA
ATOM     15  C   UNL A   1      31.716  27.732  22.623  1.00  0.00     0.040 C 
ENDBRANCH   8   9
ENDBRANCH   7   8
ENDBRANCH   4   7
ENDBRANCH   2   3
ENDBRANCH   1   2
BRANCH   1  16
ATOM     16  C   UNL A   1      39.884  23.032  27.166  1.00  0.00     0.118 C 
BRANCH  16  17
ATOM     17  N   UNL A   1      41.000  22.581  26.338  1.00  0.00    -0.352 N 
ATOM     18  C   UNL A   1      42.020  23.370  25.808  1.00  0.00     0.251 C 
ATOM     19  H   UNL A   1      41.036  21.619  26.132  1.00  0.00     0.163 HD
ATOM     20  O   UNL A   1      42.749  22.943  24.936  1.00  0.00    -0.269 OA
BRANCH  18  21
ATOM     21  C   UNL A   1      42.162  24.756  26.326  1.00  0.00     0.039 A 
ATOM     22  C   UNL A   1      41.471  25.831  25.769  1.00  0.00     0.014 A 
ATOM     23  C   UNL A   1      42.925  24.939  27.472  1.00  0.00     0.014 A 
ATOM     24  C   UNL A   1      41.488  27.054  26.444  1.00  0.00     0.010 A 
ATOM     25  C   UNL A   1      42.711  26.032  28.259  1.00  0.00     0.010 A 
ATOM     26  C   UNL A   1      42.083  27.136  27.717  1.00  0.00    -0.014 A 
BRANCH  26  27
ATOM     27  C   UNL A   1      41.975  28.328  28.554  1.00  0.00     0.031 A 
ATOM     28  C   UNL A   1      43.088  29.287  28.358  1.00  0.00     0.074 A 
ATOM     29  C   UNL A   1      40.883  28.643  29.291  1.00  0.00     0.049 A 
ATOM     30  N   UNL A   1      44.119  29.437  29.120  1.00  0.00    -0.248 NA
ATOM     31  C   UNL A   1      43.187  30.005  27.077  1.00  0.00     0.031 C 
ATOM     32  C   UNL A   1      39.584  27.954  29.339  1.00  0.00     0.029 A 
ATOM     33  N   UNL A   1      40.665  29.719  30.098  1.00  0.00    -0.354 N 
ATOM     34  C   UNL A   1      44.830  30.495  28.569  1.00  0.00     0.074 A 
ATOM     35  C   UNL A   1      44.371  30.610  27.211  1.00  0.00     0.031 C 
ATOM     36  C   UNL A   1      38.661  28.747  29.925  1.00  0.00     0.029 A 
ATOM     37  C   UNL A   1      39.335  29.905  30.475  1.00  0.00     0.049 A 
ATOM     38  H   UNL A   1      41.389  30.318  30.392  1.00  0.00     0.167 HD
ATOM     39  C   UNL A   1      45.478  31.379  29.380  1.00  0.00     0.037 A 
ATOM     40  C   UNL A   1      38.820  30.930  31.201  1.00  0.00     0.037 A 
ATOM     41  C   UNL A   1      45.583  30.849  30.724  1.00  0.00     0.049 A 
ATOM     42  C   UNL A   1      39.950  31.521  31.957  1.00  0.00     0.074 A 
ATOM     43  C   UNL A   1      46.110  29.704  31.289  1.00  0.00     0.029 A 
ATOM     44  N   UNL A   1      44.718  31.369  31.656  1.00  0.00    -0.354 N 
ATOM     45  N   UNL A   1      40.590  30.898  32.909  1.00  0.00    -0.248 NA
ATOM     46  C   UNL A   1      40.656  32.643  31.364  1.00  0.00     0.031 C 
ATOM     47  C   UNL A   1      45.208  29.358  32.342  1.00  0.00     0.029 A 
ATOM     48  C   UNL A   1      44.227  30.347  32.424  1.00  0.00     0.049 A 
ATOM     49  H   UNL A   1      44.487  32.322  31.756  1.00  0.00     0.167 HD
ATOM     50  C   UNL A   1      41.919  31.240  32.717  1.00  0.00     0.074 A 
ATOM     51  C   UNL A   1      41.881  32.411  31.844  1.00  0.00     0.031 C 
ATOM     52  C   UNL A   1      42.917  30.365  33.044  1.00  0.00     0.037 A 
BRANCH  39  53
ATOM     53  C   UNL A   1      45.602  32.866  29.104  1.00  0.00     0.058 A 
ATOM     54  C   UNL A   1      44.430  33.601  28.820  1.00  0.00     0.135 A 
ATOM     55  C   UNL A   1      46.815  33.533  28.816  1.00  0.00     0.135 A 
ATOM     56  F   UNL A   1      43.219  33.071  29.051  1.00  0.00    -0.206 F 
ATOM     57  C   UNL A   1      44.461  34.857  28.214  1.00  0.00     0.059 A 
ATOM     58  C   UNL A   1      46.867  34.807  28.263  1.00  0.00     0.059 A 
ATOM     59  F   UNL A   1      48.012  32.958  28.963  1.00  0.00    -0.206 F 
ATOM     60  C   UNL A   1      45.687  35.445  27.925  1.00  0.00     0.060 A 
BRANCH  60  61
ATOM     61  S   UNL A   1      45.732  37.026  27.069  1.00  0.00     0.124 S 
ATOM     62  O   UNL A   1      46.380  37.874  28.062  1.00  0.00    -0.237 OA
ATOM     63  O   UNL A   1      46.523  36.705  25.886  1.00  0.00    -0.237 OA
ATOM     64  O   UNL A   1      44.323  37.309  26.816  1.00  0.00    -0.744 OA
ENDBRANCH  60  61
ENDBRANCH  39  53
BRANCH  40  65
ATOM     65  C   UNL A   1      37.497  31.602  31.094  1.00  0.00     0.058 A 
ATOM     66  C   UNL A   1      36.479  31.348  32.033  1.00  0.00     0.135 A 
ATOM     67  C   UNL A   1      37.309  32.729  30.270  1.00  0.00     0.135 A 
ATOM     68  F   UNL A   1      36.574  30.300  32.864  1.00  0.00    -0.206 F 
ATOM     69  C   UNL A   1      35.382  32.202  32.199  1.00  0.00     0.059 A 
ATOM     70  C   UNL A   1      36.220  33.590  30.410  1.00  0.00     0.059 A 
ATOM     71  F   UNL A   1      38.234  33.082  29.363  1.00  0.00    -0.206 F 
ATOM     72  C   UNL A   1      35.276  33.338  31.400  1.00  0.00     0.060 A 
BRANCH  72  73
ATOM     73  S   UNL A   1      33.976  34.549  31.748  1.00  0.00     0.124 S 
ATOM     74  O   UNL A   1      33.182  33.858  32.757  1.00  0.00    -0.237 OA
ATOM     75  O   UNL A   1      34.741  35.699  32.218  1.00  0.00    -0.237 OA
ATOM     76  O   UNL A   1      33.323  34.726  30.454  1.00  0.00    -0.744 OA
ENDBRANCH  72  73
ENDBRANCH  40  65
BRANCH  52  77
ATOM     77  C   UNL A   1      42.587  29.237  33.991  1.00  0.00     0.058 A 
ATOM     78  C   UNL A   1      42.019  28.002  33.630  1.00  0.00     0.135 A 
ATOM     79  C   UNL A   1      42.958  29.396  35.336  1.00  0.00     0.135 A 
ATOM     80  F   UNL A   1      41.730  27.719  32.352  1.00  0.00    -0.206 F 
ATOM     81  C   UNL A   1      41.775  27.000  34.574  1.00  0.00     0.059 A 
ATOM     82  C   UNL A   1      42.759  28.398  36.285  1.00  0.00     0.059 A 
ATOM     83  F   UNL A   1      43.559  30.528  35.740  1.00  0.00    -0.206 F 
ATOM     84  C   UNL A   1      42.145  27.211  35.902  1.00  0.00     0.060 A 
BRANCH  84  85
ATOM     85  S   UNL A   1      41.857  25.909  37.120  1.00  0.00     0.124 S 
ATOM     86  O   UNL A   1      42.867  26.202  38.130  1.00  0.00    -0.237 OA
ATOM     87  O   UNL A   1      40.473  26.147  37.519  1.00  0.00    -0.237 OA
ATOM     88  O   UNL A   1      42.073  24.678  36.362  1.00  0.00    -0.744 OA
ENDBRANCH  84  85
ENDBRANCH  52  77
ENDBRANCH  26  27
ENDBRANCH  18  21
ENDBRANCH  16  17
ENDBRANCH   1  16
TORSDOF 15
ENDMDL
