MODEL 1
REMARK VINA RESULT:     -13.5      0.000      0.000
REMARK SMILES Cc1ccc(-c2cc(C(=O)NCCCNC(=O)c3ccc(-c4c5nc(c(-c6c(F)cc(S(=O)(=O)[O-])cc6F)c6ccc([nH]6)c(-c6c(F)cc(S(=O)(=O)[O-])cc6F)c6nc(c(-c7c(F)cc(S(=O)(=O)[O-])cc7F)c7ccc4[nH]7)C=C6)C=C5)cc3)c3c(-c4cccc([N+](=O)[O-])c4)[nH]nc3n2)cc1
REMARK SMILES IDX 13 1 12 2 11 3 9 4 10 5 8 7 6 8 7 9 98 10 97 11 84 12 96 13
REMARK SMILES IDX 85 14 95 15 5 17 1 18 2 19 3 20 100 21 4 22 99 23 86 24
REMARK SMILES IDX 87 25 94 26 88 27 90 28 89 29 91 30 92 31 93 32 14 33 15 34
REMARK SMILES IDX 16 35 17 37 18 38 19 39 83 40 20 41 82 42 21 43 22 44 23 45
REMARK SMILES IDX 76 46 24 47 81 48 75 49 77 50 25 51 80 52 74 53 73 54 26 56
REMARK SMILES IDX 60 57 39 58 59 59 40 60 43 61 58 62 78 63 41 64 42 65 57 67
REMARK SMILES IDX 79 68 44 69 27 70 28 71 37 72 29 73 30 74 36 75 38 76 31 77
REMARK SMILES IDX 32 78 33 79 34 80 35 81 61 82 62 83 71 84 63 85 64 86 70 87
REMARK SMILES IDX 72 88 65 89 66 90 67 91 68 92 69 93 45 94 46 95 55 96 47 97
REMARK SMILES IDX 48 98 54 99 56 100 49 101 50 102 51 103 52 104 53 105
REMARK H PARENT 11 6 95 16 15 36 77 55 43 66
REMARK Flexibility Score: inf
ROOT
ATOM      1  C   UNL A   1      32.613  29.312  25.270  1.00  0.00     0.042 C 
ENDROOT
BRANCH   1   2
ATOM      2  C   UNL A   1      33.402  28.095  25.979  1.00  0.00     0.118 C 
BRANCH   2   3
ATOM      3  N   UNL A   1      32.683  26.833  26.298  1.00  0.00    -0.352 N 
ATOM      4  C   UNL A   1      32.797  25.460  26.119  1.00  0.00     0.252 C 
ATOM      5  O   UNL A   1      32.163  24.701  26.846  1.00  0.00    -0.269 OA
ATOM      6  H   UNL A   1      31.860  27.035  26.798  1.00  0.00     0.163 HD
BRANCH   4   7
ATOM      7  C   UNL A   1      33.643  24.884  25.071  1.00  0.00     0.055 A 
ATOM      8  C   UNL A   1      35.730  23.698  24.598  1.00  0.00     0.074 A 
ATOM      9  C   UNL A   1      34.950  24.555  25.394  1.00  0.00     0.043 A 
ATOM     10  N   UNL A   1      35.438  23.274  23.339  1.00  0.00    -0.226 NA
ATOM     11  C   UNL A   1      34.262  23.788  22.886  1.00  0.00     0.182 A 
ATOM     12  C   UNL A   1      33.379  24.574  23.720  1.00  0.00     0.059 A 
ATOM     13  N   UNL A   1      33.764  23.605  21.662  1.00  0.00    -0.154 NA
ATOM     14  C   UNL A   1      32.334  24.926  22.879  1.00  0.00     0.076 A 
ATOM     15  N   UNL A   1      32.626  24.316  21.680  1.00  0.00    -0.275 N 
ATOM     16  H   UNL A   1      32.041  24.396  20.892  1.00  0.00     0.190 HD
BRANCH   8  17
ATOM     17  C   UNL A   1      36.866  23.081  25.284  1.00  0.00     0.000 A 
ATOM     18  C   UNL A   1      40.705  21.711  26.680  1.00  0.00     0.044 C 
ATOM     19  C   UNL A   1      39.349  22.174  26.244  1.00  0.00    -0.051 A 
ATOM     20  C   UNL A   1      38.529  21.338  25.470  1.00  0.00     0.004 A 
ATOM     21  C   UNL A   1      38.901  23.452  26.580  1.00  0.00     0.004 A 
ATOM     22  C   UNL A   1      37.295  21.787  24.991  1.00  0.00     0.010 A 
ATOM     23  C   UNL A   1      37.666  23.889  26.118  1.00  0.00     0.010 A 
ENDBRANCH   8  17
BRANCH  14  24
ATOM     24  C   UNL A   1      31.174  25.803  22.993  1.00  0.00     0.007 A 
ATOM     25  C   UNL A   1      30.062  25.408  23.749  1.00  0.00     0.011 A 
ATOM     26  C   UNL A   1      31.178  27.062  22.378  1.00  0.00     0.096 A 
ATOM     27  C   UNL A   1      28.997  26.290  23.962  1.00  0.00     0.008 A 
ATOM     28  C   UNL A   1      30.123  27.952  22.619  1.00  0.00     0.270 A 
ATOM     29  C   UNL A   1      29.033  27.572  23.414  1.00  0.00     0.085 A 
BRANCH  28  30
ATOM     30  N   UNL A   1      30.161  29.298  22.034  1.00  0.00     0.062 N 
ATOM     31  O   UNL A   1      29.128  29.713  21.485  1.00  0.00    -0.258 OA
ATOM     32  O   UNL A   1      31.242  29.904  22.048  1.00  0.00    -0.258 OA
ENDBRANCH  28  30
ENDBRANCH  14  24
ENDBRANCH   4   7
ENDBRANCH   2   3
ENDBRANCH   1   2
BRANCH   1  33
ATOM     33  C   UNL A   1      32.188  30.534  26.211  1.00  0.00     0.118 C 
BRANCH  33  34
ATOM     34  N   UNL A   1      33.068  31.120  27.365  1.00  0.00    -0.352 N 
ATOM     35  C   UNL A   1      34.492  31.326  27.555  1.00  0.00     0.251 C 
ATOM     36  H   UNL A   1      32.534  31.415  28.138  1.00  0.00     0.163 HD
ATOM     37  O   UNL A   1      34.848  32.514  27.476  1.00  0.00    -0.269 OA
BRANCH  35  38
ATOM     38  C   UNL A   1      35.657  30.332  27.947  1.00  0.00     0.039 A 
ATOM     39  C   UNL A   1      35.650  29.665  29.216  1.00  0.00     0.014 A 
ATOM     40  C   UNL A   1      36.831  30.123  27.232  1.00  0.00     0.014 A 
ATOM     41  C   UNL A   1      36.887  29.322  29.899  1.00  0.00     0.010 A 
ATOM     42  C   UNL A   1      38.054  29.798  27.907  1.00  0.00     0.010 A 
ATOM     43  C   UNL A   1      38.125  29.612  29.299  1.00  0.00    -0.014 A 
BRANCH  43  44
ATOM     44  C   UNL A   1      39.392  30.011  30.059  1.00  0.00     0.031 A 
ATOM     45  C   UNL A   1      39.505  31.273  30.789  1.00  0.00     0.074 A 
ATOM     46  C   UNL A   1      40.474  29.225  30.350  1.00  0.00     0.049 A 
ATOM     47  N   UNL A   1      40.563  32.018  30.831  1.00  0.00    -0.248 NA
ATOM     48  C   UNL A   1      38.426  31.712  31.647  1.00  0.00     0.031 C 
ATOM     49  C   UNL A   1      41.654  29.375  31.221  1.00  0.00     0.029 A 
ATOM     50  N   UNL A   1      40.716  27.946  29.922  1.00  0.00    -0.354 N 
ATOM     51  C   UNL A   1      40.442  32.775  31.979  1.00  0.00     0.074 A 
ATOM     52  C   UNL A   1      39.030  32.700  32.310  1.00  0.00     0.031 C 
ATOM     53  C   UNL A   1      42.583  28.440  30.908  1.00  0.00     0.029 A 
ATOM     54  C   UNL A   1      42.076  27.674  29.792  1.00  0.00     0.049 A 
ATOM     55  H   UNL A   1      40.007  27.291  29.728  1.00  0.00     0.167 HD
ATOM     56  C   UNL A   1      41.543  33.176  32.696  1.00  0.00     0.037 A 
ATOM     57  C   UNL A   1      42.581  27.476  28.531  1.00  0.00     0.037 A 
ATOM     58  C   UNL A   1      42.796  32.559  32.196  1.00  0.00     0.049 A 
ATOM     59  C   UNL A   1      43.363  28.710  28.120  1.00  0.00     0.074 A 
ATOM     60  C   UNL A   1      43.730  31.666  32.712  1.00  0.00     0.029 A 
ATOM     61  N   UNL A   1      43.097  32.628  30.845  1.00  0.00    -0.354 N 
ATOM     62  N   UNL A   1      43.803  29.575  28.991  1.00  0.00    -0.248 NA
ATOM     63  C   UNL A   1      43.663  29.133  26.751  1.00  0.00     0.031 C 
ATOM     64  C   UNL A   1      44.576  31.211  31.648  1.00  0.00     0.029 A 
ATOM     65  C   UNL A   1      44.179  31.844  30.486  1.00  0.00     0.049 A 
ATOM     66  H   UNL A   1      42.591  33.179  30.205  1.00  0.00     0.167 HD
ATOM     67  C   UNL A   1      44.258  30.697  28.368  1.00  0.00     0.074 A 
ATOM     68  C   UNL A   1      44.222  30.344  26.958  1.00  0.00     0.031 C 
ATOM     69  C   UNL A   1      44.576  31.826  29.077  1.00  0.00     0.037 A 
BRANCH  56  70
ATOM     70  C   UNL A   1      41.440  33.920  34.031  1.00  0.00     0.058 A 
ATOM     71  C   UNL A   1      41.100  33.271  35.237  1.00  0.00     0.135 A 
ATOM     72  C   UNL A   1      41.725  35.295  34.194  1.00  0.00     0.135 A 
ATOM     73  F   UNL A   1      40.954  31.941  35.300  1.00  0.00    -0.206 F 
ATOM     74  C   UNL A   1      40.946  33.944  36.458  1.00  0.00     0.059 A 
ATOM     75  C   UNL A   1      41.490  36.009  35.373  1.00  0.00     0.059 A 
ATOM     76  F   UNL A   1      42.362  35.998  33.247  1.00  0.00    -0.206 F 
ATOM     77  C   UNL A   1      41.113  35.321  36.511  1.00  0.00     0.060 A 
BRANCH  77  78
ATOM     78  S   UNL A   1      40.964  36.182  38.088  1.00  0.00     0.124 S 
ATOM     79  O   UNL A   1      40.917  35.082  39.045  1.00  0.00    -0.237 OA
ATOM     80  O   UNL A   1      42.179  36.990  38.107  1.00  0.00    -0.237 OA
ATOM     81  O   UNL A   1      39.721  36.936  37.951  1.00  0.00    -0.744 OA
ENDBRANCH  77  78
ENDBRANCH  56  70
BRANCH  57  82
ATOM     82  C   UNL A   1      41.705  26.558  27.628  1.00  0.00     0.058 A 
ATOM     83  C   UNL A   1      41.774  26.909  26.258  1.00  0.00     0.135 A 
ATOM     84  C   UNL A   1      41.934  25.210  27.836  1.00  0.00     0.135 A 
ATOM     85  F   UNL A   1      41.061  27.948  25.808  1.00  0.00    -0.206 F 
ATOM     86  C   UNL A   1      42.675  26.294  25.375  1.00  0.00     0.059 A 
ATOM     87  C   UNL A   1      42.858  24.598  26.973  1.00  0.00     0.059 A 
ATOM     88  F   UNL A   1      41.730  24.679  29.055  1.00  0.00    -0.206 F 
ATOM     89  C   UNL A   1      43.391  25.223  25.860  1.00  0.00     0.060 A 
BRANCH  89  90
ATOM     90  S   UNL A   1      45.204  24.878  25.262  1.00  0.00     0.124 S 
ATOM     91  O   UNL A   1      44.946  23.916  24.224  1.00  0.00    -0.237 OA
ATOM     92  O   UNL A   1      45.687  26.153  24.739  1.00  0.00    -0.237 OA
ATOM     93  O   UNL A   1      45.948  24.368  26.390  1.00  0.00    -0.744 OA
ENDBRANCH  89  90
ENDBRANCH  57  82
BRANCH  69  94
ATOM     94  C   UNL A   1      45.244  33.049  28.495  1.00  0.00     0.058 A 
ATOM     95  C   UNL A   1      46.634  33.245  28.542  1.00  0.00     0.135 A 
ATOM     96  C   UNL A   1      44.495  34.148  28.005  1.00  0.00     0.135 A 
ATOM     97  F   UNL A   1      47.443  32.336  29.106  1.00  0.00    -0.206 F 
ATOM     98  C   UNL A   1      47.240  34.403  28.048  1.00  0.00     0.059 A 
ATOM     99  C   UNL A   1      45.073  35.324  27.551  1.00  0.00     0.059 A 
ATOM    100  F   UNL A   1      43.160  34.134  27.928  1.00  0.00    -0.206 F 
ATOM    101  C   UNL A   1      46.450  35.432  27.542  1.00  0.00     0.060 A 
BRANCH 101 102
ATOM    102  S   UNL A   1      47.223  36.916  26.887  1.00  0.00     0.124 S 
ATOM    103  O   UNL A   1      46.076  37.686  26.417  1.00  0.00    -0.237 OA
ATOM    104  O   UNL A   1      47.894  37.441  28.074  1.00  0.00    -0.237 OA
ATOM    105  O   UNL A   1      48.106  36.413  25.839  1.00  0.00    -0.744 OA
ENDBRANCH 101 102
ENDBRANCH  69  94
ENDBRANCH  43  44
ENDBRANCH  35  38
ENDBRANCH  33  34
ENDBRANCH   1  33
TORSDOF 16
ENDMDL
MODEL 2
REMARK VINA RESULT:     -13.3      3.331      8.697
REMARK SMILES Cc1ccc(-c2cc(C(=O)NCCCNC(=O)c3ccc(-c4c5nc(c(-c6c(F)cc(S(=O)(=O)[O-])cc6F)c6ccc([nH]6)c(-c6c(F)cc(S(=O)(=O)[O-])cc6F)c6nc(c(-c7c(F)cc(S(=O)(=O)[O-])cc7F)c7ccc4[nH]7)C=C6)C=C5)cc3)c3c(-c4cccc([N+](=O)[O-])c4)[nH]nc3n2)cc1
REMARK SMILES IDX 13 1 12 2 11 3 9 4 10 5 8 7 6 8 7 9 98 10 97 11 84 12 96 13
REMARK SMILES IDX 85 14 95 15 5 17 1 18 2 19 3 20 100 21 4 22 99 23 86 24
REMARK SMILES IDX 87 25 94 26 88 27 90 28 89 29 91 30 92 31 93 32 14 33 15 34
REMARK SMILES IDX 16 35 17 37 18 38 19 39 83 40 20 41 82 42 21 43 22 44 23 45
REMARK SMILES IDX 76 46 24 47 81 48 75 49 77 50 25 51 80 52 74 53 73 54 26 56
REMARK SMILES IDX 60 57 39 58 59 59 40 60 43 61 58 62 78 63 41 64 42 65 57 67
REMARK SMILES IDX 79 68 44 69 27 70 28 71 37 72 29 73 30 74 36 75 38 76 31 77
REMARK SMILES IDX 32 78 33 79 34 80 35 81 61 82 62 83 71 84 63 85 64 86 70 87
REMARK SMILES IDX 72 88 65 89 66 90 67 91 68 92 69 93 45 94 46 95 55 96 47 97
REMARK SMILES IDX 48 98 54 99 56 100 49 101 50 102 51 103 52 104 53 105
REMARK H PARENT 11 6 95 16 15 36 77 55 43 66
REMARK Flexibility Score: inf
ROOT
ATOM      1  C   UNL A   1      32.682  29.385  25.628  1.00  0.00     0.042 C 
ENDROOT
BRANCH   1   2
ATOM      2  C   UNL A   1      33.158  28.145  26.544  1.00  0.00     0.118 C 
BRANCH   2   3
ATOM      3  N   UNL A   1      32.331  26.910  26.607  1.00  0.00    -0.352 N 
ATOM      4  C   UNL A   1      32.364  25.578  26.214  1.00  0.00     0.252 C 
ATOM      5  O   UNL A   1      31.625  24.767  26.765  1.00  0.00    -0.269 OA
ATOM      6  H   UNL A   1      31.488  27.096  27.079  1.00  0.00     0.163 HD
BRANCH   4   7
ATOM      7  C   UNL A   1      33.246  25.108  25.143  1.00  0.00     0.055 A 
ATOM      8  C   UNL A   1      35.377  24.023  24.624  1.00  0.00     0.074 A 
ATOM      9  C   UNL A   1      34.556  24.793  25.467  1.00  0.00     0.043 A 
ATOM     10  N   UNL A   1      35.120  23.688  23.331  1.00  0.00    -0.226 NA
ATOM     11  C   UNL A   1      33.938  24.200  22.894  1.00  0.00     0.182 A 
ATOM     12  C   UNL A   1      33.016  24.895  23.767  1.00  0.00     0.059 A 
ATOM     13  N   UNL A   1      33.468  24.097  21.650  1.00  0.00    -0.154 NA
ATOM     14  C   UNL A   1      31.976  25.279  22.934  1.00  0.00     0.076 A 
ATOM     15  N   UNL A   1      32.309  24.771  21.698  1.00  0.00    -0.275 N 
ATOM     16  H   UNL A   1      31.736  24.894  20.907  1.00  0.00     0.190 HD
BRANCH   8  17
ATOM     17  C   UNL A   1      36.518  23.389  25.284  1.00  0.00     0.000 A 
ATOM     18  C   UNL A   1      40.365  21.958  26.594  1.00  0.00     0.044 C 
ATOM     19  C   UNL A   1      39.007  22.442  26.188  1.00  0.00    -0.051 A 
ATOM     20  C   UNL A   1      38.156  21.619  25.435  1.00  0.00     0.004 A 
ATOM     21  C   UNL A   1      38.587  23.727  26.533  1.00  0.00     0.004 A 
ATOM     22  C   UNL A   1      36.919  22.087  24.984  1.00  0.00     0.010 A 
ATOM     23  C   UNL A   1      37.349  24.184  26.099  1.00  0.00     0.010 A 
ENDBRANCH   8  17
BRANCH  14  24
ATOM     24  C   UNL A   1      30.789  26.111  23.090  1.00  0.00     0.007 A 
ATOM     25  C   UNL A   1      29.649  25.602  23.729  1.00  0.00     0.011 A 
ATOM     26  C   UNL A   1      30.791  27.437  22.636  1.00  0.00     0.096 A 
ATOM     27  C   UNL A   1      28.551  26.429  23.988  1.00  0.00     0.008 A 
ATOM     28  C   UNL A   1      29.700  28.268  22.926  1.00  0.00     0.270 A 
ATOM     29  C   UNL A   1      28.581  27.770  23.606  1.00  0.00     0.085 A 
BRANCH  28  30
ATOM     30  N   UNL A   1      29.732  29.677  22.514  1.00  0.00     0.062 N 
ATOM     31  O   UNL A   1      29.890  29.917  21.306  1.00  0.00    -0.258 OA
ATOM     32  O   UNL A   1      29.685  30.540  23.402  1.00  0.00    -0.258 OA
ENDBRANCH  28  30
ENDBRANCH  14  24
ENDBRANCH   4   7
ENDBRANCH   2   3
ENDBRANCH   1   2
BRANCH   1  33
ATOM     33  C   UNL A   1      32.534  30.800  26.359  1.00  0.00     0.118 C 
BRANCH  33  34
ATOM     34  N   UNL A   1      33.401  31.272  27.574  1.00  0.00    -0.352 N 
ATOM     35  C   UNL A   1      34.818  31.232  27.890  1.00  0.00     0.251 C 
ATOM     36  H   UNL A   1      32.864  31.690  28.286  1.00  0.00     0.163 HD
ATOM     37  O   UNL A   1      35.386  32.335  27.812  1.00  0.00    -0.269 OA
BRANCH  35  38
ATOM     38  C   UNL A   1      35.747  30.067  28.416  1.00  0.00     0.039 A 
ATOM     39  C   UNL A   1      35.987  29.903  29.820  1.00  0.00     0.014 A 
ATOM     40  C   UNL A   1      36.523  29.220  27.632  1.00  0.00     0.014 A 
ATOM     41  C   UNL A   1      37.246  29.373  30.317  1.00  0.00     0.010 A 
ATOM     42  C   UNL A   1      37.772  28.709  28.118  1.00  0.00     0.010 A 
ATOM     43  C   UNL A   1      38.248  28.975  29.414  1.00  0.00    -0.014 A 
BRANCH  43  44
ATOM     44  C   UNL A   1      39.751  29.106  29.663  1.00  0.00     0.031 A 
ATOM     45  C   UNL A   1      40.722  28.150  29.132  1.00  0.00     0.074 A 
ATOM     46  C   UNL A   1      40.419  30.175  30.197  1.00  0.00     0.049 A 
ATOM     47  N   UNL A   1      41.765  27.717  29.765  1.00  0.00    -0.248 NA
ATOM     48  C   UNL A   1      40.630  27.714  27.756  1.00  0.00     0.031 C 
ATOM     49  C   UNL A   1      41.840  30.549  30.318  1.00  0.00     0.029 A 
ATOM     50  N   UNL A   1      39.878  31.312  30.737  1.00  0.00    -0.354 N 
ATOM     51  C   UNL A   1      42.643  27.290  28.790  1.00  0.00     0.074 A 
ATOM     52  C   UNL A   1      41.812  27.113  27.612  1.00  0.00     0.031 C 
ATOM     53  C   UNL A   1      41.980  31.558  31.210  1.00  0.00     0.029 A 
ATOM     54  C   UNL A   1      40.671  31.854  31.747  1.00  0.00     0.049 A 
ATOM     55  H   UNL A   1      39.023  31.704  30.445  1.00  0.00     0.167 HD
ATOM     56  C   UNL A   1      44.004  27.368  28.962  1.00  0.00     0.037 A 
ATOM     57  C   UNL A   1      40.196  31.821  33.034  1.00  0.00     0.037 A 
ATOM     58  C   UNL A   1      44.374  28.108  30.193  1.00  0.00     0.049 A 
ATOM     59  C   UNL A   1      40.941  30.744  33.801  1.00  0.00     0.074 A 
ATOM     60  C   UNL A   1      45.035  29.302  30.466  1.00  0.00     0.029 A 
ATOM     61  N   UNL A   1      43.795  27.753  31.401  1.00  0.00    -0.354 N 
ATOM     62  N   UNL A   1      42.090  30.275  33.400  1.00  0.00    -0.248 NA
ATOM     63  C   UNL A   1      40.476  30.054  35.005  1.00  0.00     0.031 C 
ATOM     64  C   UNL A   1      44.831  29.643  31.843  1.00  0.00     0.029 A 
ATOM     65  C   UNL A   1      44.069  28.646  32.422  1.00  0.00     0.049 A 
ATOM     66  H   UNL A   1      43.242  26.947  31.520  1.00  0.00     0.167 HD
ATOM     67  C   UNL A   1      42.434  29.168  34.114  1.00  0.00     0.074 A 
ATOM     68  C   UNL A   1      41.429  29.111  35.163  1.00  0.00     0.031 C 
ATOM     69  C   UNL A   1      43.491  28.379  33.740  1.00  0.00     0.037 A 
BRANCH  56  70
ATOM     70  C   UNL A   1      45.003  27.007  27.859  1.00  0.00     0.058 A 
ATOM     71  C   UNL A   1      45.431  27.938  26.888  1.00  0.00     0.135 A 
ATOM     72  C   UNL A   1      45.629  25.744  27.740  1.00  0.00     0.135 A 
ATOM     73  F   UNL A   1      45.067  29.226  26.943  1.00  0.00    -0.206 F 
ATOM     74  C   UNL A   1      46.302  27.610  25.838  1.00  0.00     0.059 A 
ATOM     75  C   UNL A   1      46.424  25.363  26.655  1.00  0.00     0.059 A 
ATOM     76  F   UNL A   1      45.596  24.848  28.736  1.00  0.00    -0.206 F 
ATOM     77  C   UNL A   1      46.770  26.311  25.710  1.00  0.00     0.060 A 
BRANCH  77  78
ATOM     78  S   UNL A   1      47.928  25.899  24.391  1.00  0.00     0.124 S 
ATOM     79  O   UNL A   1      47.437  24.605  23.933  1.00  0.00    -0.237 OA
ATOM     80  O   UNL A   1      47.741  27.013  23.468  1.00  0.00    -0.237 OA
ATOM     81  O   UNL A   1      49.222  25.865  25.068  1.00  0.00    -0.744 OA
ENDBRANCH  77  78
ENDBRANCH  56  70
BRANCH  57  82
ATOM     82  C   UNL A   1      38.700  32.229  33.175  1.00  0.00     0.058 A 
ATOM     83  C   UNL A   1      37.959  31.328  33.978  1.00  0.00     0.135 A 
ATOM     84  C   UNL A   1      38.526  33.544  33.565  1.00  0.00     0.135 A 
ATOM     85  F   UNL A   1      37.543  30.168  33.456  1.00  0.00    -0.206 F 
ATOM     86  C   UNL A   1      37.763  31.542  35.352  1.00  0.00     0.059 A 
ATOM     87  C   UNL A   1      38.360  33.765  34.943  1.00  0.00     0.059 A 
ATOM     88  F   UNL A   1      39.015  34.537  32.800  1.00  0.00    -0.206 F 
ATOM     89  C   UNL A   1      38.194  32.745  35.863  1.00  0.00     0.060 A 
BRANCH  89  90
ATOM     90  S   UNL A   1      38.886  32.874  37.670  1.00  0.00     0.124 S 
ATOM     91  O   UNL A   1      38.028  31.929  38.335  1.00  0.00    -0.237 OA
ATOM     92  O   UNL A   1      40.270  32.415  37.588  1.00  0.00    -0.237 OA
ATOM     93  O   UNL A   1      38.730  34.243  38.103  1.00  0.00    -0.744 OA
ENDBRANCH  89  90
ENDBRANCH  57  82
BRANCH  69  94
ATOM     94  C   UNL A   1      44.048  27.240  34.560  1.00  0.00     0.058 A 
ATOM     95  C   UNL A   1      45.388  27.193  34.975  1.00  0.00     0.135 A 
ATOM     96  C   UNL A   1      43.291  26.072  34.828  1.00  0.00     0.135 A 
ATOM     97  F   UNL A   1      46.245  28.179  34.667  1.00  0.00    -0.206 F 
ATOM     98  C   UNL A   1      45.910  26.112  35.691  1.00  0.00     0.059 A 
ATOM     99  C   UNL A   1      43.801  24.968  35.496  1.00  0.00     0.059 A 
ATOM    100  F   UNL A   1      42.010  25.944  34.466  1.00  0.00    -0.206 F 
ATOM    101  C   UNL A   1      45.102  25.009  35.956  1.00  0.00     0.060 A 
BRANCH 101 102
ATOM    102  S   UNL A   1      45.760  23.621  36.891  1.00  0.00     0.124 S 
ATOM    103  O   UNL A   1      45.193  22.474  36.189  1.00  0.00    -0.237 OA
ATOM    104  O   UNL A   1      47.198  23.817  36.727  1.00  0.00    -0.237 OA
ATOM    105  O   UNL A   1      45.247  23.839  38.240  1.00  0.00    -0.744 OA
ENDBRANCH 101 102
ENDBRANCH  69  94
ENDBRANCH  43  44
ENDBRANCH  35  38
ENDBRANCH  33  34
ENDBRANCH   1  33
TORSDOF 16
ENDMDL
MODEL 3
REMARK VINA RESULT:     -13.3      4.316      9.545
REMARK SMILES Cc1ccc(-c2cc(C(=O)NCCCNC(=O)c3ccc(-c4c5nc(c(-c6c(F)cc(S(=O)(=O)[O-])cc6F)c6ccc([nH]6)c(-c6c(F)cc(S(=O)(=O)[O-])cc6F)c6nc(c(-c7c(F)cc(S(=O)(=O)[O-])cc7F)c7ccc4[nH]7)C=C6)C=C5)cc3)c3c(-c4cccc([N+](=O)[O-])c4)[nH]nc3n2)cc1
REMARK SMILES IDX 13 1 12 2 11 3 9 4 10 5 8 7 6 8 7 9 98 10 97 11 84 12 96 13
REMARK SMILES IDX 85 14 95 15 5 17 1 18 2 19 3 20 100 21 4 22 99 23 86 24
REMARK SMILES IDX 87 25 94 26 88 27 90 28 89 29 91 30 92 31 93 32 14 33 15 34
REMARK SMILES IDX 16 35 17 37 18 38 19 39 83 40 20 41 82 42 21 43 22 44 23 45
REMARK SMILES IDX 76 46 24 47 81 48 75 49 77 50 25 51 80 52 74 53 73 54 26 56
REMARK SMILES IDX 60 57 39 58 59 59 40 60 43 61 58 62 78 63 41 64 42 65 57 67
REMARK SMILES IDX 79 68 44 69 27 70 28 71 37 72 29 73 30 74 36 75 38 76 31 77
REMARK SMILES IDX 32 78 33 79 34 80 35 81 61 82 62 83 71 84 63 85 64 86 70 87
REMARK SMILES IDX 72 88 65 89 66 90 67 91 68 92 69 93 45 94 46 95 55 96 47 97
REMARK SMILES IDX 48 98 54 99 56 100 49 101 50 102 51 103 52 104 53 105
REMARK H PARENT 11 6 95 16 15 36 77 55 43 66
REMARK Flexibility Score: inf
ROOT
ATOM      1  C   UNL A   1      36.196  21.759  24.178  1.00  0.00     0.042 C 
ENDROOT
BRANCH   1   2
ATOM      2  C   UNL A   1      35.881  23.332  24.348  1.00  0.00     0.118 C 
BRANCH   2   3
ATOM      3  N   UNL A   1      34.940  24.004  23.412  1.00  0.00    -0.352 N 
ATOM      4  C   UNL A   1      33.943  24.972  23.406  1.00  0.00     0.252 C 
ATOM      5  O   UNL A   1      33.630  25.510  22.348  1.00  0.00    -0.269 OA
ATOM      6  H   UNL A   1      35.063  23.649  22.503  1.00  0.00     0.163 HD
BRANCH   4   7
ATOM      7  C   UNL A   1      33.235  25.361  24.628  1.00  0.00     0.055 A 
ATOM      8  C   UNL A   1      32.904  27.134  26.282  1.00  0.00     0.074 A 
ATOM      9  C   UNL A   1      33.688  26.473  25.319  1.00  0.00     0.043 A 
ATOM     10  N   UNL A   1      31.747  26.679  26.834  1.00  0.00    -0.226 NA
ATOM     11  C   UNL A   1      31.398  25.454  26.354  1.00  0.00     0.182 A 
ATOM     12  C   UNL A   1      32.116  24.801  25.279  1.00  0.00     0.059 A 
ATOM     13  N   UNL A   1      30.355  24.734  26.770  1.00  0.00    -0.154 NA
ATOM     14  C   UNL A   1      31.471  23.583  25.126  1.00  0.00     0.076 A 
ATOM     15  N   UNL A   1      30.439  23.613  26.037  1.00  0.00    -0.275 N 
ATOM     16  H   UNL A   1      29.808  22.865  26.143  1.00  0.00     0.190 HD
BRANCH   8  17
ATOM     17  C   UNL A   1      33.303  28.513  26.562  1.00  0.00     0.000 A 
ATOM     18  C   UNL A   1      34.421  32.312  28.258  1.00  0.00     0.044 C 
ATOM     19  C   UNL A   1      34.055  31.008  27.621  1.00  0.00    -0.051 A 
ATOM     20  C   UNL A   1      32.755  30.796  27.136  1.00  0.00     0.004 A 
ATOM     21  C   UNL A   1      34.996  29.982  27.528  1.00  0.00     0.004 A 
ATOM     22  C   UNL A   1      32.378  29.556  26.610  1.00  0.00     0.010 A 
ATOM     23  C   UNL A   1      34.625  28.757  26.988  1.00  0.00     0.010 A 
ENDBRANCH   8  17
BRANCH  14  24
ATOM     24  C   UNL A   1      31.722  22.380  24.340  1.00  0.00     0.007 A 
ATOM     25  C   UNL A   1      31.638  22.420  22.942  1.00  0.00     0.011 A 
ATOM     26  C   UNL A   1      32.084  21.184  24.976  1.00  0.00     0.096 A 
ATOM     27  C   UNL A   1      31.992  21.304  22.176  1.00  0.00     0.008 A 
ATOM     28  C   UNL A   1      32.467  20.080  24.203  1.00  0.00     0.270 A 
ATOM     29  C   UNL A   1      32.427  20.137  22.804  1.00  0.00     0.085 A 
BRANCH  28  30
ATOM     30  N   UNL A   1      32.917  18.850  24.868  1.00  0.00     0.062 N 
ATOM     31  O   UNL A   1      32.494  18.631  26.014  1.00  0.00    -0.258 OA
ATOM     32  O   UNL A   1      33.754  18.150  24.281  1.00  0.00    -0.258 OA
ENDBRANCH  28  30
ENDBRANCH  14  24
ENDBRANCH   4   7
ENDBRANCH   2   3
ENDBRANCH   1   2
BRANCH   1  33
ATOM     33  C   UNL A   1      37.208  21.112  25.235  1.00  0.00     0.118 C 
BRANCH  33  34
ATOM     34  N   UNL A   1      38.660  21.628  25.510  1.00  0.00    -0.352 N 
ATOM     35  C   UNL A   1      39.288  22.378  26.582  1.00  0.00     0.251 C 
ATOM     36  H   UNL A   1      39.291  21.389  24.792  1.00  0.00     0.163 HD
ATOM     37  O   UNL A   1      40.024  21.695  27.316  1.00  0.00    -0.269 OA
BRANCH  35  38
ATOM     38  C   UNL A   1      39.293  23.921  26.926  1.00  0.00     0.039 A 
ATOM     39  C   UNL A   1      39.816  24.875  25.993  1.00  0.00     0.014 A 
ATOM     40  C   UNL A   1      38.965  24.488  28.153  1.00  0.00     0.014 A 
ATOM     41  C   UNL A   1      40.455  26.102  26.440  1.00  0.00     0.010 A 
ATOM     42  C   UNL A   1      39.606  25.691  28.600  1.00  0.00     0.010 A 
ATOM     43  C   UNL A   1      40.538  26.391  27.813  1.00  0.00    -0.014 A 
BRANCH  43  44
ATOM     44  C   UNL A   1      41.698  27.131  28.482  1.00  0.00     0.031 A 
ATOM     45  C   UNL A   1      43.021  26.529  28.650  1.00  0.00     0.074 A 
ATOM     46  C   UNL A   1      41.762  28.457  28.815  1.00  0.00     0.049 A 
ATOM     47  N   UNL A   1      43.772  26.662  29.696  1.00  0.00    -0.248 NA
ATOM     48  C   UNL A   1      43.640  25.824  27.550  1.00  0.00     0.031 C 
ATOM     49  C   UNL A   1      42.840  29.358  29.262  1.00  0.00     0.029 A 
ATOM     50  N   UNL A   1      40.758  29.387  28.735  1.00  0.00    -0.354 N 
ATOM     51  C   UNL A   1      45.059  26.413  29.264  1.00  0.00     0.074 A 
ATOM     52  C   UNL A   1      44.886  25.701  28.011  1.00  0.00     0.031 C 
ATOM     53  C   UNL A   1      42.311  30.502  29.758  1.00  0.00     0.029 A 
ATOM     54  C   UNL A   1      40.872  30.380  29.705  1.00  0.00     0.049 A 
ATOM     55  H   UNL A   1      40.037  29.357  28.066  1.00  0.00     0.167 HD
ATOM     56  C   UNL A   1      46.143  27.036  29.835  1.00  0.00     0.037 A 
ATOM     57  C   UNL A   1      39.926  30.430  30.699  1.00  0.00     0.037 A 
ATOM     58  C   UNL A   1      45.744  28.092  30.797  1.00  0.00     0.049 A 
ATOM     59  C   UNL A   1      40.537  29.894  31.980  1.00  0.00     0.074 A 
ATOM     60  C   UNL A   1      45.878  29.476  30.855  1.00  0.00     0.029 A 
ATOM     61  N   UNL A   1      44.827  27.794  31.793  1.00  0.00    -0.354 N 
ATOM     62  N   UNL A   1      41.827  29.826  32.158  1.00  0.00    -0.248 NA
ATOM     63  C   UNL A   1      39.812  29.336  33.122  1.00  0.00     0.031 C 
ATOM     64  C   UNL A   1      45.027  29.983  31.892  1.00  0.00     0.029 A 
ATOM     65  C   UNL A   1      44.392  28.910  32.487  1.00  0.00     0.049 A 
ATOM     66  H   UNL A   1      44.517  26.881  31.988  1.00  0.00     0.167 HD
ATOM     67  C   UNL A   1      42.122  29.101  33.272  1.00  0.00     0.074 A 
ATOM     68  C   UNL A   1      40.824  28.878  33.890  1.00  0.00     0.031 C 
ATOM     69  C   UNL A   1      43.407  28.715  33.552  1.00  0.00     0.037 A 
BRANCH  56  70
ATOM     70  C   UNL A   1      47.571  26.867  29.309  1.00  0.00     0.058 A 
ATOM     71  C   UNL A   1      48.539  26.086  29.977  1.00  0.00     0.135 A 
ATOM     72  C   UNL A   1      48.038  27.422  28.095  1.00  0.00     0.135 A 
ATOM     73  F   UNL A   1      48.228  25.357  31.057  1.00  0.00    -0.206 F 
ATOM     74  C   UNL A   1      49.867  25.966  29.540  1.00  0.00     0.059 A 
ATOM     75  C   UNL A   1      49.374  27.397  27.685  1.00  0.00     0.059 A 
ATOM     76  F   UNL A   1      47.194  27.917  27.180  1.00  0.00    -0.206 F 
ATOM     77  C   UNL A   1      50.285  26.651  28.408  1.00  0.00     0.060 A 
BRANCH  77  78
ATOM     78  S   UNL A   1      51.978  26.459  27.818  1.00  0.00     0.124 S 
ATOM     79  O   UNL A   1      52.171  27.662  27.018  1.00  0.00    -0.237 OA
ATOM     80  O   UNL A   1      52.728  26.399  29.068  1.00  0.00    -0.237 OA
ATOM     81  O   UNL A   1      51.937  25.211  27.059  1.00  0.00    -0.744 OA
ENDBRANCH  77  78
ENDBRANCH  56  70
BRANCH  57  82
ATOM     82  C   UNL A   1      38.462  30.257  30.196  1.00  0.00     0.058 A 
ATOM     83  C   UNL A   1      37.655  29.521  31.098  1.00  0.00     0.135 A 
ATOM     84  C   UNL A   1      37.870  31.449  29.818  1.00  0.00     0.135 A 
ATOM     85  F   UNL A   1      37.750  28.186  31.127  1.00  0.00    -0.206 F 
ATOM     86  C   UNL A   1      36.858  30.148  32.068  1.00  0.00     0.059 A 
ATOM     87  C   UNL A   1      37.096  32.094  30.796  1.00  0.00     0.059 A 
ATOM     88  F   UNL A   1      38.419  32.182  28.832  1.00  0.00    -0.206 F 
ATOM     89  C   UNL A   1      36.772  31.520  32.012  1.00  0.00     0.060 A 
BRANCH  89  90
ATOM     90  S   UNL A   1      36.592  32.577  33.628  1.00  0.00     0.124 S 
ATOM     91  O   UNL A   1      37.319  33.757  33.239  1.00  0.00    -0.237 OA
ATOM     92  O   UNL A   1      35.160  32.822  33.773  1.00  0.00    -0.237 OA
ATOM     93  O   UNL A   1      37.187  31.828  34.711  1.00  0.00    -0.744 OA
ENDBRANCH  89  90
ENDBRANCH  57  82
BRANCH  69  94
ATOM     94  C   UNL A   1      43.849  28.063  34.840  1.00  0.00     0.058 A 
ATOM     95  C   UNL A   1      43.758  26.679  35.057  1.00  0.00     0.135 A 
ATOM     96  C   UNL A   1      44.237  28.827  35.969  1.00  0.00     0.135 A 
ATOM     97  F   UNL A   1      43.277  25.859  34.110  1.00  0.00    -0.206 F 
ATOM     98  C   UNL A   1      44.122  26.089  36.271  1.00  0.00     0.059 A 
ATOM     99  C   UNL A   1      44.558  28.267  37.197  1.00  0.00     0.059 A 
ATOM    100  F   UNL A   1      44.337  30.161  35.938  1.00  0.00    -0.206 F 
ATOM    101  C   UNL A   1      44.533  26.893  37.331  1.00  0.00     0.060 A 
BRANCH 101 102
ATOM    102  S   UNL A   1      45.019  26.141  38.889  1.00  0.00     0.124 S 
ATOM    103  O   UNL A   1      46.432  26.496  38.981  1.00  0.00    -0.237 OA
ATOM    104  O   UNL A   1      44.132  26.822  39.828  1.00  0.00    -0.237 OA
ATOM    105  O   UNL A   1      44.748  24.720  38.688  1.00  0.00    -0.744 OA
ENDBRANCH 101 102
ENDBRANCH  69  94
ENDBRANCH  43  44
ENDBRANCH  35  38
ENDBRANCH  33  34
ENDBRANCH   1  33
TORSDOF 16
ENDMDL
