MODEL 1
REMARK VINA RESULT:     -11.2      0.000      0.000
REMARK SMILES CC(C)(C[NH2+]CCc1cccnc1)C(=O)NCCCNC(=O)c1ccc(-c2c3nc(c(-c4c(F)cc(S(=O)(=O)[O-])cc4F)c4ccc([nH]4)c(-c4c(F)cc(S(=O)(=O)[O-])cc4F)c4nc(c(-c5c(F)cc(S(=O)(=O)[O-])cc5F)c5ccc2[nH]5)C=C4)C=C3)cc1
REMARK SMILES IDX 17 1 16 2 14 3 15 4 2 6 1 7 3 8 4 9 5 10 6 13 7 14 8 15 9 16
REMARK SMILES IDX 13 17 10 18 12 19 11 20 18 21 19 22 20 23 21 24 22 26 23 27
REMARK SMILES IDX 24 28 88 29 25 30 87 31 26 32 27 33 28 34 81 35 29 36 86 37
REMARK SMILES IDX 80 38 82 39 30 40 85 41 79 42 78 43 31 45 65 46 44 47 64 48
REMARK SMILES IDX 45 49 48 50 63 51 83 52 46 53 47 54 62 56 84 57 49 58 32 59
REMARK SMILES IDX 33 60 42 61 34 62 35 63 41 64 43 65 36 66 37 67 38 68 39 69
REMARK SMILES IDX 40 70 66 71 67 72 76 73 68 74 69 75 75 76 77 77 70 78 71 79
REMARK SMILES IDX 72 80 73 81 74 82 50 83 51 84 60 85 52 86 53 87 59 88 61 89
REMARK SMILES IDX 54 90 55 91 56 92 57 93 58 94
REMARK H PARENT 16 5 5 11 5 12 20 25 82 44 48 55
REMARK Flexibility Score: inf
ROOT
ATOM      1  C   UNL A   1      33.398  29.496  26.362  1.00  0.00     0.117 C 
ENDROOT
BRANCH   1   2
ATOM      2  N   UNL A   1      33.905  29.388  25.008  1.00  0.00    -0.355 N 
ATOM      3  C   UNL A   1      33.616  28.541  23.986  1.00  0.00     0.231 C 
ATOM      4  O   UNL A   1      34.275  28.706  22.952  1.00  0.00    -0.274 OA
ATOM      5  H   UNL A   1      34.592  30.058  24.787  1.00  0.00     0.163 HD
BRANCH   3   6
ATOM      6  C   UNL A   1      32.509  27.473  24.062  1.00  0.00     0.092 C 
ATOM      7  C   UNL A   1      32.860  26.502  25.224  1.00  0.00     0.027 C 
ATOM      8  C   UNL A   1      32.516  26.615  22.782  1.00  0.00     0.027 C 
BRANCH   6   9
ATOM      9  C   UNL A   1      31.097  28.064  24.322  1.00  0.00     0.276 C 
BRANCH   9  10
ATOM     10  N   UNL A   1      30.199  27.967  23.174  1.00  0.00    -0.345 N 
ATOM     11  H   UNL A   1      30.587  27.276  22.532  1.00  0.00     0.346 HD
ATOM     12  H   UNL A   1      30.142  28.910  22.788  1.00  0.00     0.346 HD
BRANCH  10  13
ATOM     13  C   UNL A   1      28.817  27.579  23.467  1.00  0.00     0.265 C 
BRANCH  13  14
ATOM     14  C   UNL A   1      27.650  28.498  23.048  1.00  0.00     0.098 C 
BRANCH  14  15
ATOM     15  C   UNL A   1      27.907  29.940  22.681  1.00  0.00    -0.024 A 
ATOM     16  C   UNL A   1      27.849  31.018  23.564  1.00  0.00     0.007 A 
ATOM     17  C   UNL A   1      28.150  30.255  21.343  1.00  0.00     0.114 A 
ATOM     18  C   UNL A   1      28.022  32.321  23.103  1.00  0.00     0.020 A 
ATOM     19  N   UNL A   1      28.329  31.509  20.861  1.00  0.00    -0.264 NA
ATOM     20  C   UNL A   1      28.258  32.514  21.755  1.00  0.00     0.111 A 
ENDBRANCH  14  15
ENDBRANCH  13  14
ENDBRANCH  10  13
ENDBRANCH   9  10
ENDBRANCH   6   9
ENDBRANCH   3   6
ENDBRANCH   1   2
BRANCH   1  21
ATOM     21  C   UNL A   1      34.458  29.191  27.413  1.00  0.00     0.042 C 
BRANCH  21  22
ATOM     22  C   UNL A   1      35.392  30.357  27.712  1.00  0.00     0.118 C 
BRANCH  22  23
ATOM     23  N   UNL A   1      35.413  30.707  29.128  1.00  0.00    -0.352 N 
ATOM     24  C   UNL A   1      36.355  30.461  30.095  1.00  0.00     0.251 C 
ATOM     25  H   UNL A   1      34.622  31.202  29.440  1.00  0.00     0.163 HD
ATOM     26  O   UNL A   1      36.067  30.652  31.274  1.00  0.00    -0.269 OA
BRANCH  24  27
ATOM     27  C   UNL A   1      37.699  29.959  29.734  1.00  0.00     0.039 A 
ATOM     28  C   UNL A   1      38.084  29.962  28.389  1.00  0.00     0.014 A 
ATOM     29  C   UNL A   1      38.566  29.448  30.704  1.00  0.00     0.014 A 
ATOM     30  C   UNL A   1      39.357  29.514  28.030  1.00  0.00     0.010 A 
ATOM     31  C   UNL A   1      39.862  29.082  30.355  1.00  0.00     0.010 A 
ATOM     32  C   UNL A   1      40.270  29.103  29.014  1.00  0.00    -0.014 A 
BRANCH  32  33
ATOM     33  C   UNL A   1      41.652  28.692  28.662  1.00  0.00     0.031 A 
ATOM     34  C   UNL A   1      42.759  29.711  28.610  1.00  0.00     0.074 A 
ATOM     35  C   UNL A   1      41.895  27.413  28.310  1.00  0.00     0.049 A 
ATOM     36  N   UNL A   1      44.008  29.556  28.254  1.00  0.00    -0.248 NA
ATOM     37  C   UNL A   1      42.406  31.092  28.973  1.00  0.00     0.031 C 
ATOM     38  C   UNL A   1      40.892  26.347  28.259  1.00  0.00     0.029 A 
ATOM     39  N   UNL A   1      43.055  26.797  27.913  1.00  0.00    -0.354 N 
ATOM     40  C   UNL A   1      44.583  30.820  28.328  1.00  0.00     0.074 A 
ATOM     41  C   UNL A   1      43.532  31.738  28.713  1.00  0.00     0.031 C 
ATOM     42  C   UNL A   1      41.484  25.207  27.871  1.00  0.00     0.029 A 
ATOM     43  C   UNL A   1      42.897  25.466  27.611  1.00  0.00     0.049 A 
ATOM     44  H   UNL A   1      43.920  27.265  27.850  1.00  0.00     0.167 HD
ATOM     45  C   UNL A   1      45.872  31.181  28.114  1.00  0.00     0.037 A 
ATOM     46  C   UNL A   1      43.786  24.556  27.168  1.00  0.00     0.037 A 
ATOM     47  C   UNL A   1      46.917  30.255  27.759  1.00  0.00     0.049 A 
ATOM     48  C   UNL A   1      45.217  24.968  26.966  1.00  0.00     0.074 A 
ATOM     49  C   UNL A   1      48.268  30.502  27.601  1.00  0.00     0.029 A 
ATOM     50  N   UNL A   1      46.725  28.905  27.500  1.00  0.00    -0.354 N 
ATOM     51  N   UNL A   1      45.761  26.152  27.120  1.00  0.00    -0.248 NA
ATOM     52  C   UNL A   1      46.156  23.923  26.541  1.00  0.00     0.031 C 
ATOM     53  C   UNL A   1      48.887  29.312  27.201  1.00  0.00     0.029 A 
ATOM     54  C   UNL A   1      47.929  28.311  27.159  1.00  0.00     0.049 A 
ATOM     55  H   UNL A   1      45.860  28.438  27.552  1.00  0.00     0.167 HD
ATOM     56  C   UNL A   1      47.112  25.990  26.828  1.00  0.00     0.074 A 
ATOM     57  C   UNL A   1      47.302  24.591  26.503  1.00  0.00     0.031 C 
ATOM     58  C   UNL A   1      48.102  26.917  26.831  1.00  0.00     0.037 A 
BRANCH  45  59
ATOM     59  C   UNL A   1      46.216  32.639  28.254  1.00  0.00     0.058 A 
ATOM     60  C   UNL A   1      46.625  33.190  29.480  1.00  0.00     0.135 A 
ATOM     61  C   UNL A   1      46.138  33.500  27.147  1.00  0.00     0.135 A 
ATOM     62  F   UNL A   1      46.705  32.416  30.576  1.00  0.00    -0.206 F 
ATOM     63  C   UNL A   1      46.898  34.547  29.616  1.00  0.00     0.059 A 
ATOM     64  C   UNL A   1      46.436  34.855  27.252  1.00  0.00     0.059 A 
ATOM     65  F   UNL A   1      45.757  33.028  25.949  1.00  0.00    -0.206 F 
ATOM     66  C   UNL A   1      46.794  35.374  28.496  1.00  0.00     0.060 A 
BRANCH  66  67
ATOM     67  S   UNL A   1      47.125  37.138  28.692  1.00  0.00     0.124 S 
ATOM     68  O   UNL A   1      47.988  37.400  27.545  1.00  0.00    -0.237 OA
ATOM     69  O   UNL A   1      45.787  37.718  28.623  1.00  0.00    -0.237 OA
ATOM     70  O   UNL A   1      47.773  37.219  29.997  1.00  0.00    -0.744 OA
ENDBRANCH  66  67
ENDBRANCH  45  59
BRANCH  46  71
ATOM     71  C   UNL A   1      43.339  23.161  26.919  1.00  0.00     0.058 A 
ATOM     72  C   UNL A   1      43.234  22.661  25.612  1.00  0.00     0.135 A 
ATOM     73  C   UNL A   1      43.070  22.282  27.979  1.00  0.00     0.135 A 
ATOM     74  F   UNL A   1      43.477  23.463  24.565  1.00  0.00    -0.206 F 
ATOM     75  C   UNL A   1      42.879  21.339  25.365  1.00  0.00     0.059 A 
ATOM     76  C   UNL A   1      42.735  20.950  27.759  1.00  0.00     0.059 A 
ATOM     77  F   UNL A   1      43.175  22.709  29.248  1.00  0.00    -0.206 F 
ATOM     78  C   UNL A   1      42.640  20.488  26.447  1.00  0.00     0.060 A 
BRANCH  78  79
ATOM     79  S   UNL A   1      42.270  18.751  26.117  1.00  0.00     0.124 S 
ATOM     80  O   UNL A   1      42.487  18.150  27.427  1.00  0.00    -0.237 OA
ATOM     81  O   UNL A   1      40.885  18.813  25.662  1.00  0.00    -0.237 OA
ATOM     82  O   UNL A   1      43.243  18.392  25.087  1.00  0.00    -0.744 OA
ENDBRANCH  78  79
ENDBRANCH  46  71
BRANCH  58  83
ATOM     83  C   UNL A   1      49.488  26.445  26.492  1.00  0.00     0.058 A 
ATOM     84  C   UNL A   1      49.994  26.524  25.185  1.00  0.00     0.135 A 
ATOM     85  C   UNL A   1      50.339  25.954  27.496  1.00  0.00     0.135 A 
ATOM     86  F   UNL A   1      49.220  26.979  24.187  1.00  0.00    -0.206 F 
ATOM     87  C   UNL A   1      51.287  26.110  24.880  1.00  0.00     0.059 A 
ATOM     88  C   UNL A   1      51.644  25.560  27.219  1.00  0.00     0.059 A 
ATOM     89  F   UNL A   1      49.908  25.868  28.764  1.00  0.00    -0.206 F 
ATOM     90  C   UNL A   1      52.105  25.631  25.906  1.00  0.00     0.060 A 
BRANCH  90  91
ATOM     91  S   UNL A   1      53.792  25.126  25.503  1.00  0.00     0.124 S 
ATOM     92  O   UNL A   1      53.980  25.748  24.197  1.00  0.00    -0.237 OA
ATOM     93  O   UNL A   1      54.562  25.705  26.599  1.00  0.00    -0.237 OA
ATOM     94  O   UNL A   1      53.717  23.668  25.500  1.00  0.00    -0.744 OA
ENDBRANCH  90  91
ENDBRANCH  58  83
ENDBRANCH  32  33
ENDBRANCH  24  27
ENDBRANCH  22  23
ENDBRANCH  21  22
ENDBRANCH   1  21
TORSDOF 18
ENDMDL
MODEL 2
REMARK VINA RESULT:     -11.1      1.756      3.855
REMARK SMILES CC(C)(C[NH2+]CCc1cccnc1)C(=O)NCCCNC(=O)c1ccc(-c2c3nc(c(-c4c(F)cc(S(=O)(=O)[O-])cc4F)c4ccc([nH]4)c(-c4c(F)cc(S(=O)(=O)[O-])cc4F)c4nc(c(-c5c(F)cc(S(=O)(=O)[O-])cc5F)c5ccc2[nH]5)C=C4)C=C3)cc1
REMARK SMILES IDX 17 1 16 2 14 3 15 4 2 6 1 7 3 8 4 9 5 10 6 13 7 14 8 15 9 16
REMARK SMILES IDX 13 17 10 18 12 19 11 20 18 21 19 22 20 23 21 24 22 26 23 27
REMARK SMILES IDX 24 28 88 29 25 30 87 31 26 32 27 33 28 34 81 35 29 36 86 37
REMARK SMILES IDX 80 38 82 39 30 40 85 41 79 42 78 43 31 45 65 46 44 47 64 48
REMARK SMILES IDX 45 49 48 50 63 51 83 52 46 53 47 54 62 56 84 57 49 58 32 59
REMARK SMILES IDX 33 60 42 61 34 62 35 63 41 64 43 65 36 66 37 67 38 68 39 69
REMARK SMILES IDX 40 70 66 71 67 72 76 73 68 74 69 75 75 76 77 77 70 78 71 79
REMARK SMILES IDX 72 80 73 81 74 82 50 83 51 84 60 85 52 86 53 87 59 88 61 89
REMARK SMILES IDX 54 90 55 91 56 92 57 93 58 94
REMARK H PARENT 16 5 5 11 5 12 20 25 82 44 48 55
REMARK Flexibility Score: inf
ROOT
ATOM      1  C   UNL A   1      32.808  30.266  27.185  1.00  0.00     0.117 C 
ENDROOT
BRANCH   1   2
ATOM      2  N   UNL A   1      32.216  28.969  27.447  1.00  0.00    -0.355 N 
ATOM      3  C   UNL A   1      31.639  28.043  26.636  1.00  0.00     0.231 C 
ATOM      4  O   UNL A   1      31.193  27.038  27.203  1.00  0.00    -0.274 OA
ATOM      5  H   UNL A   1      32.234  28.708  28.396  1.00  0.00     0.163 HD
BRANCH   3   6
ATOM      6  C   UNL A   1      31.581  28.184  25.103  1.00  0.00     0.092 C 
ATOM      7  C   UNL A   1      31.143  29.637  24.772  1.00  0.00     0.027 C 
ATOM      8  C   UNL A   1      30.477  27.273  24.532  1.00  0.00     0.027 C 
BRANCH   6   9
ATOM      9  C   UNL A   1      32.940  27.906  24.405  1.00  0.00     0.276 C 
BRANCH   9  10
ATOM     10  N   UNL A   1      33.792  26.966  25.129  1.00  0.00    -0.345 N 
ATOM     11  H   UNL A   1      33.506  26.976  26.108  1.00  0.00     0.346 HD
ATOM     12  H   UNL A   1      34.748  27.283  24.970  1.00  0.00     0.346 HD
BRANCH  10  13
ATOM     13  C   UNL A   1      33.756  25.577  24.666  1.00  0.00     0.265 C 
BRANCH  13  14
ATOM     14  C   UNL A   1      34.226  24.439  25.598  1.00  0.00     0.098 C 
BRANCH  14  15
ATOM     15  C   UNL A   1      35.293  23.471  25.144  1.00  0.00    -0.024 A 
ATOM     16  C   UNL A   1      35.930  23.500  23.904  1.00  0.00     0.007 A 
ATOM     17  C   UNL A   1      35.634  22.410  25.985  1.00  0.00     0.114 A 
ATOM     18  C   UNL A   1      36.843  22.507  23.554  1.00  0.00     0.020 A 
ATOM     19  N   UNL A   1      36.521  21.432  25.679  1.00  0.00    -0.264 NA
ATOM     20  C   UNL A   1      37.104  21.503  24.468  1.00  0.00     0.111 A 
ENDBRANCH  14  15
ENDBRANCH  13  14
ENDBRANCH  10  13
ENDBRANCH   9  10
ENDBRANCH   6   9
ENDBRANCH   3   6
ENDBRANCH   1   2
BRANCH   1  21
ATOM     21  C   UNL A   1      34.296  30.180  26.873  1.00  0.00     0.042 C 
BRANCH  21  22
ATOM     22  C   UNL A   1      35.127  29.527  27.972  1.00  0.00     0.118 C 
BRANCH  22  23
ATOM     23  N   UNL A   1      35.260  30.376  29.150  1.00  0.00    -0.352 N 
ATOM     24  C   UNL A   1      36.326  30.575  29.992  1.00  0.00     0.251 C 
ATOM     25  H   UNL A   1      34.454  30.892  29.378  1.00  0.00     0.163 HD
ATOM     26  O   UNL A   1      36.149  31.167  31.053  1.00  0.00    -0.269 OA
BRANCH  24  27
ATOM     27  C   UNL A   1      37.674  30.076  29.639  1.00  0.00     0.039 A 
ATOM     28  C   UNL A   1      38.070  30.087  28.298  1.00  0.00     0.014 A 
ATOM     29  C   UNL A   1      38.531  29.559  30.614  1.00  0.00     0.014 A 
ATOM     30  C   UNL A   1      39.347  29.642  27.947  1.00  0.00     0.010 A 
ATOM     31  C   UNL A   1      39.831  29.195  30.274  1.00  0.00     0.010 A 
ATOM     32  C   UNL A   1      40.251  29.225  28.937  1.00  0.00    -0.014 A 
BRANCH  32  33
ATOM     33  C   UNL A   1      41.636  28.815  28.595  1.00  0.00     0.031 A 
ATOM     34  C   UNL A   1      42.741  29.837  28.545  1.00  0.00     0.074 A 
ATOM     35  C   UNL A   1      41.884  27.536  28.250  1.00  0.00     0.049 A 
ATOM     36  N   UNL A   1      43.992  29.685  28.197  1.00  0.00    -0.248 NA
ATOM     37  C   UNL A   1      42.381  31.219  28.900  1.00  0.00     0.031 C 
ATOM     38  C   UNL A   1      40.885  26.467  28.197  1.00  0.00     0.029 A 
ATOM     39  N   UNL A   1      43.048  26.921  27.863  1.00  0.00    -0.354 N 
ATOM     40  C   UNL A   1      44.563  30.950  28.269  1.00  0.00     0.074 A 
ATOM     41  C   UNL A   1      43.508  31.866  28.644  1.00  0.00     0.031 C 
ATOM     42  C   UNL A   1      41.482  25.326  27.818  1.00  0.00     0.029 A 
ATOM     43  C   UNL A   1      42.896  25.588  27.565  1.00  0.00     0.049 A 
ATOM     44  H   UNL A   1      43.912  27.391  27.803  1.00  0.00     0.167 HD
ATOM     45  C   UNL A   1      45.852  31.313  28.061  1.00  0.00     0.037 A 
ATOM     46  C   UNL A   1      43.790  24.679  27.131  1.00  0.00     0.037 A 
ATOM     47  C   UNL A   1      46.902  30.389  27.716  1.00  0.00     0.049 A 
ATOM     48  C   UNL A   1      45.221  25.094  26.936  1.00  0.00     0.074 A 
ATOM     49  C   UNL A   1      48.254  30.639  27.565  1.00  0.00     0.029 A 
ATOM     50  N   UNL A   1      46.715  29.037  27.462  1.00  0.00    -0.354 N 
ATOM     51  N   UNL A   1      45.761  26.280  27.088  1.00  0.00    -0.248 NA
ATOM     52  C   UNL A   1      46.165  24.049  26.521  1.00  0.00     0.031 C 
ATOM     53  C   UNL A   1      48.878  29.448  27.174  1.00  0.00     0.029 A 
ATOM     54  C   UNL A   1      47.923  28.445  27.131  1.00  0.00     0.049 A 
ATOM     55  H   UNL A   1      45.851  28.568  27.511  1.00  0.00     0.167 HD
ATOM     56  C   UNL A   1      47.113  26.121  26.805  1.00  0.00     0.074 A 
ATOM     57  C   UNL A   1      47.309  24.720  26.486  1.00  0.00     0.031 C 
ATOM     58  C   UNL A   1      48.102  27.050  26.810  1.00  0.00     0.037 A 
BRANCH  45  59
ATOM     59  C   UNL A   1      46.192  32.773  28.197  1.00  0.00     0.058 A 
ATOM     60  C   UNL A   1      46.110  33.657  27.108  1.00  0.00     0.135 A 
ATOM     61  C   UNL A   1      46.602  33.298  29.434  1.00  0.00     0.135 A 
ATOM     62  F   UNL A   1      45.736  33.208  25.899  1.00  0.00    -0.206 F 
ATOM     63  C   UNL A   1      46.469  34.996  27.227  1.00  0.00     0.059 A 
ATOM     64  C   UNL A   1      46.936  34.641  29.584  1.00  0.00     0.059 A 
ATOM     65  F   UNL A   1      46.693  32.501  30.510  1.00  0.00    -0.206 F 
ATOM     66  C   UNL A   1      46.887  35.478  28.469  1.00  0.00     0.060 A 
BRANCH  66  67
ATOM     67  S   UNL A   1      47.376  37.210  28.603  1.00  0.00     0.124 S 
ATOM     68  O   UNL A   1      47.522  37.579  27.199  1.00  0.00    -0.237 OA
ATOM     69  O   UNL A   1      46.238  37.804  29.299  1.00  0.00    -0.237 OA
ATOM     70  O   UNL A   1      48.616  37.155  29.370  1.00  0.00    -0.744 OA
ENDBRANCH  66  67
ENDBRANCH  45  59
BRANCH  46  71
ATOM     71  C   UNL A   1      43.348  23.281  26.885  1.00  0.00     0.058 A 
ATOM     72  C   UNL A   1      43.260  22.773  25.581  1.00  0.00     0.135 A 
ATOM     73  C   UNL A   1      43.066  22.409  27.948  1.00  0.00     0.135 A 
ATOM     74  F   UNL A   1      43.515  23.569  24.532  1.00  0.00    -0.206 F 
ATOM     75  C   UNL A   1      42.910  21.449  25.338  1.00  0.00     0.059 A 
ATOM     76  C   UNL A   1      42.736  21.076  27.732  1.00  0.00     0.059 A 
ATOM     77  F   UNL A   1      43.155  22.844  29.215  1.00  0.00    -0.206 F 
ATOM     78  C   UNL A   1      42.659  20.605  26.422  1.00  0.00     0.060 A 
BRANCH  78  79
ATOM     79  S   UNL A   1      42.296  18.865  26.098  1.00  0.00     0.124 S 
ATOM     80  O   UNL A   1      40.889  18.924  25.717  1.00  0.00    -0.237 OA
ATOM     81  O   UNL A   1      43.236  18.550  25.027  1.00  0.00    -0.237 OA
ATOM     82  O   UNL A   1      42.578  18.221  27.378  1.00  0.00    -0.744 OA
ENDBRANCH  78  79
ENDBRANCH  46  71
BRANCH  58  83
ATOM     83  C   UNL A   1      49.491  26.580  26.480  1.00  0.00     0.058 A 
ATOM     84  C   UNL A   1      50.306  25.960  27.440  1.00  0.00     0.135 A 
ATOM     85  C   UNL A   1      49.994  26.707  25.175  1.00  0.00     0.135 A 
ATOM     86  F   UNL A   1      49.875  25.820  28.704  1.00  0.00    -0.206 F 
ATOM     87  C   UNL A   1      51.582  25.503  27.124  1.00  0.00     0.059 A 
ATOM     88  C   UNL A   1      51.255  26.233  24.830  1.00  0.00     0.059 A 
ATOM     89  F   UNL A   1      49.251  27.283  24.217  1.00  0.00    -0.206 F 
ATOM     90  C   UNL A   1      52.047  25.643  25.815  1.00  0.00     0.060 A 
BRANCH  90  91
ATOM     91  S   UNL A   1      53.692  25.018  25.409  1.00  0.00     0.124 S 
ATOM     92  O   UNL A   1      53.459  23.578  25.380  1.00  0.00    -0.237 OA
ATOM     93  O   UNL A   1      53.956  25.645  24.117  1.00  0.00    -0.237 OA
ATOM     94  O   UNL A   1      54.518  25.499  26.513  1.00  0.00    -0.744 OA
ENDBRANCH  90  91
ENDBRANCH  58  83
ENDBRANCH  32  33
ENDBRANCH  24  27
ENDBRANCH  22  23
ENDBRANCH  21  22
ENDBRANCH   1  21
TORSDOF 18
ENDMDL
MODEL 3
REMARK VINA RESULT:     -11.0      3.793      5.385
REMARK SMILES CC(C)(C[NH2+]CCc1cccnc1)C(=O)NCCCNC(=O)c1ccc(-c2c3nc(c(-c4c(F)cc(S(=O)(=O)[O-])cc4F)c4ccc([nH]4)c(-c4c(F)cc(S(=O)(=O)[O-])cc4F)c4nc(c(-c5c(F)cc(S(=O)(=O)[O-])cc5F)c5ccc2[nH]5)C=C4)C=C3)cc1
REMARK SMILES IDX 17 1 16 2 14 3 15 4 2 6 1 7 3 8 4 9 5 10 6 13 7 14 8 15 9 16
REMARK SMILES IDX 13 17 10 18 12 19 11 20 18 21 19 22 20 23 21 24 22 26 23 27
REMARK SMILES IDX 24 28 88 29 25 30 87 31 26 32 27 33 28 34 81 35 29 36 86 37
REMARK SMILES IDX 80 38 82 39 30 40 85 41 79 42 78 43 31 45 65 46 44 47 64 48
REMARK SMILES IDX 45 49 48 50 63 51 83 52 46 53 47 54 62 56 84 57 49 58 32 59
REMARK SMILES IDX 33 60 42 61 34 62 35 63 41 64 43 65 36 66 37 67 38 68 39 69
REMARK SMILES IDX 40 70 66 71 67 72 76 73 68 74 69 75 75 76 77 77 70 78 71 79
REMARK SMILES IDX 72 80 73 81 74 82 50 83 51 84 60 85 52 86 53 87 59 88 61 89
REMARK SMILES IDX 54 90 55 91 56 92 57 93 58 94
REMARK H PARENT 16 5 5 11 5 12 20 25 82 44 48 55
REMARK Flexibility Score: inf
ROOT
ATOM      1  C   UNL A   1      33.239  26.856  25.060  1.00  0.00     0.117 C 
ENDROOT
BRANCH   1   2
ATOM      2  N   UNL A   1      33.562  26.671  23.659  1.00  0.00    -0.355 N 
ATOM      3  C   UNL A   1      33.447  25.606  22.824  1.00  0.00     0.231 C 
ATOM      4  O   UNL A   1      33.861  25.781  21.672  1.00  0.00    -0.274 OA
ATOM      5  H   UNL A   1      33.939  27.473  23.229  1.00  0.00     0.163 HD
BRANCH   3   6
ATOM      6  C   UNL A   1      32.798  24.272  23.242  1.00  0.00     0.092 C 
ATOM      7  C   UNL A   1      33.144  23.212  22.160  1.00  0.00     0.027 C 
ATOM      8  C   UNL A   1      31.263  24.405  23.224  1.00  0.00     0.027 C 
BRANCH   6   9
ATOM      9  C   UNL A   1      33.291  23.751  24.620  1.00  0.00     0.276 C 
BRANCH   9  10
ATOM     10  N   UNL A   1      32.245  23.109  25.413  1.00  0.00    -0.345 N 
ATOM     11  H   UNL A   1      31.352  23.288  24.955  1.00  0.00     0.346 HD
ATOM     12  H   UNL A   1      32.323  23.510  26.347  1.00  0.00     0.346 HD
BRANCH  10  13
ATOM     13  C   UNL A   1      32.372  21.661  25.595  1.00  0.00     0.265 C 
BRANCH  13  14
ATOM     14  C   UNL A   1      33.626  20.923  25.078  1.00  0.00     0.098 C 
BRANCH  14  15
ATOM     15  C   UNL A   1      33.488  19.635  24.302  1.00  0.00    -0.024 A 
ATOM     16  C   UNL A   1      32.482  19.356  23.378  1.00  0.00     0.007 A 
ATOM     17  C   UNL A   1      34.384  18.597  24.567  1.00  0.00     0.114 A 
ATOM     18  C   UNL A   1      32.400  18.100  22.779  1.00  0.00     0.020 A 
ATOM     19  N   UNL A   1      34.337  17.368  23.998  1.00  0.00    -0.264 NA
ATOM     20  C   UNL A   1      33.342  17.148  23.117  1.00  0.00     0.111 A 
ENDBRANCH  14  15
ENDBRANCH  13  14
ENDBRANCH  10  13
ENDBRANCH   9  10
ENDBRANCH   6   9
ENDBRANCH   3   6
ENDBRANCH   1   2
BRANCH   1  21
ATOM     21  C   UNL A   1      33.951  28.054  25.675  1.00  0.00     0.042 C 
BRANCH  21  22
ATOM     22  C   UNL A   1      33.567  28.331  27.124  1.00  0.00     0.118 C 
BRANCH  22  23
ATOM     23  N   UNL A   1      33.491  29.757  27.418  1.00  0.00    -0.352 N 
ATOM     24  C   UNL A   1      34.383  30.587  28.052  1.00  0.00     0.251 C 
ATOM     25  H   UNL A   1      32.666  30.197  27.112  1.00  0.00     0.163 HD
ATOM     26  O   UNL A   1      34.019  31.710  28.389  1.00  0.00    -0.269 OA
BRANCH  24  27
ATOM     27  C   UNL A   1      35.763  30.138  28.340  1.00  0.00     0.039 A 
ATOM     28  C   UNL A   1      36.716  30.184  27.318  1.00  0.00     0.014 A 
ATOM     29  C   UNL A   1      36.113  29.635  29.595  1.00  0.00     0.014 A 
ATOM     30  C   UNL A   1      38.031  29.787  27.575  1.00  0.00     0.010 A 
ATOM     31  C   UNL A   1      37.439  29.320  29.873  1.00  0.00     0.010 A 
ATOM     32  C   UNL A   1      38.411  29.385  28.865  1.00  0.00    -0.014 A 
BRANCH  32  33
ATOM     33  C   UNL A   1      39.818  29.027  29.179  1.00  0.00     0.031 A 
ATOM     34  C   UNL A   1      40.740  30.042  29.799  1.00  0.00     0.074 A 
ATOM     35  C   UNL A   1      40.287  27.813  28.831  1.00  0.00     0.049 A 
ATOM     36  N   UNL A   1      42.014  29.940  30.078  1.00  0.00    -0.248 NA
ATOM     37  C   UNL A   1      40.161  31.357  30.116  1.00  0.00     0.031 C 
ATOM     38  C   UNL A   1      39.509  26.765  28.167  1.00  0.00     0.029 A 
ATOM     39  N   UNL A   1      41.535  27.259  28.973  1.00  0.00    -0.354 N 
ATOM     40  C   UNL A   1      42.393  31.180  30.580  1.00  0.00     0.074 A 
ATOM     41  C   UNL A   1      41.226  32.033  30.519  1.00  0.00     0.031 C 
ATOM     42  C   UNL A   1      40.291  25.692  27.974  1.00  0.00     0.029 A 
ATOM     43  C   UNL A   1      41.634  25.985  28.467  1.00  0.00     0.049 A 
ATOM     44  H   UNL A   1      42.289  27.731  29.397  1.00  0.00     0.167 HD
ATOM     45  C   UNL A   1      43.598  31.566  31.066  1.00  0.00     0.037 A 
ATOM     46  C   UNL A   1      42.687  25.148  28.401  1.00  0.00     0.037 A 
ATOM     47  C   UNL A   1      44.747  30.701  31.148  1.00  0.00     0.049 A 
ATOM     48  C   UNL A   1      44.007  25.584  28.972  1.00  0.00     0.074 A 
ATOM     49  C   UNL A   1      45.987  30.968  31.698  1.00  0.00     0.029 A 
ATOM     50  N   UNL A   1      44.796  29.402  30.661  1.00  0.00    -0.354 N 
ATOM     51  N   UNL A   1      44.327  26.733  29.518  1.00  0.00    -0.248 NA
ATOM     52  C   UNL A   1      45.104  24.610  28.928  1.00  0.00     0.031 C 
ATOM     53  C   UNL A   1      46.802  29.846  31.503  1.00  0.00     0.029 A 
ATOM     54  C   UNL A   1      46.054  28.862  30.876  1.00  0.00     0.049 A 
ATOM     55  H   UNL A   1      44.047  28.933  30.227  1.00  0.00     0.167 HD
ATOM     56  C   UNL A   1      45.659  26.614  29.900  1.00  0.00     0.074 A 
ATOM     57  C   UNL A   1      46.078  25.276  29.535  1.00  0.00     0.031 C 
ATOM     58  C   UNL A   1      46.460  27.530  30.500  1.00  0.00     0.037 A 
BRANCH  45  59
ATOM     59  C   UNL A   1      43.731  32.989  31.537  1.00  0.00     0.058 A 
ATOM     60  C   UNL A   1      43.427  33.364  32.857  1.00  0.00     0.135 A 
ATOM     61  C   UNL A   1      44.170  33.994  30.659  1.00  0.00     0.135 A 
ATOM     62  F   UNL A   1      42.991  32.448  33.736  1.00  0.00    -0.206 F 
ATOM     63  C   UNL A   1      43.507  34.688  33.276  1.00  0.00     0.059 A 
ATOM     64  C   UNL A   1      44.288  35.320  31.065  1.00  0.00     0.059 A 
ATOM     65  F   UNL A   1      44.479  33.693  29.388  1.00  0.00    -0.206 F 
ATOM     66  C   UNL A   1      43.933  35.661  32.370  1.00  0.00     0.060 A 
BRANCH  66  67
ATOM     67  S   UNL A   1      44.006  37.379  32.920  1.00  0.00     0.124 S 
ATOM     68  O   UNL A   1      45.321  37.425  33.551  1.00  0.00    -0.237 OA
ATOM     69  O   UNL A   1      43.880  38.116  31.666  1.00  0.00    -0.237 OA
ATOM     70  O   UNL A   1      42.869  37.495  33.827  1.00  0.00    -0.744 OA
ENDBRANCH  66  67
ENDBRANCH  45  59
BRANCH  46  71
ATOM     71  C   UNL A   1      42.513  23.803  27.792  1.00  0.00     0.058 A 
ATOM     72  C   UNL A   1      42.544  23.633  26.401  1.00  0.00     0.135 A 
ATOM     73  C   UNL A   1      42.374  22.656  28.589  1.00  0.00     0.135 A 
ATOM     74  F   UNL A   1      42.670  24.699  25.597  1.00  0.00    -0.206 F 
ATOM     75  C   UNL A   1      42.446  22.373  25.819  1.00  0.00     0.059 A 
ATOM     76  C   UNL A   1      42.297  21.384  28.033  1.00  0.00     0.059 A 
ATOM     77  F   UNL A   1      42.357  22.766  29.927  1.00  0.00    -0.206 F 
ATOM     78  C   UNL A   1      42.332  21.252  26.645  1.00  0.00     0.060 A 
BRANCH  78  79
ATOM     79  S   UNL A   1      42.299  19.615  25.883  1.00  0.00     0.124 S 
ATOM     80  O   UNL A   1      40.904  19.511  25.469  1.00  0.00    -0.237 OA
ATOM     81  O   UNL A   1      43.276  19.757  24.809  1.00  0.00    -0.237 OA
ATOM     82  O   UNL A   1      42.703  18.731  26.973  1.00  0.00    -0.744 OA
ENDBRANCH  78  79
ENDBRANCH  46  71
BRANCH  58  83
ATOM     83  C   UNL A   1      47.867  27.111  30.819  1.00  0.00     0.058 A 
ATOM     84  C   UNL A   1      48.206  26.551  32.061  1.00  0.00     0.135 A 
ATOM     85  C   UNL A   1      48.881  27.225  29.853  1.00  0.00     0.135 A 
ATOM     86  F   UNL A   1      47.277  26.426  33.022  1.00  0.00    -0.206 F 
ATOM     87  C   UNL A   1      49.505  26.140  32.342  1.00  0.00     0.059 A 
ATOM     88  C   UNL A   1      50.179  26.796  30.103  1.00  0.00     0.059 A 
ATOM     89  F   UNL A   1      48.607  27.744  28.646  1.00  0.00    -0.206 F 
ATOM     90  C   UNL A   1      50.485  26.266  31.355  1.00  0.00     0.060 A 
BRANCH  90  91
ATOM     91  S   UNL A   1      52.161  25.701  31.722  1.00  0.00     0.124 S 
ATOM     92  O   UNL A   1      52.853  26.006  30.474  1.00  0.00    -0.237 OA
ATOM     93  O   UNL A   1      52.527  26.526  32.868  1.00  0.00    -0.237 OA
ATOM     94  O   UNL A   1      51.983  24.280  32.010  1.00  0.00    -0.744 OA
ENDBRANCH  90  91
ENDBRANCH  58  83
ENDBRANCH  32  33
ENDBRANCH  24  27
ENDBRANCH  22  23
ENDBRANCH  21  22
ENDBRANCH   1  21
TORSDOF 18
ENDMDL
