MODEL 1
REMARK VINA RESULT:     -13.3      0.000      0.000
REMARK SMILES O=C(NCCCNC(=O)[C@@H]1CN(C(=O)C[NH+]2CCOCC2)C[C@H]1c1ccc2c(c1)OCO2)c1ccc(-c2c3nc(c(-c4c(F)cc(S(=O)(=O)[O-])cc4F)c4ccc([nH]4)c(-c4c(F)cc(S(=O)(=O)[O-])cc4F)c4nc(c(-c5c(F)cc(S(=O)(=O)[O-])cc5F)c5ccc2[nH]5)C=C4)C=C3)cc1
REMARK SMILES IDX 5 1 4 2 3 3 1 4 2 5 33 7 34 8 98 9 35 10 97 11 36 12 37 13
REMARK SMILES IDX 38 14 91 15 39 16 96 17 90 18 92 19 40 20 95 21 89 22 88 23
REMARK SMILES IDX 41 25 75 26 54 27 74 28 55 29 58 30 73 31 93 32 56 33 57 34
REMARK SMILES IDX 72 36 94 37 59 38 42 39 43 40 52 41 44 42 45 43 51 44 53 45
REMARK SMILES IDX 46 46 47 47 48 48 49 49 50 50 76 51 77 52 86 53 78 54 79 55
REMARK SMILES IDX 85 56 87 57 80 58 81 59 82 60 83 61 84 62 60 63 61 64 70 65
REMARK SMILES IDX 62 66 63 67 69 68 71 69 64 70 65 71 66 72 67 73 68 74 6 75
REMARK SMILES IDX 7 76 8 77 9 79 10 80 11 81 23 82 12 83 22 84 24 85 25 86
REMARK SMILES IDX 29 87 26 88 28 89 27 90 30 91 32 92 31 93 13 94 14 95 15 96
REMARK SMILES IDX 16 97 17 98 21 99 18 101 20 102 19 103
REMARK H PARENT 3 6 92 24 58 35 7 78 16 100
REMARK Flexibility Score: inf
ROOT
ATOM      1  C   UNL A   1      39.281  22.046  26.384  1.00  0.00     0.042 C 
ENDROOT
BRANCH   1   2
ATOM      2  C   UNL A   1      39.644  23.465  26.805  1.00  0.00     0.118 C 
BRANCH   2   3
ATOM      3  N   UNL A   1      40.823  23.966  26.107  1.00  0.00    -0.352 N 
ATOM      4  O   UNL A   1      42.261  25.514  25.331  1.00  0.00    -0.269 OA
ATOM      5  C   UNL A   1      41.447  25.190  26.184  1.00  0.00     0.251 C 
ATOM      6  H   UNL A   1      41.236  23.328  25.481  1.00  0.00     0.163 HD
BRANCH   5   7
ATOM      7  C   UNL A   1      41.111  26.109  27.292  1.00  0.00     0.039 A 
ATOM      8  C   UNL A   1      41.758  27.337  27.399  1.00  0.00     0.014 A 
ATOM      9  C   UNL A   1      40.145  25.740  28.231  1.00  0.00     0.014 A 
ATOM     10  C   UNL A   1      41.599  28.099  28.545  1.00  0.00     0.010 A 
ATOM     11  C   UNL A   1      39.892  26.574  29.325  1.00  0.00     0.010 A 
ATOM     12  C   UNL A   1      40.652  27.738  29.517  1.00  0.00    -0.014 A 
BRANCH  12  13
ATOM     13  C   UNL A   1      40.470  28.624  30.696  1.00  0.00     0.031 A 
ATOM     14  C   UNL A   1      41.389  28.539  31.885  1.00  0.00     0.074 A 
ATOM     15  C   UNL A   1      39.501  29.562  30.649  1.00  0.00     0.049 A 
ATOM     16  N   UNL A   1      41.404  29.278  32.964  1.00  0.00    -0.248 NA
ATOM     17  C   UNL A   1      42.415  27.484  31.869  1.00  0.00     0.031 C 
ATOM     18  C   UNL A   1      38.544  29.729  29.551  1.00  0.00     0.029 A 
ATOM     19  N   UNL A   1      39.182  30.570  31.520  1.00  0.00    -0.354 N 
ATOM     20  C   UNL A   1      42.412  28.761  33.770  1.00  0.00     0.074 A 
ATOM     21  C   UNL A   1      42.976  27.631  33.063  1.00  0.00     0.031 C 
ATOM     22  C   UNL A   1      37.799  30.820  29.777  1.00  0.00     0.029 A 
ATOM     23  C   UNL A   1      38.171  31.384  31.068  1.00  0.00     0.049 A 
ATOM     24  H   UNL A   1      39.633  30.700  32.386  1.00  0.00     0.167 HD
ATOM     25  C   UNL A   1      42.831  29.193  34.984  1.00  0.00     0.037 A 
ATOM     26  C   UNL A   1      37.595  32.463  31.631  1.00  0.00     0.037 A 
ATOM     27  C   UNL A   1      42.282  30.339  35.665  1.00  0.00     0.049 A 
ATOM     28  C   UNL A   1      38.087  32.927  32.971  1.00  0.00     0.074 A 
ATOM     29  C   UNL A   1      42.658  30.880  36.882  1.00  0.00     0.029 A 
ATOM     30  N   UNL A   1      41.240  31.123  35.186  1.00  0.00    -0.354 N 
ATOM     31  N   UNL A   1      39.055  32.434  33.708  1.00  0.00    -0.248 NA
ATOM     32  C   UNL A   1      37.409  34.088  33.558  1.00  0.00     0.031 C 
ATOM     33  C   UNL A   1      41.820  31.966  37.158  1.00  0.00     0.029 A 
ATOM     34  C   UNL A   1      40.953  32.132  36.091  1.00  0.00     0.049 A 
ATOM     35  H   UNL A   1      40.776  30.982  34.331  1.00  0.00     0.167 HD
ATOM     36  C   UNL A   1      39.116  33.240  34.838  1.00  0.00     0.074 A 
ATOM     37  C   UNL A   1      38.098  34.258  34.677  1.00  0.00     0.031 C 
ATOM     38  C   UNL A   1      39.939  33.142  35.911  1.00  0.00     0.037 A 
BRANCH  25  39
ATOM     39  C   UNL A   1      43.919  28.412  35.670  1.00  0.00     0.058 A 
ATOM     40  C   UNL A   1      43.637  27.355  36.549  1.00  0.00     0.135 A 
ATOM     41  C   UNL A   1      45.270  28.705  35.415  1.00  0.00     0.135 A 
ATOM     42  F   UNL A   1      42.365  27.042  36.843  1.00  0.00    -0.206 F 
ATOM     43  C   UNL A   1      44.652  26.636  37.173  1.00  0.00     0.059 A 
ATOM     44  C   UNL A   1      46.302  27.983  36.007  1.00  0.00     0.059 A 
ATOM     45  F   UNL A   1      45.598  29.705  34.581  1.00  0.00    -0.206 F 
ATOM     46  C   UNL A   1      45.982  26.959  36.898  1.00  0.00     0.060 A 
BRANCH  46  47
ATOM     47  S   UNL A   1      47.288  26.022  37.721  1.00  0.00     0.124 S 
ATOM     48  O   UNL A   1      48.075  27.092  38.325  1.00  0.00    -0.237 OA
ATOM     49  O   UNL A   1      46.536  25.187  38.651  1.00  0.00    -0.237 OA
ATOM     50  O   UNL A   1      47.936  25.307  36.625  1.00  0.00    -0.744 OA
ENDBRANCH  46  47
ENDBRANCH  25  39
BRANCH  26  51
ATOM     51  C   UNL A   1      36.500  33.172  30.922  1.00  0.00     0.058 A 
ATOM     52  C   UNL A   1      35.169  33.057  31.347  1.00  0.00     0.135 A 
ATOM     53  C   UNL A   1      36.767  34.005  29.823  1.00  0.00     0.135 A 
ATOM     54  F   UNL A   1      34.864  32.272  32.392  1.00  0.00    -0.206 F 
ATOM     55  C   UNL A   1      34.138  33.731  30.702  1.00  0.00     0.059 A 
ATOM     56  C   UNL A   1      35.757  34.713  29.180  1.00  0.00     0.059 A 
ATOM     57  F   UNL A   1      38.028  34.167  29.392  1.00  0.00    -0.206 F 
ATOM     58  C   UNL A   1      34.443  34.560  29.620  1.00  0.00     0.060 A 
BRANCH  58  59
ATOM     59  S   UNL A   1      33.107  35.474  28.821  1.00  0.00     0.124 S 
ATOM     60  O   UNL A   1      32.450  34.420  28.056  1.00  0.00    -0.237 OA
ATOM     61  O   UNL A   1      32.362  35.993  29.964  1.00  0.00    -0.237 OA
ATOM     62  O   UNL A   1      33.814  36.480  28.035  1.00  0.00    -0.744 OA
ENDBRANCH  58  59
ENDBRANCH  26  51
BRANCH  38  63
ATOM     63  C   UNL A   1      39.798  34.195  36.973  1.00  0.00     0.058 A 
ATOM     64  C   UNL A   1      39.079  33.960  38.156  1.00  0.00     0.135 A 
ATOM     65  C   UNL A   1      40.406  35.449  36.810  1.00  0.00     0.135 A 
ATOM     66  F   UNL A   1      38.472  32.780  38.355  1.00  0.00    -0.206 F 
ATOM     67  C   UNL A   1      38.940  34.946  39.127  1.00  0.00     0.059 A 
ATOM     68  C   UNL A   1      40.303  36.440  37.781  1.00  0.00     0.059 A 
ATOM     69  F   UNL A   1      41.114  35.720  35.702  1.00  0.00    -0.206 F 
ATOM     70  C   UNL A   1      39.554  36.185  38.928  1.00  0.00     0.060 A 
BRANCH  70  71
ATOM     71  S   UNL A   1      39.377  37.455  40.198  1.00  0.00     0.124 S 
ATOM     72  O   UNL A   1      38.865  36.677  41.321  1.00  0.00    -0.237 OA
ATOM     73  O   UNL A   1      40.742  37.951  40.340  1.00  0.00    -0.237 OA
ATOM     74  O   UNL A   1      38.434  38.397  39.605  1.00  0.00    -0.744 OA
ENDBRANCH  70  71
ENDBRANCH  38  63
ENDBRANCH  12  13
ENDBRANCH   5   7
ENDBRANCH   2   3
ENDBRANCH   1   2
BRANCH   1  75
ATOM     75  C   UNL A   1      38.013  21.996  25.549  1.00  0.00     0.117 C 
BRANCH  75  76
ATOM     76  N   UNL A   1      36.838  22.207  26.378  1.00  0.00    -0.356 N 
ATOM     77  C   UNL A   1      35.521  22.144  26.061  1.00  0.00     0.225 C 
ATOM     78  H   UNL A   1      37.028  22.432  27.317  1.00  0.00     0.163 HD
ATOM     79  O   UNL A   1      34.702  22.390  26.947  1.00  0.00    -0.275 OA
BRANCH  77  80
ATOM     80  C   UNL A   1      35.094  21.717  24.674  1.00  0.00     0.107 C 
ATOM     81  C   UNL A   1      34.960  22.941  23.793  1.00  0.00     0.133 C 
ATOM     82  C   UNL A   1      33.687  21.078  24.723  1.00  0.00     0.053 C 
ATOM     83  N   UNL A   1      33.752  22.764  23.021  1.00  0.00    -0.336 N 
ATOM     84  C   UNL A   1      33.009  21.586  23.441  1.00  0.00     0.129 C 
BRANCH  82  85
ATOM     85  C   UNL A   1      33.833  19.576  24.941  1.00  0.00    -0.038 A 
ATOM     86  C   UNL A   1      35.058  18.960  24.563  1.00  0.00     0.008 A 
ATOM     87  C   UNL A   1      32.775  18.755  25.358  1.00  0.00     0.054 A 
ATOM     88  C   UNL A   1      35.197  17.570  24.504  1.00  0.00     0.051 A 
ATOM     89  C   UNL A   1      32.948  17.386  25.310  1.00  0.00     0.166 A 
ATOM     90  C   UNL A   1      34.115  16.809  24.874  1.00  0.00     0.165 A 
ATOM     91  O   UNL A   1      32.002  16.463  25.633  1.00  0.00    -0.454 OA
ATOM     92  O   UNL A   1      34.047  15.453  24.847  1.00  0.00    -0.454 OA
ATOM     93  C   UNL A   1      32.693  15.241  25.297  1.00  0.00     0.468 C 
ENDBRANCH  82  85
BRANCH  83  94
ATOM     94  C   UNL A   1      33.309  23.564  21.982  1.00  0.00     0.277 C 
ATOM     95  O   UNL A   1      33.300  23.150  20.821  1.00  0.00    -0.268 OA
BRANCH  94  96
ATOM     96  C   UNL A   1      32.830  24.982  22.338  1.00  0.00     0.363 C 
BRANCH  96  97
ATOM     97  N   UNL A   1      31.366  25.189  22.382  1.00  0.00    -0.323 N 
ATOM     98  C   UNL A   1      31.016  26.623  22.462  1.00  0.00     0.291 C 
ATOM     99  C   UNL A   1      30.591  24.452  23.391  1.00  0.00     0.291 C 
ATOM    100  H   UNL A   1      31.084  24.778  21.493  1.00  0.00     0.348 HD
ATOM    101  C   UNL A   1      31.089  27.194  23.888  1.00  0.00     0.221 C 
ATOM    102  C   UNL A   1      30.606  25.059  24.802  1.00  0.00     0.221 C 
ATOM    103  O   UNL A   1      30.266  26.451  24.792  1.00  0.00    -0.370 OA
ENDBRANCH  96  97
ENDBRANCH  94  96
ENDBRANCH  83  94
ENDBRANCH  77  80
ENDBRANCH  75  76
ENDBRANCH   1  75
TORSDOF 17
ENDMDL
MODEL 2
REMARK VINA RESULT:     -13.3      6.638     11.913
REMARK SMILES O=C(NCCCNC(=O)[C@@H]1CN(C(=O)C[NH+]2CCOCC2)C[C@H]1c1ccc2c(c1)OCO2)c1ccc(-c2c3nc(c(-c4c(F)cc(S(=O)(=O)[O-])cc4F)c4ccc([nH]4)c(-c4c(F)cc(S(=O)(=O)[O-])cc4F)c4nc(c(-c5c(F)cc(S(=O)(=O)[O-])cc5F)c5ccc2[nH]5)C=C4)C=C3)cc1
REMARK SMILES IDX 5 1 4 2 3 3 1 4 2 5 33 7 34 8 98 9 35 10 97 11 36 12 37 13
REMARK SMILES IDX 38 14 91 15 39 16 96 17 90 18 92 19 40 20 95 21 89 22 88 23
REMARK SMILES IDX 41 25 75 26 54 27 74 28 55 29 58 30 73 31 93 32 56 33 57 34
REMARK SMILES IDX 72 36 94 37 59 38 42 39 43 40 52 41 44 42 45 43 51 44 53 45
REMARK SMILES IDX 46 46 47 47 48 48 49 49 50 50 76 51 77 52 86 53 78 54 79 55
REMARK SMILES IDX 85 56 87 57 80 58 81 59 82 60 83 61 84 62 60 63 61 64 70 65
REMARK SMILES IDX 62 66 63 67 69 68 71 69 64 70 65 71 66 72 67 73 68 74 6 75
REMARK SMILES IDX 7 76 8 77 9 79 10 80 11 81 23 82 12 83 22 84 24 85 25 86
REMARK SMILES IDX 29 87 26 88 28 89 27 90 30 91 32 92 31 93 13 94 14 95 15 96
REMARK SMILES IDX 16 97 17 98 21 99 18 101 20 102 19 103
REMARK H PARENT 3 6 92 24 58 35 7 78 16 100
REMARK Flexibility Score: inf
ROOT
ATOM      1  C   UNL A   1      34.876  30.098  27.531  1.00  0.00     0.042 C 
ENDROOT
BRANCH   1   2
ATOM      2  C   UNL A   1      35.581  31.229  28.269  1.00  0.00     0.118 C 
BRANCH   2   3
ATOM      3  N   UNL A   1      35.586  31.028  29.714  1.00  0.00    -0.352 N 
ATOM      4  O   UNL A   1      36.144  30.043  31.660  1.00  0.00    -0.269 OA
ATOM      5  C   UNL A   1      36.452  30.310  30.507  1.00  0.00     0.251 C 
ATOM      6  H   UNL A   1      34.855  31.476  30.197  1.00  0.00     0.163 HD
BRANCH   5   7
ATOM      7  C   UNL A   1      37.742  29.853  29.947  1.00  0.00     0.039 A 
ATOM      8  C   UNL A   1      38.704  29.293  30.783  1.00  0.00     0.014 A 
ATOM      9  C   UNL A   1      37.991  29.987  28.579  1.00  0.00     0.014 A 
ATOM     10  C   UNL A   1      39.982  29.063  30.301  1.00  0.00     0.010 A 
ATOM     11  C   UNL A   1      39.244  29.633  28.069  1.00  0.00     0.010 A 
ATOM     12  C   UNL A   1      40.267  29.213  28.934  1.00  0.00    -0.014 A 
BRANCH  12  13
ATOM     13  C   UNL A   1      41.635  28.888  28.453  1.00  0.00     0.031 A 
ATOM     14  C   UNL A   1      42.738  29.911  28.492  1.00  0.00     0.074 A 
ATOM     15  C   UNL A   1      41.888  27.628  28.043  1.00  0.00     0.049 A 
ATOM     16  N   UNL A   1      43.998  29.771  28.168  1.00  0.00    -0.248 NA
ATOM     17  C   UNL A   1      42.385  31.267  28.941  1.00  0.00     0.031 C 
ATOM     18  C   UNL A   1      40.891  26.556  27.953  1.00  0.00     0.029 A 
ATOM     19  N   UNL A   1      43.056  27.023  27.663  1.00  0.00    -0.354 N 
ATOM     20  C   UNL A   1      44.581  31.022  28.339  1.00  0.00     0.074 A 
ATOM     21  C   UNL A   1      43.531  31.916  28.779  1.00  0.00     0.031 C 
ATOM     22  C   UNL A   1      41.503  25.412  27.620  1.00  0.00     0.029 A 
ATOM     23  C   UNL A   1      42.918  25.681  27.399  1.00  0.00     0.049 A 
ATOM     24  H   UNL A   1      43.914  27.502  27.588  1.00  0.00     0.167 HD
ATOM     25  C   UNL A   1      45.872  31.387  28.151  1.00  0.00     0.037 A 
ATOM     26  C   UNL A   1      43.825  24.765  27.011  1.00  0.00     0.037 A 
ATOM     27  C   UNL A   1      46.915  30.480  27.743  1.00  0.00     0.049 A 
ATOM     28  C   UNL A   1      45.250  25.195  26.822  1.00  0.00     0.074 A 
ATOM     29  C   UNL A   1      48.261  30.742  27.557  1.00  0.00     0.029 A 
ATOM     30  N   UNL A   1      46.729  29.133  27.458  1.00  0.00    -0.354 N 
ATOM     31  N   UNL A   1      45.783  26.380  27.007  1.00  0.00    -0.248 NA
ATOM     32  C   UNL A   1      46.196  24.169  26.370  1.00  0.00     0.031 C 
ATOM     33  C   UNL A   1      48.883  29.566  27.123  1.00  0.00     0.029 A 
ATOM     34  C   UNL A   1      47.933  28.558  27.085  1.00  0.00     0.049 A 
ATOM     35  H   UNL A   1      45.869  28.659  27.514  1.00  0.00     0.167 HD
ATOM     36  C   UNL A   1      47.133  26.236  26.713  1.00  0.00     0.074 A 
ATOM     37  C   UNL A   1      47.335  24.846  26.355  1.00  0.00     0.031 C 
ATOM     38  C   UNL A   1      48.115  27.170  26.737  1.00  0.00     0.037 A 
BRANCH  25  39
ATOM     39  C   UNL A   1      46.229  32.834  28.360  1.00  0.00     0.058 A 
ATOM     40  C   UNL A   1      46.137  33.781  27.328  1.00  0.00     0.135 A 
ATOM     41  C   UNL A   1      46.637  33.287  29.626  1.00  0.00     0.135 A 
ATOM     42  F   UNL A   1      45.769  33.402  26.094  1.00  0.00    -0.206 F 
ATOM     43  C   UNL A   1      46.464  35.118  27.535  1.00  0.00     0.059 A 
ATOM     44  C   UNL A   1      46.945  34.624  29.863  1.00  0.00     0.059 A 
ATOM     45  F   UNL A   1      46.741  32.426  30.650  1.00  0.00    -0.206 F 
ATOM     46  C   UNL A   1      46.870  35.530  28.806  1.00  0.00     0.060 A 
BRANCH  46  47
ATOM     47  S   UNL A   1      47.299  37.266  29.057  1.00  0.00     0.124 S 
ATOM     48  O   UNL A   1      48.722  37.263  28.731  1.00  0.00    -0.237 OA
ATOM     49  O   UNL A   1      46.432  37.944  28.099  1.00  0.00    -0.237 OA
ATOM     50  O   UNL A   1      46.977  37.496  30.462  1.00  0.00    -0.744 OA
ENDBRANCH  46  47
ENDBRANCH  25  39
BRANCH  26  51
ATOM     51  C   UNL A   1      43.405  23.358  26.785  1.00  0.00     0.058 A 
ATOM     52  C   UNL A   1      43.406  22.801  25.498  1.00  0.00     0.135 A 
ATOM     53  C   UNL A   1      43.025  22.533  27.856  1.00  0.00     0.135 A 
ATOM     54  F   UNL A   1      43.761  23.550  24.443  1.00  0.00    -0.206 F 
ATOM     55  C   UNL A   1      43.034  21.479  25.278  1.00  0.00     0.059 A 
ATOM     56  C   UNL A   1      42.677  21.201  27.664  1.00  0.00     0.059 A 
ATOM     57  F   UNL A   1      43.029  23.014  29.110  1.00  0.00    -0.206 F 
ATOM     58  C   UNL A   1      42.673  20.686  26.369  1.00  0.00     0.060 A 
BRANCH  58  59
ATOM     59  S   UNL A   1      42.241  18.957  26.082  1.00  0.00     0.124 S 
ATOM     60  O   UNL A   1      43.113  18.622  24.960  1.00  0.00    -0.237 OA
ATOM     61  O   UNL A   1      42.578  18.338  27.360  1.00  0.00    -0.237 OA
ATOM     62  O   UNL A   1      40.814  19.014  25.779  1.00  0.00    -0.744 OA
ENDBRANCH  58  59
ENDBRANCH  26  51
BRANCH  38  63
ATOM     63  C   UNL A   1      49.505  26.704  26.406  1.00  0.00     0.058 A 
ATOM     64  C   UNL A   1      50.317  26.068  27.357  1.00  0.00     0.135 A 
ATOM     65  C   UNL A   1      50.021  26.883  25.114  1.00  0.00     0.135 A 
ATOM     66  F   UNL A   1      49.872  25.880  28.610  1.00  0.00    -0.206 F 
ATOM     67  C   UNL A   1      51.608  25.654  27.047  1.00  0.00     0.059 A 
ATOM     68  C   UNL A   1      51.299  26.452  24.773  1.00  0.00     0.059 A 
ATOM     69  F   UNL A   1      49.280  27.477  24.164  1.00  0.00    -0.206 F 
ATOM     70  C   UNL A   1      52.091  25.854  25.752  1.00  0.00     0.060 A 
BRANCH  70  71
ATOM     71  S   UNL A   1      53.764  25.305  25.356  1.00  0.00     0.124 S 
ATOM     72  O   UNL A   1      54.569  26.201  26.179  1.00  0.00    -0.237 OA
ATOM     73  O   UNL A   1      53.744  23.906  25.774  1.00  0.00    -0.237 OA
ATOM     74  O   UNL A   1      53.858  25.520  23.916  1.00  0.00    -0.744 OA
ENDBRANCH  70  71
ENDBRANCH  38  63
ENDBRANCH  12  13
ENDBRANCH   5   7
ENDBRANCH   2   3
ENDBRANCH   1   2
BRANCH   1  75
ATOM     75  C   UNL A   1      33.456  30.463  27.131  1.00  0.00     0.117 C 
BRANCH  75  76
ATOM     76  N   UNL A   1      32.496  29.564  27.750  1.00  0.00    -0.356 N 
ATOM     77  C   UNL A   1      31.861  28.478  27.243  1.00  0.00     0.225 C 
ATOM     78  H   UNL A   1      32.270  29.778  28.684  1.00  0.00     0.163 HD
ATOM     79  O   UNL A   1      31.063  27.885  27.969  1.00  0.00    -0.275 OA
BRANCH  77  80
ATOM     80  C   UNL A   1      32.190  27.990  25.850  1.00  0.00     0.107 C 
ATOM     81  C   UNL A   1      31.572  28.926  24.832  1.00  0.00     0.133 C 
ATOM     82  C   UNL A   1      31.539  26.610  25.602  1.00  0.00     0.053 C 
ATOM     83  N   UNL A   1      31.003  28.093  23.797  1.00  0.00    -0.336 N 
ATOM     84  C   UNL A   1      31.074  26.681  24.139  1.00  0.00     0.129 C 
BRANCH  82  85
ATOM     85  C   UNL A   1      32.520  25.518  26.018  1.00  0.00    -0.038 A 
ATOM     86  C   UNL A   1      33.838  25.566  25.489  1.00  0.00     0.008 A 
ATOM     87  C   UNL A   1      32.145  24.398  26.774  1.00  0.00     0.054 A 
ATOM     88  C   UNL A   1      34.726  24.494  25.621  1.00  0.00     0.051 A 
ATOM     89  C   UNL A   1      33.049  23.363  26.906  1.00  0.00     0.166 A 
ATOM     90  C   UNL A   1      34.294  23.398  26.328  1.00  0.00     0.165 A 
ATOM     91  O   UNL A   1      32.816  22.195  27.565  1.00  0.00    -0.454 OA
ATOM     92  O   UNL A   1      34.994  22.252  26.530  1.00  0.00    -0.454 OA
ATOM     93  C   UNL A   1      34.038  21.480  27.285  1.00  0.00     0.468 C 
ENDBRANCH  82  85
BRANCH  83  94
ATOM     94  C   UNL A   1      30.464  28.519  22.597  1.00  0.00     0.277 C 
ATOM     95  O   UNL A   1      30.230  27.720  21.687  1.00  0.00    -0.268 OA
BRANCH  94  96
ATOM     96  C   UNL A   1      30.170  30.021  22.448  1.00  0.00     0.363 C 
BRANCH  96  97
ATOM     97  N   UNL A   1      28.787  30.453  22.750  1.00  0.00    -0.323 N 
ATOM     98  C   UNL A   1      27.981  30.617  21.522  1.00  0.00     0.291 C 
ATOM     99  C   UNL A   1      28.601  31.636  23.604  1.00  0.00     0.291 C 
ATOM    100  H   UNL A   1      28.459  29.673  23.319  1.00  0.00     0.348 HD
ATOM    101  C   UNL A   1      28.196  31.969  20.822  1.00  0.00     0.221 C 
ATOM    102  C   UNL A   1      28.748  32.989  22.892  1.00  0.00     0.221 C 
ATOM    103  O   UNL A   1      27.943  33.064  21.709  1.00  0.00    -0.370 OA
ENDBRANCH  96  97
ENDBRANCH  94  96
ENDBRANCH  83  94
ENDBRANCH  77  80
ENDBRANCH  75  76
ENDBRANCH   1  75
TORSDOF 17
ENDMDL
MODEL 3
REMARK VINA RESULT:     -12.9      1.281      8.188
REMARK SMILES O=C(NCCCNC(=O)[C@@H]1CN(C(=O)C[NH+]2CCOCC2)C[C@H]1c1ccc2c(c1)OCO2)c1ccc(-c2c3nc(c(-c4c(F)cc(S(=O)(=O)[O-])cc4F)c4ccc([nH]4)c(-c4c(F)cc(S(=O)(=O)[O-])cc4F)c4nc(c(-c5c(F)cc(S(=O)(=O)[O-])cc5F)c5ccc2[nH]5)C=C4)C=C3)cc1
REMARK SMILES IDX 5 1 4 2 3 3 1 4 2 5 33 7 34 8 98 9 35 10 97 11 36 12 37 13
REMARK SMILES IDX 38 14 91 15 39 16 96 17 90 18 92 19 40 20 95 21 89 22 88 23
REMARK SMILES IDX 41 25 75 26 54 27 74 28 55 29 58 30 73 31 93 32 56 33 57 34
REMARK SMILES IDX 72 36 94 37 59 38 42 39 43 40 52 41 44 42 45 43 51 44 53 45
REMARK SMILES IDX 46 46 47 47 48 48 49 49 50 50 76 51 77 52 86 53 78 54 79 55
REMARK SMILES IDX 85 56 87 57 80 58 81 59 82 60 83 61 84 62 60 63 61 64 70 65
REMARK SMILES IDX 62 66 63 67 69 68 71 69 64 70 65 71 66 72 67 73 68 74 6 75
REMARK SMILES IDX 7 76 8 77 9 79 10 80 11 81 23 82 12 83 22 84 24 85 25 86
REMARK SMILES IDX 29 87 26 88 28 89 27 90 30 91 32 92 31 93 13 94 14 95 15 96
REMARK SMILES IDX 16 97 17 98 21 99 18 101 20 102 19 103
REMARK H PARENT 3 6 92 24 58 35 7 78 16 100
REMARK Flexibility Score: inf
ROOT
ATOM      1  C   UNL A   1      37.221  23.846  25.292  1.00  0.00     0.042 C 
ENDROOT
BRANCH   1   2
ATOM      2  C   UNL A   1      38.101  24.144  26.500  1.00  0.00     0.118 C 
BRANCH   2   3
ATOM      3  N   UNL A   1      39.519  23.961  26.210  1.00  0.00    -0.352 N 
ATOM      4  O   UNL A   1      41.678  24.561  26.000  1.00  0.00    -0.269 OA
ATOM      5  C   UNL A   1      40.603  24.736  26.555  1.00  0.00     0.251 C 
ATOM      6  H   UNL A   1      39.734  23.156  25.685  1.00  0.00     0.163 HD
BRANCH   5   7
ATOM      7  C   UNL A   1      40.448  25.785  27.585  1.00  0.00     0.039 A 
ATOM      8  C   UNL A   1      41.191  26.960  27.498  1.00  0.00     0.014 A 
ATOM      9  C   UNL A   1      39.557  25.594  28.643  1.00  0.00     0.014 A 
ATOM     10  C   UNL A   1      41.204  27.844  28.564  1.00  0.00     0.010 A 
ATOM     11  C   UNL A   1      39.477  26.551  29.660  1.00  0.00     0.010 A 
ATOM     12  C   UNL A   1      40.336  27.661  29.654  1.00  0.00    -0.014 A 
BRANCH  12  13
ATOM     13  C   UNL A   1      40.339  28.673  30.742  1.00  0.00     0.031 A 
ATOM     14  C   UNL A   1      39.321  29.782  30.777  1.00  0.00     0.074 A 
ATOM     15  C   UNL A   1      41.233  28.537  31.742  1.00  0.00     0.049 A 
ATOM     16  N   UNL A   1      39.147  30.707  31.685  1.00  0.00    -0.248 NA
ATOM     17  C   UNL A   1      38.384  29.874  29.646  1.00  0.00     0.031 C 
ATOM     18  C   UNL A   1      42.273  27.506  31.807  1.00  0.00     0.029 A 
ATOM     19  N   UNL A   1      41.391  29.236  32.910  1.00  0.00    -0.354 N 
ATOM     20  C   UNL A   1      38.111  31.510  31.224  1.00  0.00     0.074 A 
ATOM     21  C   UNL A   1      37.704  30.973  29.943  1.00  0.00     0.031 C 
ATOM     22  C   UNL A   1      42.909  27.592  32.984  1.00  0.00     0.029 A 
ATOM     23  C   UNL A   1      42.375  28.728  33.724  1.00  0.00     0.049 A 
ATOM     24  H   UNL A   1      40.851  30.027  33.144  1.00  0.00     0.167 HD
ATOM     25  C   UNL A   1      37.548  32.590  31.817  1.00  0.00     0.037 A 
ATOM     26  C   UNL A   1      42.810  29.133  34.932  1.00  0.00     0.037 A 
ATOM     27  C   UNL A   1      37.941  33.097  33.108  1.00  0.00     0.049 A 
ATOM     28  C   UNL A   1      42.160  30.325  35.571  1.00  0.00     0.074 A 
ATOM     29  C   UNL A   1      37.411  34.164  33.813  1.00  0.00     0.029 A 
ATOM     30  N   UNL A   1      38.960  32.570  33.891  1.00  0.00    -0.354 N 
ATOM     31  N   UNL A   1      41.168  31.059  35.125  1.00  0.00    -0.248 NA
ATOM     32  C   UNL A   1      42.689  30.748  36.872  1.00  0.00     0.031 C 
ATOM     33  C   UNL A   1      38.134  34.308  35.002  1.00  0.00     0.029 A 
ATOM     34  C   UNL A   1      39.083  33.300  35.062  1.00  0.00     0.049 A 
ATOM     35  H   UNL A   1      39.512  31.793  33.649  1.00  0.00     0.167 HD
ATOM     36  C   UNL A   1      40.939  32.019  36.103  1.00  0.00     0.074 A 
ATOM     37  C   UNL A   1      41.886  31.760  37.168  1.00  0.00     0.031 C 
ATOM     38  C   UNL A   1      40.029  33.023  36.115  1.00  0.00     0.037 A 
BRANCH  25  39
ATOM     39  C   UNL A   1      36.463  33.316  31.068  1.00  0.00     0.058 A 
ATOM     40  C   UNL A   1      36.732  34.086  29.925  1.00  0.00     0.135 A 
ATOM     41  C   UNL A   1      35.124  33.211  31.482  1.00  0.00     0.135 A 
ATOM     42  F   UNL A   1      37.995  34.236  29.494  1.00  0.00    -0.206 F 
ATOM     43  C   UNL A   1      35.720  34.748  29.238  1.00  0.00     0.059 A 
ATOM     44  C   UNL A   1      34.092  33.843  30.795  1.00  0.00     0.059 A 
ATOM     45  F   UNL A   1      34.808  32.487  32.568  1.00  0.00    -0.206 F 
ATOM     46  C   UNL A   1      34.402  34.623  29.682  1.00  0.00     0.060 A 
BRANCH  46  47
ATOM     47  S   UNL A   1      33.100  35.494  28.783  1.00  0.00     0.124 S 
ATOM     48  O   UNL A   1      33.880  36.421  27.970  1.00  0.00    -0.237 OA
ATOM     49  O   UNL A   1      32.444  34.412  28.056  1.00  0.00    -0.237 OA
ATOM     50  O   UNL A   1      32.305  36.104  29.844  1.00  0.00    -0.744 OA
ENDBRANCH  46  47
ENDBRANCH  25  39
BRANCH  26  51
ATOM     51  C   UNL A   1      43.910  28.398  35.606  1.00  0.00     0.058 A 
ATOM     52  C   UNL A   1      45.252  28.711  35.352  1.00  0.00     0.135 A 
ATOM     53  C   UNL A   1      43.639  27.388  36.544  1.00  0.00     0.135 A 
ATOM     54  F   UNL A   1      45.561  29.668  34.464  1.00  0.00    -0.206 F 
ATOM     55  C   UNL A   1      46.290  28.042  35.992  1.00  0.00     0.059 A 
ATOM     56  C   UNL A   1      44.659  26.725  37.219  1.00  0.00     0.059 A 
ATOM     57  F   UNL A   1      42.370  27.066  36.839  1.00  0.00    -0.206 F 
ATOM     58  C   UNL A   1      45.982  27.051  36.927  1.00  0.00     0.060 A 
BRANCH  58  59
ATOM     59  S   UNL A   1      47.332  26.224  37.794  1.00  0.00     0.124 S 
ATOM     60  O   UNL A   1      48.479  26.604  36.976  1.00  0.00    -0.237 OA
ATOM     61  O   UNL A   1      47.264  26.829  39.120  1.00  0.00    -0.237 OA
ATOM     62  O   UNL A   1      46.953  24.815  37.736  1.00  0.00    -0.744 OA
ENDBRANCH  58  59
ENDBRANCH  26  51
BRANCH  38  63
ATOM     63  C   UNL A   1      39.988  33.888  37.343  1.00  0.00     0.058 A 
ATOM     64  C   UNL A   1      39.136  33.603  38.420  1.00  0.00     0.135 A 
ATOM     65  C   UNL A   1      40.828  35.008  37.446  1.00  0.00     0.135 A 
ATOM     66  F   UNL A   1      38.308  32.548  38.366  1.00  0.00    -0.206 F 
ATOM     67  C   UNL A   1      39.093  34.418  39.546  1.00  0.00     0.059 A 
ATOM     68  C   UNL A   1      40.822  35.822  38.574  1.00  0.00     0.059 A 
ATOM     69  F   UNL A   1      41.670  35.318  36.447  1.00  0.00    -0.206 F 
ATOM     70  C   UNL A   1      39.938  35.528  39.612  1.00  0.00     0.060 A 
BRANCH  70  71
ATOM     71  S   UNL A   1      39.883  36.575  41.081  1.00  0.00     0.124 S 
ATOM     72  O   UNL A   1      41.190  36.316  41.674  1.00  0.00    -0.237 OA
ATOM     73  O   UNL A   1      39.697  37.906  40.512  1.00  0.00    -0.237 OA
ATOM     74  O   UNL A   1      38.741  36.054  41.825  1.00  0.00    -0.744 OA
ENDBRANCH  70  71
ENDBRANCH  38  63
ENDBRANCH  12  13
ENDBRANCH   5   7
ENDBRANCH   2   3
ENDBRANCH   1   2
BRANCH   1  75
ATOM     75  C   UNL A   1      36.535  22.494  25.395  1.00  0.00     0.117 C 
BRANCH  75  76
ATOM     76  N   UNL A   1      35.806  22.377  26.647  1.00  0.00    -0.356 N 
ATOM     77  C   UNL A   1      34.492  22.575  26.917  1.00  0.00     0.225 C 
ATOM     78  H   UNL A   1      36.353  22.112  27.421  1.00  0.00     0.163 HD
ATOM     79  O   UNL A   1      34.114  22.433  28.080  1.00  0.00    -0.275 OA
BRANCH  77  80
ATOM     80  C   UNL A   1      33.528  22.893  25.795  1.00  0.00     0.107 C 
ATOM     81  C   UNL A   1      32.915  24.257  26.035  1.00  0.00     0.133 C 
ATOM     82  C   UNL A   1      32.349  21.894  25.808  1.00  0.00     0.053 C 
ATOM     83  N   UNL A   1      31.508  24.136  25.729  1.00  0.00    -0.336 N 
ATOM     84  C   UNL A   1      31.130  22.760  25.451  1.00  0.00     0.129 C 
BRANCH  82  85
ATOM     85  C   UNL A   1      32.699  20.704  24.922  1.00  0.00    -0.038 A 
ATOM     86  C   UNL A   1      32.196  20.688  23.592  1.00  0.00     0.008 A 
ATOM     87  C   UNL A   1      33.366  19.565  25.396  1.00  0.00     0.054 A 
ATOM     88  C   UNL A   1      32.264  19.543  22.792  1.00  0.00     0.051 A 
ATOM     89  C   UNL A   1      33.437  18.456  24.576  1.00  0.00     0.166 A 
ATOM     90  C   UNL A   1      32.883  18.436  23.319  1.00  0.00     0.165 A 
ATOM     91  O   UNL A   1      34.006  17.266  24.910  1.00  0.00    -0.454 OA
ATOM     92  O   UNL A   1      33.012  17.229  22.712  1.00  0.00    -0.454 OA
ATOM     93  C   UNL A   1      33.695  16.481  23.740  1.00  0.00     0.468 C 
ENDBRANCH  82  85
BRANCH  83  94
ATOM     94  C   UNL A   1      30.584  25.165  25.667  1.00  0.00     0.277 C 
ATOM     95  O   UNL A   1      30.037  25.590  26.687  1.00  0.00    -0.268 OA
BRANCH  94  96
ATOM     96  C   UNL A   1      30.271  25.750  24.279  1.00  0.00     0.363 C 
BRANCH  96  97
ATOM     97  N   UNL A   1      31.364  26.499  23.620  1.00  0.00    -0.323 N 
ATOM     98  C   UNL A   1      31.950  27.518  24.517  1.00  0.00     0.291 C 
ATOM     99  C   UNL A   1      31.094  27.114  22.312  1.00  0.00     0.291 C 
ATOM    100  H   UNL A   1      32.022  25.747  23.419  1.00  0.00     0.348 HD
ATOM    101  C   UNL A   1      31.148  28.829  24.563  1.00  0.00     0.221 C 
ATOM    102  C   UNL A   1      30.353  28.459  22.359  1.00  0.00     0.221 C 
ATOM    103  O   UNL A   1      30.979  29.385  23.255  1.00  0.00    -0.370 OA
ENDBRANCH  96  97
ENDBRANCH  94  96
ENDBRANCH  83  94
ENDBRANCH  77  80
ENDBRANCH  75  76
ENDBRANCH   1  75
TORSDOF 17
ENDMDL
