MODEL 1
REMARK VINA RESULT:     -11.9      0.000      0.000
REMARK SMILES CC(=O)[C@]1(C)CC[C@@H](C(=O)NCCCNC(=O)c2ccc(-c3c4nc(c(-c5c(F)cc(S(=O)(=O)[O-])cc5F)c5ccc([nH]5)c(-c5c(F)cc(S(=O)(=O)[O-])cc5F)c5nc(c(-c6c(F)cc(S(=O)(=O)[O-])cc6F)c6ccc3[nH]6)C=C5)C=C4)cc2)C1(C)C
REMARK SMILES IDX 14 1 13 2 12 3 11 4 9 5 10 6 8 8 4 9 6 10 84 11 5 12 7 13
REMARK SMILES IDX 85 14 86 15 2 16 1 17 3 18 15 19 16 20 17 22 18 23 19 24
REMARK SMILES IDX 83 25 20 26 82 27 21 28 22 29 23 30 76 31 24 32 81 33 75 34
REMARK SMILES IDX 77 35 25 36 80 37 74 38 73 39 26 41 60 42 39 43 59 44 40 45
REMARK SMILES IDX 43 46 58 47 78 48 41 49 42 50 57 52 79 53 44 54 27 55 28 56
REMARK SMILES IDX 37 57 29 58 30 59 36 60 38 61 31 62 32 63 33 64 34 65 35 66
REMARK SMILES IDX 61 67 62 68 71 69 63 70 64 71 70 72 72 73 65 74 66 75 67 76
REMARK SMILES IDX 68 77 69 78 45 79 46 80 55 81 47 82 48 83 54 84 56 85 49 86
REMARK SMILES IDX 50 87 51 88 52 89 53 90
REMARK H PARENT 11 7 15 21 77 40 43 51
REMARK Flexibility Score: inf
ROOT
ATOM      1  C   UNL A   1      35.605  31.049  27.924  1.00  0.00     0.118 C 
ENDROOT
BRANCH   1   2
ATOM      2  C   UNL A   1      34.376  30.561  27.171  1.00  0.00     0.042 C 
BRANCH   2   3
ATOM      3  C   UNL A   1      34.150  29.053  27.258  1.00  0.00     0.117 C 
BRANCH   3   4
ATOM      4  N   UNL A   1      32.821  28.701  27.718  1.00  0.00    -0.356 N 
ATOM      5  C   UNL A   1      31.888  27.825  27.281  1.00  0.00     0.223 C 
ATOM      6  O   UNL A   1      30.842  27.781  27.943  1.00  0.00    -0.275 OA
ATOM      7  H   UNL A   1      32.539  29.203  28.516  1.00  0.00     0.163 HD
BRANCH   5   8
ATOM      8  C   UNL A   1      32.028  26.911  26.057  1.00  0.00     0.085 C 
ATOM      9  C   UNL A   1      33.280  27.124  23.880  1.00  0.00     0.032 C 
ATOM     10  C   UNL A   1      34.111  26.313  24.908  1.00  0.00     0.016 C 
ATOM     11  C   UNL A   1      31.912  27.510  24.616  1.00  0.00    -0.012 C 
ATOM     12  C   UNL A   1      34.110  28.383  23.497  1.00  0.00     0.020 C 
ATOM     13  C   UNL A   1      33.208  25.952  26.073  1.00  0.00     0.015 C 
ATOM     14  C   UNL A   1      31.601  29.025  24.639  1.00  0.00     0.013 C 
ATOM     15  C   UNL A   1      30.633  26.922  23.971  1.00  0.00     0.013 C 
BRANCH   9  16
ATOM     16  C   UNL A   1      33.266  26.259  22.577  1.00  0.00     0.136 C 
ATOM     17  C   UNL A   1      33.150  24.761  22.627  1.00  0.00     0.088 C 
ATOM     18  O   UNL A   1      33.458  26.773  21.468  1.00  0.00    -0.299 OA
ENDBRANCH   9  16
ENDBRANCH   5   8
ENDBRANCH   3   4
ENDBRANCH   2   3
ENDBRANCH   1   2
BRANCH   1  19
ATOM     19  N   UNL A   1      35.475  30.862  29.360  1.00  0.00    -0.352 N 
ATOM     20  C   UNL A   1      36.336  30.263  30.245  1.00  0.00     0.251 C 
ATOM     21  H   UNL A   1      34.647  31.218  29.755  1.00  0.00     0.163 HD
ATOM     22  O   UNL A   1      35.930  29.981  31.378  1.00  0.00    -0.269 OA
BRANCH  20  23
ATOM     23  C   UNL A   1      37.726  29.931  29.859  1.00  0.00     0.039 A 
ATOM     24  C   UNL A   1      38.662  29.642  30.856  1.00  0.00     0.014 A 
ATOM     25  C   UNL A   1      38.128  29.940  28.520  1.00  0.00     0.014 A 
ATOM     26  C   UNL A   1      39.974  29.304  30.509  1.00  0.00     0.010 A 
ATOM     27  C   UNL A   1      39.407  29.513  28.170  1.00  0.00     0.010 A 
ATOM     28  C   UNL A   1      40.351  29.202  29.160  1.00  0.00    -0.014 A 
BRANCH  28  29
ATOM     29  C   UNL A   1      41.726  28.799  28.758  1.00  0.00     0.031 A 
ATOM     30  C   UNL A   1      42.815  29.836  28.653  1.00  0.00     0.074 A 
ATOM     31  C   UNL A   1      41.979  27.522  28.407  1.00  0.00     0.049 A 
ATOM     32  N   UNL A   1      44.038  29.710  28.204  1.00  0.00    -0.248 NA
ATOM     33  C   UNL A   1      42.474  31.205  29.079  1.00  0.00     0.031 C 
ATOM     34  C   UNL A   1      40.999  26.432  28.409  1.00  0.00     0.029 A 
ATOM     35  N   UNL A   1      43.132  26.926  27.959  1.00  0.00    -0.354 N 
ATOM     36  C   UNL A   1      44.598  30.982  28.261  1.00  0.00     0.074 A 
ATOM     37  C   UNL A   1      43.570  31.874  28.750  1.00  0.00     0.031 C 
ATOM     38  C   UNL A   1      41.596  25.302  27.994  1.00  0.00     0.029 A 
ATOM     39  C   UNL A   1      42.987  25.591  27.660  1.00  0.00     0.049 A 
ATOM     40  H   UNL A   1      43.984  27.410  27.861  1.00  0.00     0.167 HD
ATOM     41  C   UNL A   1      45.859  31.368  27.953  1.00  0.00     0.037 A 
ATOM     42  C   UNL A   1      43.868  24.703  27.159  1.00  0.00     0.037 A 
ATOM     43  C   UNL A   1      46.896  30.469  27.523  1.00  0.00     0.049 A 
ATOM     44  C   UNL A   1      45.275  25.149  26.863  1.00  0.00     0.074 A 
ATOM     45  C   UNL A   1      48.229  30.748  27.275  1.00  0.00     0.029 A 
ATOM     46  N   UNL A   1      46.721  29.115  27.283  1.00  0.00    -0.354 N 
ATOM     47  N   UNL A   1      45.803  26.344  26.988  1.00  0.00    -0.248 NA
ATOM     48  C   UNL A   1      46.206  24.129  26.364  1.00  0.00     0.031 C 
ATOM     49  C   UNL A   1      48.852  29.571  26.850  1.00  0.00     0.029 A 
ATOM     50  C   UNL A   1      47.917  28.549  26.872  1.00  0.00     0.049 A 
ATOM     51  H   UNL A   1      45.872  28.626  27.388  1.00  0.00     0.167 HD
ATOM     52  C   UNL A   1      47.133  26.212  26.602  1.00  0.00     0.074 A 
ATOM     53  C   UNL A   1      47.332  24.820  26.255  1.00  0.00     0.031 C 
ATOM     54  C   UNL A   1      48.100  27.159  26.539  1.00  0.00     0.037 A 
BRANCH  41  55
ATOM     55  C   UNL A   1      46.200  32.827  28.085  1.00  0.00     0.058 A 
ATOM     56  C   UNL A   1      46.716  33.359  29.277  1.00  0.00     0.135 A 
ATOM     57  C   UNL A   1      46.061  33.692  26.987  1.00  0.00     0.135 A 
ATOM     58  F   UNL A   1      46.853  32.579  30.362  1.00  0.00    -0.206 F 
ATOM     59  C   UNL A   1      47.063  34.700  29.384  1.00  0.00     0.059 A 
ATOM     60  C   UNL A   1      46.426  35.034  27.064  1.00  0.00     0.059 A 
ATOM     61  F   UNL A   1      45.571  33.236  25.824  1.00  0.00    -0.206 F 
ATOM     62  C   UNL A   1      46.917  35.531  28.271  1.00  0.00     0.060 A 
BRANCH  62  63
ATOM     63  S   UNL A   1      47.395  37.265  28.418  1.00  0.00     0.124 S 
ATOM     64  O   UNL A   1      46.106  37.935  28.276  1.00  0.00    -0.237 OA
ATOM     65  O   UNL A   1      47.989  37.314  29.752  1.00  0.00    -0.237 OA
ATOM     66  O   UNL A   1      48.329  37.456  27.313  1.00  0.00    -0.744 OA
ENDBRANCH  62  63
ENDBRANCH  41  55
BRANCH  42  67
ATOM     67  C   UNL A   1      43.451  23.298  26.911  1.00  0.00     0.058 A 
ATOM     68  C   UNL A   1      43.243  22.407  27.974  1.00  0.00     0.135 A 
ATOM     69  C   UNL A   1      43.255  22.817  25.607  1.00  0.00     0.135 A 
ATOM     70  F   UNL A   1      43.424  22.819  29.238  1.00  0.00    -0.206 F 
ATOM     71  C   UNL A   1      42.877  21.083  27.755  1.00  0.00     0.059 A 
ATOM     72  C   UNL A   1      42.865  21.504  25.364  1.00  0.00     0.059 A 
ATOM     73  F   UNL A   1      43.424  23.635  24.556  1.00  0.00    -0.206 F 
ATOM     74  C   UNL A   1      42.692  20.640  26.444  1.00  0.00     0.060 A 
BRANCH  74  75
ATOM     75  S   UNL A   1      42.183  18.930  26.169  1.00  0.00     0.124 S 
ATOM     76  O   UNL A   1      40.788  19.098  25.779  1.00  0.00    -0.237 OA
ATOM     77  O   UNL A   1      43.094  18.503  25.111  1.00  0.00    -0.237 OA
ATOM     78  O   UNL A   1      42.406  18.302  27.468  1.00  0.00    -0.744 OA
ENDBRANCH  74  75
ENDBRANCH  42  67
BRANCH  54  79
ATOM     79  C   UNL A   1      49.470  26.720  26.104  1.00  0.00     0.058 A 
ATOM     80  C   UNL A   1      49.901  26.864  24.776  1.00  0.00     0.135 A 
ATOM     81  C   UNL A   1      50.380  26.199  27.038  1.00  0.00     0.135 A 
ATOM     82  F   UNL A   1      49.067  27.352  23.845  1.00  0.00    -0.206 F 
ATOM     83  C   UNL A   1      51.180  26.488  24.384  1.00  0.00     0.059 A 
ATOM     84  C   UNL A   1      51.672  25.838  26.673  1.00  0.00     0.059 A 
ATOM     85  F   UNL A   1      50.019  26.051  28.323  1.00  0.00    -0.206 F 
ATOM     86  C   UNL A   1      52.060  25.976  25.341  1.00  0.00     0.060 A 
BRANCH  86  87
ATOM     87  S   UNL A   1      53.730  25.523  24.828  1.00  0.00     0.124 S 
ATOM     88  O   UNL A   1      54.536  26.118  25.890  1.00  0.00    -0.237 OA
ATOM     89  O   UNL A   1      53.673  24.064  24.819  1.00  0.00    -0.237 OA
ATOM     90  O   UNL A   1      53.862  26.147  23.515  1.00  0.00    -0.744 OA
ENDBRANCH  86  87
ENDBRANCH  54  79
ENDBRANCH  28  29
ENDBRANCH  20  23
ENDBRANCH   1  19
TORSDOF 14
ENDMDL
MODEL 2
REMARK VINA RESULT:     -11.8      3.342      5.735
REMARK SMILES CC(=O)[C@]1(C)CC[C@@H](C(=O)NCCCNC(=O)c2ccc(-c3c4nc(c(-c5c(F)cc(S(=O)(=O)[O-])cc5F)c5ccc([nH]5)c(-c5c(F)cc(S(=O)(=O)[O-])cc5F)c5nc(c(-c6c(F)cc(S(=O)(=O)[O-])cc6F)c6ccc3[nH]6)C=C5)C=C4)cc2)C1(C)C
REMARK SMILES IDX 14 1 13 2 12 3 11 4 9 5 10 6 8 8 4 9 6 10 84 11 5 12 7 13
REMARK SMILES IDX 85 14 86 15 2 16 1 17 3 18 15 19 16 20 17 22 18 23 19 24
REMARK SMILES IDX 83 25 20 26 82 27 21 28 22 29 23 30 76 31 24 32 81 33 75 34
REMARK SMILES IDX 77 35 25 36 80 37 74 38 73 39 26 41 60 42 39 43 59 44 40 45
REMARK SMILES IDX 43 46 58 47 78 48 41 49 42 50 57 52 79 53 44 54 27 55 28 56
REMARK SMILES IDX 37 57 29 58 30 59 36 60 38 61 31 62 32 63 33 64 34 65 35 66
REMARK SMILES IDX 61 67 62 68 71 69 63 70 64 71 70 72 72 73 65 74 66 75 67 76
REMARK SMILES IDX 68 77 69 78 45 79 46 80 55 81 47 82 48 83 54 84 56 85 49 86
REMARK SMILES IDX 50 87 51 88 52 89 53 90
REMARK H PARENT 11 7 15 21 77 40 43 51
REMARK Flexibility Score: inf
ROOT
ATOM      1  C   UNL A   1      34.689  32.615  27.994  1.00  0.00     0.118 C 
ENDROOT
BRANCH   1   2
ATOM      2  C   UNL A   1      33.821  33.732  28.557  1.00  0.00     0.042 C 
BRANCH   2   3
ATOM      3  C   UNL A   1      34.415  34.425  29.780  1.00  0.00     0.117 C 
BRANCH   3   4
ATOM      4  N   UNL A   1      33.970  33.850  31.035  1.00  0.00    -0.356 N 
ATOM      5  C   UNL A   1      34.575  33.093  31.978  1.00  0.00     0.223 C 
ATOM      6  O   UNL A   1      33.873  32.785  32.949  1.00  0.00    -0.275 OA
ATOM      7  H   UNL A   1      33.031  34.056  31.245  1.00  0.00     0.163 HD
BRANCH   5   8
ATOM      8  C   UNL A   1      36.027  32.600  31.928  1.00  0.00     0.085 C 
ATOM      9  C   UNL A   1      37.953  32.743  33.546  1.00  0.00     0.032 C 
ATOM     10  C   UNL A   1      37.221  31.383  33.691  1.00  0.00     0.016 C 
ATOM     11  C   UNL A   1      37.189  33.541  32.388  1.00  0.00    -0.012 C 
ATOM     12  C   UNL A   1      37.859  33.474  34.917  1.00  0.00     0.020 C 
ATOM     13  C   UNL A   1      36.282  31.219  32.511  1.00  0.00     0.015 C 
ATOM     14  C   UNL A   1      36.675  34.939  32.804  1.00  0.00     0.013 C 
ATOM     15  C   UNL A   1      38.046  33.865  31.140  1.00  0.00     0.013 C 
BRANCH   9  16
ATOM     16  C   UNL A   1      39.470  32.388  33.401  1.00  0.00     0.136 C 
ATOM     17  C   UNL A   1      39.956  30.967  33.460  1.00  0.00     0.088 C 
ATOM     18  O   UNL A   1      40.329  33.276  33.339  1.00  0.00    -0.299 OA
ENDBRANCH   9  16
ENDBRANCH   5   8
ENDBRANCH   3   4
ENDBRANCH   2   3
ENDBRANCH   1   2
BRANCH   1  19
ATOM     19  N   UNL A   1      33.987  31.342  27.961  1.00  0.00    -0.352 N 
ATOM     20  C   UNL A   1      34.490  30.065  27.942  1.00  0.00     0.251 C 
ATOM     21  H   UNL A   1      33.004  31.406  27.951  1.00  0.00     0.163 HD
ATOM     22  O   UNL A   1      33.735  29.128  27.659  1.00  0.00    -0.269 OA
BRANCH  20  23
ATOM     23  C   UNL A   1      35.918  29.799  28.229  1.00  0.00     0.039 A 
ATOM     24  C   UNL A   1      36.291  29.386  29.511  1.00  0.00     0.014 A 
ATOM     25  C   UNL A   1      36.901  29.992  27.255  1.00  0.00     0.014 A 
ATOM     26  C   UNL A   1      37.632  29.108  29.795  1.00  0.00     0.010 A 
ATOM     27  C   UNL A   1      38.221  29.627  27.510  1.00  0.00     0.010 A 
ATOM     28  C   UNL A   1      38.607  29.192  28.787  1.00  0.00    -0.014 A 
BRANCH  28  29
ATOM     29  C   UNL A   1      40.034  28.858  29.045  1.00  0.00     0.031 A 
ATOM     30  C   UNL A   1      40.970  29.913  29.574  1.00  0.00     0.074 A 
ATOM     31  C   UNL A   1      40.508  27.636  28.729  1.00  0.00     0.049 A 
ATOM     32  N   UNL A   1      42.267  29.858  29.748  1.00  0.00    -0.248 NA
ATOM     33  C   UNL A   1      40.378  31.216  29.924  1.00  0.00     0.031 C 
ATOM     34  C   UNL A   1      39.719  26.542  28.156  1.00  0.00     0.029 A 
ATOM     35  N   UNL A   1      41.774  27.113  28.823  1.00  0.00    -0.354 N 
ATOM     36  C   UNL A   1      42.646  31.120  30.192  1.00  0.00     0.074 A 
ATOM     37  C   UNL A   1      41.451  31.933  30.223  1.00  0.00     0.031 C 
ATOM     38  C   UNL A   1      40.516  25.478  27.961  1.00  0.00     0.029 A 
ATOM     39  C   UNL A   1      41.877  25.823  28.357  1.00  0.00     0.049 A 
ATOM     40  H   UNL A   1      42.538  27.616  29.190  1.00  0.00     0.167 HD
ATOM     41  C   UNL A   1      43.875  31.556  30.559  1.00  0.00     0.037 A 
ATOM     42  C   UNL A   1      42.949  25.014  28.246  1.00  0.00     0.037 A 
ATOM     43  C   UNL A   1      45.052  30.729  30.582  1.00  0.00     0.049 A 
ATOM     44  C   UNL A   1      44.297  25.509  28.698  1.00  0.00     0.074 A 
ATOM     45  C   UNL A   1      46.322  31.053  31.025  1.00  0.00     0.029 A 
ATOM     46  N   UNL A   1      45.103  29.412  30.152  1.00  0.00    -0.354 N 
ATOM     47  N   UNL A   1      44.621  26.686  29.179  1.00  0.00    -0.248 NA
ATOM     48  C   UNL A   1      45.421  24.568  28.599  1.00  0.00     0.031 C 
ATOM     49  C   UNL A   1      47.151  29.944  30.828  1.00  0.00     0.029 A 
ATOM     50  C   UNL A   1      46.387  28.915  30.301  1.00  0.00     0.049 A 
ATOM     51  H   UNL A   1      44.338  28.904  29.793  1.00  0.00     0.167 HD
ATOM     52  C   UNL A   1      45.983  26.619  29.457  1.00  0.00     0.074 A 
ATOM     53  C   UNL A   1      46.415  25.282  29.107  1.00  0.00     0.031 C 
ATOM     54  C   UNL A   1      46.799  27.578  29.956  1.00  0.00     0.037 A 
BRANCH  41  55
ATOM     55  C   UNL A   1      44.014  32.992  30.983  1.00  0.00     0.058 A 
ATOM     56  C   UNL A   1      44.263  34.015  30.054  1.00  0.00     0.135 A 
ATOM     57  C   UNL A   1      43.842  33.357  32.329  1.00  0.00     0.135 A 
ATOM     58  F   UNL A   1      44.453  33.719  28.758  1.00  0.00    -0.206 F 
ATOM     59  C   UNL A   1      44.356  35.345  30.446  1.00  0.00     0.059 A 
ATOM     60  C   UNL A   1      43.906  34.686  32.739  1.00  0.00     0.059 A 
ATOM     61  F   UNL A   1      43.603  32.419  33.258  1.00  0.00    -0.206 F 
ATOM     62  C   UNL A   1      44.175  35.672  31.791  1.00  0.00     0.060 A 
BRANCH  62  63
ATOM     63  S   UNL A   1      44.274  37.407  32.279  1.00  0.00     0.124 S 
ATOM     64  O   UNL A   1      45.635  37.484  32.800  1.00  0.00    -0.237 OA
ATOM     65  O   UNL A   1      44.040  38.102  31.016  1.00  0.00    -0.237 OA
ATOM     66  O   UNL A   1      43.212  37.543  33.270  1.00  0.00    -0.744 OA
ENDBRANCH  62  63
ENDBRANCH  41  55
BRANCH  42  67
ATOM     67  C   UNL A   1      42.794  23.644  27.689  1.00  0.00     0.058 A 
ATOM     68  C   UNL A   1      42.895  23.408  26.310  1.00  0.00     0.135 A 
ATOM     69  C   UNL A   1      42.537  22.545  28.523  1.00  0.00     0.135 A 
ATOM     70  F   UNL A   1      43.133  24.428  25.473  1.00  0.00    -0.206 F 
ATOM     71  C   UNL A   1      42.726  22.136  25.774  1.00  0.00     0.059 A 
ATOM     72  C   UNL A   1      42.389  21.259  28.013  1.00  0.00     0.059 A 
ATOM     73  F   UNL A   1      42.448  22.714  29.852  1.00  0.00    -0.206 F 
ATOM     74  C   UNL A   1      42.471  21.066  26.635  1.00  0.00     0.060 A 
BRANCH  74  75
ATOM     75  S   UNL A   1      42.288  19.412  25.934  1.00  0.00     0.124 S 
ATOM     76  O   UNL A   1      42.830  18.580  27.003  1.00  0.00    -0.237 OA
ATOM     77  O   UNL A   1      40.846  19.323  25.726  1.00  0.00    -0.237 OA
ATOM     78  O   UNL A   1      43.086  19.476  24.715  1.00  0.00    -0.744 OA
ENDBRANCH  74  75
ENDBRANCH  42  67
BRANCH  54  79
ATOM     79  C   UNL A   1      48.239  27.212  30.180  1.00  0.00     0.058 A 
ATOM     80  C   UNL A   1      49.235  27.541  29.247  1.00  0.00     0.135 A 
ATOM     81  C   UNL A   1      48.635  26.572  31.365  1.00  0.00     0.135 A 
ATOM     82  F   UNL A   1      48.907  28.149  28.096  1.00  0.00    -0.206 F 
ATOM     83  C   UNL A   1      50.571  27.231  29.472  1.00  0.00     0.059 A 
ATOM     84  C   UNL A   1      49.968  26.274  31.623  1.00  0.00     0.059 A 
ATOM     85  F   UNL A   1      47.722  26.246  32.294  1.00  0.00    -0.206 F 
ATOM     86  C   UNL A   1      50.929  26.597  30.665  1.00  0.00     0.060 A 
BRANCH  86  87
ATOM     87  S   UNL A   1      52.671  26.230  30.962  1.00  0.00     0.124 S 
ATOM     88  O   UNL A   1      53.096  27.409  31.708  1.00  0.00    -0.237 OA
ATOM     89  O   UNL A   1      52.606  24.987  31.726  1.00  0.00    -0.237 OA
ATOM     90  O   UNL A   1      53.224  26.103  29.618  1.00  0.00    -0.744 OA
ENDBRANCH  86  87
ENDBRANCH  54  79
ENDBRANCH  28  29
ENDBRANCH  20  23
ENDBRANCH   1  19
TORSDOF 14
ENDMDL
MODEL 3
REMARK VINA RESULT:     -11.7      0.692      2.047
REMARK SMILES CC(=O)[C@]1(C)CC[C@@H](C(=O)NCCCNC(=O)c2ccc(-c3c4nc(c(-c5c(F)cc(S(=O)(=O)[O-])cc5F)c5ccc([nH]5)c(-c5c(F)cc(S(=O)(=O)[O-])cc5F)c5nc(c(-c6c(F)cc(S(=O)(=O)[O-])cc6F)c6ccc3[nH]6)C=C5)C=C4)cc2)C1(C)C
REMARK SMILES IDX 14 1 13 2 12 3 11 4 9 5 10 6 8 8 4 9 6 10 84 11 5 12 7 13
REMARK SMILES IDX 85 14 86 15 2 16 1 17 3 18 15 19 16 20 17 22 18 23 19 24
REMARK SMILES IDX 83 25 20 26 82 27 21 28 22 29 23 30 76 31 24 32 81 33 75 34
REMARK SMILES IDX 77 35 25 36 80 37 74 38 73 39 26 41 60 42 39 43 59 44 40 45
REMARK SMILES IDX 43 46 58 47 78 48 41 49 42 50 57 52 79 53 44 54 27 55 28 56
REMARK SMILES IDX 37 57 29 58 30 59 36 60 38 61 31 62 32 63 33 64 34 65 35 66
REMARK SMILES IDX 61 67 62 68 71 69 63 70 64 71 70 72 72 73 65 74 66 75 67 76
REMARK SMILES IDX 68 77 69 78 45 79 46 80 55 81 47 82 48 83 54 84 56 85 49 86
REMARK SMILES IDX 50 87 51 88 52 89 53 90
REMARK H PARENT 11 7 15 21 77 40 43 51
REMARK Flexibility Score: inf
ROOT
ATOM      1  C   UNL A   1      35.115  29.456  28.033  1.00  0.00     0.118 C 
ENDROOT
BRANCH   1   2
ATOM      2  C   UNL A   1      34.394  30.039  26.827  1.00  0.00     0.042 C 
BRANCH   2   3
ATOM      3  C   UNL A   1      32.908  30.304  27.057  1.00  0.00     0.117 C 
BRANCH   3   4
ATOM      4  N   UNL A   1      32.175  29.124  27.474  1.00  0.00    -0.356 N 
ATOM      5  C   UNL A   1      31.697  28.045  26.813  1.00  0.00     0.223 C 
ATOM      6  O   UNL A   1      31.113  27.206  27.511  1.00  0.00    -0.275 OA
ATOM      7  H   UNL A   1      31.987  29.104  28.440  1.00  0.00     0.163 HD
BRANCH   5   8
ATOM      8  C   UNL A   1      31.821  27.797  25.304  1.00  0.00     0.085 C 
ATOM      9  C   UNL A   1      32.361  25.754  23.931  1.00  0.00     0.032 C 
ATOM     10  C   UNL A   1      30.826  25.947  24.039  1.00  0.00     0.016 C 
ATOM     11  C   UNL A   1      33.021  26.964  24.745  1.00  0.00    -0.012 C 
ATOM     12  C   UNL A   1      32.705  24.373  24.561  1.00  0.00     0.020 C 
ATOM     13  C   UNL A   1      30.557  27.331  24.600  1.00  0.00     0.015 C 
ATOM     14  C   UNL A   1      33.999  26.529  25.861  1.00  0.00     0.013 C 
ATOM     15  C   UNL A   1      33.896  27.922  23.899  1.00  0.00     0.013 C 
BRANCH   9  16
ATOM     16  C   UNL A   1      32.653  25.567  22.406  1.00  0.00     0.136 C 
ATOM     17  C   UNL A   1      31.692  26.047  21.354  1.00  0.00     0.088 C 
ATOM     18  O   UNL A   1      33.636  24.922  22.020  1.00  0.00    -0.299 OA
ENDBRANCH   9  16
ENDBRANCH   5   8
ENDBRANCH   3   4
ENDBRANCH   2   3
ENDBRANCH   1   2
BRANCH   1  19
ATOM     19  N   UNL A   1      35.221  30.415  29.121  1.00  0.00    -0.352 N 
ATOM     20  C   UNL A   1      36.288  30.699  29.937  1.00  0.00     0.251 C 
ATOM     21  H   UNL A   1      34.407  30.939  29.298  1.00  0.00     0.163 HD
ATOM     22  O   UNL A   1      36.099  31.364  30.961  1.00  0.00    -0.269 OA
BRANCH  20  23
ATOM     23  C   UNL A   1      37.648  30.204  29.622  1.00  0.00     0.039 A 
ATOM     24  C   UNL A   1      38.057  30.136  28.286  1.00  0.00     0.014 A 
ATOM     25  C   UNL A   1      38.511  29.766  30.629  1.00  0.00     0.014 A 
ATOM     26  C   UNL A   1      39.346  29.692  27.971  1.00  0.00     0.010 A 
ATOM     27  C   UNL A   1      39.823  29.414  30.322  1.00  0.00     0.010 A 
ATOM     28  C   UNL A   1      40.255  29.359  28.989  1.00  0.00    -0.014 A 
BRANCH  28  29
ATOM     29  C   UNL A   1      41.647  28.929  28.687  1.00  0.00     0.031 A 
ATOM     30  C   UNL A   1      42.759  29.945  28.658  1.00  0.00     0.074 A 
ATOM     31  C   UNL A   1      41.900  27.646  28.359  1.00  0.00     0.049 A 
ATOM     32  N   UNL A   1      44.009  29.795  28.297  1.00  0.00    -0.248 NA
ATOM     33  C   UNL A   1      42.415  31.322  29.054  1.00  0.00     0.031 C 
ATOM     34  C   UNL A   1      40.903  26.574  28.295  1.00  0.00     0.029 A 
ATOM     35  N   UNL A   1      43.071  27.027  27.997  1.00  0.00    -0.354 N 
ATOM     36  C   UNL A   1      44.587  31.056  28.390  1.00  0.00     0.074 A 
ATOM     37  C   UNL A   1      43.544  31.969  28.802  1.00  0.00     0.031 C 
ATOM     38  C   UNL A   1      41.506  25.431  27.927  1.00  0.00     0.029 A 
ATOM     39  C   UNL A   1      42.923  25.694  27.692  1.00  0.00     0.049 A 
ATOM     40  H   UNL A   1      43.937  27.494  27.958  1.00  0.00     0.167 HD
ATOM     41  C   UNL A   1      45.874  31.418  28.172  1.00  0.00     0.037 A 
ATOM     42  C   UNL A   1      43.821  24.788  27.258  1.00  0.00     0.037 A 
ATOM     43  C   UNL A   1      46.922  30.498  27.819  1.00  0.00     0.049 A 
ATOM     44  C   UNL A   1      45.253  25.206  27.062  1.00  0.00     0.074 A 
ATOM     45  C   UNL A   1      48.274  30.752  27.667  1.00  0.00     0.029 A 
ATOM     46  N   UNL A   1      46.739  29.146  27.572  1.00  0.00    -0.354 N 
ATOM     47  N   UNL A   1      45.793  26.391  27.221  1.00  0.00    -0.248 NA
ATOM     48  C   UNL A   1      46.199  24.167  26.633  1.00  0.00     0.031 C 
ATOM     49  C   UNL A   1      48.904  29.561  27.291  1.00  0.00     0.029 A 
ATOM     50  C   UNL A   1      47.951  28.556  27.249  1.00  0.00     0.049 A 
ATOM     51  H   UNL A   1      45.876  28.674  27.618  1.00  0.00     0.167 HD
ATOM     52  C   UNL A   1      47.144  26.234  26.930  1.00  0.00     0.074 A 
ATOM     53  C   UNL A   1      47.341  24.837  26.602  1.00  0.00     0.031 C 
ATOM     54  C   UNL A   1      48.131  27.163  26.934  1.00  0.00     0.037 A 
BRANCH  41  55
ATOM     55  C   UNL A   1      46.232  32.870  28.324  1.00  0.00     0.058 A 
ATOM     56  C   UNL A   1      46.093  33.779  27.262  1.00  0.00     0.135 A 
ATOM     57  C   UNL A   1      46.668  33.371  29.562  1.00  0.00     0.135 A 
ATOM     58  F   UNL A   1      45.696  33.350  26.053  1.00  0.00    -0.206 F 
ATOM     59  C   UNL A   1      46.392  35.127  27.416  1.00  0.00     0.059 A 
ATOM     60  C   UNL A   1      46.949  34.723  29.745  1.00  0.00     0.059 A 
ATOM     61  F   UNL A   1      46.819  32.546  30.609  1.00  0.00    -0.206 F 
ATOM     62  C   UNL A   1      46.818  35.592  28.662  1.00  0.00     0.060 A 
BRANCH  62  63
ATOM     63  S   UNL A   1      47.178  37.350  28.852  1.00  0.00     0.124 S 
ATOM     64  O   UNL A   1      46.676  37.606  30.199  1.00  0.00    -0.237 OA
ATOM     65  O   UNL A   1      48.630  37.390  28.700  1.00  0.00    -0.237 OA
ATOM     66  O   UNL A   1      46.422  37.971  27.770  1.00  0.00    -0.744 OA
ENDBRANCH  62  63
ENDBRANCH  41  55
BRANCH  42  67
ATOM     67  C   UNL A   1      43.396  23.389  26.985  1.00  0.00     0.058 A 
ATOM     68  C   UNL A   1      43.221  22.930  25.671  1.00  0.00     0.135 A 
ATOM     69  C   UNL A   1      43.152  22.486  28.031  1.00  0.00     0.135 A 
ATOM     70  F   UNL A   1      43.437  23.759  24.638  1.00  0.00    -0.206 F 
ATOM     71  C   UNL A   1      42.800  21.632  25.403  1.00  0.00     0.059 A 
ATOM     72  C   UNL A   1      42.753  21.176  27.787  1.00  0.00     0.059 A 
ATOM     73  F   UNL A   1      43.321  22.872  29.306  1.00  0.00    -0.206 F 
ATOM     74  C   UNL A   1      42.566  20.762  26.469  1.00  0.00     0.060 A 
BRANCH  74  75
ATOM     75  S   UNL A   1      42.052  19.068  26.112  1.00  0.00     0.124 S 
ATOM     76  O   UNL A   1      42.388  18.391  27.360  1.00  0.00    -0.237 OA
ATOM     77  O   UNL A   1      40.627  19.229  25.838  1.00  0.00    -0.237 OA
ATOM     78  O   UNL A   1      42.868  18.708  24.956  1.00  0.00    -0.744 OA
ENDBRANCH  74  75
ENDBRANCH  42  67
BRANCH  54  79
ATOM     79  C   UNL A   1      49.520  26.697  26.599  1.00  0.00     0.058 A 
ATOM     80  C   UNL A   1      50.375  26.171  27.580  1.00  0.00     0.135 A 
ATOM     81  C   UNL A   1      49.981  26.728  25.273  1.00  0.00     0.135 A 
ATOM     82  F   UNL A   1      49.983  26.124  28.863  1.00  0.00    -0.206 F 
ATOM     83  C   UNL A   1      51.647  25.710  27.261  1.00  0.00     0.059 A 
ATOM     84  C   UNL A   1      51.240  26.250  24.928  1.00  0.00     0.059 A 
ATOM     85  F   UNL A   1      49.197  27.212  24.296  1.00  0.00    -0.206 F 
ATOM     86  C   UNL A   1      52.072  25.753  25.931  1.00  0.00     0.060 A 
BRANCH  86  87
ATOM     87  S   UNL A   1      53.712  25.120  25.523  1.00  0.00     0.124 S 
ATOM     88  O   UNL A   1      54.486  25.537  26.687  1.00  0.00    -0.237 OA
ATOM     89  O   UNL A   1      53.475  23.684  25.402  1.00  0.00    -0.237 OA
ATOM     90  O   UNL A   1      54.037  25.802  24.274  1.00  0.00    -0.744 OA
ENDBRANCH  86  87
ENDBRANCH  54  79
ENDBRANCH  28  29
ENDBRANCH  20  23
ENDBRANCH   1  19
TORSDOF 14
ENDMDL
