MODEL 1
REMARK VINA RESULT:     -12.4      0.000      0.000
REMARK SMILES O=C(NCCCNC(=O)c1nn2cc(Br)cnc2c1Br)c1ccc(-c2c3nc(c(-c4c(F)cc(S(=O)(=O)[O-])cc4F)c4ccc([nH]4)c(-c4c(F)cc(S(=O)(=O)[O-])cc4F)c4nc(c(-c5c(F)cc(S(=O)(=O)[O-])cc5F)c5ccc2[nH]5)C=C4)C=C3)cc1
REMARK SMILES IDX 1 1 2 2 3 3 21 5 22 6 86 7 23 8 85 9 24 10 25 11 26 12 79 13
REMARK SMILES IDX 27 14 84 15 78 16 80 17 28 18 83 19 77 20 76 21 29 23 63 24
REMARK SMILES IDX 42 25 62 26 43 27 46 28 61 29 81 30 44 31 45 32 60 34 82 35
REMARK SMILES IDX 47 36 30 37 31 38 40 39 32 40 33 41 39 42 41 43 34 44 35 45
REMARK SMILES IDX 36 46 37 47 38 48 64 49 65 50 74 51 66 52 67 53 73 54 75 55
REMARK SMILES IDX 68 56 69 57 70 58 71 59 72 60 48 61 49 62 58 63 50 64 51 65
REMARK SMILES IDX 57 66 59 67 52 68 53 69 54 70 55 71 56 72 4 73 5 74 6 75
REMARK SMILES IDX 7 76 8 77 9 79 10 80 11 81 19 82 12 83 18 84 20 85 13 86
REMARK SMILES IDX 17 87 14 88 16 89 15 90
REMARK H PARENT 3 4 80 22 46 33 7 78
REMARK Flexibility Score: inf
ROOT
ATOM      1  O   UNL A   1      34.453  32.600  28.430  1.00  0.00    -0.269 OA
ATOM      2  C   UNL A   1      34.701  31.468  28.008  1.00  0.00     0.251 C 
ATOM      3  N   UNL A   1      33.684  30.842  27.339  1.00  0.00    -0.352 N 
ATOM      4  H   UNL A   1      32.842  31.353  27.366  1.00  0.00     0.163 HD
ENDROOT
BRANCH   2   5
ATOM      5  C   UNL A   1      36.032  30.868  28.297  1.00  0.00     0.039 A 
ATOM      6  C   UNL A   1      36.381  29.534  28.081  1.00  0.00     0.014 A 
ATOM      7  C   UNL A   1      37.010  31.742  28.809  1.00  0.00     0.014 A 
ATOM      8  C   UNL A   1      37.647  29.068  28.429  1.00  0.00     0.010 A 
ATOM      9  C   UNL A   1      38.286  31.288  29.131  1.00  0.00     0.010 A 
ATOM     10  C   UNL A   1      38.601  29.942  28.958  1.00  0.00    -0.014 A 
BRANCH  10  11
ATOM     11  C   UNL A   1      39.966  29.439  29.128  1.00  0.00     0.031 A 
ATOM     12  C   UNL A   1      40.433  29.345  30.545  1.00  0.00     0.074 A 
ATOM     13  C   UNL A   1      40.711  28.907  28.138  1.00  0.00     0.049 A 
ATOM     14  N   UNL A   1      41.474  29.880  31.098  1.00  0.00    -0.248 NA
ATOM     15  C   UNL A   1      39.572  28.603  31.484  1.00  0.00     0.031 C 
ATOM     16  C   UNL A   1      40.283  28.610  26.770  1.00  0.00     0.029 A 
ATOM     17  N   UNL A   1      41.980  28.401  28.187  1.00  0.00    -0.354 N 
ATOM     18  C   UNL A   1      41.515  29.371  32.396  1.00  0.00     0.074 A 
ATOM     19  C   UNL A   1      40.257  28.710  32.622  1.00  0.00     0.031 C 
ATOM     20  C   UNL A   1      41.190  27.791  26.192  1.00  0.00     0.029 A 
ATOM     21  C   UNL A   1      42.309  27.600  27.101  1.00  0.00     0.049 A 
ATOM     22  H   UNL A   1      42.605  28.589  28.924  1.00  0.00     0.167 HD
ATOM     23  C   UNL A   1      42.662  29.321  33.129  1.00  0.00     0.037 A 
ATOM     24  C   UNL A   1      43.381  26.775  26.990  1.00  0.00     0.037 A 
ATOM     25  C   UNL A   1      43.661  30.234  32.652  1.00  0.00     0.049 A 
ATOM     26  C   UNL A   1      44.396  27.214  27.979  1.00  0.00     0.074 A 
ATOM     27  C   UNL A   1      43.718  31.599  32.448  1.00  0.00     0.029 A 
ATOM     28  N   UNL A   1      44.752  29.716  32.002  1.00  0.00    -0.354 N 
ATOM     29  N   UNL A   1      45.061  28.335  27.920  1.00  0.00    -0.248 NA
ATOM     30  C   UNL A   1      44.449  26.527  29.262  1.00  0.00     0.031 C 
ATOM     31  C   UNL A   1      44.554  31.771  31.308  1.00  0.00     0.029 A 
ATOM     32  C   UNL A   1      44.978  30.504  30.904  1.00  0.00     0.049 A 
ATOM     33  H   UNL A   1      45.274  28.926  32.274  1.00  0.00     0.167 HD
ATOM     34  C   UNL A   1      45.274  28.692  29.242  1.00  0.00     0.074 A 
ATOM     35  C   UNL A   1      44.990  27.488  30.012  1.00  0.00     0.031 C 
ATOM     36  C   UNL A   1      45.395  29.999  29.614  1.00  0.00     0.037 A 
BRANCH  23  37
ATOM     37  C   UNL A   1      42.981  28.182  34.065  1.00  0.00     0.058 A 
ATOM     38  C   UNL A   1      43.213  28.428  35.433  1.00  0.00     0.135 A 
ATOM     39  C   UNL A   1      43.335  26.893  33.604  1.00  0.00     0.135 A 
ATOM     40  F   UNL A   1      42.954  29.633  35.963  1.00  0.00    -0.206 F 
ATOM     41  C   UNL A   1      43.788  27.470  36.273  1.00  0.00     0.059 A 
ATOM     42  C   UNL A   1      43.854  25.908  34.434  1.00  0.00     0.059 A 
ATOM     43  F   UNL A   1      43.282  26.568  32.306  1.00  0.00    -0.206 F 
ATOM     44  C   UNL A   1      44.112  26.217  35.760  1.00  0.00     0.060 A 
BRANCH  44  45
ATOM     45  S   UNL A   1      44.933  25.009  36.814  1.00  0.00     0.124 S 
ATOM     46  O   UNL A   1      44.325  25.296  38.108  1.00  0.00    -0.237 OA
ATOM     47  O   UNL A   1      44.545  23.747  36.192  1.00  0.00    -0.237 OA
ATOM     48  O   UNL A   1      46.345  25.356  36.685  1.00  0.00    -0.744 OA
ENDBRANCH  44  45
ENDBRANCH  23  37
BRANCH  24  49
ATOM     49  C   UNL A   1      43.471  25.456  26.302  1.00  0.00     0.058 A 
ATOM     50  C   UNL A   1      44.438  25.224  25.306  1.00  0.00     0.135 A 
ATOM     51  C   UNL A   1      42.808  24.313  26.795  1.00  0.00     0.135 A 
ATOM     52  F   UNL A   1      45.134  26.247  24.788  1.00  0.00    -0.206 F 
ATOM     53  C   UNL A   1      44.771  23.936  24.872  1.00  0.00     0.059 A 
ATOM     54  C   UNL A   1      43.109  23.023  26.363  1.00  0.00     0.059 A 
ATOM     55  F   UNL A   1      41.910  24.403  27.788  1.00  0.00    -0.206 F 
ATOM     56  C   UNL A   1      44.114  22.838  25.424  1.00  0.00     0.060 A 
BRANCH  56  57
ATOM     57  S   UNL A   1      44.667  21.169  25.005  1.00  0.00     0.124 S 
ATOM     58  O   UNL A   1      44.581  21.178  23.549  1.00  0.00    -0.237 OA
ATOM     59  O   UNL A   1      46.014  21.144  25.565  1.00  0.00    -0.237 OA
ATOM     60  O   UNL A   1      43.698  20.311  25.682  1.00  0.00    -0.744 OA
ENDBRANCH  56  57
ENDBRANCH  24  49
BRANCH  36  61
ATOM     61  C   UNL A   1      45.707  31.027  28.561  1.00  0.00     0.058 A 
ATOM     62  C   UNL A   1      44.757  31.594  27.696  1.00  0.00     0.135 A 
ATOM     63  C   UNL A   1      46.997  31.586  28.556  1.00  0.00     0.135 A 
ATOM     64  F   UNL A   1      43.480  31.184  27.707  1.00  0.00    -0.206 F 
ATOM     65  C   UNL A   1      45.080  32.657  26.850  1.00  0.00     0.059 A 
ATOM     66  C   UNL A   1      47.332  32.666  27.744  1.00  0.00     0.059 A 
ATOM     67  F   UNL A   1      47.933  31.123  29.400  1.00  0.00    -0.206 F 
ATOM     68  C   UNL A   1      46.367  33.196  26.891  1.00  0.00     0.060 A 
BRANCH  68  69
ATOM     69  S   UNL A   1      46.740  34.655  25.893  1.00  0.00     0.124 S 
ATOM     70  O   UNL A   1      46.639  35.733  26.872  1.00  0.00    -0.237 OA
ATOM     71  O   UNL A   1      48.087  34.367  25.405  1.00  0.00    -0.237 OA
ATOM     72  O   UNL A   1      45.701  34.643  24.867  1.00  0.00    -0.744 OA
ENDBRANCH  68  69
ENDBRANCH  36  61
ENDBRANCH  10  11
ENDBRANCH   2   5
BRANCH   3  73
ATOM     73  C   UNL A   1      33.557  29.601  26.599  1.00  0.00     0.118 C 
BRANCH  73  74
ATOM     74  C   UNL A   1      32.798  29.705  25.277  1.00  0.00     0.042 C 
BRANCH  74  75
ATOM     75  C   UNL A   1      31.441  29.010  25.267  1.00  0.00     0.118 C 
BRANCH  75  76
ATOM     76  N   UNL A   1      30.703  29.217  24.030  1.00  0.00    -0.351 N 
ATOM     77  C   UNL A   1      30.616  28.413  22.911  1.00  0.00     0.273 C 
ATOM     78  H   UNL A   1      30.190  30.056  23.984  1.00  0.00     0.163 HD
ATOM     79  O   UNL A   1      29.965  28.806  21.954  1.00  0.00    -0.267 OA
BRANCH  77  80
ATOM     80  C   UNL A   1      31.319  27.127  22.919  1.00  0.00     0.167 A 
ATOM     81  N   UNL A   1      30.684  25.997  23.282  1.00  0.00    -0.160 NA
ATOM     82  C   UNL A   1      32.667  26.864  22.598  1.00  0.00     0.095 A 
ATOM     83  N   UNL A   1      31.598  25.012  23.115  1.00  0.00    -0.219 N 
ATOM     84  C   UNL A   1      32.827  25.503  22.666  1.00  0.00     0.170 A 
ATOM     85  Br  UNL A   1      33.970  28.130  22.133  1.00  0.00    -0.044 Br
ATOM     86  C   UNL A   1      31.417  23.654  23.341  1.00  0.00     0.132 A 
ATOM     87  N   UNL A   1      33.883  24.676  22.388  1.00  0.00    -0.235 NA
ATOM     88  C   UNL A   1      32.411  22.790  23.092  1.00  0.00     0.054 A 
ATOM     89  C   UNL A   1      33.668  23.405  22.568  1.00  0.00     0.131 A 
ATOM     90  Br  UNL A   1      32.324  20.964  23.358  1.00  0.00    -0.047 Br
ENDBRANCH  77  80
ENDBRANCH  75  76
ENDBRANCH  74  75
ENDBRANCH  73  74
ENDBRANCH   3  73
TORSDOF 13
ENDMDL
MODEL 2
REMARK VINA RESULT:     -12.3      3.548      9.313
REMARK SMILES O=C(NCCCNC(=O)c1nn2cc(Br)cnc2c1Br)c1ccc(-c2c3nc(c(-c4c(F)cc(S(=O)(=O)[O-])cc4F)c4ccc([nH]4)c(-c4c(F)cc(S(=O)(=O)[O-])cc4F)c4nc(c(-c5c(F)cc(S(=O)(=O)[O-])cc5F)c5ccc2[nH]5)C=C4)C=C3)cc1
REMARK SMILES IDX 1 1 2 2 3 3 21 5 22 6 86 7 23 8 85 9 24 10 25 11 26 12 79 13
REMARK SMILES IDX 27 14 84 15 78 16 80 17 28 18 83 19 77 20 76 21 29 23 63 24
REMARK SMILES IDX 42 25 62 26 43 27 46 28 61 29 81 30 44 31 45 32 60 34 82 35
REMARK SMILES IDX 47 36 30 37 31 38 40 39 32 40 33 41 39 42 41 43 34 44 35 45
REMARK SMILES IDX 36 46 37 47 38 48 64 49 65 50 74 51 66 52 67 53 73 54 75 55
REMARK SMILES IDX 68 56 69 57 70 58 71 59 72 60 48 61 49 62 58 63 50 64 51 65
REMARK SMILES IDX 57 66 59 67 52 68 53 69 54 70 55 71 56 72 4 73 5 74 6 75
REMARK SMILES IDX 7 76 8 77 9 79 10 80 11 81 19 82 12 83 18 84 20 85 13 86
REMARK SMILES IDX 17 87 14 88 16 89 15 90
REMARK H PARENT 3 4 80 22 46 33 7 78
REMARK Flexibility Score: inf
ROOT
ATOM      1  O   UNL A   1      39.517  21.104  26.210  1.00  0.00    -0.269 OA
ATOM      2  C   UNL A   1      39.058  22.233  26.018  1.00  0.00     0.251 C 
ATOM      3  N   UNL A   1      38.125  22.339  25.023  1.00  0.00    -0.352 N 
ATOM      4  H   UNL A   1      38.011  21.499  24.520  1.00  0.00     0.163 HD
ENDROOT
BRANCH   2   5
ATOM      5  C   UNL A   1      39.580  23.368  26.826  1.00  0.00     0.039 A 
ATOM      6  C   UNL A   1      40.762  23.356  27.568  1.00  0.00     0.014 A 
ATOM      7  C   UNL A   1      38.814  24.550  26.808  1.00  0.00     0.014 A 
ATOM      8  C   UNL A   1      41.135  24.465  28.325  1.00  0.00     0.010 A 
ATOM      9  C   UNL A   1      39.197  25.671  27.539  1.00  0.00     0.010 A 
ATOM     10  C   UNL A   1      40.352  25.622  28.316  1.00  0.00    -0.014 A 
BRANCH  10  11
ATOM     11  C   UNL A   1      40.890  26.814  28.977  1.00  0.00     0.031 A 
ATOM     12  C   UNL A   1      42.117  27.387  28.345  1.00  0.00     0.074 A 
ATOM     13  C   UNL A   1      40.258  27.492  29.956  1.00  0.00     0.049 A 
ATOM     14  N   UNL A   1      43.276  27.616  28.875  1.00  0.00    -0.248 NA
ATOM     15  C   UNL A   1      42.052  27.677  26.901  1.00  0.00     0.031 C 
ATOM     16  C   UNL A   1      38.900  27.269  30.455  1.00  0.00     0.029 A 
ATOM     17  N   UNL A   1      40.659  28.613  30.629  1.00  0.00    -0.354 N 
ATOM     18  C   UNL A   1      44.016  28.273  27.893  1.00  0.00     0.074 A 
ATOM     19  C   UNL A   1      43.271  28.159  26.666  1.00  0.00     0.031 C 
ATOM     20  C   UNL A   1      38.516  28.341  31.183  1.00  0.00     0.029 A 
ATOM     21  C   UNL A   1      39.631  29.266  31.298  1.00  0.00     0.049 A 
ATOM     22  H   UNL A   1      41.591  28.928  30.639  1.00  0.00     0.167 HD
ATOM     23  C   UNL A   1      45.082  29.070  28.186  1.00  0.00     0.037 A 
ATOM     24  C   UNL A   1      39.668  30.512  31.833  1.00  0.00     0.037 A 
ATOM     25  C   UNL A   1      45.636  28.793  29.481  1.00  0.00     0.049 A 
ATOM     26  C   UNL A   1      41.092  30.879  32.030  1.00  0.00     0.074 A 
ATOM     27  C   UNL A   1      46.158  27.675  30.101  1.00  0.00     0.029 A 
ATOM     28  N   UNL A   1      45.428  29.709  30.481  1.00  0.00    -0.354 N 
ATOM     29  N   UNL A   1      41.896  30.320  32.893  1.00  0.00    -0.248 NA
ATOM     30  C   UNL A   1      41.743  31.686  31.008  1.00  0.00     0.031 C 
ATOM     31  C   UNL A   1      45.793  27.803  31.471  1.00  0.00     0.029 A 
ATOM     32  C   UNL A   1      45.095  29.004  31.608  1.00  0.00     0.049 A 
ATOM     33  H   UNL A   1      45.504  30.688  30.403  1.00  0.00     0.167 HD
ATOM     34  C   UNL A   1      43.146  30.368  32.297  1.00  0.00     0.074 A 
ATOM     35  C   UNL A   1      43.011  31.325  31.207  1.00  0.00     0.031 C 
ATOM     36  C   UNL A   1      44.099  29.429  32.567  1.00  0.00     0.037 A 
BRANCH  23  37
ATOM     37  C   UNL A   1      45.388  30.334  27.423  1.00  0.00     0.058 A 
ATOM     38  C   UNL A   1      46.701  30.605  26.990  1.00  0.00     0.135 A 
ATOM     39  C   UNL A   1      44.480  31.416  27.344  1.00  0.00     0.135 A 
ATOM     40  F   UNL A   1      47.652  29.661  27.063  1.00  0.00    -0.206 F 
ATOM     41  C   UNL A   1      47.091  31.871  26.544  1.00  0.00     0.059 A 
ATOM     42  C   UNL A   1      44.832  32.666  26.851  1.00  0.00     0.059 A 
ATOM     43  F   UNL A   1      43.238  31.332  27.837  1.00  0.00    -0.206 F 
ATOM     44  C   UNL A   1      46.149  32.895  26.487  1.00  0.00     0.060 A 
BRANCH  44  45
ATOM     45  S   UNL A   1      46.664  34.551  25.997  1.00  0.00     0.124 S 
ATOM     46  O   UNL A   1      45.618  34.907  25.044  1.00  0.00    -0.237 OA
ATOM     47  O   UNL A   1      46.641  35.267  27.268  1.00  0.00    -0.237 OA
ATOM     48  O   UNL A   1      47.991  34.335  25.430  1.00  0.00    -0.744 OA
ENDBRANCH  44  45
ENDBRANCH  23  37
BRANCH  24  49
ATOM     49  C   UNL A   1      38.576  31.524  31.909  1.00  0.00     0.058 A 
ATOM     50  C   UNL A   1      38.089  32.151  30.747  1.00  0.00     0.135 A 
ATOM     51  C   UNL A   1      37.797  31.690  33.071  1.00  0.00     0.135 A 
ATOM     52  F   UNL A   1      38.753  32.034  29.586  1.00  0.00    -0.206 F 
ATOM     53  C   UNL A   1      36.875  32.846  30.724  1.00  0.00     0.059 A 
ATOM     54  C   UNL A   1      36.594  32.396  33.078  1.00  0.00     0.059 A 
ATOM     55  F   UNL A   1      38.128  31.091  34.225  1.00  0.00    -0.206 F 
ATOM     56  C   UNL A   1      36.123  32.944  31.893  1.00  0.00     0.060 A 
BRANCH  56  57
ATOM     57  S   UNL A   1      34.472  33.677  31.828  1.00  0.00     0.124 S 
ATOM     58  O   UNL A   1      34.125  33.517  30.421  1.00  0.00    -0.237 OA
ATOM     59  O   UNL A   1      33.729  32.843  32.767  1.00  0.00    -0.237 OA
ATOM     60  O   UNL A   1      34.694  35.053  32.263  1.00  0.00    -0.744 OA
ENDBRANCH  56  57
ENDBRANCH  24  49
BRANCH  36  61
ATOM     61  C   UNL A   1      43.953  28.583  33.802  1.00  0.00     0.058 A 
ATOM     62  C   UNL A   1      44.359  28.976  35.088  1.00  0.00     0.135 A 
ATOM     63  C   UNL A   1      43.207  27.397  33.697  1.00  0.00     0.135 A 
ATOM     64  F   UNL A   1      44.993  30.142  35.288  1.00  0.00    -0.206 F 
ATOM     65  C   UNL A   1      44.052  28.213  36.217  1.00  0.00     0.059 A 
ATOM     66  C   UNL A   1      42.862  26.638  34.812  1.00  0.00     0.059 A 
ATOM     67  F   UNL A   1      42.743  26.999  32.501  1.00  0.00    -0.206 F 
ATOM     68  C   UNL A   1      43.292  27.052  36.070  1.00  0.00     0.060 A 
BRANCH  68  69
ATOM     69  S   UNL A   1      42.785  26.143  37.547  1.00  0.00     0.124 S 
ATOM     70  O   UNL A   1      43.154  24.772  37.208  1.00  0.00    -0.237 OA
ATOM     71  O   UNL A   1      43.583  26.773  38.596  1.00  0.00    -0.237 OA
ATOM     72  O   UNL A   1      41.349  26.400  37.632  1.00  0.00    -0.744 OA
ENDBRANCH  68  69
ENDBRANCH  36  61
ENDBRANCH  10  11
ENDBRANCH   2   5
BRANCH   3  73
ATOM     73  C   UNL A   1      37.264  23.400  24.536  1.00  0.00     0.118 C 
BRANCH  73  74
ATOM     74  C   UNL A   1      35.767  23.165  24.732  1.00  0.00     0.042 C 
BRANCH  74  75
ATOM     75  C   UNL A   1      35.313  23.136  26.188  1.00  0.00     0.118 C 
BRANCH  75  76
ATOM     76  N   UNL A   1      33.959  23.633  26.374  1.00  0.00    -0.351 N 
ATOM     77  C   UNL A   1      32.751  23.031  26.083  1.00  0.00     0.273 C 
ATOM     78  H   UNL A   1      33.894  24.534  26.765  1.00  0.00     0.163 HD
ATOM     79  O   UNL A   1      31.720  23.656  26.283  1.00  0.00    -0.267 OA
BRANCH  77  80
ATOM     80  C   UNL A   1      32.763  21.672  25.535  1.00  0.00     0.167 A 
ATOM     81  N   UNL A   1      32.912  20.605  26.343  1.00  0.00    -0.160 NA
ATOM     82  C   UNL A   1      32.651  21.269  24.188  1.00  0.00     0.095 A 
ATOM     83  N   UNL A   1      32.815  19.530  25.526  1.00  0.00    -0.219 N 
ATOM     84  C   UNL A   1      32.625  19.897  24.191  1.00  0.00     0.170 A 
ATOM     85  Br  UNL A   1      32.526  22.395  22.695  1.00  0.00    -0.044 Br
ATOM     86  C   UNL A   1      32.886  18.192  25.890  1.00  0.00     0.132 A 
ATOM     87  N   UNL A   1      32.456  18.968  23.198  1.00  0.00    -0.235 NA
ATOM     88  C   UNL A   1      32.732  17.232  24.967  1.00  0.00     0.054 A 
ATOM     89  C   UNL A   1      32.484  17.723  23.578  1.00  0.00     0.131 A 
ATOM     90  Br  UNL A   1      32.817  15.416  25.296  1.00  0.00    -0.047 Br
ENDBRANCH  77  80
ENDBRANCH  75  76
ENDBRANCH  74  75
ENDBRANCH  73  74
ENDBRANCH   3  73
TORSDOF 13
ENDMDL
MODEL 3
REMARK VINA RESULT:     -12.3      3.286      9.538
REMARK SMILES O=C(NCCCNC(=O)c1nn2cc(Br)cnc2c1Br)c1ccc(-c2c3nc(c(-c4c(F)cc(S(=O)(=O)[O-])cc4F)c4ccc([nH]4)c(-c4c(F)cc(S(=O)(=O)[O-])cc4F)c4nc(c(-c5c(F)cc(S(=O)(=O)[O-])cc5F)c5ccc2[nH]5)C=C4)C=C3)cc1
REMARK SMILES IDX 1 1 2 2 3 3 21 5 22 6 86 7 23 8 85 9 24 10 25 11 26 12 79 13
REMARK SMILES IDX 27 14 84 15 78 16 80 17 28 18 83 19 77 20 76 21 29 23 63 24
REMARK SMILES IDX 42 25 62 26 43 27 46 28 61 29 81 30 44 31 45 32 60 34 82 35
REMARK SMILES IDX 47 36 30 37 31 38 40 39 32 40 33 41 39 42 41 43 34 44 35 45
REMARK SMILES IDX 36 46 37 47 38 48 64 49 65 50 74 51 66 52 67 53 73 54 75 55
REMARK SMILES IDX 68 56 69 57 70 58 71 59 72 60 48 61 49 62 58 63 50 64 51 65
REMARK SMILES IDX 57 66 59 67 52 68 53 69 54 70 55 71 56 72 4 73 5 74 6 75
REMARK SMILES IDX 7 76 8 77 9 79 10 80 11 81 19 82 12 83 18 84 20 85 13 86
REMARK SMILES IDX 17 87 14 88 16 89 15 90
REMARK H PARENT 3 4 80 22 46 33 7 78
REMARK Flexibility Score: inf
ROOT
ATOM      1  O   UNL A   1      40.621  21.419  26.146  1.00  0.00    -0.269 OA
ATOM      2  C   UNL A   1      39.736  22.277  26.202  1.00  0.00     0.251 C 
ATOM      3  N   UNL A   1      38.553  21.957  25.591  1.00  0.00    -0.352 N 
ATOM      4  H   UNL A   1      38.600  21.105  25.098  1.00  0.00     0.163 HD
ENDROOT
BRANCH   2   5
ATOM      5  C   UNL A   1      40.034  23.575  26.865  1.00  0.00     0.039 A 
ATOM      6  C   UNL A   1      39.238  24.719  26.795  1.00  0.00     0.014 A 
ATOM      7  C   UNL A   1      41.209  23.623  27.639  1.00  0.00     0.014 A 
ATOM      8  C   UNL A   1      39.636  25.898  27.422  1.00  0.00     0.010 A 
ATOM      9  C   UNL A   1      41.597  24.790  28.292  1.00  0.00     0.010 A 
ATOM     10  C   UNL A   1      40.817  25.938  28.168  1.00  0.00    -0.014 A 
BRANCH  10  11
ATOM     11  C   UNL A   1      41.085  27.144  28.955  1.00  0.00     0.031 A 
ATOM     12  C   UNL A   1      42.205  27.994  28.446  1.00  0.00     0.074 A 
ATOM     13  C   UNL A   1      40.294  27.598  29.948  1.00  0.00     0.049 A 
ATOM     14  N   UNL A   1      43.274  28.388  29.061  1.00  0.00    -0.248 NA
ATOM     15  C   UNL A   1      42.146  28.398  27.030  1.00  0.00     0.031 C 
ATOM     16  C   UNL A   1      38.985  27.077  30.346  1.00  0.00     0.029 A 
ATOM     17  N   UNL A   1      40.442  28.707  30.733  1.00  0.00    -0.354 N 
ATOM     18  C   UNL A   1      43.914  29.260  28.181  1.00  0.00     0.074 A 
ATOM     19  C   UNL A   1      43.257  29.121  26.908  1.00  0.00     0.031 C 
ATOM     20  C   UNL A   1      38.370  27.985  31.136  1.00  0.00     0.029 A 
ATOM     21  C   UNL A   1      39.280  29.090  31.392  1.00  0.00     0.049 A 
ATOM     22  H   UNL A   1      41.294  29.190  30.825  1.00  0.00     0.167 HD
ATOM     23  C   UNL A   1      44.792  30.213  28.601  1.00  0.00     0.037 A 
ATOM     24  C   UNL A   1      39.053  30.266  32.029  1.00  0.00     0.037 A 
ATOM     25  C   UNL A   1      45.334  29.928  29.899  1.00  0.00     0.049 A 
ATOM     26  C   UNL A   1      40.370  30.876  32.339  1.00  0.00     0.074 A 
ATOM     27  C   UNL A   1      46.036  28.877  30.455  1.00  0.00     0.029 A 
ATOM     28  N   UNL A   1      44.911  30.692  30.957  1.00  0.00    -0.354 N 
ATOM     29  N   UNL A   1      41.229  30.401  33.199  1.00  0.00    -0.248 NA
ATOM     30  C   UNL A   1      40.895  31.881  31.427  1.00  0.00     0.031 C 
ATOM     31  C   UNL A   1      45.596  28.806  31.807  1.00  0.00     0.029 A 
ATOM     32  C   UNL A   1      44.674  29.836  32.001  1.00  0.00     0.049 A 
ATOM     33  H   UNL A   1      44.800  31.671  30.965  1.00  0.00     0.167 HD
ATOM     34  C   UNL A   1      42.471  30.739  32.684  1.00  0.00     0.074 A 
ATOM     35  C   UNL A   1      42.200  31.750  31.670  1.00  0.00     0.031 C 
ATOM     36  C   UNL A   1      43.575  29.976  32.931  1.00  0.00     0.037 A 
BRANCH  23  37
ATOM     37  C   UNL A   1      44.880  31.577  27.964  1.00  0.00     0.058 A 
ATOM     38  C   UNL A   1      46.081  32.010  27.369  1.00  0.00     0.135 A 
ATOM     39  C   UNL A   1      43.900  32.577  28.165  1.00  0.00     0.135 A 
ATOM     40  F   UNL A   1      47.094  31.151  27.173  1.00  0.00    -0.206 F 
ATOM     41  C   UNL A   1      46.304  33.347  27.029  1.00  0.00     0.059 A 
ATOM     42  C   UNL A   1      44.079  33.901  27.783  1.00  0.00     0.059 A 
ATOM     43  F   UNL A   1      42.765  32.330  28.831  1.00  0.00    -0.206 F 
ATOM     44  C   UNL A   1      45.298  34.285  27.249  1.00  0.00     0.060 A 
BRANCH  44  45
ATOM     45  S   UNL A   1      45.610  36.024  26.896  1.00  0.00     0.124 S 
ATOM     46  O   UNL A   1      46.234  36.463  28.139  1.00  0.00    -0.237 OA
ATOM     47  O   UNL A   1      46.488  35.946  25.733  1.00  0.00    -0.237 OA
ATOM     48  O   UNL A   1      44.277  36.556  26.633  1.00  0.00    -0.744 OA
ENDBRANCH  44  45
ENDBRANCH  23  37
BRANCH  24  49
ATOM     49  C   UNL A   1      37.784  31.042  32.124  1.00  0.00     0.058 A 
ATOM     50  C   UNL A   1      37.302  31.491  33.367  1.00  0.00     0.135 A 
ATOM     51  C   UNL A   1      37.169  31.602  30.986  1.00  0.00     0.135 A 
ATOM     52  F   UNL A   1      37.838  31.029  34.508  1.00  0.00    -0.206 F 
ATOM     53  C   UNL A   1      36.316  32.478  33.476  1.00  0.00     0.059 A 
ATOM     54  C   UNL A   1      36.170  32.571  31.069  1.00  0.00     0.059 A 
ATOM     55  F   UNL A   1      37.584  31.296  29.747  1.00  0.00    -0.206 F 
ATOM     56  C   UNL A   1      35.771  33.028  32.317  1.00  0.00     0.060 A 
BRANCH  56  57
ATOM     57  S   UNL A   1      34.636  34.429  32.448  1.00  0.00     0.124 S 
ATOM     58  O   UNL A   1      35.386  35.348  33.297  1.00  0.00    -0.237 OA
ATOM     59  O   UNL A   1      34.483  34.830  31.053  1.00  0.00    -0.237 OA
ATOM     60  O   UNL A   1      33.445  33.845  33.060  1.00  0.00    -0.744 OA
ENDBRANCH  56  57
ENDBRANCH  24  49
BRANCH  36  61
ATOM     61  C   UNL A   1      43.543  29.008  34.082  1.00  0.00     0.058 A 
ATOM     62  C   UNL A   1      43.845  29.342  35.412  1.00  0.00     0.135 A 
ATOM     63  C   UNL A   1      43.011  27.729  33.845  1.00  0.00     0.135 A 
ATOM     64  F   UNL A   1      44.267  30.573  35.737  1.00  0.00    -0.206 F 
ATOM     65  C   UNL A   1      43.644  28.439  36.458  1.00  0.00     0.059 A 
ATOM     66  C   UNL A   1      42.772  26.824  34.876  1.00  0.00     0.059 A 
ATOM     67  F   UNL A   1      42.651  27.370  32.602  1.00  0.00    -0.206 F 
ATOM     68  C   UNL A   1      43.094  27.186  36.181  1.00  0.00     0.060 A 
BRANCH  68  69
ATOM     69  S   UNL A   1      42.711  26.073  37.552  1.00  0.00     0.124 S 
ATOM     70  O   UNL A   1      41.274  26.267  37.716  1.00  0.00    -0.237 OA
ATOM     71  O   UNL A   1      43.119  24.772  37.026  1.00  0.00    -0.237 OA
ATOM     72  O   UNL A   1      43.539  26.578  38.644  1.00  0.00    -0.744 OA
ENDBRANCH  68  69
ENDBRANCH  36  61
ENDBRANCH  10  11
ENDBRANCH   2   5
BRANCH   3  73
ATOM     73  C   UNL A   1      37.247  22.581  25.501  1.00  0.00     0.118 C 
BRANCH  73  74
ATOM     74  C   UNL A   1      36.061  21.642  25.712  1.00  0.00     0.042 C 
BRANCH  74  75
ATOM     75  C   UNL A   1      35.149  21.487  24.500  1.00  0.00     0.118 C 
BRANCH  75  76
ATOM     76  N   UNL A   1      34.135  20.459  24.676  1.00  0.00    -0.351 N 
ATOM     77  C   UNL A   1      32.790  20.587  24.960  1.00  0.00     0.273 C 
ATOM     78  H   UNL A   1      34.456  19.533  24.579  1.00  0.00     0.163 HD
ATOM     79  O   UNL A   1      32.122  19.575  25.110  1.00  0.00    -0.267 OA
BRANCH  77  80
ATOM     80  C   UNL A   1      32.228  21.935  25.079  1.00  0.00     0.167 A 
ATOM     81  N   UNL A   1      31.642  22.533  24.024  1.00  0.00    -0.160 NA
ATOM     82  C   UNL A   1      32.213  22.782  26.207  1.00  0.00     0.095 A 
ATOM     83  N   UNL A   1      31.189  23.717  24.499  1.00  0.00    -0.219 N 
ATOM     84  C   UNL A   1      31.497  23.897  25.851  1.00  0.00     0.170 A 
ATOM     85  Br  UNL A   1      32.993  22.429  27.875  1.00  0.00    -0.044 Br
ATOM     86  C   UNL A   1      30.495  24.692  23.795  1.00  0.00     0.132 A 
ATOM     87  N   UNL A   1      31.094  25.005  26.548  1.00  0.00    -0.235 NA
ATOM     88  C   UNL A   1      30.075  25.803  24.416  1.00  0.00     0.054 A 
ATOM     89  C   UNL A   1      30.408  25.880  25.871  1.00  0.00     0.131 A 
ATOM     90  Br  UNL A   1      29.157  27.190  23.610  1.00  0.00    -0.047 Br
ENDBRANCH  77  80
ENDBRANCH  75  76
ENDBRANCH  74  75
ENDBRANCH  73  74
ENDBRANCH   3  73
TORSDOF 13
ENDMDL
