MODEL 1
REMARK VINA RESULT:     -12.3      0.000      0.000
REMARK SMILES O=C(NCCCNC(=O)c1cccc2nc(Cl)c(Cl)nc12)c1ccc(-c2c3nc(c(-c4c(F)cc(S(=O)(=O)[O-])cc4F)c4ccc([nH]4)c(-c4c(F)cc(S(=O)(=O)[O-])cc4F)c4nc(c(-c5c(F)cc(S(=O)(=O)[O-])cc5F)c5ccc2[nH]5)C=C4)C=C3)cc1
REMARK SMILES IDX 1 1 2 2 3 3 22 5 23 6 87 7 24 8 86 9 25 10 26 11 27 12 80 13
REMARK SMILES IDX 28 14 85 15 79 16 81 17 29 18 84 19 78 20 77 21 30 23 64 24
REMARK SMILES IDX 43 25 63 26 44 27 47 28 62 29 82 30 45 31 46 32 61 34 83 35
REMARK SMILES IDX 48 36 31 37 32 38 41 39 33 40 34 41 40 42 42 43 35 44 36 45
REMARK SMILES IDX 37 46 38 47 39 48 65 49 66 50 75 51 67 52 68 53 74 54 76 55
REMARK SMILES IDX 69 56 70 57 71 58 72 59 73 60 49 61 50 62 59 63 51 64 52 65
REMARK SMILES IDX 58 66 60 67 53 68 54 69 55 70 56 71 57 72 4 73 5 74 6 75
REMARK SMILES IDX 7 76 8 77 9 79 10 80 11 81 21 82 12 83 14 84 20 85 13 86
REMARK SMILES IDX 15 87 18 88 16 89 19 90 17 91
REMARK H PARENT 3 4 81 22 47 33 7 78
REMARK Flexibility Score: inf
ROOT
ATOM      1  O   UNL A   1      35.943  31.154  30.558  1.00  0.00    -0.269 OA
ATOM      2  C   UNL A   1      36.117  30.493  29.535  1.00  0.00     0.251 C 
ATOM      3  N   UNL A   1      35.032  30.231  28.735  1.00  0.00    -0.352 N 
ATOM      4  H   UNL A   1      34.215  30.723  28.984  1.00  0.00     0.163 HD
ENDROOT
BRANCH   2   5
ATOM      5  C   UNL A   1      37.475  29.996  29.205  1.00  0.00     0.039 A 
ATOM      6  C   UNL A   1      38.308  29.590  30.256  1.00  0.00     0.014 A 
ATOM      7  C   UNL A   1      37.974  30.003  27.900  1.00  0.00     0.014 A 
ATOM      8  C   UNL A   1      39.614  29.162  29.997  1.00  0.00     0.010 A 
ATOM      9  C   UNL A   1      39.252  29.510  27.633  1.00  0.00     0.010 A 
ATOM     10  C   UNL A   1      40.093  29.103  28.681  1.00  0.00    -0.014 A 
BRANCH  10  11
ATOM     11  C   UNL A   1      41.490  28.692  28.383  1.00  0.00     0.031 A 
ATOM     12  C   UNL A   1      42.596  29.714  28.438  1.00  0.00     0.074 A 
ATOM     13  C   UNL A   1      41.767  27.421  28.034  1.00  0.00     0.049 A 
ATOM     14  N   UNL A   1      43.855  29.590  28.103  1.00  0.00    -0.248 NA
ATOM     15  C   UNL A   1      42.229  31.059  28.909  1.00  0.00     0.031 C 
ATOM     16  C   UNL A   1      40.790  26.335  27.933  1.00  0.00     0.029 A 
ATOM     17  N   UNL A   1      42.959  26.829  27.694  1.00  0.00    -0.354 N 
ATOM     18  C   UNL A   1      44.422  30.844  28.296  1.00  0.00     0.074 A 
ATOM     19  C   UNL A   1      43.365  31.723  28.744  1.00  0.00     0.031 C 
ATOM     20  C   UNL A   1      41.427  25.204  27.585  1.00  0.00     0.029 A 
ATOM     21  C   UNL A   1      42.847  25.491  27.401  1.00  0.00     0.049 A 
ATOM     22  H   UNL A   1      43.813  27.317  27.664  1.00  0.00     0.167 HD
ATOM     23  C   UNL A   1      45.711  31.227  28.132  1.00  0.00     0.037 A 
ATOM     24  C   UNL A   1      43.781  24.597  27.023  1.00  0.00     0.037 A 
ATOM     25  C   UNL A   1      46.774  30.344  27.734  1.00  0.00     0.049 A 
ATOM     26  C   UNL A   1      45.209  25.040  26.861  1.00  0.00     0.074 A 
ATOM     27  C   UNL A   1      48.119  30.633  27.569  1.00  0.00     0.029 A 
ATOM     28  N   UNL A   1      46.619  28.994  27.456  1.00  0.00    -0.354 N 
ATOM     29  N   UNL A   1      45.725  26.233  27.035  1.00  0.00    -0.248 NA
ATOM     30  C   UNL A   1      46.180  24.018  26.444  1.00  0.00     0.031 C 
ATOM     31  C   UNL A   1      48.773  29.459  27.179  1.00  0.00     0.029 A 
ATOM     32  C   UNL A   1      47.840  28.436  27.124  1.00  0.00     0.049 A 
ATOM     33  H   UNL A   1      45.765  28.506  27.492  1.00  0.00     0.167 HD
ATOM     34  C   UNL A   1      47.081  26.103  26.762  1.00  0.00     0.074 A 
ATOM     35  C   UNL A   1      47.309  24.714  26.420  1.00  0.00     0.031 C 
ATOM     36  C   UNL A   1      48.050  27.050  26.790  1.00  0.00     0.037 A 
BRANCH  23  37
ATOM     37  C   UNL A   1      46.040  32.667  28.395  1.00  0.00     0.058 A 
ATOM     38  C   UNL A   1      46.398  33.113  29.677  1.00  0.00     0.135 A 
ATOM     39  C   UNL A   1      46.009  33.610  27.355  1.00  0.00     0.135 A 
ATOM     40  F   UNL A   1      46.423  32.254  30.709  1.00  0.00    -0.206 F 
ATOM     41  C   UNL A   1      46.688  34.450  29.926  1.00  0.00     0.059 A 
ATOM     42  C   UNL A   1      46.317  34.950  27.578  1.00  0.00     0.059 A 
ATOM     43  F   UNL A   1      45.671  33.235  26.113  1.00  0.00    -0.206 F 
ATOM     44  C   UNL A   1      46.639  35.362  28.871  1.00  0.00     0.060 A 
BRANCH  44  45
ATOM     45  S   UNL A   1      47.009  37.097  29.207  1.00  0.00     0.124 S 
ATOM     46  O   UNL A   1      48.469  37.083  29.218  1.00  0.00    -0.237 OA
ATOM     47  O   UNL A   1      46.391  37.777  28.074  1.00  0.00    -0.237 OA
ATOM     48  O   UNL A   1      46.374  37.334  30.500  1.00  0.00    -0.744 OA
ENDBRANCH  44  45
ENDBRANCH  23  37
BRANCH  24  49
ATOM     49  C   UNL A   1      43.397  23.180  26.799  1.00  0.00     0.058 A 
ATOM     50  C   UNL A   1      43.351  22.651  25.502  1.00  0.00     0.135 A 
ATOM     51  C   UNL A   1      43.099  22.325  27.870  1.00  0.00     0.135 A 
ATOM     52  F   UNL A   1      43.621  23.435  24.447  1.00  0.00    -0.206 F 
ATOM     53  C   UNL A   1      43.021  21.320  25.272  1.00  0.00     0.059 A 
ATOM     54  C   UNL A   1      42.781  20.986  27.666  1.00  0.00     0.059 A 
ATOM     55  F   UNL A   1      43.141  22.785  29.130  1.00  0.00    -0.206 F 
ATOM     56  C   UNL A   1      42.741  20.493  26.361  1.00  0.00     0.060 A 
BRANCH  56  57
ATOM     57  S   UNL A   1      42.386  18.748  26.058  1.00  0.00     0.124 S 
ATOM     58  O   UNL A   1      40.980  18.799  25.671  1.00  0.00    -0.237 OA
ATOM     59  O   UNL A   1      43.329  18.422  24.993  1.00  0.00    -0.237 OA
ATOM     60  O   UNL A   1      42.666  18.122  27.347  1.00  0.00    -0.744 OA
ENDBRANCH  56  57
ENDBRANCH  24  49
BRANCH  36  61
ATOM     61  C   UNL A   1      49.448  26.621  26.457  1.00  0.00     0.058 A 
ATOM     62  C   UNL A   1      50.261  25.988  27.407  1.00  0.00     0.135 A 
ATOM     63  C   UNL A   1      49.952  26.782  25.157  1.00  0.00     0.135 A 
ATOM     64  F   UNL A   1      49.824  25.817  28.665  1.00  0.00    -0.206 F 
ATOM     65  C   UNL A   1      51.535  25.533  27.083  1.00  0.00     0.059 A 
ATOM     66  C   UNL A   1      51.217  26.321  24.806  1.00  0.00     0.059 A 
ATOM     67  F   UNL A   1      49.208  27.376  24.211  1.00  0.00    -0.206 F 
ATOM     68  C   UNL A   1      52.003  25.702  25.777  1.00  0.00     0.060 A 
BRANCH  68  69
ATOM     69  S   UNL A   1      53.638  25.063  25.353  1.00  0.00     0.124 S 
ATOM     70  O   UNL A   1      54.442  25.547  26.470  1.00  0.00    -0.237 OA
ATOM     71  O   UNL A   1      53.413  23.622  25.311  1.00  0.00    -0.237 OA
ATOM     72  O   UNL A   1      53.918  25.684  24.061  1.00  0.00    -0.744 OA
ENDBRANCH  68  69
ENDBRANCH  36  61
ENDBRANCH  10  11
ENDBRANCH   2   5
BRANCH   3  73
ATOM     73  C   UNL A   1      34.880  29.355  27.585  1.00  0.00     0.118 C 
BRANCH  73  74
ATOM     74  C   UNL A   1      33.420  29.069  27.242  1.00  0.00     0.042 C 
BRANCH  74  75
ATOM     75  C   UNL A   1      32.827  29.935  26.137  1.00  0.00     0.118 C 
BRANCH  75  76
ATOM     76  N   UNL A   1      33.460  29.729  24.844  1.00  0.00    -0.352 N 
ATOM     77  C   UNL A   1      33.039  29.006  23.757  1.00  0.00     0.253 C 
ATOM     78  H   UNL A   1      34.328  30.180  24.730  1.00  0.00     0.163 HD
ATOM     79  O   UNL A   1      33.723  28.981  22.736  1.00  0.00    -0.269 OA
BRANCH  77  80
ATOM     80  C   UNL A   1      31.730  28.327  23.772  1.00  0.00     0.067 A 
ATOM     81  C   UNL A   1      30.656  28.956  23.125  1.00  0.00     0.016 A 
ATOM     82  C   UNL A   1      31.621  27.045  24.329  1.00  0.00     0.103 A 
ATOM     83  C   UNL A   1      29.423  28.324  23.073  1.00  0.00     0.003 A 
ATOM     84  C   UNL A   1      30.357  26.403  24.234  1.00  0.00     0.091 A 
ATOM     85  N   UNL A   1      32.654  26.412  24.942  1.00  0.00    -0.230 NA
ATOM     86  C   UNL A   1      29.289  27.054  23.628  1.00  0.00     0.031 A 
ATOM     87  N   UNL A   1      30.144  25.161  24.709  1.00  0.00    -0.231 NA
ATOM     88  C   UNL A   1      32.434  25.159  25.401  1.00  0.00     0.167 A 
ATOM     89  C   UNL A   1      31.201  24.545  25.284  1.00  0.00     0.167 A 
ATOM     90  Cl  UNL A   1      33.810  24.426  26.115  1.00  0.00    -0.059 Cl
ATOM     91  Cl  UNL A   1      30.859  22.951  25.824  1.00  0.00    -0.059 Cl
ENDBRANCH  77  80
ENDBRANCH  75  76
ENDBRANCH  74  75
ENDBRANCH  73  74
ENDBRANCH   3  73
TORSDOF 13
ENDMDL
MODEL 2
REMARK VINA RESULT:     -12.3      6.938     12.411
REMARK SMILES O=C(NCCCNC(=O)c1cccc2nc(Cl)c(Cl)nc12)c1ccc(-c2c3nc(c(-c4c(F)cc(S(=O)(=O)[O-])cc4F)c4ccc([nH]4)c(-c4c(F)cc(S(=O)(=O)[O-])cc4F)c4nc(c(-c5c(F)cc(S(=O)(=O)[O-])cc5F)c5ccc2[nH]5)C=C4)C=C3)cc1
REMARK SMILES IDX 1 1 2 2 3 3 22 5 23 6 87 7 24 8 86 9 25 10 26 11 27 12 80 13
REMARK SMILES IDX 28 14 85 15 79 16 81 17 29 18 84 19 78 20 77 21 30 23 64 24
REMARK SMILES IDX 43 25 63 26 44 27 47 28 62 29 82 30 45 31 46 32 61 34 83 35
REMARK SMILES IDX 48 36 31 37 32 38 41 39 33 40 34 41 40 42 42 43 35 44 36 45
REMARK SMILES IDX 37 46 38 47 39 48 65 49 66 50 75 51 67 52 68 53 74 54 76 55
REMARK SMILES IDX 69 56 70 57 71 58 72 59 73 60 49 61 50 62 59 63 51 64 52 65
REMARK SMILES IDX 58 66 60 67 53 68 54 69 55 70 56 71 57 72 4 73 5 74 6 75
REMARK SMILES IDX 7 76 8 77 9 79 10 80 11 81 21 82 12 83 14 84 20 85 13 86
REMARK SMILES IDX 15 87 18 88 16 89 19 90 17 91
REMARK H PARENT 3 4 81 22 47 33 7 78
REMARK Flexibility Score: inf
ROOT
ATOM      1  O   UNL A   1      41.692  24.291  26.157  1.00  0.00    -0.269 OA
ATOM      2  C   UNL A   1      40.577  24.552  26.605  1.00  0.00     0.251 C 
ATOM      3  N   UNL A   1      39.500  23.846  26.126  1.00  0.00    -0.352 N 
ATOM      4  H   UNL A   1      39.738  23.080  25.554  1.00  0.00     0.163 HD
ENDROOT
BRANCH   2   5
ATOM      5  C   UNL A   1      40.427  25.614  27.629  1.00  0.00     0.039 A 
ATOM      6  C   UNL A   1      41.297  26.712  27.579  1.00  0.00     0.014 A 
ATOM      7  C   UNL A   1      39.514  25.512  28.681  1.00  0.00     0.014 A 
ATOM      8  C   UNL A   1      41.226  27.713  28.553  1.00  0.00     0.010 A 
ATOM      9  C   UNL A   1      39.395  26.545  29.612  1.00  0.00     0.010 A 
ATOM     10  C   UNL A   1      40.263  27.647  29.570  1.00  0.00    -0.014 A 
BRANCH  10  11
ATOM     11  C   UNL A   1      40.195  28.676  30.640  1.00  0.00     0.031 A 
ATOM     12  C   UNL A   1      41.138  28.595  31.813  1.00  0.00     0.074 A 
ATOM     13  C   UNL A   1      39.278  29.659  30.584  1.00  0.00     0.049 A 
ATOM     14  N   UNL A   1      41.167  29.319  32.903  1.00  0.00    -0.248 NA
ATOM     15  C   UNL A   1      42.167  27.544  31.763  1.00  0.00     0.031 C 
ATOM     16  C   UNL A   1      38.301  29.848  29.510  1.00  0.00     0.029 A 
ATOM     17  N   UNL A   1      39.015  30.687  31.456  1.00  0.00    -0.354 N 
ATOM     18  C   UNL A   1      42.195  28.795  33.678  1.00  0.00     0.074 A 
ATOM     19  C   UNL A   1      42.743  27.672  32.950  1.00  0.00     0.031 C 
ATOM     20  C   UNL A   1      37.565  30.942  29.774  1.00  0.00     0.029 A 
ATOM     21  C   UNL A   1      37.991  31.509  31.051  1.00  0.00     0.049 A 
ATOM     22  H   UNL A   1      39.514  30.822  32.294  1.00  0.00     0.167 HD
ATOM     23  C   UNL A   1      42.654  29.220  34.879  1.00  0.00     0.037 A 
ATOM     24  C   UNL A   1      37.454  32.593  31.642  1.00  0.00     0.037 A 
ATOM     25  C   UNL A   1      42.145  30.366  35.582  1.00  0.00     0.049 A 
ATOM     26  C   UNL A   1      37.988  33.056  32.968  1.00  0.00     0.074 A 
ATOM     27  C   UNL A   1      42.565  30.892  36.792  1.00  0.00     0.029 A 
ATOM     28  N   UNL A   1      41.113  31.175  35.131  1.00  0.00    -0.354 N 
ATOM     29  N   UNL A   1      38.952  32.541  33.692  1.00  0.00    -0.248 NA
ATOM     30  C   UNL A   1      37.357  34.244  33.562  1.00  0.00     0.031 C 
ATOM     31  C   UNL A   1      41.778  32.014  37.078  1.00  0.00     0.029 A 
ATOM     32  C   UNL A   1      40.884  32.197  36.035  1.00  0.00     0.049 A 
ATOM     33  H   UNL A   1      40.618  31.043  34.290  1.00  0.00     0.167 HD
ATOM     34  C   UNL A   1      39.053  33.347  34.819  1.00  0.00     0.074 A 
ATOM     35  C   UNL A   1      38.059  34.392  34.679  1.00  0.00     0.031 C 
ATOM     36  C   UNL A   1      39.893  33.231  35.877  1.00  0.00     0.037 A 
BRANCH  23  37
ATOM     37  C   UNL A   1      43.776  28.441  35.502  1.00  0.00     0.058 A 
ATOM     38  C   UNL A   1      43.527  27.389  36.398  1.00  0.00     0.135 A 
ATOM     39  C   UNL A   1      45.113  28.739  35.191  1.00  0.00     0.135 A 
ATOM     40  F   UNL A   1      42.267  27.078  36.741  1.00  0.00    -0.206 F 
ATOM     41  C   UNL A   1      44.566  26.676  36.987  1.00  0.00     0.059 A 
ATOM     42  C   UNL A   1      46.167  28.024  35.753  1.00  0.00     0.059 A 
ATOM     43  F   UNL A   1      45.403  29.736  34.343  1.00  0.00    -0.206 F 
ATOM     44  C   UNL A   1      45.883  27.005  36.662  1.00  0.00     0.060 A 
BRANCH  44  45
ATOM     45  S   UNL A   1      47.223  26.078  37.439  1.00  0.00     0.124 S 
ATOM     46  O   UNL A   1      47.440  26.852  38.659  1.00  0.00    -0.237 OA
ATOM     47  O   UNL A   1      46.629  24.759  37.625  1.00  0.00    -0.237 OA
ATOM     48  O   UNL A   1      48.298  26.145  36.454  1.00  0.00    -0.744 OA
ENDBRANCH  44  45
ENDBRANCH  23  37
BRANCH  24  49
ATOM     49  C   UNL A   1      36.360  33.335  30.964  1.00  0.00     0.058 A 
ATOM     50  C   UNL A   1      35.046  33.265  31.446  1.00  0.00     0.135 A 
ATOM     51  C   UNL A   1      36.609  34.146  29.847  1.00  0.00     0.135 A 
ATOM     52  F   UNL A   1      34.761  32.495  32.507  1.00  0.00    -0.206 F 
ATOM     53  C   UNL A   1      34.012  33.973  30.844  1.00  0.00     0.059 A 
ATOM     54  C   UNL A   1      35.594  34.876  29.238  1.00  0.00     0.059 A 
ATOM     55  F   UNL A   1      37.854  34.253  29.357  1.00  0.00    -0.206 F 
ATOM     56  C   UNL A   1      34.297  34.781  29.742  1.00  0.00     0.060 A 
BRANCH  56  57
ATOM     57  S   UNL A   1      32.962  35.754  29.011  1.00  0.00     0.124 S 
ATOM     58  O   UNL A   1      32.358  34.787  28.102  1.00  0.00    -0.237 OA
ATOM     59  O   UNL A   1      32.168  36.115  30.180  1.00  0.00    -0.237 OA
ATOM     60  O   UNL A   1      33.668  36.864  28.377  1.00  0.00    -0.744 OA
ENDBRANCH  56  57
ENDBRANCH  24  49
BRANCH  36  61
ATOM     61  C   UNL A   1      39.787  34.262  36.961  1.00  0.00     0.058 A 
ATOM     62  C   UNL A   1      40.408  35.514  36.838  1.00  0.00     0.135 A 
ATOM     63  C   UNL A   1      39.003  34.022  38.100  1.00  0.00     0.135 A 
ATOM     64  F   UNL A   1      41.174  35.787  35.770  1.00  0.00    -0.206 F 
ATOM     65  C   UNL A   1      40.261  36.494  37.814  1.00  0.00     0.059 A 
ATOM     66  C   UNL A   1      38.829  34.994  39.080  1.00  0.00     0.059 A 
ATOM     67  F   UNL A   1      38.385  32.842  38.258  1.00  0.00    -0.206 F 
ATOM     68  C   UNL A   1      39.466  36.225  38.931  1.00  0.00     0.060 A 
BRANCH  68  69
ATOM     69  S   UNL A   1      39.239  37.522  40.167  1.00  0.00     0.124 S 
ATOM     70  O   UNL A   1      38.903  36.742  41.353  1.00  0.00    -0.237 OA
ATOM     71  O   UNL A   1      40.545  38.173  40.184  1.00  0.00    -0.237 OA
ATOM     72  O   UNL A   1      38.153  38.328  39.615  1.00  0.00    -0.744 OA
ENDBRANCH  68  69
ENDBRANCH  36  61
ENDBRANCH  10  11
ENDBRANCH   2   5
BRANCH   3  73
ATOM     73  C   UNL A   1      38.071  24.032  26.319  1.00  0.00     0.118 C 
BRANCH  73  74
ATOM     74  C   UNL A   1      37.236  23.463  25.175  1.00  0.00     0.042 C 
BRANCH  74  75
ATOM     75  C   UNL A   1      36.784  22.018  25.354  1.00  0.00     0.118 C 
BRANCH  75  76
ATOM     76  N   UNL A   1      35.902  21.829  26.495  1.00  0.00    -0.352 N 
ATOM     77  C   UNL A   1      34.548  21.614  26.542  1.00  0.00     0.253 C 
ATOM     78  H   UNL A   1      36.347  21.861  27.372  1.00  0.00     0.163 HD
ATOM     79  O   UNL A   1      33.991  21.453  27.626  1.00  0.00    -0.269 OA
BRANCH  77  80
ATOM     80  C   UNL A   1      33.767  21.488  25.298  1.00  0.00     0.067 A 
ATOM     81  C   UNL A   1      33.362  20.205  24.902  1.00  0.00     0.016 A 
ATOM     82  C   UNL A   1      33.365  22.643  24.612  1.00  0.00     0.103 A 
ATOM     83  C   UNL A   1      32.582  20.052  23.767  1.00  0.00     0.003 A 
ATOM     84  C   UNL A   1      32.539  22.465  23.470  1.00  0.00     0.091 A 
ATOM     85  N   UNL A   1      33.731  23.896  24.990  1.00  0.00    -0.230 NA
ATOM     86  C   UNL A   1      32.179  21.185  23.064  1.00  0.00     0.031 A 
ATOM     87  N   UNL A   1      32.071  23.503  22.751  1.00  0.00    -0.231 NA
ATOM     88  C   UNL A   1      33.244  24.932  24.271  1.00  0.00     0.167 A 
ATOM     89  C   UNL A   1      32.426  24.738  23.174  1.00  0.00     0.167 A 
ATOM     90  Cl  UNL A   1      33.722  26.472  24.855  1.00  0.00    -0.059 Cl
ATOM     91  Cl  UNL A   1      31.755  26.007  22.231  1.00  0.00    -0.059 Cl
ENDBRANCH  77  80
ENDBRANCH  75  76
ENDBRANCH  74  75
ENDBRANCH  73  74
ENDBRANCH   3  73
TORSDOF 13
ENDMDL
MODEL 3
REMARK VINA RESULT:     -12.1      1.374      1.778
REMARK SMILES O=C(NCCCNC(=O)c1cccc2nc(Cl)c(Cl)nc12)c1ccc(-c2c3nc(c(-c4c(F)cc(S(=O)(=O)[O-])cc4F)c4ccc([nH]4)c(-c4c(F)cc(S(=O)(=O)[O-])cc4F)c4nc(c(-c5c(F)cc(S(=O)(=O)[O-])cc5F)c5ccc2[nH]5)C=C4)C=C3)cc1
REMARK SMILES IDX 1 1 2 2 3 3 22 5 23 6 87 7 24 8 86 9 25 10 26 11 27 12 80 13
REMARK SMILES IDX 28 14 85 15 79 16 81 17 29 18 84 19 78 20 77 21 30 23 64 24
REMARK SMILES IDX 43 25 63 26 44 27 47 28 62 29 82 30 45 31 46 32 61 34 83 35
REMARK SMILES IDX 48 36 31 37 32 38 41 39 33 40 34 41 40 42 42 43 35 44 36 45
REMARK SMILES IDX 37 46 38 47 39 48 65 49 66 50 75 51 67 52 68 53 74 54 76 55
REMARK SMILES IDX 69 56 70 57 71 58 72 59 73 60 49 61 50 62 59 63 51 64 52 65
REMARK SMILES IDX 58 66 60 67 53 68 54 69 55 70 56 71 57 72 4 73 5 74 6 75
REMARK SMILES IDX 7 76 8 77 9 79 10 80 11 81 21 82 12 83 14 84 20 85 13 86
REMARK SMILES IDX 15 87 18 88 16 89 19 90 17 91
REMARK H PARENT 3 4 81 22 47 33 7 78
REMARK Flexibility Score: inf
ROOT
ATOM      1  O   UNL A   1      35.992  31.095  30.723  1.00  0.00    -0.269 OA
ATOM      2  C   UNL A   1      36.184  30.554  29.636  1.00  0.00     0.251 C 
ATOM      3  N   UNL A   1      35.122  30.425  28.775  1.00  0.00    -0.352 N 
ATOM      4  H   UNL A   1      34.312  30.913  29.053  1.00  0.00     0.163 HD
ENDROOT
BRANCH   2   5
ATOM      5  C   UNL A   1      37.538  30.052  29.295  1.00  0.00     0.039 A 
ATOM      6  C   UNL A   1      38.374  29.634  30.338  1.00  0.00     0.014 A 
ATOM      7  C   UNL A   1      38.029  30.065  27.987  1.00  0.00     0.014 A 
ATOM      8  C   UNL A   1      39.676  29.201  30.069  1.00  0.00     0.010 A 
ATOM      9  C   UNL A   1      39.303  29.566  27.710  1.00  0.00     0.010 A 
ATOM     10  C   UNL A   1      40.147  29.148  28.749  1.00  0.00    -0.014 A 
BRANCH  10  11
ATOM     11  C   UNL A   1      41.540  28.732  28.440  1.00  0.00     0.031 A 
ATOM     12  C   UNL A   1      42.651  29.749  28.490  1.00  0.00     0.074 A 
ATOM     13  C   UNL A   1      41.810  27.461  28.087  1.00  0.00     0.049 A 
ATOM     14  N   UNL A   1      43.907  29.621  28.145  1.00  0.00    -0.248 NA
ATOM     15  C   UNL A   1      42.293  31.095  28.966  1.00  0.00     0.031 C 
ATOM     16  C   UNL A   1      40.828  26.380  27.992  1.00  0.00     0.029 A 
ATOM     17  N   UNL A   1      42.997  26.864  27.738  1.00  0.00    -0.354 N 
ATOM     18  C   UNL A   1      44.481  30.872  28.336  1.00  0.00     0.074 A 
ATOM     19  C   UNL A   1      43.430  31.754  28.794  1.00  0.00     0.031 C 
ATOM     20  C   UNL A   1      41.457  25.246  27.637  1.00  0.00     0.029 A 
ATOM     21  C   UNL A   1      42.877  25.527  27.443  1.00  0.00     0.049 A 
ATOM     22  H   UNL A   1      43.853  27.349  27.702  1.00  0.00     0.167 HD
ATOM     23  C   UNL A   1      45.771  31.250  28.164  1.00  0.00     0.037 A 
ATOM     24  C   UNL A   1      43.805  24.631  27.057  1.00  0.00     0.037 A 
ATOM     25  C   UNL A   1      46.827  30.364  27.757  1.00  0.00     0.049 A 
ATOM     26  C   UNL A   1      45.233  25.068  26.885  1.00  0.00     0.074 A 
ATOM     27  C   UNL A   1      48.171  30.648  27.583  1.00  0.00     0.029 A 
ATOM     28  N   UNL A   1      46.664  29.015  27.478  1.00  0.00    -0.354 N 
ATOM     29  N   UNL A   1      45.755  26.258  27.057  1.00  0.00    -0.248 NA
ATOM     30  C   UNL A   1      46.197  24.043  26.459  1.00  0.00     0.031 C 
ATOM     31  C   UNL A   1      48.818  29.472  27.185  1.00  0.00     0.029 A 
ATOM     32  C   UNL A   1      47.880  28.453  27.135  1.00  0.00     0.049 A 
ATOM     33  H   UNL A   1      45.808  28.530  27.519  1.00  0.00     0.167 HD
ATOM     34  C   UNL A   1      47.109  26.123  26.775  1.00  0.00     0.074 A 
ATOM     35  C   UNL A   1      47.329  24.734  26.429  1.00  0.00     0.031 C 
ATOM     36  C   UNL A   1      48.082  27.066  26.797  1.00  0.00     0.037 A 
BRANCH  23  37
ATOM     37  C   UNL A   1      46.107  32.689  28.428  1.00  0.00     0.058 A 
ATOM     38  C   UNL A   1      46.502  33.126  29.702  1.00  0.00     0.135 A 
ATOM     39  C   UNL A   1      46.046  33.639  27.395  1.00  0.00     0.135 A 
ATOM     40  F   UNL A   1      46.557  32.259  30.726  1.00  0.00    -0.206 F 
ATOM     41  C   UNL A   1      46.800  34.461  29.951  1.00  0.00     0.059 A 
ATOM     42  C   UNL A   1      46.361  34.977  27.618  1.00  0.00     0.059 A 
ATOM     43  F   UNL A   1      45.672  33.272  26.161  1.00  0.00    -0.206 F 
ATOM     44  C   UNL A   1      46.720  35.380  28.904  1.00  0.00     0.060 A 
BRANCH  44  45
ATOM     45  S   UNL A   1      47.101  37.112  29.242  1.00  0.00     0.124 S 
ATOM     46  O   UNL A   1      47.699  37.528  27.977  1.00  0.00    -0.237 OA
ATOM     47  O   UNL A   1      45.785  37.674  29.534  1.00  0.00    -0.237 OA
ATOM     48  O   UNL A   1      48.015  37.043  30.377  1.00  0.00    -0.744 OA
ENDBRANCH  44  45
ENDBRANCH  23  37
BRANCH  24  49
ATOM     49  C   UNL A   1      43.413  23.216  26.833  1.00  0.00     0.058 A 
ATOM     50  C   UNL A   1      43.353  22.690  25.535  1.00  0.00     0.135 A 
ATOM     51  C   UNL A   1      43.121  22.360  27.904  1.00  0.00     0.135 A 
ATOM     52  F   UNL A   1      43.617  23.475  24.480  1.00  0.00    -0.206 F 
ATOM     53  C   UNL A   1      43.016  21.360  25.304  1.00  0.00     0.059 A 
ATOM     54  C   UNL A   1      42.797  21.022  27.700  1.00  0.00     0.059 A 
ATOM     55  F   UNL A   1      43.177  22.816  29.165  1.00  0.00    -0.206 F 
ATOM     56  C   UNL A   1      42.743  20.533  26.394  1.00  0.00     0.060 A 
BRANCH  56  57
ATOM     57  S   UNL A   1      42.378  18.790  26.090  1.00  0.00     0.124 S 
ATOM     58  O   UNL A   1      42.657  18.200  27.394  1.00  0.00    -0.237 OA
ATOM     59  O   UNL A   1      40.974  18.833  25.697  1.00  0.00    -0.237 OA
ATOM     60  O   UNL A   1      43.309  18.435  25.022  1.00  0.00    -0.744 OA
ENDBRANCH  56  57
ENDBRANCH  24  49
BRANCH  36  61
ATOM     61  C   UNL A   1      49.475  26.632  26.453  1.00  0.00     0.058 A 
ATOM     62  C   UNL A   1      50.296  26.000  27.398  1.00  0.00     0.135 A 
ATOM     63  C   UNL A   1      49.969  26.788  25.148  1.00  0.00     0.135 A 
ATOM     64  F   UNL A   1      49.869  25.834  28.661  1.00  0.00    -0.206 F 
ATOM     65  C   UNL A   1      51.565  25.540  27.064  1.00  0.00     0.059 A 
ATOM     66  C   UNL A   1      51.229  26.322  24.788  1.00  0.00     0.059 A 
ATOM     67  F   UNL A   1      49.218  27.381  24.208  1.00  0.00    -0.206 F 
ATOM     68  C   UNL A   1      52.022  25.704  25.754  1.00  0.00     0.060 A 
BRANCH  68  69
ATOM     69  S   UNL A   1      53.651  25.059  25.317  1.00  0.00     0.124 S 
ATOM     70  O   UNL A   1      54.486  25.633  26.367  1.00  0.00    -0.237 OA
ATOM     71  O   UNL A   1      53.449  23.616  25.387  1.00  0.00    -0.237 OA
ATOM     72  O   UNL A   1      53.876  25.589  23.975  1.00  0.00    -0.744 OA
ENDBRANCH  68  69
ENDBRANCH  36  61
ENDBRANCH  10  11
ENDBRANCH   2   5
BRANCH   3  73
ATOM     73  C   UNL A   1      34.986  29.696  27.524  1.00  0.00     0.118 C 
BRANCH  73  74
ATOM     74  C   UNL A   1      33.605  29.070  27.346  1.00  0.00     0.042 C 
BRANCH  74  75
ATOM     75  C   UNL A   1      32.837  29.526  26.111  1.00  0.00     0.118 C 
BRANCH  75  76
ATOM     76  N   UNL A   1      33.628  29.477  24.891  1.00  0.00    -0.352 N 
ATOM     77  C   UNL A   1      33.560  28.616  23.825  1.00  0.00     0.253 C 
ATOM     78  H   UNL A   1      34.323  30.170  24.820  1.00  0.00     0.163 HD
ATOM     79  O   UNL A   1      34.317  28.766  22.869  1.00  0.00    -0.269 OA
BRANCH  77  80
ATOM     80  C   UNL A   1      32.526  27.565  23.778  1.00  0.00     0.067 A 
ATOM     81  C   UNL A   1      32.921  26.242  24.025  1.00  0.00     0.016 A 
ATOM     82  C   UNL A   1      31.183  27.923  23.595  1.00  0.00     0.103 A 
ATOM     83  C   UNL A   1      31.969  25.235  24.040  1.00  0.00     0.003 A 
ATOM     84  C   UNL A   1      30.221  26.879  23.648  1.00  0.00     0.091 A 
ATOM     85  N   UNL A   1      30.778  29.201  23.372  1.00  0.00    -0.230 NA
ATOM     86  C   UNL A   1      30.629  25.566  23.852  1.00  0.00     0.031 A 
ATOM     87  N   UNL A   1      28.901  27.109  23.513  1.00  0.00    -0.231 NA
ATOM     88  C   UNL A   1      29.450  29.424  23.255  1.00  0.00     0.167 A 
ATOM     89  C   UNL A   1      28.528  28.396  23.327  1.00  0.00     0.167 A 
ATOM     90  Cl  UNL A   1      29.037  31.072  23.026  1.00  0.00    -0.059 Cl
ATOM     91  Cl  UNL A   1      26.829  28.610  23.208  1.00  0.00    -0.059 Cl
ENDBRANCH  77  80
ENDBRANCH  75  76
ENDBRANCH  74  75
ENDBRANCH  73  74
ENDBRANCH   3  73
TORSDOF 13
ENDMDL
