MODEL 1
REMARK VINA RESULT:     -10.7      0.000      0.000
REMARK SMILES C[N@@H+](CC(=O)NCCCNC(=O)c1ccc(-c2c3nc(c(-c4c(F)cc(S(=O)(=O)[O-])cc4F)c4ccc([nH]4)c(-c4c(F)cc(S(=O)(=O)[O-])cc4F)c4nc(c(-c5c(F)cc(S(=O)(=O)[O-])cc5F)c5ccc2[nH]5)C=C4)C=C3)cc1)Cc1nccs1
REMARK SMILES IDX 8 1 7 2 6 3 4 4 5 5 3 7 2 8 1 9 79 11 80 12 81 13 84 14
REMARK SMILES IDX 82 15 83 16 9 17 10 18 11 19 12 21 13 22 14 23 78 24 15 25
REMARK SMILES IDX 77 26 16 27 17 28 18 29 71 30 19 31 76 32 70 33 72 34 20 35
REMARK SMILES IDX 75 36 69 37 68 38 21 40 55 41 34 42 54 43 35 44 38 45 53 46
REMARK SMILES IDX 73 47 36 48 37 49 52 51 74 52 39 53 22 54 23 55 32 56 24 57
REMARK SMILES IDX 25 58 31 59 33 60 26 61 27 62 28 63 29 64 30 65 56 66 57 67
REMARK SMILES IDX 66 68 58 69 59 70 65 71 67 72 60 73 61 74 62 75 63 76 64 77
REMARK SMILES IDX 40 78 41 79 50 80 42 81 43 82 49 83 51 84 44 85 45 86 46 87
REMARK SMILES IDX 47 88 48 89
REMARK H PARENT 6 6 2 10 10 20 72 39 38 50
REMARK Flexibility Score: inf
ROOT
ATOM      1  C   UNL A   1      41.337  21.564  27.606  1.00  0.00     0.042 C 
ENDROOT
BRANCH   1   2
ATOM      2  C   UNL A   1      40.969  20.354  26.752  1.00  0.00     0.118 C 
BRANCH   2   3
ATOM      3  N   UNL A   1      41.754  19.175  27.060  1.00  0.00    -0.351 N 
ATOM      4  C   UNL A   1      42.780  18.588  26.383  1.00  0.00     0.275 C 
ATOM      5  O   UNL A   1      43.333  17.621  26.918  1.00  0.00    -0.269 OA
ATOM      6  H   UNL A   1      41.504  18.722  27.899  1.00  0.00     0.163 HD
BRANCH   4   7
ATOM      7  C   UNL A   1      43.294  19.140  25.055  1.00  0.00     0.363 C 
BRANCH   7   8
ATOM      8  N   UNL A   1      44.432  20.065  25.105  1.00  0.00    -0.324 N 
ATOM      9  C   UNL A   1      45.733  19.490  25.365  1.00  0.00     0.333 C 
ATOM     10  H   UNL A   1      44.471  20.291  24.110  1.00  0.00     0.348 HD
BRANCH   8  11
ATOM     11  C   UNL A   1      44.217  21.390  25.703  1.00  0.00     0.331 C 
BRANCH  11  12
ATOM     12  C   UNL A   1      45.222  22.479  25.396  1.00  0.00     0.147 A 
ATOM     13  N   UNL A   1      45.706  22.782  24.203  1.00  0.00    -0.244 NA
ATOM     14  S   UNL A   1      45.809  23.467  26.689  1.00  0.00    -0.122 S 
ATOM     15  C   UNL A   1      46.635  23.798  24.320  1.00  0.00     0.123 A 
ATOM     16  C   UNL A   1      46.845  24.275  25.593  1.00  0.00     0.087 A 
ENDBRANCH  11  12
ENDBRANCH   8  11
ENDBRANCH   7   8
ENDBRANCH   4   7
ENDBRANCH   2   3
ENDBRANCH   1   2
BRANCH   1  17
ATOM     17  C   UNL A   1      40.672  22.873  27.202  1.00  0.00     0.118 C 
BRANCH  17  18
ATOM     18  N   UNL A   1      41.431  23.603  26.201  1.00  0.00    -0.352 N 
ATOM     19  C   UNL A   1      41.776  24.932  26.135  1.00  0.00     0.251 C 
ATOM     20  H   UNL A   1      41.751  23.057  25.447  1.00  0.00     0.163 HD
ATOM     21  O   UNL A   1      42.260  25.365  25.091  1.00  0.00    -0.269 OA
BRANCH  19  22
ATOM     22  C   UNL A   1      41.560  25.853  27.280  1.00  0.00     0.039 A 
ATOM     23  C   UNL A   1      42.527  26.832  27.538  1.00  0.00     0.014 A 
ATOM     24  C   UNL A   1      40.467  25.728  28.140  1.00  0.00     0.014 A 
ATOM     25  C   UNL A   1      42.371  27.709  28.616  1.00  0.00     0.010 A 
ATOM     26  C   UNL A   1      40.272  26.652  29.171  1.00  0.00     0.010 A 
ATOM     27  C   UNL A   1      41.228  27.645  29.429  1.00  0.00    -0.014 A 
BRANCH  27  28
ATOM     28  C   UNL A   1      41.029  28.601  30.552  1.00  0.00     0.031 A 
ATOM     29  C   UNL A   1      41.866  28.504  31.800  1.00  0.00     0.074 A 
ATOM     30  C   UNL A   1      40.051  29.526  30.477  1.00  0.00     0.049 A 
ATOM     31  N   UNL A   1      41.809  29.224  32.892  1.00  0.00    -0.248 NA
ATOM     32  C   UNL A   1      42.881  27.440  31.838  1.00  0.00     0.031 C 
ATOM     33  C   UNL A   1      39.124  29.684  29.356  1.00  0.00     0.029 A 
ATOM     34  N   UNL A   1      39.663  30.496  31.369  1.00  0.00    -0.354 N 
ATOM     35  C   UNL A   1      42.757  28.684  33.755  1.00  0.00     0.074 A 
ATOM     36  C   UNL A   1      43.346  27.551  33.074  1.00  0.00     0.031 C 
ATOM     37  C   UNL A   1      38.282  30.697  29.621  1.00  0.00     0.029 A 
ATOM     38  C   UNL A   1      38.592  31.242  30.940  1.00  0.00     0.049 A 
ATOM     39  H   UNL A   1      40.109  30.641  32.234  1.00  0.00     0.167 HD
ATOM     40  C   UNL A   1      43.118  29.103  34.993  1.00  0.00     0.037 A 
ATOM     41  C   UNL A   1      37.926  32.250  31.539  1.00  0.00     0.037 A 
ATOM     42  C   UNL A   1      42.558  30.254  35.654  1.00  0.00     0.049 A 
ATOM     43  C   UNL A   1      38.374  32.733  32.889  1.00  0.00     0.074 A 
ATOM     44  C   UNL A   1      42.927  30.815  36.864  1.00  0.00     0.029 A 
ATOM     45  N   UNL A   1      41.505  31.014  35.166  1.00  0.00    -0.354 N 
ATOM     46  N   UNL A   1      39.336  32.269  33.651  1.00  0.00    -0.248 NA
ATOM     47  C   UNL A   1      37.657  33.883  33.457  1.00  0.00     0.031 C 
ATOM     48  C   UNL A   1      42.071  31.892  37.126  1.00  0.00     0.029 A 
ATOM     49  C   UNL A   1      41.196  32.026  36.062  1.00  0.00     0.049 A 
ATOM     50  H   UNL A   1      41.047  30.858  34.310  1.00  0.00     0.167 HD
ATOM     51  C   UNL A   1      39.348  33.077  34.782  1.00  0.00     0.074 A 
ATOM     52  C   UNL A   1      38.308  34.069  34.598  1.00  0.00     0.031 C 
ATOM     53  C   UNL A   1      40.151  33.003  35.873  1.00  0.00     0.037 A 
BRANCH  40  54
ATOM     54  C   UNL A   1      44.169  28.303  35.714  1.00  0.00     0.058 A 
ATOM     55  C   UNL A   1      43.831  27.272  36.607  1.00  0.00     0.135 A 
ATOM     56  C   UNL A   1      45.532  28.570  35.510  1.00  0.00     0.135 A 
ATOM     57  F   UNL A   1      42.543  26.981  36.847  1.00  0.00    -0.206 F 
ATOM     58  C   UNL A   1      44.805  26.568  37.308  1.00  0.00     0.059 A 
ATOM     59  C   UNL A   1      46.524  27.860  36.180  1.00  0.00     0.059 A 
ATOM     60  F   UNL A   1      45.911  29.541  34.664  1.00  0.00    -0.206 F 
ATOM     61  C   UNL A   1      46.149  26.877  37.094  1.00  0.00     0.060 A 
BRANCH  61  62
ATOM     62  S   UNL A   1      47.403  25.983  38.037  1.00  0.00     0.124 S 
ATOM     63  O   UNL A   1      48.432  25.772  37.023  1.00  0.00    -0.237 OA
ATOM     64  O   UNL A   1      47.741  26.931  39.093  1.00  0.00    -0.237 OA
ATOM     65  O   UNL A   1      46.702  24.781  38.479  1.00  0.00    -0.744 OA
ENDBRANCH  61  62
ENDBRANCH  40  54
BRANCH  41  66
ATOM     66  C   UNL A   1      36.779  32.880  30.836  1.00  0.00     0.058 A 
ATOM     67  C   UNL A   1      35.458  32.596  31.210  1.00  0.00     0.135 A 
ATOM     68  C   UNL A   1      36.986  33.830  29.824  1.00  0.00     0.135 A 
ATOM     69  F   UNL A   1      35.213  31.689  32.167  1.00  0.00    -0.206 F 
ATOM     70  C   UNL A   1      34.379  33.238  30.610  1.00  0.00     0.059 A 
ATOM     71  C   UNL A   1      35.923  34.499  29.223  1.00  0.00     0.059 A 
ATOM     72  F   UNL A   1      38.233  34.147  29.443  1.00  0.00    -0.206 F 
ATOM     73  C   UNL A   1      34.623  34.195  29.624  1.00  0.00     0.060 A 
BRANCH  73  74
ATOM     74  S   UNL A   1      33.222  35.098  28.925  1.00  0.00     0.124 S 
ATOM     75  O   UNL A   1      32.438  35.394  30.120  1.00  0.00    -0.237 OA
ATOM     76  O   UNL A   1      33.876  36.238  28.292  1.00  0.00    -0.237 OA
ATOM     77  O   UNL A   1      32.630  34.133  28.003  1.00  0.00    -0.744 OA
ENDBRANCH  73  74
ENDBRANCH  41  66
BRANCH  53  78
ATOM     78  C   UNL A   1      39.943  34.027  36.954  1.00  0.00     0.058 A 
ATOM     79  C   UNL A   1      40.436  35.335  36.830  1.00  0.00     0.135 A 
ATOM     80  C   UNL A   1      39.202  33.711  38.103  1.00  0.00     0.135 A 
ATOM     81  F   UNL A   1      41.156  35.687  35.753  1.00  0.00    -0.206 F 
ATOM     82  C   UNL A   1      40.221  36.289  37.820  1.00  0.00     0.059 A 
ATOM     83  C   UNL A   1      38.955  34.655  39.095  1.00  0.00     0.059 A 
ATOM     84  F   UNL A   1      38.700  32.476  38.266  1.00  0.00    -0.206 F 
ATOM     85  C   UNL A   1      39.478  35.940  38.949  1.00  0.00     0.060 A 
BRANCH  85  86
ATOM     86  S   UNL A   1      39.178  37.192  40.213  1.00  0.00     0.124 S 
ATOM     87  O   UNL A   1      38.474  38.217  39.451  1.00  0.00    -0.237 OA
ATOM     88  O   UNL A   1      38.374  36.466  41.193  1.00  0.00    -0.237 OA
ATOM     89  O   UNL A   1      40.521  37.553  40.661  1.00  0.00    -0.744 OA
ENDBRANCH  85  86
ENDBRANCH  53  78
ENDBRANCH  27  28
ENDBRANCH  19  22
ENDBRANCH  17  18
ENDBRANCH   1  17
TORSDOF 16
ENDMDL
MODEL 2
REMARK VINA RESULT:     -10.6      1.177      2.082
REMARK SMILES C[N@@H+](CC(=O)NCCCNC(=O)c1ccc(-c2c3nc(c(-c4c(F)cc(S(=O)(=O)[O-])cc4F)c4ccc([nH]4)c(-c4c(F)cc(S(=O)(=O)[O-])cc4F)c4nc(c(-c5c(F)cc(S(=O)(=O)[O-])cc5F)c5ccc2[nH]5)C=C4)C=C3)cc1)Cc1nccs1
REMARK SMILES IDX 8 1 7 2 6 3 4 4 5 5 3 7 2 8 1 9 79 11 80 12 81 13 84 14
REMARK SMILES IDX 82 15 83 16 9 17 10 18 11 19 12 21 13 22 14 23 78 24 15 25
REMARK SMILES IDX 77 26 16 27 17 28 18 29 71 30 19 31 76 32 70 33 72 34 20 35
REMARK SMILES IDX 75 36 69 37 68 38 21 40 55 41 34 42 54 43 35 44 38 45 53 46
REMARK SMILES IDX 73 47 36 48 37 49 52 51 74 52 39 53 22 54 23 55 32 56 24 57
REMARK SMILES IDX 25 58 31 59 33 60 26 61 27 62 28 63 29 64 30 65 56 66 57 67
REMARK SMILES IDX 66 68 58 69 59 70 65 71 67 72 60 73 61 74 62 75 63 76 64 77
REMARK SMILES IDX 40 78 41 79 50 80 42 81 43 82 49 83 51 84 44 85 45 86 46 87
REMARK SMILES IDX 47 88 48 89
REMARK H PARENT 6 6 2 10 10 20 72 39 38 50
REMARK Flexibility Score: inf
ROOT
ATOM      1  C   UNL A   1      42.159  23.211  28.685  1.00  0.00     0.042 C 
ENDROOT
BRANCH   1   2
ATOM      2  C   UNL A   1      43.398  22.324  28.597  1.00  0.00     0.118 C 
BRANCH   2   3
ATOM      3  N   UNL A   1      44.636  23.046  28.810  1.00  0.00    -0.351 N 
ATOM      4  C   UNL A   1      45.320  23.897  27.995  1.00  0.00     0.275 C 
ATOM      5  O   UNL A   1      46.324  24.446  28.462  1.00  0.00    -0.269 OA
ATOM      6  H   UNL A   1      45.053  22.897  29.690  1.00  0.00     0.163 HD
BRANCH   4   7
ATOM      7  C   UNL A   1      44.834  24.235  26.587  1.00  0.00     0.363 C 
BRANCH   7   8
ATOM      8  N   UNL A   1      45.402  23.463  25.476  1.00  0.00    -0.324 N 
ATOM      9  C   UNL A   1      46.564  24.019  24.819  1.00  0.00     0.333 C 
ATOM     10  H   UNL A   1      45.788  22.694  26.024  1.00  0.00     0.348 HD
BRANCH   8  11
ATOM     11  C   UNL A   1      44.473  22.755  24.584  1.00  0.00     0.331 C 
BRANCH  11  12
ATOM     12  C   UNL A   1      44.111  21.326  24.925  1.00  0.00     0.147 A 
ATOM     13  N   UNL A   1      42.966  20.912  25.441  1.00  0.00    -0.244 NA
ATOM     14  S   UNL A   1      45.260  20.072  24.610  1.00  0.00    -0.122 S 
ATOM     15  C   UNL A   1      43.019  19.549  25.661  1.00  0.00     0.123 A 
ATOM     16  C   UNL A   1      44.193  18.928  25.301  1.00  0.00     0.087 A 
ENDBRANCH  11  12
ENDBRANCH   8  11
ENDBRANCH   7   8
ENDBRANCH   4   7
ENDBRANCH   2   3
ENDBRANCH   1   2
BRANCH   1  17
ATOM     17  C   UNL A   1      41.092  22.947  27.630  1.00  0.00     0.118 C 
BRANCH  17  18
ATOM     18  N   UNL A   1      41.312  23.702  26.408  1.00  0.00    -0.352 N 
ATOM     19  C   UNL A   1      41.244  25.053  26.169  1.00  0.00     0.251 C 
ATOM     20  H   UNL A   1      41.549  23.156  25.624  1.00  0.00     0.163 HD
ATOM     21  O   UNL A   1      41.281  25.449  25.005  1.00  0.00    -0.269 OA
BRANCH  19  22
ATOM     22  C   UNL A   1      41.108  26.036  27.274  1.00  0.00     0.039 A 
ATOM     23  C   UNL A   1      39.970  25.971  28.086  1.00  0.00     0.014 A 
ATOM     24  C   UNL A   1      42.039  27.057  27.481  1.00  0.00     0.014 A 
ATOM     25  C   UNL A   1      39.794  26.888  29.128  1.00  0.00     0.010 A 
ATOM     26  C   UNL A   1      41.902  27.925  28.568  1.00  0.00     0.010 A 
ATOM     27  C   UNL A   1      40.772  27.859  29.397  1.00  0.00    -0.014 A 
BRANCH  27  28
ATOM     28  C   UNL A   1      40.618  28.812  30.529  1.00  0.00     0.031 A 
ATOM     29  C   UNL A   1      41.462  28.673  31.769  1.00  0.00     0.074 A 
ATOM     30  C   UNL A   1      39.675  29.774  30.470  1.00  0.00     0.049 A 
ATOM     31  N   UNL A   1      41.441  29.385  32.867  1.00  0.00    -0.248 NA
ATOM     32  C   UNL A   1      42.436  27.572  31.789  1.00  0.00     0.031 C 
ATOM     33  C   UNL A   1      38.745  29.977  29.359  1.00  0.00     0.029 A 
ATOM     34  N   UNL A   1      39.332  30.750  31.373  1.00  0.00    -0.354 N 
ATOM     35  C   UNL A   1      42.375  28.803  33.718  1.00  0.00     0.074 A 
ATOM     36  C   UNL A   1      42.916  27.655  33.021  1.00  0.00     0.031 C 
ATOM     37  C   UNL A   1      37.945  31.018  29.639  1.00  0.00     0.029 A 
ATOM     38  C   UNL A   1      38.286  31.540  30.960  1.00  0.00     0.049 A 
ATOM     39  H   UNL A   1      39.791  30.872  32.235  1.00  0.00     0.167 HD
ATOM     40  C   UNL A   1      42.763  29.197  34.955  1.00  0.00     0.037 A 
ATOM     41  C   UNL A   1      37.664  32.567  31.573  1.00  0.00     0.037 A 
ATOM     42  C   UNL A   1      42.252  30.363  35.631  1.00  0.00     0.049 A 
ATOM     43  C   UNL A   1      38.141  33.021  32.922  1.00  0.00     0.074 A 
ATOM     44  C   UNL A   1      42.653  30.900  36.842  1.00  0.00     0.029 A 
ATOM     45  N   UNL A   1      41.225  31.167  35.158  1.00  0.00    -0.354 N 
ATOM     46  N   UNL A   1      39.092  32.515  33.672  1.00  0.00    -0.248 NA
ATOM     47  C   UNL A   1      37.474  34.193  33.506  1.00  0.00     0.031 C 
ATOM     48  C   UNL A   1      41.840  32.006  37.120  1.00  0.00     0.029 A 
ATOM     49  C   UNL A   1      40.961  32.182  36.065  1.00  0.00     0.049 A 
ATOM     50  H   UNL A   1      40.753  31.036  34.305  1.00  0.00     0.167 HD
ATOM     51  C   UNL A   1      39.144  33.313  34.810  1.00  0.00     0.074 A 
ATOM     52  C   UNL A   1      38.141  34.345  34.643  1.00  0.00     0.031 C 
ATOM     53  C   UNL A   1      39.953  33.199  35.893  1.00  0.00     0.037 A 
BRANCH  40  54
ATOM     54  C   UNL A   1      43.788  28.352  35.660  1.00  0.00     0.058 A 
ATOM     55  C   UNL A   1      43.420  27.326  36.545  1.00  0.00     0.135 A 
ATOM     56  C   UNL A   1      45.159  28.572  35.449  1.00  0.00     0.135 A 
ATOM     57  F   UNL A   1      42.123  27.080  36.793  1.00  0.00    -0.206 F 
ATOM     58  C   UNL A   1      44.373  26.580  37.233  1.00  0.00     0.059 A 
ATOM     59  C   UNL A   1      46.129  27.819  36.104  1.00  0.00     0.059 A 
ATOM     60  F   UNL A   1      45.568  29.536  34.609  1.00  0.00    -0.206 F 
ATOM     61  C   UNL A   1      45.725  26.842  37.012  1.00  0.00     0.060 A 
BRANCH  61  62
ATOM     62  S   UNL A   1      46.953  25.892  37.936  1.00  0.00     0.124 S 
ATOM     63  O   UNL A   1      47.660  25.208  36.859  1.00  0.00    -0.237 OA
ATOM     64  O   UNL A   1      47.706  26.935  38.624  1.00  0.00    -0.237 OA
ATOM     65  O   UNL A   1      46.141  25.037  38.797  1.00  0.00    -0.744 OA
ENDBRANCH  61  62
ENDBRANCH  40  54
BRANCH  41  66
ATOM     66  C   UNL A   1      36.535  33.246  30.885  1.00  0.00     0.058 A 
ATOM     67  C   UNL A   1      35.215  33.077  31.325  1.00  0.00     0.135 A 
ATOM     68  C   UNL A   1      36.766  34.130  29.820  1.00  0.00     0.135 A 
ATOM     69  F   UNL A   1      34.947  32.236  32.335  1.00  0.00    -0.206 F 
ATOM     70  C   UNL A   1      34.159  33.767  30.737  1.00  0.00     0.059 A 
ATOM     71  C   UNL A   1      35.729  34.846  29.229  1.00  0.00     0.059 A 
ATOM     72  F   UNL A   1      38.015  34.336  29.374  1.00  0.00    -0.206 F 
ATOM     73  C   UNL A   1      34.428  34.657  29.696  1.00  0.00     0.060 A 
BRANCH  73  74
ATOM     74  S   UNL A   1      33.066  35.626  29.009  1.00  0.00     0.124 S 
ATOM     75  O   UNL A   1      33.784  36.673  28.290  1.00  0.00    -0.237 OA
ATOM     76  O   UNL A   1      32.376  34.642  28.181  1.00  0.00    -0.237 OA
ATOM     77  O   UNL A   1      32.334  36.060  30.194  1.00  0.00    -0.744 OA
ENDBRANCH  73  74
ENDBRANCH  41  66
BRANCH  53  78
ATOM     78  C   UNL A   1      39.793  34.221  36.984  1.00  0.00     0.058 A 
ATOM     79  C   UNL A   1      40.379  35.493  36.890  1.00  0.00     0.135 A 
ATOM     80  C   UNL A   1      39.006  33.943  38.113  1.00  0.00     0.135 A 
ATOM     81  F   UNL A   1      41.146  35.807  35.833  1.00  0.00    -0.206 F 
ATOM     82  C   UNL A   1      40.209  36.447  37.888  1.00  0.00     0.059 A 
ATOM     83  C   UNL A   1      38.803  34.889  39.112  1.00  0.00     0.059 A 
ATOM     84  F   UNL A   1      38.416  32.744  38.247  1.00  0.00    -0.206 F 
ATOM     85  C   UNL A   1      39.419  36.136  38.997  1.00  0.00     0.060 A 
BRANCH  85  86
ATOM     86  S   UNL A   1      39.179  37.390  40.272  1.00  0.00     0.124 S 
ATOM     87  O   UNL A   1      38.281  38.323  39.602  1.00  0.00    -0.237 OA
ATOM     88  O   UNL A   1      38.592  36.620  41.365  1.00  0.00    -0.237 OA
ATOM     89  O   UNL A   1      40.530  37.885  40.520  1.00  0.00    -0.744 OA
ENDBRANCH  85  86
ENDBRANCH  53  78
ENDBRANCH  27  28
ENDBRANCH  19  22
ENDBRANCH  17  18
ENDBRANCH   1  17
TORSDOF 16
ENDMDL
MODEL 3
REMARK VINA RESULT:     -10.5      3.098      4.560
REMARK SMILES C[N@@H+](CC(=O)NCCCNC(=O)c1ccc(-c2c3nc(c(-c4c(F)cc(S(=O)(=O)[O-])cc4F)c4ccc([nH]4)c(-c4c(F)cc(S(=O)(=O)[O-])cc4F)c4nc(c(-c5c(F)cc(S(=O)(=O)[O-])cc5F)c5ccc2[nH]5)C=C4)C=C3)cc1)Cc1nccs1
REMARK SMILES IDX 8 1 7 2 6 3 4 4 5 5 3 7 2 8 1 9 79 11 80 12 81 13 84 14
REMARK SMILES IDX 82 15 83 16 9 17 10 18 11 19 12 21 13 22 14 23 78 24 15 25
REMARK SMILES IDX 77 26 16 27 17 28 18 29 71 30 19 31 76 32 70 33 72 34 20 35
REMARK SMILES IDX 75 36 69 37 68 38 21 40 55 41 34 42 54 43 35 44 38 45 53 46
REMARK SMILES IDX 73 47 36 48 37 49 52 51 74 52 39 53 22 54 23 55 32 56 24 57
REMARK SMILES IDX 25 58 31 59 33 60 26 61 27 62 28 63 29 64 30 65 56 66 57 67
REMARK SMILES IDX 66 68 58 69 59 70 65 71 67 72 60 73 61 74 62 75 63 76 64 77
REMARK SMILES IDX 40 78 41 79 50 80 42 81 43 82 49 83 51 84 44 85 45 86 46 87
REMARK SMILES IDX 47 88 48 89
REMARK H PARENT 6 6 2 10 10 20 72 39 38 50
REMARK Flexibility Score: inf
ROOT
ATOM      1  C   UNL A   1      39.658  21.724  26.504  1.00  0.00     0.042 C 
ENDROOT
BRANCH   1   2
ATOM      2  C   UNL A   1      38.393  21.716  25.652  1.00  0.00     0.118 C 
BRANCH   2   3
ATOM      3  N   UNL A   1      37.285  22.423  26.264  1.00  0.00    -0.351 N 
ATOM      4  C   UNL A   1      36.025  22.666  25.807  1.00  0.00     0.275 C 
ATOM      5  O   UNL A   1      35.243  23.234  26.576  1.00  0.00    -0.269 OA
ATOM      6  H   UNL A   1      37.475  22.789  27.158  1.00  0.00     0.163 HD
BRANCH   4   7
ATOM      7  C   UNL A   1      35.556  22.190  24.434  1.00  0.00     0.363 C 
BRANCH   7   8
ATOM      8  N   UNL A   1      34.234  21.558  24.356  1.00  0.00    -0.324 N 
ATOM      9  C   UNL A   1      33.088  22.438  24.295  1.00  0.00     0.333 C 
ATOM     10  H   UNL A   1      34.307  21.202  23.402  1.00  0.00     0.348 HD
BRANCH   8  11
ATOM     11  C   UNL A   1      34.016  20.320  25.119  1.00  0.00     0.331 C 
BRANCH  11  12
ATOM     12  C   UNL A   1      33.696  19.058  24.348  1.00  0.00     0.147 A 
ATOM     13  N   UNL A   1      32.629  18.852  23.595  1.00  0.00    -0.244 NA
ATOM     14  S   UNL A   1      34.811  17.736  24.404  1.00  0.00    -0.122 S 
ATOM     15  C   UNL A   1      32.655  17.566  23.089  1.00  0.00     0.123 A 
ATOM     16  C   UNL A   1      33.745  16.804  23.445  1.00  0.00     0.087 A 
ENDBRANCH  11  12
ENDBRANCH   8  11
ENDBRANCH   7   8
ENDBRANCH   4   7
ENDBRANCH   2   3
ENDBRANCH   1   2
BRANCH   1  17
ATOM     17  C   UNL A   1      40.105  23.095  26.996  1.00  0.00     0.118 C 
BRANCH  17  18
ATOM     18  N   UNL A   1      41.038  23.741  26.087  1.00  0.00    -0.352 N 
ATOM     19  C   UNL A   1      41.546  25.017  26.088  1.00  0.00     0.251 C 
ATOM     20  H   UNL A   1      41.357  23.170  25.351  1.00  0.00     0.163 HD
ATOM     21  O   UNL A   1      42.175  25.403  25.104  1.00  0.00    -0.269 OA
BRANCH  19  22
ATOM     22  C   UNL A   1      41.339  25.940  27.233  1.00  0.00     0.039 A 
ATOM     23  C   UNL A   1      42.274  26.959  27.445  1.00  0.00     0.014 A 
ATOM     24  C   UNL A   1      40.286  25.780  28.137  1.00  0.00     0.014 A 
ATOM     25  C   UNL A   1      42.126  27.840  28.521  1.00  0.00     0.010 A 
ATOM     26  C   UNL A   1      40.095  26.706  29.167  1.00  0.00     0.010 A 
ATOM     27  C   UNL A   1      41.020  27.739  29.379  1.00  0.00    -0.014 A 
BRANCH  27  28
ATOM     28  C   UNL A   1      40.826  28.697  30.501  1.00  0.00     0.031 A 
ATOM     29  C   UNL A   1      41.649  28.585  31.757  1.00  0.00     0.074 A 
ATOM     30  C   UNL A   1      39.865  29.640  30.417  1.00  0.00     0.049 A 
ATOM     31  N   UNL A   1      41.594  29.304  32.850  1.00  0.00    -0.248 NA
ATOM     32  C   UNL A   1      42.644  27.503  31.804  1.00  0.00     0.031 C 
ATOM     33  C   UNL A   1      38.953  29.815  29.288  1.00  0.00     0.029 A 
ATOM     34  N   UNL A   1      39.486  30.616  31.306  1.00  0.00    -0.354 N 
ATOM     35  C   UNL A   1      42.524  28.747  33.721  1.00  0.00     0.074 A 
ATOM     36  C   UNL A   1      43.100  27.605  33.044  1.00  0.00     0.031 C 
ATOM     37  C   UNL A   1      38.127  30.842  29.545  1.00  0.00     0.029 A 
ATOM     38  C   UNL A   1      38.432  31.381  30.868  1.00  0.00     0.049 A 
ATOM     39  H   UNL A   1      39.926  30.752  32.176  1.00  0.00     0.167 HD
ATOM     40  C   UNL A   1      42.880  29.158  34.963  1.00  0.00     0.037 A 
ATOM     41  C   UNL A   1      37.779  32.400  31.461  1.00  0.00     0.037 A 
ATOM     42  C   UNL A   1      42.334  30.318  35.620  1.00  0.00     0.049 A 
ATOM     43  C   UNL A   1      38.222  32.874  32.816  1.00  0.00     0.074 A 
ATOM     44  C   UNL A   1      42.701  30.872  36.834  1.00  0.00     0.029 A 
ATOM     45  N   UNL A   1      41.300  31.098  35.122  1.00  0.00    -0.354 N 
ATOM     46  N   UNL A   1      39.168  32.392  33.587  1.00  0.00    -0.248 NA
ATOM     47  C   UNL A   1      37.521  34.036  33.378  1.00  0.00     0.031 C 
ATOM     48  C   UNL A   1      41.862  31.964  37.089  1.00  0.00     0.029 A 
ATOM     49  C   UNL A   1      40.999  32.114  36.016  1.00  0.00     0.049 A 
ATOM     50  H   UNL A   1      40.847  30.951  34.261  1.00  0.00     0.167 HD
ATOM     51  C   UNL A   1      39.184  33.199  34.719  1.00  0.00     0.074 A 
ATOM     52  C   UNL A   1      38.163  34.210  34.526  1.00  0.00     0.031 C 
ATOM     53  C   UNL A   1      39.974  33.109  35.817  1.00  0.00     0.037 A 
BRANCH  40  54
ATOM     54  C   UNL A   1      43.909  28.339  35.693  1.00  0.00     0.058 A 
ATOM     55  C   UNL A   1      43.545  27.311  36.578  1.00  0.00     0.135 A 
ATOM     56  C   UNL A   1      45.279  28.585  35.506  1.00  0.00     0.135 A 
ATOM     57  F   UNL A   1      42.249  27.039  36.802  1.00  0.00    -0.206 F 
ATOM     58  C   UNL A   1      44.499  26.589  37.288  1.00  0.00     0.059 A 
ATOM     59  C   UNL A   1      46.251  27.857  36.186  1.00  0.00     0.059 A 
ATOM     60  F   UNL A   1      45.684  29.552  34.668  1.00  0.00    -0.206 F 
ATOM     61  C   UNL A   1      45.850  26.877  37.092  1.00  0.00     0.060 A 
BRANCH  61  62
ATOM     62  S   UNL A   1      47.078  25.960  38.045  1.00  0.00     0.124 S 
ATOM     63  O   UNL A   1      47.229  26.812  39.220  1.00  0.00    -0.237 OA
ATOM     64  O   UNL A   1      46.412  24.682  38.272  1.00  0.00    -0.237 OA
ATOM     65  O   UNL A   1      48.233  25.911  37.153  1.00  0.00    -0.744 OA
ENDBRANCH  61  62
ENDBRANCH  40  54
BRANCH  41  66
ATOM     66  C   UNL A   1      36.650  33.051  30.747  1.00  0.00     0.058 A 
ATOM     67  C   UNL A   1      35.322  32.817  31.131  1.00  0.00     0.135 A 
ATOM     68  C   UNL A   1      36.884  33.972  29.714  1.00  0.00     0.135 A 
ATOM     69  F   UNL A   1      35.051  31.940  32.108  1.00  0.00    -0.206 F 
ATOM     70  C   UNL A   1      34.262  33.480  30.520  1.00  0.00     0.059 A 
ATOM     71  C   UNL A   1      35.841  34.661  29.102  1.00  0.00     0.059 A 
ATOM     72  F   UNL A   1      38.140  34.240  29.323  1.00  0.00    -0.206 F 
ATOM     73  C   UNL A   1      34.533  34.408  29.513  1.00  0.00     0.060 A 
BRANCH  73  74
ATOM     74  S   UNL A   1      33.159  35.339  28.798  1.00  0.00     0.124 S 
ATOM     75  O   UNL A   1      33.864  36.374  28.050  1.00  0.00    -0.237 OA
ATOM     76  O   UNL A   1      32.482  34.323  27.999  1.00  0.00    -0.237 OA
ATOM     77  O   UNL A   1      32.421  35.798  29.971  1.00  0.00    -0.744 OA
ENDBRANCH  73  74
ENDBRANCH  41  66
BRANCH  53  78
ATOM     78  C   UNL A   1      39.774  34.136  36.897  1.00  0.00     0.058 A 
ATOM     79  C   UNL A   1      39.043  33.845  38.060  1.00  0.00     0.135 A 
ATOM     80  C   UNL A   1      40.359  35.407  36.791  1.00  0.00     0.135 A 
ATOM     81  F   UNL A   1      38.457  32.646  38.208  1.00  0.00    -0.206 F 
ATOM     82  C   UNL A   1      38.880  34.788  39.070  1.00  0.00     0.059 A 
ATOM     83  C   UNL A   1      40.229  36.357  37.800  1.00  0.00     0.059 A 
ATOM     84  F   UNL A   1      41.077  35.733  35.704  1.00  0.00    -0.206 F 
ATOM     85  C   UNL A   1      39.477  36.042  38.931  1.00  0.00     0.060 A 
BRANCH  85  86
ATOM     86  S   UNL A   1      39.286  37.248  40.260  1.00  0.00     0.124 S 
ATOM     87  O   UNL A   1      38.534  36.481  41.248  1.00  0.00    -0.237 OA
ATOM     88  O   UNL A   1      40.670  37.551  40.613  1.00  0.00    -0.237 OA
ATOM     89  O   UNL A   1      38.555  38.341  39.625  1.00  0.00    -0.744 OA
ENDBRANCH  85  86
ENDBRANCH  53  78
ENDBRANCH  27  28
ENDBRANCH  19  22
ENDBRANCH  17  18
ENDBRANCH   1  17
TORSDOF 16
ENDMDL
