MODEL 1
REMARK VINA RESULT:     -13.9      0.000      0.000
REMARK SMILES CC(=O)O[C@@H]1CC[C@@]23C(=O)O[C@]4(CC[C@]2(O)C1)[C@H]3CC[C@]1(C)[C@H](C(=O)NCCCNC(=O)c2ccc(-c3c5nc(c(-c6c(F)cc(S(=O)(=O)[O-])cc6F)c6ccc([nH]6)c(-c6c(F)cc(S(=O)(=O)[O-])cc6F)c6nc(c(-c7c(F)cc(S(=O)(=O)[O-])cc7F)c7ccc3[nH]7)C=C6)C=C5)cc2)CC[C@@H]14
REMARK SMILES IDX 28 1 27 2 26 3 24 4 25 5 23 7 5 8 6 9 17 10 7 11 15 12 8 13
REMARK SMILES IDX 14 14 9 15 18 16 13 17 10 18 11 19 12 20 19 21 101 22 20 23
REMARK SMILES IDX 21 24 100 25 22 26 99 27 4 28 2 29 1 30 3 31 16 32 29 34
REMARK SMILES IDX 30 35 31 36 32 38 33 39 34 40 98 41 35 42 97 43 36 44 37 45
REMARK SMILES IDX 38 46 91 47 39 48 96 49 90 50 92 51 40 52 95 53 89 54 88 55
REMARK SMILES IDX 41 57 75 58 54 59 74 60 55 61 58 62 73 63 93 64 56 65 57 66
REMARK SMILES IDX 72 68 94 69 59 70 42 71 43 72 52 73 44 74 45 75 51 76 53 77
REMARK SMILES IDX 46 78 47 79 48 80 49 81 50 82 76 83 77 84 86 85 78 86 79 87
REMARK SMILES IDX 85 88 87 89 80 90 81 91 82 92 83 93 84 94 60 95 61 96 70 97
REMARK SMILES IDX 62 98 63 99 69 100 71 101 64 102 65 103 66 104 67 105 68 106
REMARK H PARENT 26 6 16 33 30 37 92 56 58 67
REMARK Flexibility Score: inf
ROOT
ATOM      1  C   UNL A   1      39.017  21.933  26.154  1.00  0.00     0.042 C 
ENDROOT
BRANCH   1   2
ATOM      2  C   UNL A   1      37.544  22.122  25.766  1.00  0.00     0.117 C 
BRANCH   2   3
ATOM      3  N   UNL A   1      37.431  22.596  24.394  1.00  0.00    -0.356 N 
ATOM      4  C   UNL A   1      36.420  22.780  23.516  1.00  0.00     0.223 C 
ATOM      5  O   UNL A   1      36.789  23.033  22.358  1.00  0.00    -0.275 OA
ATOM      6  H   UNL A   1      38.305  22.841  24.012  1.00  0.00     0.163 HD
BRANCH   4   7
ATOM      7  C   UNL A   1      34.911  22.790  23.805  1.00  0.00     0.085 C 
ATOM      8  C   UNL A   1      30.111  29.299  22.826  1.00  0.00     0.179 C 
ATOM      9  C   UNL A   1      31.092  28.500  21.992  1.00  0.00     0.047 C 
ATOM     10  C   UNL A   1      30.593  29.377  24.277  1.00  0.00     0.081 C 
ATOM     11  C   UNL A   1      31.372  27.174  22.683  1.00  0.00     0.026 C 
ATOM     12  C   UNL A   1      31.166  28.097  24.932  1.00  0.00     0.085 C 
ATOM     13  C   UNL A   1      32.227  27.382  24.179  1.00  0.00     0.103 C 
ATOM     14  C   UNL A   1      30.133  26.870  25.130  1.00  0.00     0.041 C 
ATOM     15  C   UNL A   1      33.431  27.002  23.488  1.00  0.00     0.316 C 
ATOM     16  C   UNL A   1      32.661  26.195  25.364  1.00  0.00     0.054 C 
ATOM     17  C   UNL A   1      30.687  25.337  24.630  1.00  0.00     0.052 C 
ATOM     18  O   UNL A   1      34.321  27.640  22.938  1.00  0.00    -0.251 OA
ATOM     19  O   UNL A   1      33.146  25.632  23.338  1.00  0.00    -0.458 OA
ATOM     20  C   UNL A   1      32.290  25.131  24.447  1.00  0.00     0.120 C 
ATOM     21  C   UNL A   1      34.062  26.013  25.983  1.00  0.00     0.009 C 
ATOM     22  C   UNL A   1      32.736  23.685  24.616  1.00  0.00     0.040 C 
ATOM     23  C   UNL A   1      34.897  24.850  25.425  1.00  0.00     0.008 C 
ATOM     24  C   UNL A   1      34.235  23.515  25.034  1.00  0.00    -0.014 C 
ATOM     25  C   UNL A   1      32.623  22.988  23.232  1.00  0.00     0.009 C 
ATOM     26  C   UNL A   1      34.311  22.546  26.234  1.00  0.00     0.012 C 
ATOM     27  C   UNL A   1      34.019  23.064  22.605  1.00  0.00     0.014 C 
BRANCH   8  28
ATOM     28  O   UNL A   1      28.805  28.679  22.802  1.00  0.00    -0.462 OA
BRANCH  28  29
ATOM     29  C   UNL A   1      27.739  29.513  22.640  1.00  0.00     0.302 C 
ATOM     30  C   UNL A   1      27.945  30.404  21.452  1.00  0.00     0.139 C 
ATOM     31  O   UNL A   1      26.761  29.571  23.373  1.00  0.00    -0.253 OA
ENDBRANCH  28  29
ENDBRANCH   8  28
BRANCH  12  32
ATOM     32  O   UNL A   1      31.667  28.509  26.208  1.00  0.00    -0.389 OA
ATOM     33  H   UNL A   1      32.503  28.054  26.389  1.00  0.00     0.211 HD
ENDBRANCH  12  32
ENDBRANCH   4   7
ENDBRANCH   2   3
ENDBRANCH   1   2
BRANCH   1  34
ATOM     34  C   UNL A   1      39.675  23.165  26.753  1.00  0.00     0.118 C 
BRANCH  34  35
ATOM     35  N   UNL A   1      40.906  23.517  26.069  1.00  0.00    -0.352 N 
ATOM     36  C   UNL A   1      41.695  24.635  26.199  1.00  0.00     0.251 C 
ATOM     37  H   UNL A   1      41.223  22.854  25.414  1.00  0.00     0.163 HD
ATOM     38  O   UNL A   1      42.578  24.839  25.369  1.00  0.00    -0.269 OA
BRANCH  36  39
ATOM     39  C   UNL A   1      41.489  25.599  27.308  1.00  0.00     0.039 A 
ATOM     40  C   UNL A   1      42.355  26.691  27.419  1.00  0.00     0.014 A 
ATOM     41  C   UNL A   1      40.490  25.414  28.267  1.00  0.00     0.014 A 
ATOM     42  C   UNL A   1      42.195  27.611  28.460  1.00  0.00     0.010 A 
ATOM     43  C   UNL A   1      40.269  26.382  29.246  1.00  0.00     0.010 A 
ATOM     44  C   UNL A   1      41.135  27.478  29.372  1.00  0.00    -0.014 A 
BRANCH  44  45
ATOM     45  C   UNL A   1      40.944  28.443  30.487  1.00  0.00     0.031 A 
ATOM     46  C   UNL A   1      41.808  28.352  31.719  1.00  0.00     0.074 A 
ATOM     47  C   UNL A   1      39.966  29.368  30.420  1.00  0.00     0.049 A 
ATOM     48  N   UNL A   1      41.760  29.055  32.822  1.00  0.00    -0.248 NA
ATOM     49  C   UNL A   1      42.846  27.307  31.724  1.00  0.00     0.031 C 
ATOM     50  C   UNL A   1      39.034  29.534  29.303  1.00  0.00     0.029 A 
ATOM     51  N   UNL A   1      39.589  30.340  31.313  1.00  0.00    -0.354 N 
ATOM     52  C   UNL A   1      42.741  28.527  33.654  1.00  0.00     0.074 A 
ATOM     53  C   UNL A   1      43.325  27.404  32.954  1.00  0.00     0.031 C 
ATOM     54  C   UNL A   1      38.216  30.566  29.562  1.00  0.00     0.029 A 
ATOM     55  C   UNL A   1      38.534  31.110  30.878  1.00  0.00     0.049 A 
ATOM     56  H   UNL A   1      40.030  30.474  32.183  1.00  0.00     0.167 HD
ATOM     57  C   UNL A   1      43.138  28.952  34.878  1.00  0.00     0.037 A 
ATOM     58  C   UNL A   1      37.897  32.136  31.474  1.00  0.00     0.037 A 
ATOM     59  C   UNL A   1      42.571  30.088  35.556  1.00  0.00     0.049 A 
ATOM     60  C   UNL A   1      38.352  32.595  32.832  1.00  0.00     0.074 A 
ATOM     61  C   UNL A   1      42.941  30.639  36.770  1.00  0.00     0.029 A 
ATOM     62  N   UNL A   1      41.513  30.847  35.077  1.00  0.00    -0.354 N 
ATOM     63  N   UNL A   1      39.319  32.119  33.581  1.00  0.00    -0.248 NA
ATOM     64  C   UNL A   1      37.634  33.730  33.425  1.00  0.00     0.031 C 
ATOM     65  C   UNL A   1      42.077  31.706  37.046  1.00  0.00     0.029 A 
ATOM     66  C   UNL A   1      41.201  31.849  35.981  1.00  0.00     0.049 A 
ATOM     67  H   UNL A   1      41.051  30.696  34.221  1.00  0.00     0.167 HD
ATOM     68  C   UNL A   1      39.344  32.913  34.722  1.00  0.00     0.074 A 
ATOM     69  C   UNL A   1      38.299  33.905  34.560  1.00  0.00     0.031 C 
ATOM     70  C   UNL A   1      40.158  32.830  35.804  1.00  0.00     0.037 A 
BRANCH  57  71
ATOM     71  C   UNL A   1      44.237  28.176  35.556  1.00  0.00     0.058 A 
ATOM     72  C   UNL A   1      43.960  27.125  36.446  1.00  0.00     0.135 A 
ATOM     73  C   UNL A   1      45.585  28.489  35.318  1.00  0.00     0.135 A 
ATOM     74  F   UNL A   1      42.689  26.788  36.721  1.00  0.00    -0.206 F 
ATOM     75  C   UNL A   1      44.976  26.448  37.115  1.00  0.00     0.059 A 
ATOM     76  C   UNL A   1      46.619  27.804  35.952  1.00  0.00     0.059 A 
ATOM     77  F   UNL A   1      45.911  29.480  34.474  1.00  0.00    -0.206 F 
ATOM     78  C   UNL A   1      46.302  26.802  36.867  1.00  0.00     0.060 A 
BRANCH  78  79
ATOM     79  S   UNL A   1      47.608  25.937  37.765  1.00  0.00     0.124 S 
ATOM     80  O   UNL A   1      47.203  24.544  37.595  1.00  0.00    -0.237 OA
ATOM     81  O   UNL A   1      48.809  26.339  37.039  1.00  0.00    -0.237 OA
ATOM     82  O   UNL A   1      47.494  26.463  39.121  1.00  0.00    -0.744 OA
ENDBRANCH  78  79
ENDBRANCH  57  71
BRANCH  58  83
ATOM     83  C   UNL A   1      36.785  32.824  30.762  1.00  0.00     0.058 A 
ATOM     84  C   UNL A   1      35.448  32.522  31.059  1.00  0.00     0.135 A 
ATOM     85  C   UNL A   1      37.034  33.823  29.809  1.00  0.00     0.135 A 
ATOM     86  F   UNL A   1      35.159  31.567  31.956  1.00  0.00    -0.206 F 
ATOM     87  C   UNL A   1      34.395  33.183  30.435  1.00  0.00     0.059 A 
ATOM     88  C   UNL A   1      35.999  34.516  29.189  1.00  0.00     0.059 A 
ATOM     89  F   UNL A   1      38.296  34.160  29.501  1.00  0.00    -0.206 F 
ATOM     90  C   UNL A   1      34.681  34.187  29.506  1.00  0.00     0.060 A 
BRANCH  90  91
ATOM     91  S   UNL A   1      33.308  35.093  28.762  1.00  0.00     0.124 S 
ATOM     92  O   UNL A   1      34.009  36.137  28.023  1.00  0.00    -0.237 OA
ATOM     93  O   UNL A   1      32.661  34.063  27.955  1.00  0.00    -0.237 OA
ATOM     94  O   UNL A   1      32.538  35.546  29.917  1.00  0.00    -0.744 OA
ENDBRANCH  90  91
ENDBRANCH  58  83
BRANCH  70  95
ATOM     95  C   UNL A   1      39.972  33.855  36.889  1.00  0.00     0.058 A 
ATOM     96  C   UNL A   1      40.596  35.111  36.833  1.00  0.00     0.135 A 
ATOM     97  C   UNL A   1      39.114  33.595  37.971  1.00  0.00     0.135 A 
ATOM     98  F   UNL A   1      41.431  35.407  35.825  1.00  0.00    -0.206 F 
ATOM     99  C   UNL A   1      40.394  36.066  37.825  1.00  0.00     0.059 A 
ATOM    100  C   UNL A   1      38.877  34.546  38.958  1.00  0.00     0.059 A 
ATOM    101  F   UNL A   1      38.484  32.414  38.066  1.00  0.00    -0.206 F 
ATOM    102  C   UNL A   1      39.530  35.774  38.882  1.00  0.00     0.060 A 
BRANCH 102 103
ATOM    103  S   UNL A   1      39.249  37.036  40.142  1.00  0.00     0.124 S 
ATOM    104  O   UNL A   1      40.614  37.371  40.533  1.00  0.00    -0.237 OA
ATOM    105  O   UNL A   1      38.532  38.068  39.400  1.00  0.00    -0.237 OA
ATOM    106  O   UNL A   1      38.460  36.337  41.153  1.00  0.00    -0.744 OA
ENDBRANCH 102 103
ENDBRANCH  70  95
ENDBRANCH  44  45
ENDBRANCH  36  39
ENDBRANCH  34  35
ENDBRANCH   1  34
TORSDOF 16
ENDMDL
MODEL 2
REMARK VINA RESULT:     -13.9      6.188     11.687
REMARK SMILES CC(=O)O[C@@H]1CC[C@@]23C(=O)O[C@]4(CC[C@]2(O)C1)[C@H]3CC[C@]1(C)[C@H](C(=O)NCCCNC(=O)c2ccc(-c3c5nc(c(-c6c(F)cc(S(=O)(=O)[O-])cc6F)c6ccc([nH]6)c(-c6c(F)cc(S(=O)(=O)[O-])cc6F)c6nc(c(-c7c(F)cc(S(=O)(=O)[O-])cc7F)c7ccc3[nH]7)C=C6)C=C5)cc2)CC[C@@H]14
REMARK SMILES IDX 28 1 27 2 26 3 24 4 25 5 23 7 5 8 6 9 17 10 7 11 15 12 8 13
REMARK SMILES IDX 14 14 9 15 18 16 13 17 10 18 11 19 12 20 19 21 101 22 20 23
REMARK SMILES IDX 21 24 100 25 22 26 99 27 4 28 2 29 1 30 3 31 16 32 29 34
REMARK SMILES IDX 30 35 31 36 32 38 33 39 34 40 98 41 35 42 97 43 36 44 37 45
REMARK SMILES IDX 38 46 91 47 39 48 96 49 90 50 92 51 40 52 95 53 89 54 88 55
REMARK SMILES IDX 41 57 75 58 54 59 74 60 55 61 58 62 73 63 93 64 56 65 57 66
REMARK SMILES IDX 72 68 94 69 59 70 42 71 43 72 52 73 44 74 45 75 51 76 53 77
REMARK SMILES IDX 46 78 47 79 48 80 49 81 50 82 76 83 77 84 86 85 78 86 79 87
REMARK SMILES IDX 85 88 87 89 80 90 81 91 82 92 83 93 84 94 60 95 61 96 70 97
REMARK SMILES IDX 62 98 63 99 69 100 71 101 64 102 65 103 66 104 67 105 68 106
REMARK H PARENT 26 6 16 33 30 37 92 56 58 67
REMARK Flexibility Score: inf
ROOT
ATOM      1  C   UNL A   1      34.816  29.999  27.570  1.00  0.00     0.042 C 
ENDROOT
BRANCH   1   2
ATOM      2  C   UNL A   1      33.405  30.211  27.003  1.00  0.00     0.117 C 
BRANCH   2   3
ATOM      3  N   UNL A   1      32.458  29.301  27.632  1.00  0.00    -0.356 N 
ATOM      4  C   UNL A   1      31.627  28.325  27.204  1.00  0.00     0.223 C 
ATOM      5  O   UNL A   1      30.837  27.912  28.067  1.00  0.00    -0.275 OA
ATOM      6  H   UNL A   1      32.410  29.430  28.607  1.00  0.00     0.163 HD
BRANCH   4   7
ATOM      7  C   UNL A   1      31.612  27.635  25.831  1.00  0.00     0.085 C 
ATOM      8  C   UNL A   1      33.078  19.705  24.679  1.00  0.00     0.179 C 
ATOM      9  C   UNL A   1      32.150  20.558  25.521  1.00  0.00     0.047 C 
ATOM     10  C   UNL A   1      34.443  20.383  24.547  1.00  0.00     0.081 C 
ATOM     11  C   UNL A   1      32.149  21.979  24.979  1.00  0.00     0.026 C 
ATOM     12  C   UNL A   1      34.486  21.908  24.282  1.00  0.00     0.085 C 
ATOM     13  C   UNL A   1      33.683  22.763  25.191  1.00  0.00     0.103 C 
ATOM     14  C   UNL A   1      33.878  22.407  22.871  1.00  0.00     0.041 C 
ATOM     15  C   UNL A   1      33.120  23.451  26.325  1.00  0.00     0.316 C 
ATOM     16  C   UNL A   1      34.199  24.322  24.639  1.00  0.00     0.054 C 
ATOM     17  C   UNL A   1      32.804  23.729  22.944  1.00  0.00     0.052 C 
ATOM     18  O   UNL A   1      33.117  23.222  27.528  1.00  0.00    -0.251 OA
ATOM     19  O   UNL A   1      32.277  24.330  25.621  1.00  0.00    -0.458 OA
ATOM     20  C   UNL A   1      32.832  24.657  24.280  1.00  0.00     0.120 C 
ATOM     21  C   UNL A   1      34.890  25.398  25.502  1.00  0.00     0.009 C 
ATOM     22  C   UNL A   1      32.355  26.082  24.034  1.00  0.00     0.040 C 
ATOM     23  C   UNL A   1      33.996  26.555  25.975  1.00  0.00     0.008 C 
ATOM     24  C   UNL A   1      32.896  27.132  25.063  1.00  0.00    -0.014 C 
ATOM     25  C   UNL A   1      30.811  26.104  24.214  1.00  0.00     0.009 C 
ATOM     26  C   UNL A   1      33.467  28.340  24.288  1.00  0.00     0.012 C 
ATOM     27  C   UNL A   1      30.559  26.553  25.657  1.00  0.00     0.014 C 
BRANCH   8  28
ATOM     28  O   UNL A   1      32.525  19.511  23.358  1.00  0.00    -0.462 OA
BRANCH  28  29
ATOM     29  C   UNL A   1      32.501  18.230  22.891  1.00  0.00     0.302 C 
ATOM     30  C   UNL A   1      33.006  17.280  23.936  1.00  0.00     0.139 C 
ATOM     31  O   UNL A   1      32.160  17.886  21.768  1.00  0.00    -0.253 OA
ENDBRANCH  28  29
ENDBRANCH   8  28
BRANCH  12  32
ATOM     32  O   UNL A   1      35.867  22.274  24.362  1.00  0.00    -0.389 OA
ATOM     33  H   UNL A   1      36.059  22.617  25.248  1.00  0.00     0.211 HD
ENDBRANCH  12  32
ENDBRANCH   4   7
ENDBRANCH   2   3
ENDBRANCH   1   2
BRANCH   1  34
ATOM     34  C   UNL A   1      35.456  31.249  28.151  1.00  0.00     0.118 C 
BRANCH  34  35
ATOM     35  N   UNL A   1      35.431  31.254  29.602  1.00  0.00    -0.352 N 
ATOM     36  C   UNL A   1      36.351  30.765  30.499  1.00  0.00     0.251 C 
ATOM     37  H   UNL A   1      34.636  31.671  30.004  1.00  0.00     0.163 HD
ATOM     38  O   UNL A   1      36.037  30.673  31.684  1.00  0.00    -0.269 OA
BRANCH  36  39
ATOM     39  C   UNL A   1      37.702  30.335  30.060  1.00  0.00     0.039 A 
ATOM     40  C   UNL A   1      38.580  29.804  31.010  1.00  0.00     0.014 A 
ATOM     41  C   UNL A   1      38.133  30.496  28.741  1.00  0.00     0.014 A 
ATOM     42  C   UNL A   1      39.864  29.401  30.630  1.00  0.00     0.010 A 
ATOM     43  C   UNL A   1      39.375  30.005  28.343  1.00  0.00     0.010 A 
ATOM     44  C   UNL A   1      40.267  29.476  29.287  1.00  0.00    -0.014 A 
BRANCH  44  45
ATOM     45  C   UNL A   1      41.628  29.055  28.859  1.00  0.00     0.031 A 
ATOM     46  C   UNL A   1      42.754  30.056  28.832  1.00  0.00     0.074 A 
ATOM     47  C   UNL A   1      41.844  27.789  28.447  1.00  0.00     0.049 A 
ATOM     48  N   UNL A   1      43.991  29.903  28.434  1.00  0.00    -0.248 NA
ATOM     49  C   UNL A   1      42.437  31.421  29.284  1.00  0.00     0.031 C 
ATOM     50  C   UNL A   1      40.829  26.735  28.386  1.00  0.00     0.029 A 
ATOM     51  N   UNL A   1      42.987  27.175  27.998  1.00  0.00    -0.354 N 
ATOM     52  C   UNL A   1      44.590  31.151  28.567  1.00  0.00     0.074 A 
ATOM     53  C   UNL A   1      43.564  32.063  29.022  1.00  0.00     0.031 C 
ATOM     54  C   UNL A   1      41.401  25.599  27.957  1.00  0.00     0.029 A 
ATOM     55  C   UNL A   1      42.811  25.850  27.675  1.00  0.00     0.049 A 
ATOM     56  H   UNL A   1      43.851  27.640  27.915  1.00  0.00     0.167 HD
ATOM     57  C   UNL A   1      45.882  31.502  28.355  1.00  0.00     0.037 A 
ATOM     58  C   UNL A   1      43.687  24.941  27.202  1.00  0.00     0.037 A 
ATOM     59  C   UNL A   1      46.904  30.583  27.930  1.00  0.00     0.049 A 
ATOM     60  C   UNL A   1      45.117  25.349  26.974  1.00  0.00     0.074 A 
ATOM     61  C   UNL A   1      48.254  30.821  27.744  1.00  0.00     0.029 A 
ATOM     62  N   UNL A   1      46.688  29.247  27.624  1.00  0.00    -0.354 N 
ATOM     63  N   UNL A   1      45.679  26.520  27.159  1.00  0.00    -0.248 NA
ATOM     64  C   UNL A   1      46.032  24.313  26.478  1.00  0.00     0.031 C 
ATOM     65  C   UNL A   1      48.847  29.640  27.283  1.00  0.00     0.029 A 
ATOM     66  C   UNL A   1      47.875  28.653  27.228  1.00  0.00     0.049 A 
ATOM     67  H   UNL A   1      45.818  28.788  27.678  1.00  0.00     0.167 HD
ATOM     68  C   UNL A   1      47.019  26.356  26.827  1.00  0.00     0.074 A 
ATOM     69  C   UNL A   1      47.184  24.970  26.437  1.00  0.00     0.031 C 
ATOM     70  C   UNL A   1      48.022  27.269  26.845  1.00  0.00     0.037 A 
BRANCH  57  71
ATOM     71  C   UNL A   1      46.252  32.946  28.580  1.00  0.00     0.058 A 
ATOM     72  C   UNL A   1      46.664  33.416  29.837  1.00  0.00     0.135 A 
ATOM     73  C   UNL A   1      46.188  33.872  27.526  1.00  0.00     0.135 A 
ATOM     74  F   UNL A   1      46.732  32.579  30.885  1.00  0.00    -0.206 F 
ATOM     75  C   UNL A   1      46.949  34.762  30.056  1.00  0.00     0.059 A 
ATOM     76  C   UNL A   1      46.500  35.217  27.714  1.00  0.00     0.059 A 
ATOM     77  F   UNL A   1      45.806  33.479  26.301  1.00  0.00    -0.206 F 
ATOM     78  C   UNL A   1      46.855  35.655  28.988  1.00  0.00     0.060 A 
BRANCH  78  79
ATOM     79  S   UNL A   1      47.197  37.402  29.293  1.00  0.00     0.124 S 
ATOM     80  O   UNL A   1      47.878  37.343  30.583  1.00  0.00    -0.237 OA
ATOM     81  O   UNL A   1      48.034  37.761  28.152  1.00  0.00    -0.237 OA
ATOM     82  O   UNL A   1      45.871  38.010  29.310  1.00  0.00    -0.744 OA
ENDBRANCH  78  79
ENDBRANCH  57  71
BRANCH  58  83
ATOM     83  C   UNL A   1      43.236  23.545  26.956  1.00  0.00     0.058 A 
ATOM     84  C   UNL A   1      42.964  23.097  25.655  1.00  0.00     0.135 A 
ATOM     85  C   UNL A   1      43.113  22.620  28.005  1.00  0.00     0.135 A 
ATOM     86  F   UNL A   1      43.058  23.946  24.620  1.00  0.00    -0.206 F 
ATOM     87  C   UNL A   1      42.582  21.784  25.400  1.00  0.00     0.059 A 
ATOM     88  C   UNL A   1      42.756  21.295  27.773  1.00  0.00     0.059 A 
ATOM     89  F   UNL A   1      43.376  22.994  29.267  1.00  0.00    -0.206 F 
ATOM     90  C   UNL A   1      42.489  20.886  26.466  1.00  0.00     0.060 A 
BRANCH  90  91
ATOM     91  S   UNL A   1      42.071  19.165  26.115  1.00  0.00     0.124 S 
ATOM     92  O   UNL A   1      42.931  18.879  24.972  1.00  0.00    -0.237 OA
ATOM     93  O   UNL A   1      42.426  18.501  27.365  1.00  0.00    -0.237 OA
ATOM     94  O   UNL A   1      40.639  19.219  25.830  1.00  0.00    -0.744 OA
ENDBRANCH  90  91
ENDBRANCH  58  83
BRANCH  70  95
ATOM     95  C   UNL A   1      49.396  26.795  26.458  1.00  0.00     0.058 A 
ATOM     96  C   UNL A   1      50.245  26.162  27.377  1.00  0.00     0.135 A 
ATOM     97  C   UNL A   1      49.844  26.927  25.132  1.00  0.00     0.135 A 
ATOM     98  F   UNL A   1      49.868  26.017  28.658  1.00  0.00    -0.206 F 
ATOM     99  C   UNL A   1      51.503  25.697  27.004  1.00  0.00     0.059 A 
ATOM    100  C   UNL A   1      51.086  26.445  24.731  1.00  0.00     0.059 A 
ATOM    101  F   UNL A   1      49.066  27.515  24.210  1.00  0.00    -0.206 F 
ATOM    102  C   UNL A   1      51.912  25.841  25.677  1.00  0.00     0.060 A 
BRANCH 102 103
ATOM    103  S   UNL A   1      53.531  25.201  25.197  1.00  0.00     0.124 S 
ATOM    104  O   UNL A   1      53.341  23.764  25.367  1.00  0.00    -0.237 OA
ATOM    105  O   UNL A   1      53.657  25.666  23.820  1.00  0.00    -0.237 OA
ATOM    106  O   UNL A   1      54.441  25.831  26.150  1.00  0.00    -0.744 OA
ENDBRANCH 102 103
ENDBRANCH  70  95
ENDBRANCH  44  45
ENDBRANCH  36  39
ENDBRANCH  34  35
ENDBRANCH   1  34
TORSDOF 16
ENDMDL
MODEL 3
REMARK VINA RESULT:     -13.7      5.657      7.637
REMARK SMILES CC(=O)O[C@@H]1CC[C@@]23C(=O)O[C@]4(CC[C@]2(O)C1)[C@H]3CC[C@]1(C)[C@H](C(=O)NCCCNC(=O)c2ccc(-c3c5nc(c(-c6c(F)cc(S(=O)(=O)[O-])cc6F)c6ccc([nH]6)c(-c6c(F)cc(S(=O)(=O)[O-])cc6F)c6nc(c(-c7c(F)cc(S(=O)(=O)[O-])cc7F)c7ccc3[nH]7)C=C6)C=C5)cc2)CC[C@@H]14
REMARK SMILES IDX 28 1 27 2 26 3 24 4 25 5 23 7 5 8 6 9 17 10 7 11 15 12 8 13
REMARK SMILES IDX 14 14 9 15 18 16 13 17 10 18 11 19 12 20 19 21 101 22 20 23
REMARK SMILES IDX 21 24 100 25 22 26 99 27 4 28 2 29 1 30 3 31 16 32 29 34
REMARK SMILES IDX 30 35 31 36 32 38 33 39 34 40 98 41 35 42 97 43 36 44 37 45
REMARK SMILES IDX 38 46 91 47 39 48 96 49 90 50 92 51 40 52 95 53 89 54 88 55
REMARK SMILES IDX 41 57 75 58 54 59 74 60 55 61 58 62 73 63 93 64 56 65 57 66
REMARK SMILES IDX 72 68 94 69 59 70 42 71 43 72 52 73 44 74 45 75 51 76 53 77
REMARK SMILES IDX 46 78 47 79 48 80 49 81 50 82 76 83 77 84 86 85 78 86 79 87
REMARK SMILES IDX 85 88 87 89 80 90 81 91 82 92 83 93 84 94 60 95 61 96 70 97
REMARK SMILES IDX 62 98 63 99 69 100 71 101 64 102 65 103 66 104 67 105 68 106
REMARK H PARENT 26 6 16 33 30 37 92 56 58 67
REMARK Flexibility Score: inf
ROOT
ATOM      1  C   UNL A   1      38.181  19.582  25.016  1.00  0.00     0.042 C 
ENDROOT
BRANCH   1   2
ATOM      2  C   UNL A   1      36.857  20.359  25.002  1.00  0.00     0.117 C 
BRANCH   2   3
ATOM      3  N   UNL A   1      37.001  21.605  24.263  1.00  0.00    -0.356 N 
ATOM      4  C   UNL A   1      36.159  22.466  23.649  1.00  0.00     0.223 C 
ATOM      5  O   UNL A   1      36.726  23.331  22.961  1.00  0.00    -0.275 OA
ATOM      6  H   UNL A   1      37.942  21.890  24.192  1.00  0.00     0.163 HD
BRANCH   4   7
ATOM      7  C   UNL A   1      34.629  22.538  23.772  1.00  0.00     0.085 C 
ATOM      8  C   UNL A   1      30.274  29.350  22.780  1.00  0.00     0.179 C 
ATOM      9  C   UNL A   1      31.305  28.560  21.999  1.00  0.00     0.047 C 
ATOM     10  C   UNL A   1      30.592  29.298  24.276  1.00  0.00     0.081 C 
ATOM     11  C   UNL A   1      31.444  27.175  22.612  1.00  0.00     0.026 C 
ATOM     12  C   UNL A   1      31.029  27.945  24.890  1.00  0.00     0.085 C 
ATOM     13  C   UNL A   1      32.134  27.230  24.204  1.00  0.00     0.103 C 
ATOM     14  C   UNL A   1      29.925  26.765  24.879  1.00  0.00     0.041 C 
ATOM     15  C   UNL A   1      33.390  26.835  23.621  1.00  0.00     0.316 C 
ATOM     16  C   UNL A   1      32.377  25.940  25.334  1.00  0.00     0.054 C 
ATOM     17  C   UNL A   1      30.461  25.244  24.325  1.00  0.00     0.052 C 
ATOM     18  O   UNL A   1      34.364  27.462  23.222  1.00  0.00    -0.251 OA
ATOM     19  O   UNL A   1      33.061  25.497  23.335  1.00  0.00    -0.458 OA
ATOM     20  C   UNL A   1      32.063  24.966  24.303  1.00  0.00     0.120 C 
ATOM     21  C   UNL A   1      33.689  25.638  26.086  1.00  0.00     0.009 C 
ATOM     22  C   UNL A   1      32.420  23.489  24.407  1.00  0.00     0.040 C 
ATOM     23  C   UNL A   1      34.527  24.475  25.534  1.00  0.00     0.008 C 
ATOM     24  C   UNL A   1      33.854  23.209  24.972  1.00  0.00    -0.014 C 
ATOM     25  C   UNL A   1      32.433  22.900  22.970  1.00  0.00     0.009 C 
ATOM     26  C   UNL A   1      33.750  22.153  26.095  1.00  0.00     0.012 C 
ATOM     27  C   UNL A   1      33.892  22.944  22.507  1.00  0.00     0.014 C 
BRANCH   8  28
ATOM     28  O   UNL A   1      28.952  28.805  22.566  1.00  0.00    -0.462 OA
BRANCH  28  29
ATOM     29  C   UNL A   1      27.921  29.697  22.555  1.00  0.00     0.302 C 
ATOM     30  C   UNL A   1      28.037  30.619  21.379  1.00  0.00     0.139 C 
ATOM     31  O   UNL A   1      27.039  29.778  23.398  1.00  0.00    -0.253 OA
ENDBRANCH  28  29
ENDBRANCH   8  28
BRANCH  12  32
ATOM     32  O   UNL A   1      31.401  28.238  26.240  1.00  0.00    -0.389 OA
ATOM     33  H   UNL A   1      32.366  28.190  26.326  1.00  0.00     0.211 HD
ENDBRANCH  12  32
ENDBRANCH   4   7
ENDBRANCH   2   3
ENDBRANCH   1   2
BRANCH   1  34
ATOM     34  C   UNL A   1      39.302  20.258  25.789  1.00  0.00     0.118 C 
BRANCH  34  35
ATOM     35  N   UNL A   1      40.390  19.346  26.087  1.00  0.00    -0.352 N 
ATOM     36  C   UNL A   1      41.721  19.608  26.312  1.00  0.00     0.251 C 
ATOM     37  H   UNL A   1      40.137  18.396  26.136  1.00  0.00     0.163 HD
ATOM     38  O   UNL A   1      42.517  18.672  26.331  1.00  0.00    -0.269 OA
BRANCH  36  39
ATOM     39  C   UNL A   1      42.208  20.995  26.517  1.00  0.00     0.039 A 
ATOM     40  C   UNL A   1      42.444  21.438  27.822  1.00  0.00     0.014 A 
ATOM     41  C   UNL A   1      42.385  21.878  25.449  1.00  0.00     0.014 A 
ATOM     42  C   UNL A   1      42.892  22.743  28.049  1.00  0.00     0.010 A 
ATOM     43  C   UNL A   1      42.924  23.145  25.667  1.00  0.00     0.010 A 
ATOM     44  C   UNL A   1      43.159  23.603  26.971  1.00  0.00    -0.014 A 
BRANCH  44  45
ATOM     45  C   UNL A   1      43.636  24.995  27.188  1.00  0.00     0.031 A 
ATOM     46  C   UNL A   1      45.075  25.351  26.917  1.00  0.00     0.074 A 
ATOM     47  C   UNL A   1      42.793  25.929  27.673  1.00  0.00     0.049 A 
ATOM     48  N   UNL A   1      45.699  26.487  27.101  1.00  0.00    -0.248 NA
ATOM     49  C   UNL A   1      45.937  24.274  26.401  1.00  0.00     0.031 C 
ATOM     50  C   UNL A   1      41.387  25.704  28.016  1.00  0.00     0.029 A 
ATOM     51  N   UNL A   1      42.997  27.254  27.968  1.00  0.00    -0.354 N 
ATOM     52  C   UNL A   1      47.023  26.255  26.744  1.00  0.00     0.074 A 
ATOM     53  C   UNL A   1      47.126  24.856  26.394  1.00  0.00     0.031 C 
ATOM     54  C   UNL A   1      40.848  26.857  28.442  1.00  0.00     0.029 A 
ATOM     55  C   UNL A   1      41.875  27.894  28.443  1.00  0.00     0.049 A 
ATOM     56  H   UNL A   1      43.865  27.705  27.851  1.00  0.00     0.167 HD
ATOM     57  C   UNL A   1      48.055  27.132  26.687  1.00  0.00     0.037 A 
ATOM     58  C   UNL A   1      41.697  29.170  28.836  1.00  0.00     0.037 A 
ATOM     59  C   UNL A   1      47.938  28.531  27.009  1.00  0.00     0.049 A 
ATOM     60  C   UNL A   1      42.853  30.130  28.765  1.00  0.00     0.074 A 
ATOM     61  C   UNL A   1      48.905  29.517  26.927  1.00  0.00     0.029 A 
ATOM     62  N   UNL A   1      46.783  29.140  27.475  1.00  0.00    -0.354 N 
ATOM     63  N   UNL A   1      44.085  29.906  28.371  1.00  0.00    -0.248 NA
ATOM     64  C   UNL A   1      42.595  31.512  29.187  1.00  0.00     0.031 C 
ATOM     65  C   UNL A   1      48.346  30.715  27.386  1.00  0.00     0.029 A 
ATOM     66  C   UNL A   1      47.017  30.486  27.708  1.00  0.00     0.049 A 
ATOM     67  H   UNL A   1      45.922  28.685  27.621  1.00  0.00     0.167 HD
ATOM     68  C   UNL A   1      44.743  31.127  28.473  1.00  0.00     0.074 A 
ATOM     69  C   UNL A   1      43.770  32.086  28.958  1.00  0.00     0.031 C 
ATOM     70  C   UNL A   1      46.035  31.428  28.189  1.00  0.00     0.037 A 
BRANCH  57  71
ATOM     71  C   UNL A   1      49.397  26.594  26.263  1.00  0.00     0.058 A 
ATOM     72  C   UNL A   1      50.230  25.900  27.155  1.00  0.00     0.135 A 
ATOM     73  C   UNL A   1      49.858  26.780  24.950  1.00  0.00     0.135 A 
ATOM     74  F   UNL A   1      49.847  25.703  28.426  1.00  0.00    -0.206 F 
ATOM     75  C   UNL A   1      51.494  25.455  26.776  1.00  0.00     0.059 A 
ATOM     76  C   UNL A   1      51.106  26.315  24.539  1.00  0.00     0.059 A 
ATOM     77  F   UNL A   1      49.103  27.431  24.052  1.00  0.00    -0.206 F 
ATOM     78  C   UNL A   1      51.925  25.675  25.468  1.00  0.00     0.060 A 
BRANCH  78  79
ATOM     79  S   UNL A   1      53.579  25.121  24.999  1.00  0.00     0.124 S 
ATOM     80  O   UNL A   1      53.518  23.704  25.347  1.00  0.00    -0.237 OA
ATOM     81  O   UNL A   1      53.617  25.420  23.571  1.00  0.00    -0.237 OA
ATOM     82  O   UNL A   1      54.459  25.934  25.831  1.00  0.00    -0.744 OA
ENDBRANCH  78  79
ENDBRANCH  57  71
BRANCH  58  83
ATOM     83  C   UNL A   1      40.352  29.617  29.291  1.00  0.00     0.058 A 
ATOM     84  C   UNL A   1      40.094  29.845  30.650  1.00  0.00     0.135 A 
ATOM     85  C   UNL A   1      39.317  29.868  28.378  1.00  0.00     0.135 A 
ATOM     86  F   UNL A   1      41.049  29.610  31.563  1.00  0.00    -0.206 F 
ATOM     87  C   UNL A   1      38.857  30.304  31.091  1.00  0.00     0.059 A 
ATOM     88  C   UNL A   1      38.079  30.351  28.791  1.00  0.00     0.059 A 
ATOM     89  F   UNL A   1      39.517  29.680  27.064  1.00  0.00    -0.206 F 
ATOM     90  C   UNL A   1      37.856  30.562  30.152  1.00  0.00     0.060 A 
BRANCH  90  91
ATOM     91  S   UNL A   1      36.281  31.233  30.727  1.00  0.00     0.124 S 
ATOM     92  O   UNL A   1      35.482  31.199  29.507  1.00  0.00    -0.237 OA
ATOM     93  O   UNL A   1      35.903  30.280  31.766  1.00  0.00    -0.237 OA
ATOM     94  O   UNL A   1      36.639  32.564  31.210  1.00  0.00    -0.744 OA
ENDBRANCH  90  91
ENDBRANCH  58  83
BRANCH  70  95
ATOM     95  C   UNL A   1      46.468  32.856  28.368  1.00  0.00     0.058 A 
ATOM     96  C   UNL A   1      46.344  33.801  27.338  1.00  0.00     0.135 A 
ATOM     97  C   UNL A   1      46.964  33.297  29.607  1.00  0.00     0.135 A 
ATOM     98  F   UNL A   1      45.883  33.430  26.133  1.00  0.00    -0.206 F 
ATOM     99  C   UNL A   1      46.717  35.129  27.522  1.00  0.00     0.059 A 
ATOM    100  C   UNL A   1      47.316  34.626  29.821  1.00  0.00     0.059 A 
ATOM    101  F   UNL A   1      47.092  32.437  30.629  1.00  0.00    -0.206 F 
ATOM    102  C   UNL A   1      47.200  35.532  28.769  1.00  0.00     0.060 A 
BRANCH 102 103
ATOM    103  S   UNL A   1      47.646  37.265  29.004  1.00  0.00     0.124 S 
ATOM    104  O   UNL A   1      49.097  37.217  28.865  1.00  0.00    -0.237 OA
ATOM    105  O   UNL A   1      46.927  37.924  27.918  1.00  0.00    -0.237 OA
ATOM    106  O   UNL A   1      47.152  37.564  30.345  1.00  0.00    -0.744 OA
ENDBRANCH 102 103
ENDBRANCH  70  95
ENDBRANCH  44  45
ENDBRANCH  36  39
ENDBRANCH  34  35
ENDBRANCH   1  34
TORSDOF 16
ENDMDL
