MODEL 1
REMARK VINA RESULT:     -12.4      0.000      0.000
REMARK SMILES Cc1oc2ccc(OCc3ccc(Br)cc3)cc2c1C(=O)NCCCNC(=O)c1ccc(-c2c3nc(c(-c4c(F)cc(S(=O)(=O)[O-])cc4F)c4ccc([nH]4)c(-c4c(F)cc(S(=O)(=O)[O-])cc4F)c4nc(c(-c5c(F)cc(S(=O)(=O)[O-])cc5F)c5ccc2[nH]5)C=C4)C=C3)cc1
REMARK SMILES IDX 24 1 23 2 22 3 20 4 21 5 19 7 1 8 2 9 3 10 4 11 18 12 5 13
REMARK SMILES IDX 17 14 6 15 7 16 8 17 9 18 10 19 11 20 16 21 12 22 15 23
REMARK SMILES IDX 13 24 14 25 25 26 26 27 27 28 28 30 29 31 30 32 94 33 31 34
REMARK SMILES IDX 93 35 32 36 33 37 34 38 87 39 35 40 92 41 86 42 88 43 36 44
REMARK SMILES IDX 91 45 85 46 84 47 37 49 71 50 50 51 70 52 51 53 54 54 69 55
REMARK SMILES IDX 89 56 52 57 53 58 68 60 90 61 55 62 38 63 39 64 48 65 40 66
REMARK SMILES IDX 41 67 47 68 49 69 42 70 43 71 44 72 45 73 46 74 72 75 73 76
REMARK SMILES IDX 82 77 74 78 75 79 81 80 83 81 76 82 77 83 78 84 79 85 80 86
REMARK SMILES IDX 56 87 57 88 66 89 58 90 59 91 65 92 67 93 60 94 61 95 62 96
REMARK SMILES IDX 63 97 64 98
REMARK H PARENT 22 6 26 29 88 48 54 59
REMARK Flexibility Score: inf
ROOT
ATOM      1  C   UNL A   1      34.172  29.834  26.837  1.00  0.00     0.042 C 
ENDROOT
BRANCH   1   2
ATOM      2  C   UNL A   1      33.626  28.787  25.887  1.00  0.00     0.118 C 
BRANCH   2   3
ATOM      3  N   UNL A   1      32.568  27.971  26.420  1.00  0.00    -0.352 N 
ATOM      4  C   UNL A   1      31.518  27.328  25.815  1.00  0.00     0.255 C 
ATOM      5  O   UNL A   1      30.761  26.741  26.595  1.00  0.00    -0.269 OA
ATOM      6  H   UNL A   1      32.604  27.851  27.397  1.00  0.00     0.163 HD
BRANCH   4   7
ATOM      7  C   UNL A   1      31.267  27.295  24.367  1.00  0.00     0.088 A 
ATOM      8  C   UNL A   1      29.854  29.438  23.517  1.00  0.00     0.088 C 
ATOM      9  C   UNL A   1      30.608  28.163  23.489  1.00  0.00     0.115 A 
ATOM     10  O   UNL A   1      30.739  27.732  22.206  1.00  0.00    -0.461 OA
ATOM     11  C   UNL A   1      31.519  26.642  22.207  1.00  0.00     0.135 A 
ATOM     12  C   UNL A   1      31.837  26.268  23.497  1.00  0.00     0.037 A 
ATOM     13  C   UNL A   1      31.973  26.022  21.056  1.00  0.00     0.051 A 
ATOM     14  C   UNL A   1      32.611  25.090  23.650  1.00  0.00     0.059 A 
ATOM     15  C   UNL A   1      32.814  24.930  21.239  1.00  0.00     0.050 A 
ATOM     16  C   UNL A   1      33.068  24.404  22.506  1.00  0.00     0.120 A 
BRANCH  16  17
ATOM     17  O   UNL A   1      33.751  23.237  22.738  1.00  0.00    -0.489 OA
BRANCH  17  18
ATOM     18  C   UNL A   1      33.834  22.746  24.086  1.00  0.00     0.265 C 
BRANCH  18  19
ATOM     19  C   UNL A   1      35.253  22.646  24.618  1.00  0.00    -0.011 A 
ATOM     20  C   UNL A   1      35.968  21.438  24.581  1.00  0.00     0.008 A 
ATOM     21  C   UNL A   1      35.872  23.767  25.188  1.00  0.00     0.008 A 
ATOM     22  C   UNL A   1      37.237  21.331  25.152  1.00  0.00     0.016 A 
ATOM     23  C   UNL A   1      37.161  23.673  25.725  1.00  0.00     0.016 A 
ATOM     24  C   UNL A   1      37.829  22.451  25.720  1.00  0.00     0.017 A 
ATOM     25  Br  UNL A   1      39.550  22.309  26.488  1.00  0.00    -0.051 Br
ENDBRANCH  18  19
ENDBRANCH  17  18
ENDBRANCH  16  17
ENDBRANCH   4   7
ENDBRANCH   2   3
ENDBRANCH   1   2
BRANCH   1  26
ATOM     26  C   UNL A   1      35.382  29.405  27.642  1.00  0.00     0.118 C 
BRANCH  26  27
ATOM     27  N   UNL A   1      35.319  29.808  29.042  1.00  0.00    -0.352 N 
ATOM     28  C   UNL A   1      36.294  29.882  30.011  1.00  0.00     0.251 C 
ATOM     29  H   UNL A   1      34.423  30.074  29.349  1.00  0.00     0.163 HD
ATOM     30  O   UNL A   1      35.963  30.101  31.176  1.00  0.00    -0.269 OA
BRANCH  28  31
ATOM     31  C   UNL A   1      37.723  29.665  29.681  1.00  0.00     0.039 A 
ATOM     32  C   UNL A   1      38.604  29.256  30.688  1.00  0.00     0.014 A 
ATOM     33  C   UNL A   1      38.206  29.868  28.390  1.00  0.00     0.014 A 
ATOM     34  C   UNL A   1      39.935  28.962  30.373  1.00  0.00     0.010 A 
ATOM     35  C   UNL A   1      39.486  29.449  28.051  1.00  0.00     0.010 A 
ATOM     36  C   UNL A   1      40.374  29.004  29.039  1.00  0.00    -0.014 A 
BRANCH  36  37
ATOM     37  C   UNL A   1      41.756  28.614  28.651  1.00  0.00     0.031 A 
ATOM     38  C   UNL A   1      42.843  29.656  28.588  1.00  0.00     0.074 A 
ATOM     39  C   UNL A   1      42.013  27.345  28.271  1.00  0.00     0.049 A 
ATOM     40  N   UNL A   1      44.079  29.539  28.174  1.00  0.00    -0.248 NA
ATOM     41  C   UNL A   1      42.484  31.021  29.010  1.00  0.00     0.031 C 
ATOM     42  C   UNL A   1      41.032  26.257  28.226  1.00  0.00     0.029 A 
ATOM     43  N   UNL A   1      43.175  26.756  27.839  1.00  0.00    -0.354 N 
ATOM     44  C   UNL A   1      44.630  30.812  28.259  1.00  0.00     0.074 A 
ATOM     45  C   UNL A   1      43.578  31.700  28.703  1.00  0.00     0.031 C 
ATOM     46  C   UNL A   1      41.640  25.130  27.822  1.00  0.00     0.029 A 
ATOM     47  C   UNL A   1      43.041  25.421  27.536  1.00  0.00     0.049 A 
ATOM     48  H   UNL A   1      44.026  27.245  27.752  1.00  0.00     0.167 HD
ATOM     49  C   UNL A   1      45.903  31.204  28.019  1.00  0.00     0.037 A 
ATOM     50  C   UNL A   1      43.943  24.532  27.074  1.00  0.00     0.037 A 
ATOM     51  C   UNL A   1      46.956  30.307  27.620  1.00  0.00     0.049 A 
ATOM     52  C   UNL A   1      45.357  24.986  26.834  1.00  0.00     0.074 A 
ATOM     53  C   UNL A   1      48.296  30.587  27.426  1.00  0.00     0.029 A 
ATOM     54  N   UNL A   1      46.786  28.955  27.359  1.00  0.00    -0.354 N 
ATOM     55  N   UNL A   1      45.877  26.181  26.986  1.00  0.00    -0.248 NA
ATOM     56  C   UNL A   1      46.310  23.970  26.364  1.00  0.00     0.031 C 
ATOM     57  C   UNL A   1      48.929  29.414  27.000  1.00  0.00     0.029 A 
ATOM     58  C   UNL A   1      47.994  28.391  26.984  1.00  0.00     0.049 A 
ATOM     59  H   UNL A   1      45.933  28.468  27.430  1.00  0.00     0.167 HD
ATOM     60  C   UNL A   1      47.222  26.054  26.659  1.00  0.00     0.074 A 
ATOM     61  C   UNL A   1      47.438  24.664  26.312  1.00  0.00     0.031 C 
ATOM     62  C   UNL A   1      48.192  27.002  26.649  1.00  0.00     0.037 A 
BRANCH  49  63
ATOM     63  C   UNL A   1      46.233  32.663  28.191  1.00  0.00     0.058 A 
ATOM     64  C   UNL A   1      46.688  33.179  29.415  1.00  0.00     0.135 A 
ATOM     65  C   UNL A   1      46.122  33.552  27.110  1.00  0.00     0.135 A 
ATOM     66  F   UNL A   1      46.797  32.379  30.488  1.00  0.00    -0.206 F 
ATOM     67  C   UNL A   1      46.992  34.527  29.570  1.00  0.00     0.059 A 
ATOM     68  C   UNL A   1      46.451  34.899  27.233  1.00  0.00     0.059 A 
ATOM     69  F   UNL A   1      45.690  33.115  25.917  1.00  0.00    -0.206 F 
ATOM     70  C   UNL A   1      46.872  35.380  28.472  1.00  0.00     0.060 A 
BRANCH  70  71
ATOM     71  S   UNL A   1      47.281  37.124  28.688  1.00  0.00     0.124 S 
ATOM     72  O   UNL A   1      48.738  37.073  28.769  1.00  0.00    -0.237 OA
ATOM     73  O   UNL A   1      46.735  37.726  27.476  1.00  0.00    -0.237 OA
ATOM     74  O   UNL A   1      46.597  37.483  29.927  1.00  0.00    -0.744 OA
ENDBRANCH  70  71
ENDBRANCH  49  63
BRANCH  50  75
ATOM     75  C   UNL A   1      43.540  23.119  26.841  1.00  0.00     0.058 A 
ATOM     76  C   UNL A   1      43.441  22.604  25.539  1.00  0.00     0.135 A 
ATOM     77  C   UNL A   1      43.266  22.249  27.907  1.00  0.00     0.135 A 
ATOM     78  F   UNL A   1      43.687  23.398  24.485  1.00  0.00    -0.206 F 
ATOM     79  C   UNL A   1      43.073  21.285  25.301  1.00  0.00     0.059 A 
ATOM     80  C   UNL A   1      42.922  20.917  27.696  1.00  0.00     0.059 A 
ATOM     81  F   UNL A   1      43.363  22.685  29.173  1.00  0.00    -0.206 F 
ATOM     82  C   UNL A   1      42.818  20.447  26.389  1.00  0.00     0.060 A 
BRANCH  82  83
ATOM     83  S   UNL A   1      42.395  18.720  26.069  1.00  0.00     0.124 S 
ATOM     84  O   UNL A   1      40.990  18.826  25.695  1.00  0.00    -0.237 OA
ATOM     85  O   UNL A   1      43.318  18.374  24.993  1.00  0.00    -0.237 OA
ATOM     86  O   UNL A   1      42.663  18.067  27.347  1.00  0.00    -0.744 OA
ENDBRANCH  82  83
ENDBRANCH  50  75
BRANCH  62  87
ATOM     87  C   UNL A   1      49.584  26.567  26.286  1.00  0.00     0.058 A 
ATOM     88  C   UNL A   1      50.079  26.687  24.978  1.00  0.00     0.135 A 
ATOM     89  C   UNL A   1      50.453  26.076  27.274  1.00  0.00     0.135 A 
ATOM     90  F   UNL A   1      49.288  27.145  23.995  1.00  0.00    -0.206 F 
ATOM     91  C   UNL A   1      51.379  26.313  24.658  1.00  0.00     0.059 A 
ATOM     92  C   UNL A   1      51.766  25.724  26.982  1.00  0.00     0.059 A 
ATOM     93  F   UNL A   1      50.033  25.952  28.543  1.00  0.00    -0.206 F 
ATOM     94  C   UNL A   1      52.217  25.835  25.668  1.00  0.00     0.060 A 
BRANCH  94  95
ATOM     95  S   UNL A   1      53.913  25.386  25.245  1.00  0.00     0.124 S 
ATOM     96  O   UNL A   1      53.870  23.932  25.361  1.00  0.00    -0.237 OA
ATOM     97  O   UNL A   1      54.046  25.910  23.889  1.00  0.00    -0.237 OA
ATOM     98  O   UNL A   1      54.710  26.074  26.257  1.00  0.00    -0.744 OA
ENDBRANCH  94  95
ENDBRANCH  62  87
ENDBRANCH  36  37
ENDBRANCH  28  31
ENDBRANCH  26  27
ENDBRANCH   1  26
TORSDOF 16
ENDMDL
MODEL 2
REMARK VINA RESULT:     -12.3      4.820      6.099
REMARK SMILES Cc1oc2ccc(OCc3ccc(Br)cc3)cc2c1C(=O)NCCCNC(=O)c1ccc(-c2c3nc(c(-c4c(F)cc(S(=O)(=O)[O-])cc4F)c4ccc([nH]4)c(-c4c(F)cc(S(=O)(=O)[O-])cc4F)c4nc(c(-c5c(F)cc(S(=O)(=O)[O-])cc5F)c5ccc2[nH]5)C=C4)C=C3)cc1
REMARK SMILES IDX 24 1 23 2 22 3 20 4 21 5 19 7 1 8 2 9 3 10 4 11 18 12 5 13
REMARK SMILES IDX 17 14 6 15 7 16 8 17 9 18 10 19 11 20 16 21 12 22 15 23
REMARK SMILES IDX 13 24 14 25 25 26 26 27 27 28 28 30 29 31 30 32 94 33 31 34
REMARK SMILES IDX 93 35 32 36 33 37 34 38 87 39 35 40 92 41 86 42 88 43 36 44
REMARK SMILES IDX 91 45 85 46 84 47 37 49 71 50 50 51 70 52 51 53 54 54 69 55
REMARK SMILES IDX 89 56 52 57 53 58 68 60 90 61 55 62 38 63 39 64 48 65 40 66
REMARK SMILES IDX 41 67 47 68 49 69 42 70 43 71 44 72 45 73 46 74 72 75 73 76
REMARK SMILES IDX 82 77 74 78 75 79 81 80 83 81 76 82 77 83 78 84 79 85 80 86
REMARK SMILES IDX 56 87 57 88 66 89 58 90 59 91 65 92 67 93 60 94 61 95 62 96
REMARK SMILES IDX 63 97 64 98
REMARK H PARENT 22 6 26 29 88 48 54 59
REMARK Flexibility Score: inf
ROOT
ATOM      1  C   UNL A   1      33.239  27.690  26.476  1.00  0.00     0.042 C 
ENDROOT
BRANCH   1   2
ATOM      2  C   UNL A   1      31.786  27.986  26.784  1.00  0.00     0.118 C 
BRANCH   2   3
ATOM      3  N   UNL A   1      30.919  26.837  26.801  1.00  0.00    -0.352 N 
ATOM      4  C   UNL A   1      30.325  26.127  25.789  1.00  0.00     0.255 C 
ATOM      5  O   UNL A   1      29.594  25.207  26.171  1.00  0.00    -0.269 OA
ATOM      6  H   UNL A   1      30.714  26.499  27.703  1.00  0.00     0.163 HD
BRANCH   4   7
ATOM      7  C   UNL A   1      30.511  26.383  24.354  1.00  0.00     0.088 A 
ATOM      8  C   UNL A   1      29.207  28.603  23.525  1.00  0.00     0.088 C 
ATOM      9  C   UNL A   1      30.055  27.388  23.493  1.00  0.00     0.115 A 
ATOM     10  O   UNL A   1      30.594  27.235  22.254  1.00  0.00    -0.461 OA
ATOM     11  C   UNL A   1      31.441  26.197  22.291  1.00  0.00     0.135 A 
ATOM     12  C   UNL A   1      31.404  25.578  23.524  1.00  0.00     0.037 A 
ATOM     13  C   UNL A   1      32.268  25.843  21.239  1.00  0.00     0.051 A 
ATOM     14  C   UNL A   1      32.210  24.422  23.684  1.00  0.00     0.059 A 
ATOM     15  C   UNL A   1      33.121  24.767  21.464  1.00  0.00     0.050 A 
ATOM     16  C   UNL A   1      33.044  24.003  22.628  1.00  0.00     0.120 A 
BRANCH  16  17
ATOM     17  O   UNL A   1      33.738  22.837  22.837  1.00  0.00    -0.489 OA
BRANCH  17  18
ATOM     18  C   UNL A   1      33.888  22.359  24.183  1.00  0.00     0.265 C 
BRANCH  18  19
ATOM     19  C   UNL A   1      35.308  22.450  24.714  1.00  0.00    -0.011 A 
ATOM     20  C   UNL A   1      36.161  21.334  24.723  1.00  0.00     0.008 A 
ATOM     21  C   UNL A   1      35.789  23.658  25.237  1.00  0.00     0.008 A 
ATOM     22  C   UNL A   1      37.433  21.402  25.294  1.00  0.00     0.016 A 
ATOM     23  C   UNL A   1      37.079  23.740  25.773  1.00  0.00     0.016 A 
ATOM     24  C   UNL A   1      37.888  22.606  25.814  1.00  0.00     0.017 A 
ATOM     25  Br  UNL A   1      39.612  22.701  26.581  1.00  0.00    -0.051 Br
ENDBRANCH  18  19
ENDBRANCH  17  18
ENDBRANCH  16  17
ENDBRANCH   4   7
ENDBRANCH   2   3
ENDBRANCH   1   2
BRANCH   1  26
ATOM     26  C   UNL A   1      33.981  28.793  25.748  1.00  0.00     0.118 C 
BRANCH  26  27
ATOM     27  N   UNL A   1      33.764  30.115  26.323  1.00  0.00    -0.352 N 
ATOM     28  C   UNL A   1      34.413  30.783  27.336  1.00  0.00     0.251 C 
ATOM     29  H   UNL A   1      33.023  30.619  25.915  1.00  0.00     0.163 HD
ATOM     30  O   UNL A   1      33.940  31.839  27.754  1.00  0.00    -0.269 OA
BRANCH  28  31
ATOM     31  C   UNL A   1      35.644  30.234  27.953  1.00  0.00     0.039 A 
ATOM     32  C   UNL A   1      36.861  30.349  27.273  1.00  0.00     0.014 A 
ATOM     33  C   UNL A   1      35.609  29.597  29.192  1.00  0.00     0.014 A 
ATOM     34  C   UNL A   1      38.043  29.915  27.882  1.00  0.00     0.010 A 
ATOM     35  C   UNL A   1      36.794  29.289  29.850  1.00  0.00     0.010 A 
ATOM     36  C   UNL A   1      38.026  29.430  29.200  1.00  0.00    -0.014 A 
BRANCH  36  37
ATOM     37  C   UNL A   1      39.272  29.041  29.914  1.00  0.00     0.031 A 
ATOM     38  C   UNL A   1      39.694  29.789  31.153  1.00  0.00     0.074 A 
ATOM     39  C   UNL A   1      40.066  28.079  29.402  1.00  0.00     0.049 A 
ATOM     40  N   UNL A   1      40.792  29.674  31.856  1.00  0.00    -0.248 NA
ATOM     41  C   UNL A   1      38.779  30.832  31.647  1.00  0.00     0.031 C 
ATOM     42  C   UNL A   1      39.802  27.324  28.174  1.00  0.00     0.029 A 
ATOM     43  N   UNL A   1      41.266  27.577  29.843  1.00  0.00    -0.354 N 
ATOM     44  C   UNL A   1      40.710  30.642  32.849  1.00  0.00     0.074 A 
ATOM     45  C   UNL A   1      39.486  31.379  32.623  1.00  0.00     0.031 C 
ATOM     46  C   UNL A   1      40.791  26.437  27.978  1.00  0.00     0.029 A 
ATOM     47  C   UNL A   1      41.781  26.587  29.039  1.00  0.00     0.049 A 
ATOM     48  H   UNL A   1      41.715  27.896  30.659  1.00  0.00     0.167 HD
ATOM     49  C   UNL A   1      41.560  30.879  33.876  1.00  0.00     0.037 A 
ATOM     50  C   UNL A   1      42.926  25.883  29.141  1.00  0.00     0.037 A 
ATOM     51  C   UNL A   1      42.754  30.113  34.121  1.00  0.00     0.049 A 
ATOM     52  C   UNL A   1      43.845  26.149  30.302  1.00  0.00     0.074 A 
ATOM     53  C   UNL A   1      43.642  30.220  35.175  1.00  0.00     0.029 A 
ATOM     54  N   UNL A   1      43.221  29.095  33.303  1.00  0.00    -0.354 N 
ATOM     55  N   UNL A   1      43.717  27.024  31.272  1.00  0.00    -0.248 NA
ATOM     56  C   UNL A   1      45.063  25.331  30.387  1.00  0.00     0.031 C 
ATOM     57  C   UNL A   1      44.675  29.299  34.970  1.00  0.00     0.029 A 
ATOM     58  C   UNL A   1      44.399  28.580  33.818  1.00  0.00     0.049 A 
ATOM     59  H   UNL A   1      42.782  28.785  32.479  1.00  0.00     0.167 HD
ATOM     60  C   UNL A   1      44.821  26.841  32.097  1.00  0.00     0.074 A 
ATOM     61  C   UNL A   1      45.600  25.765  31.518  1.00  0.00     0.031 C 
ATOM     62  C   UNL A   1      45.158  27.502  33.232  1.00  0.00     0.037 A 
BRANCH  49  63
ATOM     63  C   UNL A   1      41.225  32.005  34.818  1.00  0.00     0.058 A 
ATOM     64  C   UNL A   1      40.421  31.806  35.952  1.00  0.00     0.135 A 
ATOM     65  C   UNL A   1      41.743  33.293  34.604  1.00  0.00     0.135 A 
ATOM     66  F   UNL A   1      39.884  30.600  36.198  1.00  0.00    -0.206 F 
ATOM     67  C   UNL A   1      40.115  32.849  36.820  1.00  0.00     0.059 A 
ATOM     68  C   UNL A   1      41.475  34.344  35.477  1.00  0.00     0.059 A 
ATOM     69  F   UNL A   1      42.516  33.542  33.535  1.00  0.00    -0.206 F 
ATOM     70  C   UNL A   1      40.648  34.114  36.575  1.00  0.00     0.060 A 
BRANCH  70  71
ATOM     71  S   UNL A   1      40.249  35.453  37.718  1.00  0.00     0.124 S 
ATOM     72  O   UNL A   1      39.042  34.937  38.358  1.00  0.00    -0.237 OA
ATOM     73  O   UNL A   1      41.439  35.508  38.562  1.00  0.00    -0.237 OA
ATOM     74  O   UNL A   1      40.051  36.602  36.841  1.00  0.00    -0.744 OA
ENDBRANCH  70  71
ENDBRANCH  49  63
BRANCH  50  75
ATOM     75  C   UNL A   1      43.248  24.838  28.132  1.00  0.00     0.058 A 
ATOM     76  C   UNL A   1      43.895  25.171  26.932  1.00  0.00     0.135 A 
ATOM     77  C   UNL A   1      42.936  23.487  28.350  1.00  0.00     0.135 A 
ATOM     78  F   UNL A   1      44.208  26.450  26.673  1.00  0.00    -0.206 F 
ATOM     79  C   UNL A   1      44.209  24.208  25.980  1.00  0.00     0.059 A 
ATOM     80  C   UNL A   1      43.265  22.501  27.425  1.00  0.00     0.059 A 
ATOM     81  F   UNL A   1      42.333  23.111  29.489  1.00  0.00    -0.206 F 
ATOM     82  C   UNL A   1      43.893  22.873  26.238  1.00  0.00     0.060 A 
BRANCH  82  83
ATOM     83  S   UNL A   1      44.357  21.623  25.019  1.00  0.00     0.124 S 
ATOM     84  O   UNL A   1      44.230  22.368  23.771  1.00  0.00    -0.237 OA
ATOM     85  O   UNL A   1      45.718  21.289  25.427  1.00  0.00    -0.237 OA
ATOM     86  O   UNL A   1      43.372  20.567  25.229  1.00  0.00    -0.744 OA
ENDBRANCH  82  83
ENDBRANCH  50  75
BRANCH  62  87
ATOM     87  C   UNL A   1      46.405  27.060  33.947  1.00  0.00     0.058 A 
ATOM     88  C   UNL A   1      46.382  26.043  34.913  1.00  0.00     0.135 A 
ATOM     89  C   UNL A   1      47.648  27.625  33.617  1.00  0.00     0.135 A 
ATOM     90  F   UNL A   1      45.220  25.474  35.269  1.00  0.00    -0.206 F 
ATOM     91  C   UNL A   1      47.545  25.618  35.545  1.00  0.00     0.059 A 
ATOM     92  C   UNL A   1      48.827  27.194  34.215  1.00  0.00     0.059 A 
ATOM     93  F   UNL A   1      47.726  28.594  32.690  1.00  0.00    -0.206 F 
ATOM     94  C   UNL A   1      48.764  26.197  35.187  1.00  0.00     0.060 A 
BRANCH  94  95
ATOM     95  S   UNL A   1      50.270  25.611  35.991  1.00  0.00     0.124 S 
ATOM     96  O   UNL A   1      50.882  26.865  36.418  1.00  0.00    -0.237 OA
ATOM     97  O   UNL A   1      49.745  24.766  37.059  1.00  0.00    -0.237 OA
ATOM     98  O   UNL A   1      50.971  24.902  34.925  1.00  0.00    -0.744 OA
ENDBRANCH  94  95
ENDBRANCH  62  87
ENDBRANCH  36  37
ENDBRANCH  28  31
ENDBRANCH  26  27
ENDBRANCH   1  26
TORSDOF 16
ENDMDL
MODEL 3
REMARK VINA RESULT:     -12.0      6.681     12.673
REMARK SMILES Cc1oc2ccc(OCc3ccc(Br)cc3)cc2c1C(=O)NCCCNC(=O)c1ccc(-c2c3nc(c(-c4c(F)cc(S(=O)(=O)[O-])cc4F)c4ccc([nH]4)c(-c4c(F)cc(S(=O)(=O)[O-])cc4F)c4nc(c(-c5c(F)cc(S(=O)(=O)[O-])cc5F)c5ccc2[nH]5)C=C4)C=C3)cc1
REMARK SMILES IDX 24 1 23 2 22 3 20 4 21 5 19 7 1 8 2 9 3 10 4 11 18 12 5 13
REMARK SMILES IDX 17 14 6 15 7 16 8 17 9 18 10 19 11 20 16 21 12 22 15 23
REMARK SMILES IDX 13 24 14 25 25 26 26 27 27 28 28 30 29 31 30 32 94 33 31 34
REMARK SMILES IDX 93 35 32 36 33 37 34 38 87 39 35 40 92 41 86 42 88 43 36 44
REMARK SMILES IDX 91 45 85 46 84 47 37 49 71 50 50 51 70 52 51 53 54 54 69 55
REMARK SMILES IDX 89 56 52 57 53 58 68 60 90 61 55 62 38 63 39 64 48 65 40 66
REMARK SMILES IDX 41 67 47 68 49 69 42 70 43 71 44 72 45 73 46 74 72 75 73 76
REMARK SMILES IDX 82 77 74 78 75 79 81 80 83 81 76 82 77 83 78 84 79 85 80 86
REMARK SMILES IDX 56 87 57 88 66 89 58 90 59 91 65 92 67 93 60 94 61 95 62 96
REMARK SMILES IDX 63 97 64 98
REMARK H PARENT 22 6 26 29 88 48 54 59
REMARK Flexibility Score: inf
ROOT
ATOM      1  C   UNL A   1      44.962  24.182  27.322  1.00  0.00     0.042 C 
ENDROOT
BRANCH   1   2
ATOM      2  C   UNL A   1      45.660  23.159  26.448  1.00  0.00     0.118 C 
BRANCH   2   3
ATOM      3  N   UNL A   1      45.205  23.109  25.084  1.00  0.00    -0.352 N 
ATOM      4  C   UNL A   1      44.759  22.070  24.309  1.00  0.00     0.255 C 
ATOM      5  O   UNL A   1      44.485  22.381  23.145  1.00  0.00    -0.269 OA
ATOM      6  H   UNL A   1      45.214  23.979  24.623  1.00  0.00     0.163 HD
BRANCH   4   7
ATOM      7  C   UNL A   1      44.590  20.683  24.767  1.00  0.00     0.088 A 
ATOM      8  C   UNL A   1      46.623  19.083  23.980  1.00  0.00     0.088 C 
ATOM      9  C   UNL A   1      45.364  19.525  24.623  1.00  0.00     0.115 A 
ATOM     10  O   UNL A   1      44.820  18.499  25.329  1.00  0.00    -0.461 OA
ATOM     11  C   UNL A   1      43.748  18.963  25.986  1.00  0.00     0.135 A 
ATOM     12  C   UNL A   1      43.498  20.278  25.649  1.00  0.00     0.037 A 
ATOM     13  C   UNL A   1      43.033  18.221  26.911  1.00  0.00     0.051 A 
ATOM     14  C   UNL A   1      42.352  20.880  26.227  1.00  0.00     0.059 A 
ATOM     15  C   UNL A   1      41.976  18.874  27.536  1.00  0.00     0.050 A 
ATOM     16  C   UNL A   1      41.573  20.152  27.149  1.00  0.00     0.120 A 
BRANCH  16  17
ATOM     17  O   UNL A   1      40.443  20.780  27.609  1.00  0.00    -0.489 OA
BRANCH  17  18
ATOM     18  C   UNL A   1      40.226  22.155  27.252  1.00  0.00     0.265 C 
BRANCH  18  19
ATOM     19  C   UNL A   1      39.014  22.376  26.364  1.00  0.00    -0.011 A 
ATOM     20  C   UNL A   1      38.510  21.355  25.543  1.00  0.00     0.008 A 
ATOM     21  C   UNL A   1      38.387  23.629  26.328  1.00  0.00     0.008 A 
ATOM     22  C   UNL A   1      37.451  21.590  24.664  1.00  0.00     0.016 A 
ATOM     23  C   UNL A   1      37.299  23.857  25.477  1.00  0.00     0.016 A 
ATOM     24  C   UNL A   1      36.849  22.841  24.637  1.00  0.00     0.017 A 
ATOM     25  Br  UNL A   1      35.412  23.160  23.452  1.00  0.00    -0.051 Br
ENDBRANCH  18  19
ENDBRANCH  17  18
ENDBRANCH  16  17
ENDBRANCH   4   7
ENDBRANCH   2   3
ENDBRANCH   1   2
BRANCH   1  26
ATOM     26  C   UNL A   1      43.458  24.026  27.421  1.00  0.00     0.118 C 
BRANCH  26  27
ATOM     27  N   UNL A   1      42.746  24.521  26.248  1.00  0.00    -0.352 N 
ATOM     28  C   UNL A   1      41.817  25.527  26.107  1.00  0.00     0.251 C 
ATOM     29  H   UNL A   1      42.968  24.054  25.411  1.00  0.00     0.163 HD
ATOM     30  O   UNL A   1      41.234  25.654  25.031  1.00  0.00    -0.269 OA
BRANCH  28  31
ATOM     31  C   UNL A   1      41.484  26.429  27.235  1.00  0.00     0.039 A 
ATOM     32  C   UNL A   1      40.490  26.050  28.144  1.00  0.00     0.014 A 
ATOM     33  C   UNL A   1      42.135  27.649  27.402  1.00  0.00     0.014 A 
ATOM     34  C   UNL A   1      40.227  26.849  29.262  1.00  0.00     0.010 A 
ATOM     35  C   UNL A   1      41.969  28.372  28.577  1.00  0.00     0.010 A 
ATOM     36  C   UNL A   1      41.003  27.991  29.517  1.00  0.00    -0.014 A 
BRANCH  36  37
ATOM     37  C   UNL A   1      40.815  28.817  30.739  1.00  0.00     0.031 A 
ATOM     38  C   UNL A   1      39.734  29.867  30.778  1.00  0.00     0.074 A 
ATOM     39  C   UNL A   1      41.666  28.684  31.777  1.00  0.00     0.049 A 
ATOM     40  N   UNL A   1      39.477  30.756  31.704  1.00  0.00    -0.248 NA
ATOM     41  C   UNL A   1      38.849  29.959  29.605  1.00  0.00     0.031 C 
ATOM     42  C   UNL A   1      42.792  27.748  31.837  1.00  0.00     0.029 A 
ATOM     43  N   UNL A   1      41.727  29.346  32.979  1.00  0.00    -0.354 N 
ATOM     44  C   UNL A   1      38.427  31.522  31.214  1.00  0.00     0.074 A 
ATOM     45  C   UNL A   1      38.135  31.037  29.883  1.00  0.00     0.031 C 
ATOM     46  C   UNL A   1      43.410  27.874  33.022  1.00  0.00     0.029 A 
ATOM     47  C   UNL A   1      42.754  28.927  33.791  1.00  0.00     0.049 A 
ATOM     48  H   UNL A   1      41.093  30.054  33.235  1.00  0.00     0.167 HD
ATOM     49  C   UNL A   1      37.746  32.520  31.825  1.00  0.00     0.037 A 
ATOM     50  C   UNL A   1      43.131  29.348  35.015  1.00  0.00     0.037 A 
ATOM     51  C   UNL A   1      38.012  32.967  33.166  1.00  0.00     0.049 A 
ATOM     52  C   UNL A   1      42.347  30.444  35.683  1.00  0.00     0.074 A 
ATOM     53  C   UNL A   1      37.332  33.917  33.907  1.00  0.00     0.029 A 
ATOM     54  N   UNL A   1      39.039  32.492  33.968  1.00  0.00    -0.354 N 
ATOM     55  N   UNL A   1      41.311  31.110  35.230  1.00  0.00    -0.248 NA
ATOM     56  C   UNL A   1      42.776  30.843  37.031  1.00  0.00     0.031 C 
ATOM     57  C   UNL A   1      37.977  34.051  35.141  1.00  0.00     0.029 A 
ATOM     58  C   UNL A   1      39.025  33.146  35.190  1.00  0.00     0.049 A 
ATOM     59  H   UNL A   1      39.684  31.795  33.708  1.00  0.00     0.167 HD
ATOM     60  C   UNL A   1      40.949  31.986  36.247  1.00  0.00     0.074 A 
ATOM     61  C   UNL A   1      41.868  31.756  37.343  1.00  0.00     0.031 C 
ATOM     62  C   UNL A   1      39.944  32.897  36.273  1.00  0.00     0.037 A 
BRANCH  49  63
ATOM     63  C   UNL A   1      36.638  33.188  31.054  1.00  0.00     0.058 A 
ATOM     64  C   UNL A   1      35.285  32.946  31.342  1.00  0.00     0.135 A 
ATOM     65  C   UNL A   1      36.933  34.108  30.034  1.00  0.00     0.135 A 
ATOM     66  F   UNL A   1      34.944  32.063  32.294  1.00  0.00    -0.206 F 
ATOM     67  C   UNL A   1      34.266  33.566  30.627  1.00  0.00     0.059 A 
ATOM     68  C   UNL A   1      35.929  34.765  29.328  1.00  0.00     0.059 A 
ATOM     69  F   UNL A   1      38.208  34.377  29.714  1.00  0.00    -0.206 F 
ATOM     70  C   UNL A   1      34.598  34.475  29.622  1.00  0.00     0.060 A 
BRANCH  70  71
ATOM     71  S   UNL A   1      33.262  35.278  28.713  1.00  0.00     0.124 S 
ATOM     72  O   UNL A   1      34.006  36.195  27.853  1.00  0.00    -0.237 OA
ATOM     73  O   UNL A   1      32.624  34.153  28.036  1.00  0.00    -0.237 OA
ATOM     74  O   UNL A   1      32.467  35.909  29.762  1.00  0.00    -0.744 OA
ENDBRANCH  70  71
ENDBRANCH  49  63
BRANCH  50  75
ATOM     75  C   UNL A   1      44.289  28.707  35.696  1.00  0.00     0.058 A 
ATOM     76  C   UNL A   1      44.118  27.547  36.467  1.00  0.00     0.135 A 
ATOM     77  C   UNL A   1      45.588  29.225  35.577  1.00  0.00     0.135 A 
ATOM     78  F   UNL A   1      42.894  27.017  36.617  1.00  0.00    -0.206 F 
ATOM     79  C   UNL A   1      45.188  26.931  37.106  1.00  0.00     0.059 A 
ATOM     80  C   UNL A   1      46.679  28.611  36.185  1.00  0.00     0.059 A 
ATOM     81  F   UNL A   1      45.809  30.323  34.837  1.00  0.00    -0.206 F 
ATOM     82  C   UNL A   1      46.467  27.469  36.955  1.00  0.00     0.060 A 
BRANCH  82  83
ATOM     83  S   UNL A   1      47.858  26.628  37.743  1.00  0.00     0.124 S 
ATOM     84  O   UNL A   1      47.275  25.329  38.059  1.00  0.00    -0.237 OA
ATOM     85  O   UNL A   1      48.861  26.637  36.683  1.00  0.00    -0.237 OA
ATOM     86  O   UNL A   1      48.161  27.481  38.889  1.00  0.00    -0.744 OA
ENDBRANCH  82  83
ENDBRANCH  50  75
BRANCH  62  87
ATOM     87  C   UNL A   1      39.760  33.690  37.537  1.00  0.00     0.058 A 
ATOM     88  C   UNL A   1      40.459  34.884  37.769  1.00  0.00     0.135 A 
ATOM     89  C   UNL A   1      38.826  33.278  38.502  1.00  0.00     0.135 A 
ATOM     90  F   UNL A   1      41.366  35.320  36.881  1.00  0.00    -0.206 F 
ATOM     91  C   UNL A   1      40.257  35.630  38.925  1.00  0.00     0.059 A 
ATOM     92  C   UNL A   1      38.587  34.023  39.651  1.00  0.00     0.059 A 
ATOM     93  F   UNL A   1      38.122  32.149  38.323  1.00  0.00    -0.206 F 
ATOM     94  C   UNL A   1      39.316  35.192  39.859  1.00  0.00     0.060 A 
BRANCH  94  95
ATOM     95  S   UNL A   1      39.040  36.187  41.340  1.00  0.00     0.124 S 
ATOM     96  O   UNL A   1      38.770  37.501  40.766  1.00  0.00    -0.237 OA
ATOM     97  O   UNL A   1      37.898  35.518  41.956  1.00  0.00    -0.237 OA
ATOM     98  O   UNL A   1      40.298  36.067  42.071  1.00  0.00    -0.744 OA
ENDBRANCH  94  95
ENDBRANCH  62  87
ENDBRANCH  36  37
ENDBRANCH  28  31
ENDBRANCH  26  27
ENDBRANCH   1  26
TORSDOF 16
ENDMDL
