MODEL 1
REMARK VINA RESULT:      -9.0      0.000      0.000
REMARK SMILES CCc1cccc(CC)c1N1/C(=[NH+]/C(=O)CCC(=O)NCCCNC(=O)c2ccc(-c3c4nc(c(-c5c(F)cc(S(=O)(=O)[O-])cc5F)c5ccc([nH]5)c(-c5c(F)cc(S(=O)(=O)[O-])cc5F)c5nc(c(-c6c(F)cc(S(=O)(=O)[O-])cc6F)c6ccc3[nH]6)C=C5)C=C4)cc2)S[C@@H]2CS(=O)(=O)C[C@H]21
REMARK SMILES IDX 21 1 20 2 18 3 19 4 17 6 16 7 14 8 11 9 12 10 100 11 13 12
REMARK SMILES IDX 93 13 94 14 99 15 95 17 96 18 15 19 97 20 98 21 10 22 3 23
REMARK SMILES IDX 4 24 5 25 7 26 6 27 2 28 1 29 8 30 9 31 22 32 23 33 24 34
REMARK SMILES IDX 25 35 26 37 27 38 28 39 92 40 29 41 91 42 30 43 31 44 32 45
REMARK SMILES IDX 85 46 33 47 90 48 84 49 86 50 34 51 89 52 83 53 82 54 35 56
REMARK SMILES IDX 69 57 48 58 68 59 49 60 52 61 67 62 87 63 50 64 51 65 66 67
REMARK SMILES IDX 88 68 53 69 36 70 37 71 46 72 38 73 39 74 45 75 47 76 40 77
REMARK SMILES IDX 41 78 42 79 43 80 44 81 70 82 71 83 80 84 72 85 73 86 79 87
REMARK SMILES IDX 81 88 74 89 75 90 76 91 77 92 78 93 54 94 55 95 64 96 56 97
REMARK SMILES IDX 57 98 63 99 65 100 58 101 59 102 60 103 61 104 62 105
REMARK H PARENT 20 5 13 16 24 36 86 55 52 66
REMARK Flexibility Score: inf
ROOT
ATOM      1  C   UNL A   1      45.139  42.264  28.330  1.00  0.00     0.117 C 
ENDROOT
BRANCH   1   2
ATOM      2  N   UNL A   1      44.178  42.903  29.239  1.00  0.00    -0.356 N 
ATOM      3  C   UNL A   1      43.859  42.745  30.556  1.00  0.00     0.220 C 
ATOM      4  O   UNL A   1      43.127  43.591  31.076  1.00  0.00    -0.275 OA
ATOM      5  H   UNL A   1      43.643  43.602  28.798  1.00  0.00     0.163 HD
BRANCH   3   6
ATOM      6  C   UNL A   1      44.347  41.575  31.374  1.00  0.00     0.112 C 
BRANCH   6   7
ATOM      7  C   UNL A   1      43.450  40.364  31.120  1.00  0.00     0.138 C 
BRANCH   7   8
ATOM      8  C   UNL A   1      44.054  39.257  31.916  1.00  0.00     0.308 C 
ATOM      9  N   UNL A   1      43.855  35.655  31.943  1.00  0.00    -0.216 N 
ATOM     10  C   UNL A   1      43.852  37.009  32.351  1.00  0.00     0.319 C 
ATOM     11  C   UNL A   1      45.157  35.100  32.561  1.00  0.00     0.212 C 
ATOM     12  N   UNL A   1      43.556  38.016  31.602  1.00  0.00    -0.204 N 
ATOM     13  S   UNL A   1      44.581  37.212  33.990  1.00  0.00    -0.029 SA
ATOM     14  C   UNL A   1      45.330  35.612  34.003  1.00  0.00     0.120 C 
ATOM     15  C   UNL A   1      45.653  33.715  32.776  1.00  0.00     0.188 C 
ATOM     16  H   UNL A   1      42.978  37.897  30.814  1.00  0.00     0.316 HD
ATOM     17  C   UNL A   1      46.835  35.491  34.290  1.00  0.00     0.156 C 
ATOM     18  S   UNL A   1      47.173  33.845  33.702  1.00  0.00     0.155 S 
ATOM     19  O   UNL A   1      45.096  39.498  32.531  1.00  0.00    -0.247 OA
ATOM     20  O   UNL A   1      47.121  32.898  34.811  1.00  0.00    -0.229 OA
ATOM     21  O   UNL A   1      48.277  33.870  32.783  1.00  0.00    -0.229 OA
BRANCH   9  22
ATOM     22  C   UNL A   1      42.801  35.157  31.060  1.00  0.00     0.134 A 
ATOM     23  C   UNL A   1      42.432  35.394  29.588  1.00  0.00    -0.001 A 
ATOM     24  C   UNL A   1      41.135  34.898  29.154  1.00  0.00     0.008 A 
ATOM     25  C   UNL A   1      40.229  34.217  29.929  1.00  0.00     0.001 A 
ATOM     26  C   UNL A   1      41.794  34.391  31.801  1.00  0.00    -0.001 A 
ATOM     27  C   UNL A   1      40.568  33.951  31.224  1.00  0.00     0.008 A 
BRANCH  23  28
ATOM     28  C   UNL A   1      42.915  36.256  28.287  1.00  0.00     0.036 C 
ATOM     29  C   UNL A   1      42.468  37.485  27.390  1.00  0.00     0.009 C 
ENDBRANCH  23  28
BRANCH  26  30
ATOM     30  C   UNL A   1      41.958  33.893  33.232  1.00  0.00     0.036 C 
ATOM     31  C   UNL A   1      42.203  32.393  33.330  1.00  0.00     0.009 C 
ENDBRANCH  26  30
ENDBRANCH   9  22
ENDBRANCH   7   8
ENDBRANCH   6   7
ENDBRANCH   3   6
ENDBRANCH   1   2
BRANCH   1  32
ATOM     32  C   UNL A   1      44.755  40.868  27.693  1.00  0.00     0.042 C 
BRANCH  32  33
ATOM     33  C   UNL A   1      45.822  39.772  27.957  1.00  0.00     0.118 C 
BRANCH  33  34
ATOM     34  N   UNL A   1      45.677  38.473  28.834  1.00  0.00    -0.352 N 
ATOM     35  C   UNL A   1      46.682  37.513  29.361  1.00  0.00     0.251 C 
ATOM     36  H   UNL A   1      44.749  38.256  29.080  1.00  0.00     0.163 HD
ATOM     37  O   UNL A   1      47.166  37.759  30.469  1.00  0.00    -0.269 OA
BRANCH  35  38
ATOM     38  C   UNL A   1      46.878  36.002  28.877  1.00  0.00     0.039 A 
ATOM     39  C   UNL A   1      47.512  34.997  29.649  1.00  0.00     0.014 A 
ATOM     40  C   UNL A   1      46.448  35.521  27.645  1.00  0.00     0.014 A 
ATOM     41  C   UNL A   1      47.319  33.574  29.394  1.00  0.00     0.010 A 
ATOM     42  C   UNL A   1      46.248  34.118  27.388  1.00  0.00     0.010 A 
ATOM     43  C   UNL A   1      46.556  33.101  28.311  1.00  0.00    -0.014 A 
BRANCH  43  44
ATOM     44  C   UNL A   1      46.142  31.627  28.045  1.00  0.00     0.031 A 
ATOM     45  C   UNL A   1      44.731  31.184  28.408  1.00  0.00     0.074 A 
ATOM     46  C   UNL A   1      46.959  30.610  27.634  1.00  0.00     0.049 A 
ATOM     47  N   UNL A   1      44.189  29.986  28.393  1.00  0.00    -0.248 NA
ATOM     48  C   UNL A   1      43.832  32.235  28.894  1.00  0.00     0.031 C 
ATOM     49  C   UNL A   1      48.370  30.724  27.291  1.00  0.00     0.029 A 
ATOM     50  N   UNL A   1      46.728  29.241  27.455  1.00  0.00    -0.354 N 
ATOM     51  C   UNL A   1      42.899  30.141  28.889  1.00  0.00     0.074 A 
ATOM     52  C   UNL A   1      42.779  31.532  29.276  1.00  0.00     0.031 C 
ATOM     53  C   UNL A   1      48.877  29.521  26.958  1.00  0.00     0.029 A 
ATOM     54  C   UNL A   1      47.834  28.501  27.050  1.00  0.00     0.049 A 
ATOM     55  H   UNL A   1      45.846  28.831  27.605  1.00  0.00     0.167 HD
ATOM     56  C   UNL A   1      41.876  29.250  28.980  1.00  0.00     0.037 A 
ATOM     57  C   UNL A   1      48.014  27.181  26.766  1.00  0.00     0.037 A 
ATOM     58  C   UNL A   1      41.917  27.869  28.575  1.00  0.00     0.049 A 
ATOM     59  C   UNL A   1      46.860  26.195  26.863  1.00  0.00     0.074 A 
ATOM     60  C   UNL A   1      40.879  26.949  28.565  1.00  0.00     0.029 A 
ATOM     61  N   UNL A   1      43.038  27.199  28.116  1.00  0.00    -0.354 N 
ATOM     62  N   UNL A   1      45.618  26.412  27.222  1.00  0.00    -0.248 NA
ATOM     63  C   UNL A   1      47.127  24.786  26.506  1.00  0.00     0.031 C 
ATOM     64  C   UNL A   1      41.380  25.715  28.143  1.00  0.00     0.029 A 
ATOM     65  C   UNL A   1      42.719  25.879  27.834  1.00  0.00     0.049 A 
ATOM     66  H   UNL A   1      43.930  27.602  28.005  1.00  0.00     0.167 HD
ATOM     67  C   UNL A   1      44.955  25.190  27.082  1.00  0.00     0.074 A 
ATOM     68  C   UNL A   1      45.925  24.232  26.609  1.00  0.00     0.031 C 
ATOM     69  C   UNL A   1      43.652  24.905  27.323  1.00  0.00     0.037 A 
BRANCH  56  70
ATOM     70  C   UNL A   1      40.573  29.775  29.525  1.00  0.00     0.058 A 
ATOM     71  C   UNL A   1      40.424  30.068  30.892  1.00  0.00     0.135 A 
ATOM     72  C   UNL A   1      39.470  29.989  28.684  1.00  0.00     0.135 A 
ATOM     73  F   UNL A   1      41.446  29.877  31.740  1.00  0.00    -0.206 F 
ATOM     74  C   UNL A   1      39.208  30.486  31.415  1.00  0.00     0.059 A 
ATOM     75  C   UNL A   1      38.255  30.449  29.180  1.00  0.00     0.059 A 
ATOM     76  F   UNL A   1      39.563  29.743  27.368  1.00  0.00    -0.206 F 
ATOM     77  C   UNL A   1      38.127  30.668  30.552  1.00  0.00     0.060 A 
BRANCH  77  78
ATOM     78  S   UNL A   1      36.550  31.183  31.258  1.00  0.00     0.124 S 
ATOM     79  O   UNL A   1      36.926  32.419  31.935  1.00  0.00    -0.237 OA
ATOM     80  O   UNL A   1      35.714  31.339  30.072  1.00  0.00    -0.237 OA
ATOM     81  O   UNL A   1      36.190  30.072  32.134  1.00  0.00    -0.744 OA
ENDBRANCH  77  78
ENDBRANCH  56  70
BRANCH  57  82
ATOM     82  C   UNL A   1      49.349  26.644  26.308  1.00  0.00     0.058 A 
ATOM     83  C   UNL A   1      50.210  25.979  27.204  1.00  0.00     0.135 A 
ATOM     84  C   UNL A   1      49.839  26.873  25.013  1.00  0.00     0.135 A 
ATOM     85  F   UNL A   1      49.822  25.771  28.472  1.00  0.00    -0.206 F 
ATOM     86  C   UNL A   1      51.497  25.577  26.840  1.00  0.00     0.059 A 
ATOM     87  C   UNL A   1      51.115  26.457  24.617  1.00  0.00     0.059 A 
ATOM     88  F   UNL A   1      49.081  27.518  24.114  1.00  0.00    -0.206 F 
ATOM     89  C   UNL A   1      51.940  25.815  25.540  1.00  0.00     0.060 A 
BRANCH  89  90
ATOM     90  S   UNL A   1      53.591  25.239  25.065  1.00  0.00     0.124 S 
ATOM     91  O   UNL A   1      53.513  23.815  25.373  1.00  0.00    -0.237 OA
ATOM     92  O   UNL A   1      53.637  25.582  23.647  1.00  0.00    -0.237 OA
ATOM     93  O   UNL A   1      54.479  26.022  25.919  1.00  0.00    -0.744 OA
ENDBRANCH  89  90
ENDBRANCH  57  82
BRANCH  69  94
ATOM     94  C   UNL A   1      43.132  23.518  27.023  1.00  0.00     0.058 A 
ATOM     95  C   UNL A   1      42.903  23.067  25.713  1.00  0.00     0.135 A 
ATOM     96  C   UNL A   1      42.955  22.589  28.064  1.00  0.00     0.135 A 
ATOM     97  F   UNL A   1      43.051  23.905  24.675  1.00  0.00    -0.206 F 
ATOM     98  C   UNL A   1      42.515  21.753  25.448  1.00  0.00     0.059 A 
ATOM     99  C   UNL A   1      42.594  21.265  27.821  1.00  0.00     0.059 A 
ATOM    100  F   UNL A   1      43.167  22.956  29.339  1.00  0.00    -0.206 F 
ATOM    101  C   UNL A   1      42.371  20.857  26.508  1.00  0.00     0.060 A 
BRANCH 101 102
ATOM    102  S   UNL A   1      41.930  19.141  26.146  1.00  0.00     0.124 S 
ATOM    103  O   UNL A   1      42.291  18.473  27.393  1.00  0.00    -0.237 OA
ATOM    104  O   UNL A   1      40.500  19.238  25.870  1.00  0.00    -0.237 OA
ATOM    105  O   UNL A   1      42.763  18.809  24.993  1.00  0.00    -0.744 OA
ENDBRANCH 101 102
ENDBRANCH  69  94
ENDBRANCH  43  44
ENDBRANCH  35  38
ENDBRANCH  33  34
ENDBRANCH  32  33
ENDBRANCH   1  32
TORSDOF 18
ENDMDL
MODEL 2
REMARK VINA RESULT:      -8.7      5.937      8.732
REMARK SMILES CCc1cccc(CC)c1N1/C(=[NH+]/C(=O)CCC(=O)NCCCNC(=O)c2ccc(-c3c4nc(c(-c5c(F)cc(S(=O)(=O)[O-])cc5F)c5ccc([nH]5)c(-c5c(F)cc(S(=O)(=O)[O-])cc5F)c5nc(c(-c6c(F)cc(S(=O)(=O)[O-])cc6F)c6ccc3[nH]6)C=C5)C=C4)cc2)S[C@@H]2CS(=O)(=O)C[C@H]21
REMARK SMILES IDX 21 1 20 2 18 3 19 4 17 6 16 7 14 8 11 9 12 10 100 11 13 12
REMARK SMILES IDX 93 13 94 14 99 15 95 17 96 18 15 19 97 20 98 21 10 22 3 23
REMARK SMILES IDX 4 24 5 25 7 26 6 27 2 28 1 29 8 30 9 31 22 32 23 33 24 34
REMARK SMILES IDX 25 35 26 37 27 38 28 39 92 40 29 41 91 42 30 43 31 44 32 45
REMARK SMILES IDX 85 46 33 47 90 48 84 49 86 50 34 51 89 52 83 53 82 54 35 56
REMARK SMILES IDX 69 57 48 58 68 59 49 60 52 61 67 62 87 63 50 64 51 65 66 67
REMARK SMILES IDX 88 68 53 69 36 70 37 71 46 72 38 73 39 74 45 75 47 76 40 77
REMARK SMILES IDX 41 78 42 79 43 80 44 81 70 82 71 83 80 84 72 85 73 86 79 87
REMARK SMILES IDX 81 88 74 89 75 90 76 91 77 92 78 93 54 94 55 95 64 96 56 97
REMARK SMILES IDX 57 98 63 99 65 100 58 101 59 102 60 103 61 104 62 105
REMARK H PARENT 20 5 13 16 24 36 86 55 52 66
REMARK Flexibility Score: inf
ROOT
ATOM      1  C   UNL A   1      46.223  42.628  26.873  1.00  0.00     0.117 C 
ENDROOT
BRANCH   1   2
ATOM      2  N   UNL A   1      44.967  42.795  26.128  1.00  0.00    -0.356 N 
ATOM      3  C   UNL A   1      44.545  43.640  25.145  1.00  0.00     0.220 C 
ATOM      4  O   UNL A   1      43.475  43.384  24.586  1.00  0.00    -0.275 OA
ATOM      5  H   UNL A   1      44.274  42.150  26.401  1.00  0.00     0.163 HD
BRANCH   3   6
ATOM      6  C   UNL A   1      45.323  44.870  24.744  1.00  0.00     0.112 C 
BRANCH   6   7
ATOM      7  C   UNL A   1      44.628  45.553  23.567  1.00  0.00     0.138 C 
BRANCH   7   8
ATOM      8  C   UNL A   1      45.483  45.252  22.383  1.00  0.00     0.308 C 
ATOM      9  N   UNL A   1      45.409  46.011  18.856  1.00  0.00    -0.216 N 
ATOM     10  C   UNL A   1      45.493  45.315  20.084  1.00  0.00     0.319 C 
ATOM     11  C   UNL A   1      46.854  45.953  18.315  1.00  0.00     0.212 C 
ATOM     12  N   UNL A   1      44.949  45.686  21.193  1.00  0.00    -0.204 N 
ATOM     13  S   UNL A   1      46.688  43.965  20.006  1.00  0.00    -0.029 SA
ATOM     14  C   UNL A   1      47.452  44.548  18.523  1.00  0.00     0.120 C 
ATOM     15  C   UNL A   1      47.433  46.224  16.973  1.00  0.00     0.188 C 
ATOM     16  H   UNL A   1      44.158  46.273  21.188  1.00  0.00     0.316 HD
ATOM     17  C   UNL A   1      48.974  44.755  18.495  1.00  0.00     0.156 C 
ATOM     18  S   UNL A   1      49.162  45.784  17.054  1.00  0.00     0.155 S 
ATOM     19  O   UNL A   1      46.656  44.935  22.590  1.00  0.00    -0.247 OA
ATOM     20  O   UNL A   1      49.484  44.963  15.892  1.00  0.00    -0.229 OA
ATOM     21  O   UNL A   1      49.924  46.956  17.384  1.00  0.00    -0.229 OA
BRANCH   9  22
ATOM     22  C   UNL A   1      44.148  46.633  18.454  1.00  0.00     0.134 A 
ATOM     23  C   UNL A   1      42.744  46.101  18.127  1.00  0.00    -0.001 A 
ATOM     24  C   UNL A   1      41.820  47.040  17.509  1.00  0.00     0.008 A 
ATOM     25  C   UNL A   1      42.079  48.357  17.220  1.00  0.00     0.001 A 
ATOM     26  C   UNL A   1      44.323  48.055  18.147  1.00  0.00    -0.001 A 
ATOM     27  C   UNL A   1      43.304  48.857  17.557  1.00  0.00     0.008 A 
BRANCH  23  28
ATOM     28  C   UNL A   1      41.919  44.696  18.017  1.00  0.00     0.036 C 
ATOM     29  C   UNL A   1      40.451  44.115  18.173  1.00  0.00     0.009 C 
ENDBRANCH  23  28
BRANCH  26  30
ATOM     30  C   UNL A   1      45.559  48.876  18.495  1.00  0.00     0.036 C 
ATOM     31  C   UNL A   1      45.678  49.200  19.978  1.00  0.00     0.009 C 
ENDBRANCH  26  30
ENDBRANCH   9  22
ENDBRANCH   7   8
ENDBRANCH   6   7
ENDBRANCH   3   6
ENDBRANCH   1   2
BRANCH   1  32
ATOM     32  C   UNL A   1      46.309  41.468  27.946  1.00  0.00     0.042 C 
BRANCH  32  33
ATOM     33  C   UNL A   1      45.724  40.126  27.428  1.00  0.00     0.118 C 
BRANCH  33  34
ATOM     34  N   UNL A   1      45.296  38.869  28.272  1.00  0.00    -0.352 N 
ATOM     35  C   UNL A   1      46.073  37.936  29.129  1.00  0.00     0.251 C 
ATOM     36  H   UNL A   1      44.335  38.662  28.224  1.00  0.00     0.163 HD
ATOM     37  O   UNL A   1      46.190  38.233  30.321  1.00  0.00    -0.269 OA
BRANCH  35  38
ATOM     38  C   UNL A   1      46.392  36.404  28.798  1.00  0.00     0.039 A 
ATOM     39  C   UNL A   1      46.876  35.471  29.748  1.00  0.00     0.014 A 
ATOM     40  C   UNL A   1      46.230  35.833  27.540  1.00  0.00     0.014 A 
ATOM     41  C   UNL A   1      46.765  34.029  29.557  1.00  0.00     0.010 A 
ATOM     42  C   UNL A   1      46.112  34.411  27.345  1.00  0.00     0.010 A 
ATOM     43  C   UNL A   1      46.246  33.465  28.378  1.00  0.00    -0.014 A 
BRANCH  43  44
ATOM     44  C   UNL A   1      45.922  31.964  28.136  1.00  0.00     0.031 A 
ATOM     45  C   UNL A   1      44.539  31.444  28.502  1.00  0.00     0.074 A 
ATOM     46  C   UNL A   1      46.800  30.992  27.743  1.00  0.00     0.049 A 
ATOM     47  N   UNL A   1      44.070  30.215  28.506  1.00  0.00    -0.248 NA
ATOM     48  C   UNL A   1      43.577  32.446  28.969  1.00  0.00     0.031 C 
ATOM     49  C   UNL A   1      48.202  31.185  27.401  1.00  0.00     0.029 A 
ATOM     50  N   UNL A   1      46.652  29.608  27.586  1.00  0.00    -0.354 N 
ATOM     51  C   UNL A   1      42.771  30.300  28.997  1.00  0.00     0.074 A 
ATOM     52  C   UNL A   1      42.567  31.687  29.360  1.00  0.00     0.031 C 
ATOM     53  C   UNL A   1      48.783  30.009  27.089  1.00  0.00     0.029 A 
ATOM     54  C   UNL A   1      47.802  28.930  27.195  1.00  0.00     0.049 A 
ATOM     55  H   UNL A   1      45.796  29.149  27.741  1.00  0.00     0.167 HD
ATOM     56  C   UNL A   1      41.804  29.351  29.100  1.00  0.00     0.037 A 
ATOM     57  C   UNL A   1      48.063  27.618  26.933  1.00  0.00     0.037 A 
ATOM     58  C   UNL A   1      41.929  27.968  28.718  1.00  0.00     0.049 A 
ATOM     59  C   UNL A   1      46.969  26.567  27.045  1.00  0.00     0.074 A 
ATOM     60  C   UNL A   1      40.948  26.988  28.720  1.00  0.00     0.029 A 
ATOM     61  N   UNL A   1      43.090  27.360  28.272  1.00  0.00    -0.354 N 
ATOM     62  N   UNL A   1      45.716  26.715  27.397  1.00  0.00    -0.248 NA
ATOM     63  C   UNL A   1      47.321  25.171  26.712  1.00  0.00     0.031 C 
ATOM     64  C   UNL A   1      41.524  25.779  28.319  1.00  0.00     0.029 A 
ATOM     65  C   UNL A   1      42.852  26.018  28.011  1.00  0.00     0.049 A 
ATOM     66  H   UNL A   1      43.956  27.813  28.157  1.00  0.00     0.167 HD
ATOM     67  C   UNL A   1      45.128  25.453  27.276  1.00  0.00     0.074 A 
ATOM     68  C   UNL A   1      46.155  24.547  26.821  1.00  0.00     0.031 C 
ATOM     69  C   UNL A   1      43.843  25.093  27.519  1.00  0.00     0.037 A 
BRANCH  56  70
ATOM     70  C   UNL A   1      40.470  29.805  29.633  1.00  0.00     0.058 A 
ATOM     71  C   UNL A   1      39.376  30.007  28.775  1.00  0.00     0.135 A 
ATOM     72  C   UNL A   1      40.279  30.036  31.005  1.00  0.00     0.135 A 
ATOM     73  F   UNL A   1      39.506  29.805  27.454  1.00  0.00    -0.206 F 
ATOM     74  C   UNL A   1      38.163  30.491  29.247  1.00  0.00     0.059 A 
ATOM     75  C   UNL A   1      39.059  30.480  31.505  1.00  0.00     0.059 A 
ATOM     76  F   UNL A   1      41.285  29.840  31.872  1.00  0.00    -0.206 F 
ATOM     77  C   UNL A   1      38.016  30.730  30.613  1.00  0.00     0.060 A 
BRANCH  77  78
ATOM     78  S   UNL A   1      36.443  31.386  31.200  1.00  0.00     0.124 S 
ATOM     79  O   UNL A   1      35.660  31.403  29.968  1.00  0.00    -0.237 OA
ATOM     80  O   UNL A   1      36.042  30.393  32.192  1.00  0.00    -0.237 OA
ATOM     81  O   UNL A   1      36.798  32.696  31.736  1.00  0.00    -0.744 OA
ENDBRANCH  77  78
ENDBRANCH  56  70
BRANCH  57  82
ATOM     82  C   UNL A   1      49.428  27.156  26.488  1.00  0.00     0.058 A 
ATOM     83  C   UNL A   1      49.773  27.118  25.122  1.00  0.00     0.135 A 
ATOM     84  C   UNL A   1      50.374  26.646  27.392  1.00  0.00     0.135 A 
ATOM     85  F   UNL A   1      48.895  27.545  24.200  1.00  0.00    -0.206 F 
ATOM     86  C   UNL A   1      50.983  26.585  24.673  1.00  0.00     0.059 A 
ATOM     87  C   UNL A   1      51.604  26.130  26.969  1.00  0.00     0.059 A 
ATOM     88  F   UNL A   1      50.105  26.633  28.706  1.00  0.00    -0.206 F 
ATOM     89  C   UNL A   1      51.897  26.098  25.606  1.00  0.00     0.060 A 
BRANCH  89  90
ATOM     90  S   UNL A   1      53.487  25.461  25.016  1.00  0.00     0.124 S 
ATOM     91  O   UNL A   1      54.436  26.290  25.751  1.00  0.00    -0.237 OA
ATOM     92  O   UNL A   1      53.422  24.059  25.417  1.00  0.00    -0.237 OA
ATOM     93  O   UNL A   1      53.429  25.696  23.576  1.00  0.00    -0.744 OA
ENDBRANCH  89  90
ENDBRANCH  57  82
BRANCH  69  94
ATOM     94  C   UNL A   1      43.408  23.674  27.240  1.00  0.00     0.058 A 
ATOM     95  C   UNL A   1      43.175  22.742  28.265  1.00  0.00     0.135 A 
ATOM     96  C   UNL A   1      43.120  23.269  25.924  1.00  0.00     0.135 A 
ATOM     97  F   UNL A   1      43.433  23.065  29.542  1.00  0.00    -0.206 F 
ATOM     98  C   UNL A   1      42.682  21.465  27.996  1.00  0.00     0.059 A 
ATOM     99  C   UNL A   1      42.601  22.008  25.635  1.00  0.00     0.059 A 
ATOM    100  F   UNL A   1      43.311  24.117  24.900  1.00  0.00    -0.206 F 
ATOM    101  C   UNL A   1      42.389  21.110  26.678  1.00  0.00     0.060 A 
BRANCH 101 102
ATOM    102  S   UNL A   1      41.690  19.475  26.350  1.00  0.00     0.124 S 
ATOM    103  O   UNL A   1      42.095  18.735  27.542  1.00  0.00    -0.237 OA
ATOM    104  O   UNL A   1      40.263  19.762  26.237  1.00  0.00    -0.237 OA
ATOM    105  O   UNL A   1      42.341  19.067  25.108  1.00  0.00    -0.744 OA
ENDBRANCH 101 102
ENDBRANCH  69  94
ENDBRANCH  43  44
ENDBRANCH  35  38
ENDBRANCH  33  34
ENDBRANCH  32  33
ENDBRANCH   1  32
TORSDOF 18
ENDMDL
MODEL 3
REMARK VINA RESULT:      -8.5      2.146      3.465
REMARK SMILES CCc1cccc(CC)c1N1/C(=[NH+]/C(=O)CCC(=O)NCCCNC(=O)c2ccc(-c3c4nc(c(-c5c(F)cc(S(=O)(=O)[O-])cc5F)c5ccc([nH]5)c(-c5c(F)cc(S(=O)(=O)[O-])cc5F)c5nc(c(-c6c(F)cc(S(=O)(=O)[O-])cc6F)c6ccc3[nH]6)C=C5)C=C4)cc2)S[C@@H]2CS(=O)(=O)C[C@H]21
REMARK SMILES IDX 21 1 20 2 18 3 19 4 17 6 16 7 14 8 11 9 12 10 100 11 13 12
REMARK SMILES IDX 93 13 94 14 99 15 95 17 96 18 15 19 97 20 98 21 10 22 3 23
REMARK SMILES IDX 4 24 5 25 7 26 6 27 2 28 1 29 8 30 9 31 22 32 23 33 24 34
REMARK SMILES IDX 25 35 26 37 27 38 28 39 92 40 29 41 91 42 30 43 31 44 32 45
REMARK SMILES IDX 85 46 33 47 90 48 84 49 86 50 34 51 89 52 83 53 82 54 35 56
REMARK SMILES IDX 69 57 48 58 68 59 49 60 52 61 67 62 87 63 50 64 51 65 66 67
REMARK SMILES IDX 88 68 53 69 36 70 37 71 46 72 38 73 39 74 45 75 47 76 40 77
REMARK SMILES IDX 41 78 42 79 43 80 44 81 70 82 71 83 80 84 72 85 73 86 79 87
REMARK SMILES IDX 81 88 74 89 75 90 76 91 77 92 78 93 54 94 55 95 64 96 56 97
REMARK SMILES IDX 57 98 63 99 65 100 58 101 59 102 60 103 61 104 62 105
REMARK H PARENT 20 5 13 16 24 36 86 55 52 66
REMARK Flexibility Score: inf
ROOT
ATOM      1  C   UNL A   1      46.460  38.084  33.224  1.00  0.00     0.117 C 
ENDROOT
BRANCH   1   2
ATOM      2  N   UNL A   1      46.300  38.527  34.616  1.00  0.00    -0.356 N 
ATOM      3  C   UNL A   1      45.429  38.224  35.620  1.00  0.00     0.220 C 
ATOM      4  O   UNL A   1      45.694  38.634  36.754  1.00  0.00    -0.275 OA
ATOM      5  H   UNL A   1      46.974  39.194  34.883  1.00  0.00     0.163 HD
BRANCH   3   6
ATOM      6  C   UNL A   1      44.164  37.438  35.386  1.00  0.00     0.112 C 
BRANCH   6   7
ATOM      7  C   UNL A   1      43.327  37.422  36.665  1.00  0.00     0.138 C 
BRANCH   7   8
ATOM      8  C   UNL A   1      42.319  36.342  36.458  1.00  0.00     0.308 C 
ATOM      9  N   UNL A   1      41.613  33.891  33.906  1.00  0.00    -0.216 N 
ATOM     10  C   UNL A   1      41.470  34.931  34.854  1.00  0.00     0.319 C 
ATOM     11  C   UNL A   1      40.868  32.708  34.561  1.00  0.00     0.212 C 
ATOM     12  N   UNL A   1      42.404  35.738  35.227  1.00  0.00    -0.204 N 
ATOM     13  S   UNL A   1      39.881  34.841  35.707  1.00  0.00    -0.029 SA
ATOM     14  C   UNL A   1      39.545  33.186  35.190  1.00  0.00     0.120 C 
ATOM     15  C   UNL A   1      40.381  31.410  34.024  1.00  0.00     0.188 C 
ATOM     16  H   UNL A   1      43.170  35.920  34.636  1.00  0.00     0.316 HD
ATOM     17  C   UNL A   1      39.201  32.125  36.248  1.00  0.00     0.156 C 
ATOM     18  S   UNL A   1      39.457  30.620  35.331  1.00  0.00     0.155 S 
ATOM     19  O   UNL A   1      41.735  35.907  37.453  1.00  0.00    -0.247 OA
ATOM     20  O   UNL A   1      38.190  30.149  34.782  1.00  0.00    -0.229 OA
ATOM     21  O   UNL A   1      40.335  29.746  36.058  1.00  0.00    -0.229 OA
BRANCH   9  22
ATOM     22  C   UNL A   1      42.412  34.108  32.701  1.00  0.00     0.134 A 
ATOM     23  C   UNL A   1      43.916  34.254  32.421  1.00  0.00    -0.001 A 
ATOM     24  C   UNL A   1      44.288  34.724  31.095  1.00  0.00     0.008 A 
ATOM     25  C   UNL A   1      43.424  35.019  30.070  1.00  0.00     0.001 A 
ATOM     26  C   UNL A   1      41.567  34.407  31.541  1.00  0.00    -0.001 A 
ATOM     27  C   UNL A   1      42.088  34.840  30.287  1.00  0.00     0.008 A 
BRANCH  23  28
ATOM     28  C   UNL A   1      45.350  34.280  33.202  1.00  0.00     0.036 C 
ATOM     29  C   UNL A   1      46.902  34.445  32.920  1.00  0.00     0.009 C 
ENDBRANCH  23  28
BRANCH  26  30
ATOM     30  C   UNL A   1      40.056  34.212  31.490  1.00  0.00     0.036 C 
ATOM     31  C   UNL A   1      39.449  34.509  30.126  1.00  0.00     0.009 C 
ENDBRANCH  26  30
ENDBRANCH   9  22
ENDBRANCH   7   8
ENDBRANCH   6   7
ENDBRANCH   3   6
ENDBRANCH   1   2
BRANCH   1  32
ATOM     32  C   UNL A   1      46.525  39.185  32.090  1.00  0.00     0.042 C 
BRANCH  32  33
ATOM     33  C   UNL A   1      47.643  38.909  31.048  1.00  0.00     0.118 C 
BRANCH  33  34
ATOM     34  N   UNL A   1      47.494  38.277  29.615  1.00  0.00    -0.352 N 
ATOM     35  C   UNL A   1      46.486  37.349  29.038  1.00  0.00     0.251 C 
ATOM     36  H   UNL A   1      48.198  38.546  28.982  1.00  0.00     0.163 HD
ATOM     37  O   UNL A   1      45.491  37.856  28.511  1.00  0.00    -0.269 OA
BRANCH  35  38
ATOM     38  C   UNL A   1      46.741  35.824  28.631  1.00  0.00     0.039 A 
ATOM     39  C   UNL A   1      47.314  34.857  29.494  1.00  0.00     0.014 A 
ATOM     40  C   UNL A   1      46.427  35.291  27.385  1.00  0.00     0.014 A 
ATOM     41  C   UNL A   1      47.158  33.423  29.277  1.00  0.00     0.010 A 
ATOM     42  C   UNL A   1      46.265  33.878  27.165  1.00  0.00     0.010 A 
ATOM     43  C   UNL A   1      46.501  32.900  28.149  1.00  0.00    -0.014 A 
BRANCH  43  44
ATOM     44  C   UNL A   1      46.127  31.411  27.905  1.00  0.00     0.031 A 
ATOM     45  C   UNL A   1      44.710  30.949  28.217  1.00  0.00     0.074 A 
ATOM     46  C   UNL A   1      46.981  30.401  27.555  1.00  0.00     0.049 A 
ATOM     47  N   UNL A   1      44.193  29.740  28.211  1.00  0.00    -0.248 NA
ATOM     48  C   UNL A   1      43.771  31.993  28.638  1.00  0.00     0.031 C 
ATOM     49  C   UNL A   1      48.402  30.536  27.270  1.00  0.00     0.029 A 
ATOM     50  N   UNL A   1      46.784  29.024  27.401  1.00  0.00    -0.354 N 
ATOM     51  C   UNL A   1      42.880  29.881  28.647  1.00  0.00     0.074 A 
ATOM     52  C   UNL A   1      42.716  31.278  28.992  1.00  0.00     0.031 C 
ATOM     53  C   UNL A   1      48.947  29.336  26.990  1.00  0.00     0.029 A 
ATOM     54  C   UNL A   1      47.921  28.297  27.063  1.00  0.00     0.049 A 
ATOM     55  H   UNL A   1      45.904  28.600  27.524  1.00  0.00     0.167 HD
ATOM     56  C   UNL A   1      41.872  28.971  28.717  1.00  0.00     0.037 A 
ATOM     57  C   UNL A   1      48.139  26.974  26.821  1.00  0.00     0.037 A 
ATOM     58  C   UNL A   1      41.957  27.581  28.350  1.00  0.00     0.049 A 
ATOM     59  C   UNL A   1      47.001  25.968  26.894  1.00  0.00     0.074 A 
ATOM     60  C   UNL A   1      40.939  26.641  28.319  1.00  0.00     0.029 A 
ATOM     61  N   UNL A   1      43.110  26.924  27.956  1.00  0.00    -0.354 N 
ATOM     62  N   UNL A   1      45.741  26.168  27.194  1.00  0.00    -0.248 NA
ATOM     63  C   UNL A   1      47.310  24.556  26.586  1.00  0.00     0.031 C 
ATOM     64  C   UNL A   1      41.482  25.407  27.950  1.00  0.00     0.029 A 
ATOM     65  C   UNL A   1      42.829  25.590  27.695  1.00  0.00     0.049 A 
ATOM     66  H   UNL A   1      43.997  27.342  27.873  1.00  0.00     0.167 HD
ATOM     67  C   UNL A   1      45.109  24.929  27.057  1.00  0.00     0.074 A 
ATOM     68  C   UNL A   1      46.117  23.980  26.651  1.00  0.00     0.031 C 
ATOM     69  C   UNL A   1      43.802  24.623  27.250  1.00  0.00     0.037 A 
BRANCH  56  70
ATOM     70  C   UNL A   1      40.536  29.483  29.192  1.00  0.00     0.058 A 
ATOM     71  C   UNL A   1      39.491  29.732  28.287  1.00  0.00     0.135 A 
ATOM     72  C   UNL A   1      40.295  29.721  30.555  1.00  0.00     0.135 A 
ATOM     73  F   UNL A   1      39.671  29.526  26.973  1.00  0.00    -0.206 F 
ATOM     74  C   UNL A   1      38.281  30.268  28.706  1.00  0.00     0.059 A 
ATOM     75  C   UNL A   1      39.075  30.216  31.002  1.00  0.00     0.059 A 
ATOM     76  F   UNL A   1      41.252  29.481  31.465  1.00  0.00    -0.206 F 
ATOM     77  C   UNL A   1      38.084  30.513  30.065  1.00  0.00     0.060 A 
BRANCH  77  78
ATOM     78  S   UNL A   1      36.516  31.235  30.584  1.00  0.00     0.124 S 
ATOM     79  O   UNL A   1      35.858  31.448  29.299  1.00  0.00    -0.237 OA
ATOM     80  O   UNL A   1      35.949  30.182  31.420  1.00  0.00    -0.237 OA
ATOM     81  O   UNL A   1      36.917  32.447  31.291  1.00  0.00    -0.744 OA
ENDBRANCH  77  78
ENDBRANCH  56  70
BRANCH  57  82
ATOM     82  C   UNL A   1      49.502  26.454  26.435  1.00  0.00     0.058 A 
ATOM     83  C   UNL A   1      50.427  26.044  27.415  1.00  0.00     0.135 A 
ATOM     84  C   UNL A   1      49.951  26.455  25.105  1.00  0.00     0.135 A 
ATOM     85  F   UNL A   1      50.080  26.065  28.712  1.00  0.00    -0.206 F 
ATOM     86  C   UNL A   1      51.735  25.670  27.097  1.00  0.00     0.059 A 
ATOM     87  C   UNL A   1      51.248  26.061  24.757  1.00  0.00     0.059 A 
ATOM     88  F   UNL A   1      49.129  26.852  24.122  1.00  0.00    -0.206 F 
ATOM     89  C   UNL A   1      52.136  25.676  25.761  1.00  0.00     0.060 A 
BRANCH  89  90
ATOM     90  S   UNL A   1      53.816  25.136  25.355  1.00  0.00     0.124 S 
ATOM     91  O   UNL A   1      53.666  23.685  25.318  1.00  0.00    -0.237 OA
ATOM     92  O   UNL A   1      54.043  25.786  24.068  1.00  0.00    -0.237 OA
ATOM     93  O   UNL A   1      54.613  25.659  26.461  1.00  0.00    -0.744 OA
ENDBRANCH  89  90
ENDBRANCH  57  82
BRANCH  69  94
ATOM     94  C   UNL A   1      43.322  23.220  26.964  1.00  0.00     0.058 A 
ATOM     95  C   UNL A   1      43.252  22.698  25.662  1.00  0.00     0.135 A 
ATOM     96  C   UNL A   1      43.024  22.345  28.024  1.00  0.00     0.135 A 
ATOM     97  F   UNL A   1      43.522  23.482  24.605  1.00  0.00    -0.206 F 
ATOM     98  C   UNL A   1      42.899  21.370  25.422  1.00  0.00     0.059 A 
ATOM     99  C   UNL A   1      42.695  21.007  27.810  1.00  0.00     0.059 A 
ATOM    100  F   UNL A   1      43.081  22.780  29.294  1.00  0.00    -0.206 F 
ATOM    101  C   UNL A   1      42.630  20.530  26.503  1.00  0.00     0.060 A 
BRANCH 101 102
ATOM    102  S   UNL A   1      42.237  18.794  26.182  1.00  0.00     0.124 S 
ATOM    103  O   UNL A   1      40.835  18.877  25.783  1.00  0.00    -0.237 OA
ATOM    104  O   UNL A   1      43.178  18.451  25.121  1.00  0.00    -0.237 OA
ATOM    105  O   UNL A   1      42.486  18.143  27.466  1.00  0.00    -0.744 OA
ENDBRANCH 101 102
ENDBRANCH  69  94
ENDBRANCH  43  44
ENDBRANCH  35  38
ENDBRANCH  33  34
ENDBRANCH  32  33
ENDBRANCH   1  32
TORSDOF 18
ENDMDL
