MODEL 1
REMARK VINA RESULT:     -11.6      0.000      0.000
REMARK SMILES COc1ccc(OCCNc2c(Cl)cccc2C(=O)NCCCNC(=O)c2ccc(-c3c4nc(c(-c5c(F)cc(S(=O)(=O)[O-])cc5F)c5ccc([nH]5)c(-c5c(F)cc(S(=O)(=O)[O-])cc5F)c5nc(c(-c6c(F)cc(S(=O)(=O)[O-])cc6F)c6ccc3[nH]6)C=C5)C=C4)cc2)cc1
REMARK SMILES IDX 18 1 19 2 20 3 17 5 11 6 12 7 13 8 14 9 16 10 15 11 10 12
REMARK SMILES IDX 9 14 8 15 7 16 6 17 3 18 4 19 94 20 5 21 93 22 2 23 1 24
REMARK SMILES IDX 21 25 22 26 23 27 24 28 25 29 26 31 27 32 28 33 92 34 29 35
REMARK SMILES IDX 91 36 30 37 31 38 32 39 85 40 33 41 90 42 84 43 86 44 34 45
REMARK SMILES IDX 89 46 83 47 82 48 35 50 69 51 48 52 68 53 49 54 52 55 67 56
REMARK SMILES IDX 87 57 50 58 51 59 66 61 88 62 53 63 36 64 37 65 46 66 38 67
REMARK SMILES IDX 39 68 45 69 47 70 40 71 41 72 42 73 43 74 44 75 70 76 71 77
REMARK SMILES IDX 80 78 72 79 73 80 79 81 81 82 74 83 75 84 76 85 77 86 78 87
REMARK SMILES IDX 54 88 55 89 64 90 56 91 57 92 63 93 65 94 58 95 59 96 60 97
REMARK SMILES IDX 61 98 62 99
REMARK H PARENT 20 4 10 13 24 30 86 49 52 60
REMARK Flexibility Score: inf
ROOT
ATOM      1  C   UNL A   1      31.282  24.724  26.549  1.00  0.00     0.253 C 
ATOM      2  O   UNL A   1      30.153  24.238  26.632  1.00  0.00    -0.269 OA
ATOM      3  N   UNL A   1      31.410  26.089  26.560  1.00  0.00    -0.352 N 
ATOM      4  H   UNL A   1      30.561  26.589  26.559  1.00  0.00     0.163 HD
ENDROOT
BRANCH   1   5
ATOM      5  C   UNL A   1      32.429  23.813  26.331  1.00  0.00     0.064 A 
ATOM      6  C   UNL A   1      33.244  23.765  25.185  1.00  0.00     0.066 A 
ATOM      7  C   UNL A   1      34.289  22.802  25.191  1.00  0.00     0.065 A 
ATOM      8  Cl  UNL A   1      35.333  22.610  23.814  1.00  0.00    -0.082 Cl
ATOM      9  C   UNL A   1      34.543  21.971  26.286  1.00  0.00     0.023 A 
ATOM     10  C   UNL A   1      32.699  22.977  27.438  1.00  0.00     0.016 A 
ATOM     11  C   UNL A   1      33.745  22.058  27.416  1.00  0.00     0.003 A 
BRANCH   6  12
ATOM     12  N   UNL A   1      32.988  24.419  23.994  1.00  0.00    -0.380 N 
ATOM     13  H   UNL A   1      33.679  25.051  23.689  1.00  0.00     0.160 HD
BRANCH  12  14
ATOM     14  C   UNL A   1      31.822  24.288  23.136  1.00  0.00     0.154 C 
BRANCH  14  15
ATOM     15  C   UNL A   1      31.390  25.675  22.594  1.00  0.00     0.250 C 
BRANCH  15  16
ATOM     16  O   UNL A   1      30.658  26.464  23.547  1.00  0.00    -0.492 OA
BRANCH  16  17
ATOM     17  C   UNL A   1      29.818  27.458  23.121  1.00  0.00     0.119 A 
ATOM     18  C   UNL A   1      28.385  29.773  22.474  1.00  0.00     0.119 A 
ATOM     19  C   UNL A   1      29.732  29.682  22.141  1.00  0.00     0.050 A 
ATOM     20  C   UNL A   1      27.727  28.683  23.035  1.00  0.00     0.050 A 
ATOM     21  C   UNL A   1      30.449  28.530  22.478  1.00  0.00     0.050 A 
ATOM     22  C   UNL A   1      28.440  27.519  23.336  1.00  0.00     0.050 A 
BRANCH  18  23
ATOM     23  O   UNL A   1      27.707  30.923  22.178  1.00  0.00    -0.497 OA
ATOM     24  C   UNL A   1      28.061  31.400  20.878  1.00  0.00     0.278 C 
ENDBRANCH  18  23
ENDBRANCH  16  17
ENDBRANCH  15  16
ENDBRANCH  14  15
ENDBRANCH  12  14
ENDBRANCH   6  12
ENDBRANCH   1   5
BRANCH   3  25
ATOM     25  C   UNL A   1      32.607  26.903  26.569  1.00  0.00     0.118 C 
BRANCH  25  26
ATOM     26  C   UNL A   1      32.451  28.240  27.273  1.00  0.00     0.042 C 
BRANCH  26  27
ATOM     27  C   UNL A   1      33.427  29.326  26.835  1.00  0.00     0.118 C 
BRANCH  27  28
ATOM     28  N   UNL A   1      33.505  30.490  27.712  1.00  0.00    -0.352 N 
ATOM     29  C   UNL A   1      34.530  30.983  28.494  1.00  0.00     0.251 C 
ATOM     30  H   UNL A   1      32.676  31.020  27.752  1.00  0.00     0.163 HD
ATOM     31  O   UNL A   1      34.354  32.000  29.150  1.00  0.00    -0.269 OA
BRANCH  29  32
ATOM     32  C   UNL A   1      35.816  30.253  28.597  1.00  0.00     0.039 A 
ATOM     33  C   UNL A   1      36.665  30.225  27.487  1.00  0.00     0.014 A 
ATOM     34  C   UNL A   1      36.218  29.650  29.785  1.00  0.00     0.014 A 
ATOM     35  C   UNL A   1      37.963  29.721  27.615  1.00  0.00     0.010 A 
ATOM     36  C   UNL A   1      37.546  29.272  29.949  1.00  0.00     0.010 A 
ATOM     37  C   UNL A   1      38.445  29.319  28.872  1.00  0.00    -0.014 A 
BRANCH  37  38
ATOM     38  C   UNL A   1      39.877  28.979  29.104  1.00  0.00     0.031 A 
ATOM     39  C   UNL A   1      40.828  30.024  29.632  1.00  0.00     0.074 A 
ATOM     40  C   UNL A   1      40.352  27.774  28.725  1.00  0.00     0.049 A 
ATOM     41  N   UNL A   1      42.133  29.984  29.723  1.00  0.00    -0.248 NA
ATOM     42  C   UNL A   1      40.238  31.300  30.066  1.00  0.00     0.031 C 
ATOM     43  C   UNL A   1      39.560  26.691  28.132  1.00  0.00     0.029 A 
ATOM     44  N   UNL A   1      41.625  27.257  28.767  1.00  0.00    -0.354 N 
ATOM     45  C   UNL A   1      42.520  31.241  30.173  1.00  0.00     0.074 A 
ATOM     46  C   UNL A   1      41.317  32.035  30.293  1.00  0.00     0.031 C 
ATOM     47  C   UNL A   1      40.354  25.634  27.902  1.00  0.00     0.029 A 
ATOM     48  C   UNL A   1      41.720  25.973  28.280  1.00  0.00     0.049 A 
ATOM     49  H   UNL A   1      42.398  27.760  29.112  1.00  0.00     0.167 HD
ATOM     50  C   UNL A   1      43.761  31.688  30.483  1.00  0.00     0.037 A 
ATOM     51  C   UNL A   1      42.788  25.163  28.143  1.00  0.00     0.037 A 
ATOM     52  C   UNL A   1      44.945  30.873  30.440  1.00  0.00     0.049 A 
ATOM     53  C   UNL A   1      44.145  25.659  28.557  1.00  0.00     0.074 A 
ATOM     54  C   UNL A   1      46.233  31.206  30.824  1.00  0.00     0.029 A 
ATOM     55  N   UNL A   1      44.985  29.557  30.004  1.00  0.00    -0.354 N 
ATOM     56  N   UNL A   1      44.483  26.835  29.027  1.00  0.00    -0.248 NA
ATOM     57  C   UNL A   1      45.267  24.719  28.423  1.00  0.00     0.031 C 
ATOM     58  C   UNL A   1      47.056  30.097  30.599  1.00  0.00     0.029 A 
ATOM     59  C   UNL A   1      46.275  29.065  30.105  1.00  0.00     0.049 A 
ATOM     60  H   UNL A   1      44.210  29.049  29.671  1.00  0.00     0.167 HD
ATOM     61  C   UNL A   1      45.849  26.768  29.270  1.00  0.00     0.074 A 
ATOM     62  C   UNL A   1      46.275  25.433  28.903  1.00  0.00     0.031 C 
ATOM     63  C   UNL A   1      46.678  27.727  29.752  1.00  0.00     0.037 A 
BRANCH  50  64
ATOM     64  C   UNL A   1      43.898  33.122  30.916  1.00  0.00     0.058 A 
ATOM     65  C   UNL A   1      44.107  34.155  29.988  1.00  0.00     0.135 A 
ATOM     66  C   UNL A   1      43.787  33.472  32.272  1.00  0.00     0.135 A 
ATOM     67  F   UNL A   1      44.235  33.874  28.682  1.00  0.00    -0.206 F 
ATOM     68  C   UNL A   1      44.238  35.480  30.391  1.00  0.00     0.059 A 
ATOM     69  C   UNL A   1      43.886  34.795  32.695  1.00  0.00     0.059 A 
ATOM     70  F   UNL A   1      43.584  32.525  33.200  1.00  0.00    -0.206 F 
ATOM     71  C   UNL A   1      44.129  35.790  31.748  1.00  0.00     0.060 A 
BRANCH  71  72
ATOM     72  S   UNL A   1      44.300  37.513  32.256  1.00  0.00     0.124 S 
ATOM     73  O   UNL A   1      43.366  37.578  33.376  1.00  0.00    -0.237 OA
ATOM     74  O   UNL A   1      45.714  37.600  32.605  1.00  0.00    -0.237 OA
ATOM     75  O   UNL A   1      43.905  38.258  31.065  1.00  0.00    -0.744 OA
ENDBRANCH  71  72
ENDBRANCH  50  64
BRANCH  51  76
ATOM     76  C   UNL A   1      42.613  23.782  27.619  1.00  0.00     0.058 A 
ATOM     77  C   UNL A   1      42.560  22.688  28.496  1.00  0.00     0.135 A 
ATOM     78  C   UNL A   1      42.493  23.525  26.245  1.00  0.00     0.135 A 
ATOM     79  F   UNL A   1      42.676  22.883  29.818  1.00  0.00    -0.206 F 
ATOM     80  C   UNL A   1      42.414  21.385  28.030  1.00  0.00     0.059 A 
ATOM     81  C   UNL A   1      42.323  22.233  25.756  1.00  0.00     0.059 A 
ATOM     82  F   UNL A   1      42.519  24.539  25.367  1.00  0.00    -0.206 F 
ATOM     83  C   UNL A   1      42.297  21.168  26.656  1.00  0.00     0.060 A 
BRANCH  83  84
ATOM     84  S   UNL A   1      42.073  19.478  26.062  1.00  0.00     0.124 S 
ATOM     85  O   UNL A   1      42.945  19.459  24.893  1.00  0.00    -0.237 OA
ATOM     86  O   UNL A   1      42.520  18.686  27.205  1.00  0.00    -0.237 OA
ATOM     87  O   UNL A   1      40.641  19.410  25.784  1.00  0.00    -0.744 OA
ENDBRANCH  83  84
ENDBRANCH  51  76
BRANCH  63  88
ATOM     88  C   UNL A   1      48.121  27.359  29.949  1.00  0.00     0.058 A 
ATOM     89  C   UNL A   1      49.083  27.604  28.959  1.00  0.00     0.135 A 
ATOM     90  C   UNL A   1      48.550  26.803  31.164  1.00  0.00     0.135 A 
ATOM     91  F   UNL A   1      48.720  28.128  27.778  1.00  0.00    -0.206 F 
ATOM     92  C   UNL A   1      50.425  27.297  29.162  1.00  0.00     0.059 A 
ATOM     93  C   UNL A   1      49.890  26.508  31.397  1.00  0.00     0.059 A 
ATOM     94  F   UNL A   1      47.668  26.558  32.146  1.00  0.00    -0.206 F 
ATOM     95  C   UNL A   1      50.818  26.750  30.385  1.00  0.00     0.060 A 
BRANCH  95  96
ATOM     96  S   UNL A   1      52.568  26.393  30.653  1.00  0.00     0.124 S 
ATOM     97  O   UNL A   1      53.015  26.088  29.299  1.00  0.00    -0.237 OA
ATOM     98  O   UNL A   1      53.062  27.644  31.218  1.00  0.00    -0.237 OA
ATOM     99  O   UNL A   1      52.545  25.262  31.577  1.00  0.00    -0.744 OA
ENDBRANCH  95  96
ENDBRANCH  63  88
ENDBRANCH  37  38
ENDBRANCH  29  32
ENDBRANCH  27  28
ENDBRANCH  26  27
ENDBRANCH  25  26
ENDBRANCH   3  25
TORSDOF 19
ENDMDL
MODEL 2
REMARK VINA RESULT:     -11.4      1.488      4.009
REMARK SMILES COc1ccc(OCCNc2c(Cl)cccc2C(=O)NCCCNC(=O)c2ccc(-c3c4nc(c(-c5c(F)cc(S(=O)(=O)[O-])cc5F)c5ccc([nH]5)c(-c5c(F)cc(S(=O)(=O)[O-])cc5F)c5nc(c(-c6c(F)cc(S(=O)(=O)[O-])cc6F)c6ccc3[nH]6)C=C5)C=C4)cc2)cc1
REMARK SMILES IDX 18 1 19 2 20 3 17 5 11 6 12 7 13 8 14 9 16 10 15 11 10 12
REMARK SMILES IDX 9 14 8 15 7 16 6 17 3 18 4 19 94 20 5 21 93 22 2 23 1 24
REMARK SMILES IDX 21 25 22 26 23 27 24 28 25 29 26 31 27 32 28 33 92 34 29 35
REMARK SMILES IDX 91 36 30 37 31 38 32 39 85 40 33 41 90 42 84 43 86 44 34 45
REMARK SMILES IDX 89 46 83 47 82 48 35 50 69 51 48 52 68 53 49 54 52 55 67 56
REMARK SMILES IDX 87 57 50 58 51 59 66 61 88 62 53 63 36 64 37 65 46 66 38 67
REMARK SMILES IDX 39 68 45 69 47 70 40 71 41 72 42 73 43 74 44 75 70 76 71 77
REMARK SMILES IDX 80 78 72 79 73 80 79 81 81 82 74 83 75 84 76 85 77 86 78 87
REMARK SMILES IDX 54 88 55 89 64 90 56 91 57 92 63 93 65 94 58 95 59 96 60 97
REMARK SMILES IDX 61 98 62 99
REMARK H PARENT 20 4 10 13 24 30 86 49 52 60
REMARK Flexibility Score: inf
ROOT
ATOM      1  C   UNL A   1      30.792  26.295  25.644  1.00  0.00     0.253 C 
ATOM      2  O   UNL A   1      30.366  25.159  25.433  1.00  0.00    -0.269 OA
ATOM      3  N   UNL A   1      30.792  26.767  26.931  1.00  0.00    -0.352 N 
ATOM      4  H   UNL A   1      30.372  26.173  27.595  1.00  0.00     0.163 HD
ENDROOT
BRANCH   1   5
ATOM      5  C   UNL A   1      31.177  27.131  24.483  1.00  0.00     0.064 A 
ATOM      6  C   UNL A   1      32.445  27.176  23.877  1.00  0.00     0.066 A 
ATOM      7  C   UNL A   1      32.590  28.059  22.774  1.00  0.00     0.065 A 
ATOM      8  Cl  UNL A   1      34.121  28.242  21.971  1.00  0.00    -0.082 Cl
ATOM      9  C   UNL A   1      31.528  28.816  22.269  1.00  0.00     0.023 A 
ATOM     10  C   UNL A   1      30.105  27.890  23.960  1.00  0.00     0.016 A 
ATOM     11  C   UNL A   1      30.279  28.732  22.864  1.00  0.00     0.003 A 
BRANCH   6  12
ATOM     12  N   UNL A   1      33.595  26.601  24.387  1.00  0.00    -0.380 N 
ATOM     13  H   UNL A   1      34.067  27.116  25.081  1.00  0.00     0.160 HD
BRANCH  12  14
ATOM     14  C   UNL A   1      34.194  25.327  24.022  1.00  0.00     0.154 C 
BRANCH  14  15
ATOM     15  C   UNL A   1      33.813  24.235  25.055  1.00  0.00     0.250 C 
BRANCH  15  16
ATOM     16  O   UNL A   1      32.960  23.208  24.522  1.00  0.00    -0.492 OA
BRANCH  16  17
ATOM     17  C   UNL A   1      33.404  21.916  24.438  1.00  0.00     0.119 A 
ATOM     18  C   UNL A   1      33.941  19.170  24.521  1.00  0.00     0.119 A 
ATOM     19  C   UNL A   1      32.721  19.618  24.027  1.00  0.00     0.050 A 
ATOM     20  C   UNL A   1      34.929  20.082  24.879  1.00  0.00     0.050 A 
ATOM     21  C   UNL A   1      32.450  20.990  24.000  1.00  0.00     0.050 A 
ATOM     22  C   UNL A   1      34.666  21.454  24.815  1.00  0.00     0.050 A 
BRANCH  18  23
ATOM     23  O   UNL A   1      34.175  17.825  24.582  1.00  0.00    -0.497 OA
ATOM     24  C   UNL A   1      33.795  17.188  23.361  1.00  0.00     0.278 C 
ENDBRANCH  18  23
ENDBRANCH  16  17
ENDBRANCH  15  16
ENDBRANCH  14  15
ENDBRANCH  12  14
ENDBRANCH   6  12
ENDBRANCH   1   5
BRANCH   3  25
ATOM     25  C   UNL A   1      31.315  28.010  27.457  1.00  0.00     0.118 C 
BRANCH  25  26
ATOM     26  C   UNL A   1      32.830  28.086  27.498  1.00  0.00     0.042 C 
BRANCH  26  27
ATOM     27  C   UNL A   1      33.440  29.331  26.863  1.00  0.00     0.118 C 
BRANCH  27  28
ATOM     28  N   UNL A   1      33.527  30.501  27.730  1.00  0.00    -0.352 N 
ATOM     29  C   UNL A   1      34.560  31.000  28.497  1.00  0.00     0.251 C 
ATOM     30  H   UNL A   1      32.698  31.030  27.777  1.00  0.00     0.163 HD
ATOM     31  O   UNL A   1      34.390  32.021  29.148  1.00  0.00    -0.269 OA
BRANCH  29  32
ATOM     32  C   UNL A   1      35.848  30.272  28.589  1.00  0.00     0.039 A 
ATOM     33  C   UNL A   1      36.683  30.238  27.468  1.00  0.00     0.014 A 
ATOM     34  C   UNL A   1      36.266  29.679  29.777  1.00  0.00     0.014 A 
ATOM     35  C   UNL A   1      37.984  29.736  27.584  1.00  0.00     0.010 A 
ATOM     36  C   UNL A   1      37.597  29.303  29.926  1.00  0.00     0.010 A 
ATOM     37  C   UNL A   1      38.482  29.344  28.838  1.00  0.00    -0.014 A 
BRANCH  37  38
ATOM     38  C   UNL A   1      39.917  29.008  29.054  1.00  0.00     0.031 A 
ATOM     39  C   UNL A   1      40.877  30.062  29.546  1.00  0.00     0.074 A 
ATOM     40  C   UNL A   1      40.386  27.795  28.693  1.00  0.00     0.049 A 
ATOM     41  N   UNL A   1      42.183  30.023  29.618  1.00  0.00    -0.248 NA
ATOM     42  C   UNL A   1      40.294  31.347  29.964  1.00  0.00     0.031 C 
ATOM     43  C   UNL A   1      39.584  26.701  28.134  1.00  0.00     0.029 A 
ATOM     44  N   UNL A   1      41.659  27.278  28.725  1.00  0.00    -0.354 N 
ATOM     45  C   UNL A   1      42.578  31.289  30.037  1.00  0.00     0.074 A 
ATOM     46  C   UNL A   1      41.377  32.086  30.160  1.00  0.00     0.031 C 
ATOM     47  C   UNL A   1      40.374  25.639  27.913  1.00  0.00     0.029 A 
ATOM     48  C   UNL A   1      41.746  25.985  28.263  1.00  0.00     0.049 A 
ATOM     49  H   UNL A   1      42.437  27.788  29.048  1.00  0.00     0.167 HD
ATOM     50  C   UNL A   1      43.823  31.741  30.319  1.00  0.00     0.037 A 
ATOM     51  C   UNL A   1      42.811  25.171  28.126  1.00  0.00     0.037 A 
ATOM     52  C   UNL A   1      45.007  30.924  30.274  1.00  0.00     0.049 A 
ATOM     53  C   UNL A   1      44.175  25.674  28.508  1.00  0.00     0.074 A 
ATOM     54  C   UNL A   1      46.300  31.263  30.632  1.00  0.00     0.029 A 
ATOM     55  N   UNL A   1      45.039  29.599  29.864  1.00  0.00    -0.354 N 
ATOM     56  N   UNL A   1      44.521  26.859  28.950  1.00  0.00    -0.248 NA
ATOM     57  C   UNL A   1      45.294  24.731  28.376  1.00  0.00     0.031 C 
ATOM     58  C   UNL A   1      47.119  30.150  30.416  1.00  0.00     0.029 A 
ATOM     59  C   UNL A   1      46.330  29.108  29.955  1.00  0.00     0.049 A 
ATOM     60  H   UNL A   1      44.259  29.086  29.553  1.00  0.00     0.167 HD
ATOM     61  C   UNL A   1      45.890  26.796  29.173  1.00  0.00     0.074 A 
ATOM     62  C   UNL A   1      46.310  25.454  28.826  1.00  0.00     0.031 C 
ATOM     63  C   UNL A   1      46.727  27.764  29.623  1.00  0.00     0.037 A 
BRANCH  50  64
ATOM     64  C   UNL A   1      43.967  33.183  30.721  1.00  0.00     0.058 A 
ATOM     65  C   UNL A   1      44.219  34.190  29.775  1.00  0.00     0.135 A 
ATOM     66  C   UNL A   1      43.821  33.568  32.064  1.00  0.00     0.135 A 
ATOM     67  F   UNL A   1      44.382  33.875  28.481  1.00  0.00    -0.206 F 
ATOM     68  C   UNL A   1      44.357  35.522  30.150  1.00  0.00     0.059 A 
ATOM     69  C   UNL A   1      43.927  34.900  32.458  1.00  0.00     0.059 A 
ATOM     70  F   UNL A   1      43.577  32.647  33.009  1.00  0.00    -0.206 F 
ATOM     71  C   UNL A   1      44.212  35.867  31.495  1.00  0.00     0.060 A 
BRANCH  71  72
ATOM     72  S   UNL A   1      44.391  37.600  31.966  1.00  0.00     0.124 S 
ATOM     73  O   UNL A   1      43.948  38.277  30.751  1.00  0.00    -0.237 OA
ATOM     74  O   UNL A   1      43.496  37.709  33.113  1.00  0.00    -0.237 OA
ATOM     75  O   UNL A   1      45.813  37.723  32.271  1.00  0.00    -0.744 OA
ENDBRANCH  71  72
ENDBRANCH  50  64
BRANCH  51  76
ATOM     76  C   UNL A   1      42.628  23.780  27.632  1.00  0.00     0.058 A 
ATOM     77  C   UNL A   1      42.582  23.513  26.255  1.00  0.00     0.135 A 
ATOM     78  C   UNL A   1      42.501  22.695  28.512  1.00  0.00     0.135 A 
ATOM     79  F   UNL A   1      42.694  24.518  25.373  1.00  0.00    -0.206 F 
ATOM     80  C   UNL A   1      42.395  22.223  25.767  1.00  0.00     0.059 A 
ATOM     81  C   UNL A   1      42.337  21.394  28.049  1.00  0.00     0.059 A 
ATOM     82  F   UNL A   1      42.558  22.896  29.838  1.00  0.00    -0.206 F 
ATOM     83  C   UNL A   1      42.273  21.170  26.674  1.00  0.00     0.060 A 
BRANCH  83  84
ATOM     84  S   UNL A   1      42.067  19.494  26.032  1.00  0.00     0.124 S 
ATOM     85  O   UNL A   1      40.633  19.455  25.769  1.00  0.00    -0.237 OA
ATOM     86  O   UNL A   1      42.931  19.505  24.855  1.00  0.00    -0.237 OA
ATOM     87  O   UNL A   1      42.531  18.655  27.134  1.00  0.00    -0.744 OA
ENDBRANCH  83  84
ENDBRANCH  51  76
BRANCH  63  88
ATOM     88  C   UNL A   1      48.172  27.398  29.805  1.00  0.00     0.058 A 
ATOM     89  C   UNL A   1      49.125  27.648  28.806  1.00  0.00     0.135 A 
ATOM     90  C   UNL A   1      48.615  26.841  31.015  1.00  0.00     0.135 A 
ATOM     91  F   UNL A   1      48.748  28.174  27.630  1.00  0.00    -0.206 F 
ATOM     92  C   UNL A   1      50.469  27.343  28.995  1.00  0.00     0.059 A 
ATOM     93  C   UNL A   1      49.957  26.548  31.234  1.00  0.00     0.059 A 
ATOM     94  F   UNL A   1      47.743  26.591  32.004  1.00  0.00    -0.206 F 
ATOM     95  C   UNL A   1      50.875  26.794  30.213  1.00  0.00     0.060 A 
BRANCH  95  96
ATOM     96  S   UNL A   1      52.628  26.441  30.464  1.00  0.00     0.124 S 
ATOM     97  O   UNL A   1      53.128  27.738  30.907  1.00  0.00    -0.237 OA
ATOM     98  O   UNL A   1      52.596  25.393  31.479  1.00  0.00    -0.237 OA
ATOM     99  O   UNL A   1      53.079  26.011  29.143  1.00  0.00    -0.744 OA
ENDBRANCH  95  96
ENDBRANCH  63  88
ENDBRANCH  37  38
ENDBRANCH  29  32
ENDBRANCH  27  28
ENDBRANCH  26  27
ENDBRANCH  25  26
ENDBRANCH   3  25
TORSDOF 19
ENDMDL
MODEL 3
REMARK VINA RESULT:     -11.1      1.473      3.780
REMARK SMILES COc1ccc(OCCNc2c(Cl)cccc2C(=O)NCCCNC(=O)c2ccc(-c3c4nc(c(-c5c(F)cc(S(=O)(=O)[O-])cc5F)c5ccc([nH]5)c(-c5c(F)cc(S(=O)(=O)[O-])cc5F)c5nc(c(-c6c(F)cc(S(=O)(=O)[O-])cc6F)c6ccc3[nH]6)C=C5)C=C4)cc2)cc1
REMARK SMILES IDX 18 1 19 2 20 3 17 5 11 6 12 7 13 8 14 9 16 10 15 11 10 12
REMARK SMILES IDX 9 14 8 15 7 16 6 17 3 18 4 19 94 20 5 21 93 22 2 23 1 24
REMARK SMILES IDX 21 25 22 26 23 27 24 28 25 29 26 31 27 32 28 33 92 34 29 35
REMARK SMILES IDX 91 36 30 37 31 38 32 39 85 40 33 41 90 42 84 43 86 44 34 45
REMARK SMILES IDX 89 46 83 47 82 48 35 50 69 51 48 52 68 53 49 54 52 55 67 56
REMARK SMILES IDX 87 57 50 58 51 59 66 61 88 62 53 63 36 64 37 65 46 66 38 67
REMARK SMILES IDX 39 68 45 69 47 70 40 71 41 72 42 73 43 74 44 75 70 76 71 77
REMARK SMILES IDX 80 78 72 79 73 80 79 81 81 82 74 83 75 84 76 85 77 86 78 87
REMARK SMILES IDX 54 88 55 89 64 90 56 91 57 92 63 93 65 94 58 95 59 96 60 97
REMARK SMILES IDX 61 98 62 99
REMARK H PARENT 20 4 10 13 24 30 86 49 52 60
REMARK Flexibility Score: inf
ROOT
ATOM      1  C   UNL A   1      32.734  27.086  24.015  1.00  0.00     0.253 C 
ATOM      2  O   UNL A   1      33.546  26.902  23.107  1.00  0.00    -0.269 OA
ATOM      3  N   UNL A   1      33.106  26.780  25.298  1.00  0.00    -0.352 N 
ATOM      4  H   UNL A   1      33.991  26.356  25.388  1.00  0.00     0.163 HD
ENDROOT
BRANCH   1   5
ATOM      5  C   UNL A   1      31.365  27.523  23.659  1.00  0.00     0.064 A 
ATOM      6  C   UNL A   1      30.170  26.854  23.980  1.00  0.00     0.066 A 
ATOM      7  C   UNL A   1      28.965  27.456  23.530  1.00  0.00     0.065 A 
ATOM      8  Cl  UNL A   1      27.426  26.700  23.820  1.00  0.00    -0.082 Cl
ATOM      9  C   UNL A   1      28.940  28.675  22.846  1.00  0.00     0.023 A 
ATOM     10  C   UNL A   1      31.331  28.762  22.978  1.00  0.00     0.016 A 
ATOM     11  C   UNL A   1      30.129  29.332  22.568  1.00  0.00     0.003 A 
BRANCH   6  12
ATOM     12  N   UNL A   1      30.086  25.576  24.504  1.00  0.00    -0.380 N 
ATOM     13  H   UNL A   1      29.645  25.496  25.381  1.00  0.00     0.160 HD
BRANCH  12  14
ATOM     14  C   UNL A   1      30.570  24.337  23.918  1.00  0.00     0.154 C 
BRANCH  14  15
ATOM     15  C   UNL A   1      30.970  23.333  25.030  1.00  0.00     0.250 C 
BRANCH  15  16
ATOM     16  O   UNL A   1      31.969  22.384  24.620  1.00  0.00    -0.492 OA
BRANCH  16  17
ATOM     17  C   UNL A   1      33.286  22.592  24.929  1.00  0.00     0.119 A 
ATOM     18  C   UNL A   1      36.018  22.560  25.539  1.00  0.00     0.119 A 
ATOM     19  C   UNL A   1      35.567  21.962  24.367  1.00  0.00     0.050 A 
ATOM     20  C   UNL A   1      35.132  23.257  26.355  1.00  0.00     0.050 A 
ATOM     21  C   UNL A   1      34.200  21.967  24.072  1.00  0.00     0.050 A 
ATOM     22  C   UNL A   1      33.771  23.291  26.036  1.00  0.00     0.050 A 
BRANCH  18  23
ATOM     23  O   UNL A   1      37.351  22.508  25.837  1.00  0.00    -0.497 OA
ATOM     24  C   UNL A   1      37.851  23.809  26.149  1.00  0.00     0.278 C 
ENDBRANCH  18  23
ENDBRANCH  16  17
ENDBRANCH  15  16
ENDBRANCH  14  15
ENDBRANCH  12  14
ENDBRANCH   6  12
ENDBRANCH   1   5
BRANCH   3  25
ATOM     25  C   UNL A   1      32.390  26.984  26.540  1.00  0.00     0.118 C 
BRANCH  25  26
ATOM     26  C   UNL A   1      32.233  28.440  26.941  1.00  0.00     0.042 C 
BRANCH  26  27
ATOM     27  C   UNL A   1      33.483  29.299  26.785  1.00  0.00     0.118 C 
BRANCH  27  28
ATOM     28  N   UNL A   1      33.556  30.465  27.660  1.00  0.00    -0.352 N 
ATOM     29  C   UNL A   1      34.577  30.959  28.448  1.00  0.00     0.251 C 
ATOM     30  H   UNL A   1      32.728  30.996  27.695  1.00  0.00     0.163 HD
ATOM     31  O   UNL A   1      34.398  31.977  29.101  1.00  0.00    -0.269 OA
BRANCH  29  32
ATOM     32  C   UNL A   1      35.862  30.228  28.559  1.00  0.00     0.039 A 
ATOM     33  C   UNL A   1      36.725  30.213  27.459  1.00  0.00     0.014 A 
ATOM     34  C   UNL A   1      36.249  29.612  29.746  1.00  0.00     0.014 A 
ATOM     35  C   UNL A   1      38.022  29.707  27.599  1.00  0.00     0.010 A 
ATOM     36  C   UNL A   1      37.575  29.232  29.922  1.00  0.00     0.010 A 
ATOM     37  C   UNL A   1      38.487  29.292  28.857  1.00  0.00    -0.014 A 
BRANCH  37  38
ATOM     38  C   UNL A   1      39.917  28.950  29.104  1.00  0.00     0.031 A 
ATOM     39  C   UNL A   1      40.863  29.992  29.646  1.00  0.00     0.074 A 
ATOM     40  C   UNL A   1      40.395  27.746  28.727  1.00  0.00     0.049 A 
ATOM     41  N   UNL A   1      42.167  29.951  29.752  1.00  0.00    -0.248 NA
ATOM     42  C   UNL A   1      40.269  31.267  30.079  1.00  0.00     0.031 C 
ATOM     43  C   UNL A   1      39.609  26.666  28.121  1.00  0.00     0.029 A 
ATOM     44  N   UNL A   1      41.667  27.228  28.780  1.00  0.00    -0.354 N 
ATOM     45  C   UNL A   1      42.550  31.206  30.211  1.00  0.00     0.074 A 
ATOM     46  C   UNL A   1      41.346  32.000  30.321  1.00  0.00     0.031 C 
ATOM     47  C   UNL A   1      40.405  25.609  27.896  1.00  0.00     0.029 A 
ATOM     48  C   UNL A   1      41.767  25.946  28.290  1.00  0.00     0.049 A 
ATOM     49  H   UNL A   1      42.436  27.729  29.136  1.00  0.00     0.167 HD
ATOM     50  C   UNL A   1      43.787  31.651  30.537  1.00  0.00     0.037 A 
ATOM     51  C   UNL A   1      42.835  25.135  28.162  1.00  0.00     0.037 A 
ATOM     52  C   UNL A   1      44.971  30.835  30.504  1.00  0.00     0.049 A 
ATOM     53  C   UNL A   1      44.188  25.629  28.592  1.00  0.00     0.074 A 
ATOM     54  C   UNL A   1      46.254  31.165  30.904  1.00  0.00     0.029 A 
ATOM     55  N   UNL A   1      45.015  29.520  30.064  1.00  0.00    -0.354 N 
ATOM     56  N   UNL A   1      44.522  26.803  29.071  1.00  0.00    -0.248 NA
ATOM     57  C   UNL A   1      45.311  24.688  28.468  1.00  0.00     0.031 C 
ATOM     58  C   UNL A   1      47.080  30.056  30.684  1.00  0.00     0.029 A 
ATOM     59  C   UNL A   1      46.303  29.027  30.177  1.00  0.00     0.049 A 
ATOM     60  H   UNL A   1      44.244  29.014  29.720  1.00  0.00     0.167 HD
ATOM     61  C   UNL A   1      45.885  26.734  29.329  1.00  0.00     0.074 A 
ATOM     62  C   UNL A   1      46.314  25.400  28.962  1.00  0.00     0.031 C 
ATOM     63  C   UNL A   1      46.709  27.690  29.824  1.00  0.00     0.037 A 
BRANCH  50  64
ATOM     64  C   UNL A   1      43.920  33.083  30.977  1.00  0.00     0.058 A 
ATOM     65  C   UNL A   1      44.057  34.129  30.049  1.00  0.00     0.135 A 
ATOM     66  C   UNL A   1      43.879  33.418  32.340  1.00  0.00     0.135 A 
ATOM     67  F   UNL A   1      44.116  33.863  28.735  1.00  0.00    -0.206 F 
ATOM     68  C   UNL A   1      44.184  35.452  30.459  1.00  0.00     0.059 A 
ATOM     69  C   UNL A   1      43.977  34.738  32.771  1.00  0.00     0.059 A 
ATOM     70  F   UNL A   1      43.747  32.458  33.269  1.00  0.00    -0.206 F 
ATOM     71  C   UNL A   1      44.146  35.747  31.823  1.00  0.00     0.060 A 
BRANCH  71  72
ATOM     72  S   UNL A   1      44.311  37.468  32.339  1.00  0.00     0.124 S 
ATOM     73  O   UNL A   1      43.297  37.555  33.384  1.00  0.00    -0.237 OA
ATOM     74  O   UNL A   1      45.696  37.529  32.794  1.00  0.00    -0.237 OA
ATOM     75  O   UNL A   1      44.023  38.217  31.119  1.00  0.00    -0.744 OA
ENDBRANCH  71  72
ENDBRANCH  50  64
BRANCH  51  76
ATOM     76  C   UNL A   1      42.666  23.756  27.630  1.00  0.00     0.058 A 
ATOM     77  C   UNL A   1      42.510  22.670  28.504  1.00  0.00     0.135 A 
ATOM     78  C   UNL A   1      42.650  23.494  26.252  1.00  0.00     0.135 A 
ATOM     79  F   UNL A   1      42.523  22.870  29.831  1.00  0.00    -0.206 F 
ATOM     80  C   UNL A   1      42.367  21.369  28.033  1.00  0.00     0.059 A 
ATOM     81  C   UNL A   1      42.485  22.205  25.756  1.00  0.00     0.059 A 
ATOM     82  F   UNL A   1      42.777  24.502  25.375  1.00  0.00    -0.206 F 
ATOM     83  C   UNL A   1      42.356  21.146  26.656  1.00  0.00     0.060 A 
BRANCH  83  84
ATOM     84  S   UNL A   1      42.134  19.459  26.052  1.00  0.00     0.124 S 
ATOM     85  O   UNL A   1      42.957  19.467  24.848  1.00  0.00    -0.237 OA
ATOM     86  O   UNL A   1      42.640  18.663  27.166  1.00  0.00    -0.237 OA
ATOM     87  O   UNL A   1      40.693  19.371  25.831  1.00  0.00    -0.744 OA
ENDBRANCH  83  84
ENDBRANCH  51  76
BRANCH  63  88
ATOM     88  C   UNL A   1      48.149  27.320  30.035  1.00  0.00     0.058 A 
ATOM     89  C   UNL A   1      49.124  27.574  29.060  1.00  0.00     0.135 A 
ATOM     90  C   UNL A   1      48.563  26.753  31.251  1.00  0.00     0.135 A 
ATOM     91  F   UNL A   1      48.775  28.108  27.879  1.00  0.00    -0.206 F 
ATOM     92  C   UNL A   1      50.463  27.265  29.277  1.00  0.00     0.059 A 
ATOM     93  C   UNL A   1      49.900  26.456  31.498  1.00  0.00     0.059 A 
ATOM     94  F   UNL A   1      47.669  26.500  32.219  1.00  0.00    -0.206 F 
ATOM     95  C   UNL A   1      50.841  26.707  30.500  1.00  0.00     0.060 A 
BRANCH  95  96
ATOM     96  S   UNL A   1      52.587  26.347  30.787  1.00  0.00     0.124 S 
ATOM     97  O   UNL A   1      52.507  25.151  31.619  1.00  0.00    -0.237 OA
ATOM     98  O   UNL A   1      53.094  26.145  29.433  1.00  0.00    -0.237 OA
ATOM     99  O   UNL A   1      53.074  27.549  31.459  1.00  0.00    -0.744 OA
ENDBRANCH  95  96
ENDBRANCH  63  88
ENDBRANCH  37  38
ENDBRANCH  29  32
ENDBRANCH  27  28
ENDBRANCH  26  27
ENDBRANCH  25  26
ENDBRANCH   3  25
TORSDOF 19
ENDMDL
