MODEL 1
REMARK VINA RESULT:     -13.7      0.000      0.000
REMARK SMILES COc1ccc(NC(=O)c2nn(C)cc2C(=O)NCCCNC(=O)c2ccc(-c3c4nc(c(-c5c(F)cc(S(=O)(=O)[O-])cc5F)c5ccc([nH]5)c(-c5c(F)cc(S(=O)(=O)[O-])cc5F)c5nc(c(-c6c(F)cc(S(=O)(=O)[O-])cc6F)c6ccc3[nH]6)C=C5)C=C4)cc2)c(C)c1
REMARK SMILES IDX 20 1 19 2 18 3 16 4 17 5 15 7 10 8 11 9 12 10 14 11 13 12
REMARK SMILES IDX 8 13 7 14 9 16 6 17 3 18 4 19 93 20 5 21 91 22 92 23 2 24
REMARK SMILES IDX 1 25 21 26 22 27 23 28 24 30 25 31 26 32 90 33 27 34 89 35
REMARK SMILES IDX 28 36 29 37 30 38 83 39 31 40 88 41 82 42 84 43 32 44 87 45
REMARK SMILES IDX 81 46 80 47 33 49 67 50 46 51 66 52 47 53 50 54 65 55 85 56
REMARK SMILES IDX 48 57 49 58 64 60 86 61 51 62 34 63 35 64 44 65 36 66 37 67
REMARK SMILES IDX 43 68 45 69 38 70 39 71 40 72 41 73 42 74 68 75 69 76 78 77
REMARK SMILES IDX 70 78 71 79 77 80 79 81 72 82 73 83 74 84 75 85 76 86 52 87
REMARK SMILES IDX 53 88 62 89 54 90 55 91 61 92 63 93 56 94 57 95 58 96 59 97
REMARK SMILES IDX 60 98
REMARK H PARENT 18 6 7 15 22 29 84 48 50 59
REMARK Flexibility Score: inf
ROOT
ATOM      1  C   UNL A   1      36.790  23.108  25.678  1.00  0.00     0.042 C 
ENDROOT
BRANCH   1   2
ATOM      2  C   UNL A   1      36.021  21.895  26.197  1.00  0.00     0.118 C 
BRANCH   2   3
ATOM      3  N   UNL A   1      35.025  22.214  27.211  1.00  0.00    -0.352 N 
ATOM      4  C   UNL A   1      33.651  22.255  27.197  1.00  0.00     0.255 C 
ATOM      5  O   UNL A   1      33.090  22.351  28.288  1.00  0.00    -0.269 OA
ATOM      6  H   UNL A   1      35.416  22.448  28.084  1.00  0.00     0.163 HD
BRANCH   4   7
ATOM      7  C   UNL A   1      32.873  22.210  25.962  1.00  0.00     0.090 A 
ATOM      8  C   UNL A   1      31.585  22.830  25.751  1.00  0.00     0.163 A 
ATOM      9  N   UNL A   1      31.127  22.603  24.501  1.00  0.00    -0.167 NA
ATOM     10  N   UNL A   1      32.092  21.885  23.922  1.00  0.00    -0.274 N 
ATOM     11  C   UNL A   1      33.145  21.619  24.742  1.00  0.00     0.123 A 
ATOM     12  C   UNL A   1      31.950  21.497  22.540  1.00  0.00     0.173 C 
BRANCH   8  13
ATOM     13  C   UNL A   1      30.777  23.635  26.679  1.00  0.00     0.277 C 
ATOM     14  N   UNL A   1      30.890  25.012  26.725  1.00  0.00    -0.320 N 
ATOM     15  H   UNL A   1      30.363  25.426  27.446  1.00  0.00     0.170 HD
ATOM     16  O   UNL A   1      29.967  23.106  27.448  1.00  0.00    -0.267 OA
BRANCH  14  17
ATOM     17  C   UNL A   1      31.610  25.940  25.947  1.00  0.00     0.044 A 
ATOM     18  C   UNL A   1      32.977  27.959  24.516  1.00  0.00     0.119 A 
ATOM     19  C   UNL A   1      33.638  27.224  25.488  1.00  0.00     0.048 A 
ATOM     20  C   UNL A   1      31.657  27.633  24.209  1.00  0.00     0.052 A 
ATOM     21  C   UNL A   1      32.964  26.212  26.179  1.00  0.00     0.030 A 
ATOM     22  C   UNL A   1      30.959  26.619  24.899  1.00  0.00    -0.024 A 
ATOM     23  C   UNL A   1      29.555  26.343  24.432  1.00  0.00     0.047 C 
BRANCH  18  24
ATOM     24  O   UNL A   1      33.501  28.991  23.791  1.00  0.00    -0.497 OA
ATOM     25  C   UNL A   1      34.022  28.677  22.507  1.00  0.00     0.278 C 
ENDBRANCH  18  24
ENDBRANCH  14  17
ENDBRANCH   8  13
ENDBRANCH   4   7
ENDBRANCH   2   3
ENDBRANCH   1   2
BRANCH   1  26
ATOM     26  C   UNL A   1      38.297  22.952  25.780  1.00  0.00     0.118 C 
BRANCH  26  27
ATOM     27  N   UNL A   1      38.843  22.993  27.131  1.00  0.00    -0.352 N 
ATOM     28  C   UNL A   1      40.029  23.706  27.318  1.00  0.00     0.251 C 
ATOM     29  H   UNL A   1      38.395  22.537  27.881  1.00  0.00     0.163 HD
ATOM     30  O   UNL A   1      41.147  23.260  27.145  1.00  0.00    -0.269 OA
BRANCH  28  31
ATOM     31  C   UNL A   1      39.784  25.164  27.406  1.00  0.00     0.039 A 
ATOM     32  C   UNL A   1      40.356  26.075  26.520  1.00  0.00     0.014 A 
ATOM     33  C   UNL A   1      39.192  25.584  28.597  1.00  0.00     0.014 A 
ATOM     34  C   UNL A   1      40.429  27.424  26.890  1.00  0.00     0.010 A 
ATOM     35  C   UNL A   1      39.355  26.889  28.999  1.00  0.00     0.010 A 
ATOM     36  C   UNL A   1      39.985  27.815  28.156  1.00  0.00    -0.014 A 
BRANCH  36  37
ATOM     37  C   UNL A   1      40.202  29.124  28.771  1.00  0.00     0.031 A 
ATOM     38  C   UNL A   1      39.116  30.141  28.804  1.00  0.00     0.074 A 
ATOM     39  C   UNL A   1      41.299  29.321  29.534  1.00  0.00     0.049 A 
ATOM     40  N   UNL A   1      39.293  31.377  29.139  1.00  0.00    -0.248 NA
ATOM     41  C   UNL A   1      37.730  29.850  28.440  1.00  0.00     0.031 C 
ATOM     42  C   UNL A   1      41.437  30.282  30.626  1.00  0.00     0.029 A 
ATOM     43  N   UNL A   1      42.578  28.794  29.386  1.00  0.00    -0.354 N 
ATOM     44  C   UNL A   1      38.056  31.955  29.304  1.00  0.00     0.074 A 
ATOM     45  C   UNL A   1      37.114  30.979  28.810  1.00  0.00     0.031 C 
ATOM     46  C   UNL A   1      42.737  30.445  30.910  1.00  0.00     0.029 A 
ATOM     47  C   UNL A   1      43.493  29.727  29.903  1.00  0.00     0.049 A 
ATOM     48  H   UNL A   1      42.801  27.921  28.990  1.00  0.00     0.167 HD
ATOM     49  C   UNL A   1      37.940  33.147  29.955  1.00  0.00     0.037 A 
ATOM     50  C   UNL A   1      44.462  30.296  29.120  1.00  0.00     0.037 A 
ATOM     51  C   UNL A   1      39.234  33.654  30.388  1.00  0.00     0.049 A 
ATOM     52  C   UNL A   1      44.362  31.799  28.992  1.00  0.00     0.074 A 
ATOM     53  C   UNL A   1      39.917  33.569  31.591  1.00  0.00     0.029 A 
ATOM     54  N   UNL A   1      40.144  34.111  29.448  1.00  0.00    -0.354 N 
ATOM     55  N   UNL A   1      43.313  32.489  29.340  1.00  0.00    -0.248 NA
ATOM     56  C   UNL A   1      45.419  32.647  28.446  1.00  0.00     0.031 C 
ATOM     57  C   UNL A   1      41.261  33.944  31.362  1.00  0.00     0.029 A 
ATOM     58  C   UNL A   1      41.391  34.266  30.023  1.00  0.00     0.049 A 
ATOM     59  H   UNL A   1      39.934  34.297  28.505  1.00  0.00     0.167 HD
ATOM     60  C   UNL A   1      43.503  33.813  29.037  1.00  0.00     0.074 A 
ATOM     61  C   UNL A   1      44.852  33.867  28.511  1.00  0.00     0.031 C 
ATOM     62  C   UNL A   1      42.517  34.740  29.235  1.00  0.00     0.037 A 
BRANCH  49  63
ATOM     63  C   UNL A   1      36.622  33.719  30.415  1.00  0.00     0.058 A 
ATOM     64  C   UNL A   1      35.651  34.153  29.486  1.00  0.00     0.135 A 
ATOM     65  C   UNL A   1      36.267  33.880  31.768  1.00  0.00     0.135 A 
ATOM     66  F   UNL A   1      35.831  34.014  28.165  1.00  0.00    -0.206 F 
ATOM     67  C   UNL A   1      34.462  34.774  29.865  1.00  0.00     0.059 A 
ATOM     68  C   UNL A   1      35.104  34.545  32.174  1.00  0.00     0.059 A 
ATOM     69  F   UNL A   1      37.034  33.374  32.746  1.00  0.00    -0.206 F 
ATOM     70  C   UNL A   1      34.208  34.994  31.211  1.00  0.00     0.060 A 
BRANCH  70  71
ATOM     71  S   UNL A   1      32.714  35.893  31.671  1.00  0.00     0.124 S 
ATOM     72  O   UNL A   1      32.109  36.173  30.372  1.00  0.00    -0.237 OA
ATOM     73  O   UNL A   1      32.015  34.919  32.499  1.00  0.00    -0.237 OA
ATOM     74  O   UNL A   1      33.228  37.065  32.375  1.00  0.00    -0.744 OA
ENDBRANCH  70  71
ENDBRANCH  49  63
BRANCH  50  75
ATOM     75  C   UNL A   1      44.983  29.362  28.085  1.00  0.00     0.058 A 
ATOM     76  C   UNL A   1      45.948  28.429  28.507  1.00  0.00     0.135 A 
ATOM     77  C   UNL A   1      44.202  29.034  26.966  1.00  0.00     0.135 A 
ATOM     78  F   UNL A   1      46.744  28.714  29.550  1.00  0.00    -0.206 F 
ATOM     79  C   UNL A   1      45.980  27.138  27.994  1.00  0.00     0.059 A 
ATOM     80  C   UNL A   1      44.226  27.746  26.429  1.00  0.00     0.059 A 
ATOM     81  F   UNL A   1      43.284  29.897  26.506  1.00  0.00    -0.206 F 
ATOM     82  C   UNL A   1      45.047  26.785  27.022  1.00  0.00     0.060 A 
BRANCH  82  83
ATOM     83  S   UNL A   1      44.782  25.021  26.709  1.00  0.00     0.124 S 
ATOM     84  O   UNL A   1      44.375  25.010  25.309  1.00  0.00    -0.237 OA
ATOM     85  O   UNL A   1      46.107  24.464  26.988  1.00  0.00    -0.237 OA
ATOM     86  O   UNL A   1      43.745  24.660  27.671  1.00  0.00    -0.744 OA
ENDBRANCH  82  83
ENDBRANCH  50  75
BRANCH  62  87
ATOM     87  C   UNL A   1      42.517  36.182  28.781  1.00  0.00     0.058 A 
ATOM     88  C   UNL A   1      43.176  37.223  29.455  1.00  0.00     0.135 A 
ATOM     89  C   UNL A   1      41.955  36.532  27.526  1.00  0.00     0.135 A 
ATOM     90  F   UNL A   1      43.832  37.003  30.603  1.00  0.00    -0.206 F 
ATOM     91  C   UNL A   1      43.234  38.525  28.950  1.00  0.00     0.059 A 
ATOM     92  C   UNL A   1      42.048  37.809  26.978  1.00  0.00     0.059 A 
ATOM     93  F   UNL A   1      41.305  35.631  26.774  1.00  0.00    -0.206 F 
ATOM     94  C   UNL A   1      42.672  38.809  27.709  1.00  0.00     0.060 A 
BRANCH  94  95
ATOM     95  S   UNL A   1      42.807  40.463  27.007  1.00  0.00     0.124 S 
ATOM     96  O   UNL A   1      43.433  41.195  28.103  1.00  0.00    -0.237 OA
ATOM     97  O   UNL A   1      43.648  40.252  25.831  1.00  0.00    -0.237 OA
ATOM     98  O   UNL A   1      41.420  40.814  26.719  1.00  0.00    -0.744 OA
ENDBRANCH  94  95
ENDBRANCH  62  87
ENDBRANCH  36  37
ENDBRANCH  28  31
ENDBRANCH  26  27
ENDBRANCH   1  26
TORSDOF 16
ENDMDL
MODEL 2
REMARK VINA RESULT:     -13.6      4.703     11.229
REMARK SMILES COc1ccc(NC(=O)c2nn(C)cc2C(=O)NCCCNC(=O)c2ccc(-c3c4nc(c(-c5c(F)cc(S(=O)(=O)[O-])cc5F)c5ccc([nH]5)c(-c5c(F)cc(S(=O)(=O)[O-])cc5F)c5nc(c(-c6c(F)cc(S(=O)(=O)[O-])cc6F)c6ccc3[nH]6)C=C5)C=C4)cc2)c(C)c1
REMARK SMILES IDX 20 1 19 2 18 3 16 4 17 5 15 7 10 8 11 9 12 10 14 11 13 12
REMARK SMILES IDX 8 13 7 14 9 16 6 17 3 18 4 19 93 20 5 21 91 22 92 23 2 24
REMARK SMILES IDX 1 25 21 26 22 27 23 28 24 30 25 31 26 32 90 33 27 34 89 35
REMARK SMILES IDX 28 36 29 37 30 38 83 39 31 40 88 41 82 42 84 43 32 44 87 45
REMARK SMILES IDX 81 46 80 47 33 49 67 50 46 51 66 52 47 53 50 54 65 55 85 56
REMARK SMILES IDX 48 57 49 58 64 60 86 61 51 62 34 63 35 64 44 65 36 66 37 67
REMARK SMILES IDX 43 68 45 69 38 70 39 71 40 72 41 73 42 74 68 75 69 76 78 77
REMARK SMILES IDX 70 78 71 79 77 80 79 81 72 82 73 83 74 84 75 85 76 86 52 87
REMARK SMILES IDX 53 88 62 89 54 90 55 91 61 92 63 93 56 94 57 95 58 96 59 97
REMARK SMILES IDX 60 98
REMARK H PARENT 18 6 7 15 22 29 84 48 50 59
REMARK Flexibility Score: inf
ROOT
ATOM      1  C   UNL A   1      33.708  28.954  27.480  1.00  0.00     0.042 C 
ENDROOT
BRANCH   1   2
ATOM      2  C   UNL A   1      32.184  28.874  27.424  1.00  0.00     0.118 C 
BRANCH   2   3
ATOM      3  N   UNL A   1      31.665  27.513  27.385  1.00  0.00    -0.352 N 
ATOM      4  C   UNL A   1      31.694  26.524  26.430  1.00  0.00     0.255 C 
ATOM      5  O   UNL A   1      31.351  25.398  26.789  1.00  0.00    -0.269 OA
ATOM      6  H   UNL A   1      31.199  27.248  28.210  1.00  0.00     0.163 HD
BRANCH   4   7
ATOM      7  C   UNL A   1      32.089  26.775  25.047  1.00  0.00     0.090 A 
ATOM      8  C   UNL A   1      31.403  26.291  23.870  1.00  0.00     0.163 A 
ATOM      9  N   UNL A   1      32.020  26.694  22.739  1.00  0.00    -0.167 NA
ATOM     10  N   UNL A   1      33.050  27.427  23.168  1.00  0.00    -0.274 N 
ATOM     11  C   UNL A   1      33.142  27.504  24.524  1.00  0.00     0.123 A 
ATOM     12  C   UNL A   1      33.914  28.062  22.204  1.00  0.00     0.173 C 
BRANCH   8  13
ATOM     13  C   UNL A   1      30.184  25.474  23.774  1.00  0.00     0.277 C 
ATOM     14  N   UNL A   1      30.237  24.094  23.820  1.00  0.00    -0.320 N 
ATOM     15  H   UNL A   1      29.367  23.661  23.657  1.00  0.00     0.170 HD
ATOM     16  O   UNL A   1      29.071  25.996  23.650  1.00  0.00    -0.267 OA
BRANCH  14  17
ATOM     17  C   UNL A   1      31.286  23.183  24.052  1.00  0.00     0.044 A 
ATOM     18  C   UNL A   1      33.266  21.200  24.429  1.00  0.00     0.119 A 
ATOM     19  C   UNL A   1      33.325  22.046  23.332  1.00  0.00     0.048 A 
ATOM     20  C   UNL A   1      32.260  21.397  25.375  1.00  0.00     0.052 A 
ATOM     21  C   UNL A   1      32.355  23.038  23.160  1.00  0.00     0.030 A 
ATOM     22  C   UNL A   1      31.271  22.390  25.216  1.00  0.00    -0.024 A 
ATOM     23  C   UNL A   1      30.274  22.521  26.337  1.00  0.00     0.047 C 
BRANCH  18  24
ATOM     24  O   UNL A   1      34.124  20.173  24.702  1.00  0.00    -0.497 OA
ATOM     25  C   UNL A   1      33.676  18.861  24.391  1.00  0.00     0.278 C 
ENDBRANCH  18  24
ENDBRANCH  14  17
ENDBRANCH   8  13
ENDBRANCH   4   7
ENDBRANCH   2   3
ENDBRANCH   1   2
BRANCH   1  26
ATOM     26  C   UNL A   1      34.221  30.308  27.936  1.00  0.00     0.118 C 
BRANCH  26  27
ATOM     27  N   UNL A   1      35.337  30.849  27.168  1.00  0.00    -0.352 N 
ATOM     28  C   UNL A   1      36.501  31.165  27.871  1.00  0.00     0.251 C 
ATOM     29  H   UNL A   1      35.273  30.984  26.194  1.00  0.00     0.163 HD
ATOM     30  O   UNL A   1      36.707  32.218  28.444  1.00  0.00    -0.269 OA
BRANCH  28  31
ATOM     31  C   UNL A   1      37.317  29.962  28.152  1.00  0.00     0.039 A 
ATOM     32  C   UNL A   1      37.263  29.286  29.370  1.00  0.00     0.014 A 
ATOM     33  C   UNL A   1      38.345  29.730  27.239  1.00  0.00     0.014 A 
ATOM     34  C   UNL A   1      38.322  28.440  29.722  1.00  0.00     0.010 A 
ATOM     35  C   UNL A   1      39.429  28.978  27.631  1.00  0.00     0.010 A 
ATOM     36  C   UNL A   1      39.432  28.339  28.879  1.00  0.00    -0.014 A 
BRANCH  36  37
ATOM     37  C   UNL A   1      40.699  27.690  29.208  1.00  0.00     0.031 A 
ATOM     38  C   UNL A   1      41.012  26.325  28.702  1.00  0.00     0.074 A 
ATOM     39  C   UNL A   1      41.693  28.421  29.757  1.00  0.00     0.049 A 
ATOM     40  N   UNL A   1      42.007  25.611  29.116  1.00  0.00    -0.248 NA
ATOM     41  C   UNL A   1      40.208  25.638  27.691  1.00  0.00     0.031 C 
ATOM     42  C   UNL A   1      43.126  28.152  29.659  1.00  0.00     0.029 A 
ATOM     43  N   UNL A   1      41.611  29.486  30.647  1.00  0.00    -0.354 N 
ATOM     44  C   UNL A   1      42.142  24.538  28.267  1.00  0.00     0.074 A 
ATOM     45  C   UNL A   1      40.969  24.571  27.426  1.00  0.00     0.031 C 
ATOM     46  C   UNL A   1      43.774  28.860  30.597  1.00  0.00     0.029 A 
ATOM     47  C   UNL A   1      42.771  29.478  31.441  1.00  0.00     0.049 A 
ATOM     48  H   UNL A   1      40.870  30.132  30.710  1.00  0.00     0.167 HD
ATOM     49  C   UNL A   1      43.289  23.800  28.275  1.00  0.00     0.037 A 
ATOM     50  C   UNL A   1      42.713  29.327  32.800  1.00  0.00     0.037 A 
ATOM     51  C   UNL A   1      44.244  24.297  29.255  1.00  0.00     0.049 A 
ATOM     52  C   UNL A   1      43.419  28.098  33.325  1.00  0.00     0.074 A 
ATOM     53  C   UNL A   1      45.324  25.159  29.155  1.00  0.00     0.029 A 
ATOM     54  N   UNL A   1      43.984  24.142  30.608  1.00  0.00    -0.354 N 
ATOM     55  N   UNL A   1      43.810  27.108  32.572  1.00  0.00    -0.248 NA
ATOM     56  C   UNL A   1      43.726  27.867  34.735  1.00  0.00     0.031 C 
ATOM     57  C   UNL A   1      45.693  25.555  30.462  1.00  0.00     0.029 A 
ATOM     58  C   UNL A   1      44.844  24.925  31.354  1.00  0.00     0.049 A 
ATOM     59  H   UNL A   1      43.286  23.559  30.985  1.00  0.00     0.167 HD
ATOM     60  C   UNL A   1      44.351  26.116  33.348  1.00  0.00     0.074 A 
ATOM     61  C   UNL A   1      44.308  26.654  34.693  1.00  0.00     0.031 C 
ATOM     62  C   UNL A   1      44.769  24.933  32.806  1.00  0.00     0.037 A 
BRANCH  49  63
ATOM     63  C   UNL A   1      43.634  22.786  27.212  1.00  0.00     0.058 A 
ATOM     64  C   UNL A   1      42.922  21.572  27.104  1.00  0.00     0.135 A 
ATOM     65  C   UNL A   1      44.675  22.953  26.278  1.00  0.00     0.135 A 
ATOM     66  F   UNL A   1      41.873  21.300  27.892  1.00  0.00    -0.206 F 
ATOM     67  C   UNL A   1      43.267  20.568  26.200  1.00  0.00     0.059 A 
ATOM     68  C   UNL A   1      45.073  21.942  25.396  1.00  0.00     0.059 A 
ATOM     69  F   UNL A   1      45.329  24.121  26.178  1.00  0.00    -0.206 F 
ATOM     70  C   UNL A   1      44.363  20.747  25.369  1.00  0.00     0.060 A 
BRANCH  70  71
ATOM     71  S   UNL A   1      44.854  19.393  24.285  1.00  0.00     0.124 S 
ATOM     72  O   UNL A   1      46.295  19.318  24.513  1.00  0.00    -0.237 OA
ATOM     73  O   UNL A   1      44.071  18.282  24.812  1.00  0.00    -0.237 OA
ATOM     74  O   UNL A   1      44.465  19.863  22.958  1.00  0.00    -0.744 OA
ENDBRANCH  70  71
ENDBRANCH  49  63
BRANCH  50  75
ATOM     75  C   UNL A   1      41.509  29.966  33.397  1.00  0.00     0.058 A 
ATOM     76  C   UNL A   1      41.534  31.368  33.519  1.00  0.00     0.135 A 
ATOM     77  C   UNL A   1      40.255  29.341  33.310  1.00  0.00     0.135 A 
ATOM     78  F   UNL A   1      42.708  32.008  33.643  1.00  0.00    -0.206 F 
ATOM     79  C   UNL A   1      40.390  32.133  33.329  1.00  0.00     0.059 A 
ATOM     80  C   UNL A   1      39.093  30.090  33.127  1.00  0.00     0.059 A 
ATOM     81  F   UNL A   1      40.171  28.005  33.216  1.00  0.00    -0.206 F 
ATOM     82  C   UNL A   1      39.194  31.480  33.038  1.00  0.00     0.060 A 
BRANCH  82  83
ATOM     83  S   UNL A   1      37.846  32.463  32.334  1.00  0.00     0.124 S 
ATOM     84  O   UNL A   1      37.620  33.467  33.367  1.00  0.00    -0.237 OA
ATOM     85  O   UNL A   1      38.449  32.955  31.094  1.00  0.00    -0.237 OA
ATOM     86  O   UNL A   1      36.775  31.488  32.156  1.00  0.00    -0.744 OA
ENDBRANCH  82  83
ENDBRANCH  50  75
BRANCH  62  87
ATOM     87  C   UNL A   1      45.210  23.692  33.551  1.00  0.00     0.058 A 
ATOM     88  C   UNL A   1      46.520  23.463  34.000  1.00  0.00     0.135 A 
ATOM     89  C   UNL A   1      44.247  22.740  33.976  1.00  0.00     0.135 A 
ATOM     90  F   UNL A   1      47.504  24.337  33.751  1.00  0.00    -0.206 F 
ATOM     91  C   UNL A   1      46.864  22.349  34.771  1.00  0.00     0.059 A 
ATOM     92  C   UNL A   1      44.557  21.654  34.790  1.00  0.00     0.059 A 
ATOM     93  F   UNL A   1      42.956  22.845  33.626  1.00  0.00    -0.206 F 
ATOM     94  C   UNL A   1      45.876  21.452  35.166  1.00  0.00     0.060 A 
BRANCH  94  95
ATOM     95  S   UNL A   1      46.289  20.054  36.227  1.00  0.00     0.124 S 
ATOM     96  O   UNL A   1      47.746  20.054  36.155  1.00  0.00    -0.237 OA
ATOM     97  O   UNL A   1      45.722  20.442  37.515  1.00  0.00    -0.237 OA
ATOM     98  O   UNL A   1      45.621  18.934  35.571  1.00  0.00    -0.744 OA
ENDBRANCH  94  95
ENDBRANCH  62  87
ENDBRANCH  36  37
ENDBRANCH  28  31
ENDBRANCH  26  27
ENDBRANCH   1  26
TORSDOF 16
ENDMDL
MODEL 3
REMARK VINA RESULT:     -13.3      1.859      2.618
REMARK SMILES COc1ccc(NC(=O)c2nn(C)cc2C(=O)NCCCNC(=O)c2ccc(-c3c4nc(c(-c5c(F)cc(S(=O)(=O)[O-])cc5F)c5ccc([nH]5)c(-c5c(F)cc(S(=O)(=O)[O-])cc5F)c5nc(c(-c6c(F)cc(S(=O)(=O)[O-])cc6F)c6ccc3[nH]6)C=C5)C=C4)cc2)c(C)c1
REMARK SMILES IDX 20 1 19 2 18 3 16 4 17 5 15 7 10 8 11 9 12 10 14 11 13 12
REMARK SMILES IDX 8 13 7 14 9 16 6 17 3 18 4 19 93 20 5 21 91 22 92 23 2 24
REMARK SMILES IDX 1 25 21 26 22 27 23 28 24 30 25 31 26 32 90 33 27 34 89 35
REMARK SMILES IDX 28 36 29 37 30 38 83 39 31 40 88 41 82 42 84 43 32 44 87 45
REMARK SMILES IDX 81 46 80 47 33 49 67 50 46 51 66 52 47 53 50 54 65 55 85 56
REMARK SMILES IDX 48 57 49 58 64 60 86 61 51 62 34 63 35 64 44 65 36 66 37 67
REMARK SMILES IDX 43 68 45 69 38 70 39 71 40 72 41 73 42 74 68 75 69 76 78 77
REMARK SMILES IDX 70 78 71 79 77 80 79 81 72 82 73 83 74 84 75 85 76 86 52 87
REMARK SMILES IDX 53 88 62 89 54 90 55 91 61 92 63 93 56 94 57 95 58 96 59 97
REMARK SMILES IDX 60 98
REMARK H PARENT 18 6 7 15 22 29 84 48 50 59
REMARK Flexibility Score: inf
ROOT
ATOM      1  C   UNL A   1      36.422  21.993  25.344  1.00  0.00     0.042 C 
ENDROOT
BRANCH   1   2
ATOM      2  C   UNL A   1      35.957  23.035  26.359  1.00  0.00     0.118 C 
BRANCH   2   3
ATOM      3  N   UNL A   1      35.568  24.308  25.765  1.00  0.00    -0.352 N 
ATOM      4  C   UNL A   1      34.450  24.722  25.081  1.00  0.00     0.255 C 
ATOM      5  O   UNL A   1      34.330  25.933  24.898  1.00  0.00    -0.269 OA
ATOM      6  H   UNL A   1      36.244  25.015  25.878  1.00  0.00     0.163 HD
BRANCH   4   7
ATOM      7  C   UNL A   1      33.449  23.790  24.568  1.00  0.00     0.090 A 
ATOM      8  C   UNL A   1      32.196  23.459  25.206  1.00  0.00     0.163 A 
ATOM      9  N   UNL A   1      31.494  22.563  24.479  1.00  0.00    -0.167 NA
ATOM     10  N   UNL A   1      32.253  22.343  23.404  1.00  0.00    -0.274 N 
ATOM     11  C   UNL A   1      33.423  23.038  23.407  1.00  0.00     0.123 A 
ATOM     12  C   UNL A   1      31.778  21.453  22.374  1.00  0.00     0.173 C 
BRANCH   8  13
ATOM     13  C   UNL A   1      31.633  23.962  26.468  1.00  0.00     0.277 C 
ATOM     14  N   UNL A   1      31.073  25.223  26.555  1.00  0.00    -0.320 N 
ATOM     15  H   UNL A   1      30.813  25.476  27.470  1.00  0.00     0.170 HD
ATOM     16  O   UNL A   1      31.642  23.273  27.493  1.00  0.00    -0.267 OA
BRANCH  14  17
ATOM     17  C   UNL A   1      30.801  26.218  25.595  1.00  0.00     0.044 A 
ATOM     18  C   UNL A   1      30.438  28.155  23.567  1.00  0.00     0.119 A 
ATOM     19  C   UNL A   1      29.775  26.939  23.498  1.00  0.00     0.048 A 
ATOM     20  C   UNL A   1      31.223  28.429  24.687  1.00  0.00     0.052 A 
ATOM     21  C   UNL A   1      29.941  25.992  24.514  1.00  0.00     0.030 A 
ATOM     22  C   UNL A   1      31.406  27.484  25.718  1.00  0.00    -0.024 A 
ATOM     23  C   UNL A   1      32.240  27.932  26.890  1.00  0.00     0.047 C 
BRANCH  18  24
ATOM     24  O   UNL A   1      30.393  29.152  22.635  1.00  0.00    -0.497 OA
ATOM     25  C   UNL A   1      29.114  29.690  22.330  1.00  0.00     0.278 C 
ENDBRANCH  18  24
ENDBRANCH  14  17
ENDBRANCH   8  13
ENDBRANCH   4   7
ENDBRANCH   2   3
ENDBRANCH   1   2
BRANCH   1  26
ATOM     26  C   UNL A   1      37.933  21.906  25.223  1.00  0.00     0.118 C 
BRANCH  26  27
ATOM     27  N   UNL A   1      38.660  21.809  26.484  1.00  0.00    -0.352 N 
ATOM     28  C   UNL A   1      39.912  22.422  26.546  1.00  0.00     0.251 C 
ATOM     29  H   UNL A   1      38.282  21.333  27.259  1.00  0.00     0.163 HD
ATOM     30  O   UNL A   1      40.958  21.913  26.189  1.00  0.00    -0.269 OA
BRANCH  28  31
ATOM     31  C   UNL A   1      39.799  23.884  26.758  1.00  0.00     0.039 A 
ATOM     32  C   UNL A   1      40.421  24.814  25.927  1.00  0.00     0.014 A 
ATOM     33  C   UNL A   1      39.281  24.253  28.000  1.00  0.00     0.014 A 
ATOM     34  C   UNL A   1      40.622  26.117  26.400  1.00  0.00     0.010 A 
ATOM     35  C   UNL A   1      39.569  25.502  28.498  1.00  0.00     0.010 A 
ATOM     36  C   UNL A   1      40.252  26.438  27.709  1.00  0.00    -0.014 A 
BRANCH  36  37
ATOM     37  C   UNL A   1      40.600  27.669  28.418  1.00  0.00     0.031 A 
ATOM     38  C   UNL A   1      39.605  28.763  28.582  1.00  0.00     0.074 A 
ATOM     39  C   UNL A   1      41.738  27.713  29.144  1.00  0.00     0.049 A 
ATOM     40  N   UNL A   1      39.897  29.948  29.007  1.00  0.00    -0.248 NA
ATOM     41  C   UNL A   1      38.186  28.615  28.257  1.00  0.00     0.031 C 
ATOM     42  C   UNL A   1      41.997  28.564  30.303  1.00  0.00     0.029 A 
ATOM     43  N   UNL A   1      42.962  27.099  28.897  1.00  0.00    -0.354 N 
ATOM     44  C   UNL A   1      38.720  30.607  29.274  1.00  0.00     0.074 A 
ATOM     45  C   UNL A   1      37.681  29.754  28.744  1.00  0.00     0.031 C 
ATOM     46  C   UNL A   1      43.316  28.598  30.541  1.00  0.00     0.029 A 
ATOM     47  C   UNL A   1      43.971  27.910  29.446  1.00  0.00     0.049 A 
ATOM     48  H   UNL A   1      43.097  26.248  28.421  1.00  0.00     0.167 HD
ATOM     49  C   UNL A   1      38.728  31.745  30.023  1.00  0.00     0.037 A 
ATOM     50  C   UNL A   1      44.953  28.463  28.670  1.00  0.00     0.037 A 
ATOM     51  C   UNL A   1      40.075  32.108  30.438  1.00  0.00     0.049 A 
ATOM     52  C   UNL A   1      44.974  29.974  28.668  1.00  0.00     0.074 A 
ATOM     53  C   UNL A   1      40.794  31.868  31.599  1.00  0.00     0.029 A 
ATOM     54  N   UNL A   1      40.984  32.570  29.498  1.00  0.00    -0.354 N 
ATOM     55  N   UNL A   1      44.000  30.715  29.118  1.00  0.00    -0.248 NA
ATOM     56  C   UNL A   1      46.076  30.779  28.145  1.00  0.00     0.031 C 
ATOM     57  C   UNL A   1      42.155  32.153  31.341  1.00  0.00     0.029 A 
ATOM     58  C   UNL A   1      42.261  32.576  30.027  1.00  0.00     0.049 A 
ATOM     59  H   UNL A   1      40.754  32.851  28.583  1.00  0.00     0.167 HD
ATOM     60  C   UNL A   1      44.288  32.040  28.915  1.00  0.00     0.074 A 
ATOM     61  C   UNL A   1      45.616  32.030  28.334  1.00  0.00     0.031 C 
ATOM     62  C   UNL A   1      43.391  33.022  29.230  1.00  0.00     0.037 A 
BRANCH  49  63
ATOM     63  C   UNL A   1      37.481  32.380  30.587  1.00  0.00     0.058 A 
ATOM     64  C   UNL A   1      36.701  33.268  29.814  1.00  0.00     0.135 A 
ATOM     65  C   UNL A   1      37.013  32.161  31.897  1.00  0.00     0.135 A 
ATOM     66  F   UNL A   1      36.997  33.530  28.533  1.00  0.00    -0.206 F 
ATOM     67  C   UNL A   1      35.597  33.949  30.324  1.00  0.00     0.059 A 
ATOM     68  C   UNL A   1      35.939  32.870  32.447  1.00  0.00     0.059 A 
ATOM     69  F   UNL A   1      37.576  31.230  32.682  1.00  0.00    -0.206 F 
ATOM     70  C   UNL A   1      35.238  33.768  31.652  1.00  0.00     0.060 A 
BRANCH  70  71
ATOM     71  S   UNL A   1      33.873  34.740  32.317  1.00  0.00     0.124 S 
ATOM     72  O   UNL A   1      33.253  33.804  33.251  1.00  0.00    -0.237 OA
ATOM     73  O   UNL A   1      34.570  35.869  32.920  1.00  0.00    -0.237 OA
ATOM     74  O   UNL A   1      33.073  35.052  31.135  1.00  0.00    -0.744 OA
ENDBRANCH  70  71
ENDBRANCH  49  63
BRANCH  50  75
ATOM     75  C   UNL A   1      45.355  27.581  27.540  1.00  0.00     0.058 A 
ATOM     76  C   UNL A   1      44.833  27.903  26.273  1.00  0.00     0.135 A 
ATOM     77  C   UNL A   1      46.566  26.874  27.586  1.00  0.00     0.135 A 
ATOM     78  F   UNL A   1      43.658  28.548  26.177  1.00  0.00    -0.206 F 
ATOM     79  C   UNL A   1      45.586  27.741  25.116  1.00  0.00     0.059 A 
ATOM     80  C   UNL A   1      47.333  26.692  26.435  1.00  0.00     0.059 A 
ATOM     81  F   UNL A   1      47.097  26.520  28.766  1.00  0.00    -0.206 F 
ATOM     82  C   UNL A   1      46.874  27.222  25.228  1.00  0.00     0.060 A 
BRANCH  82  83
ATOM     83  S   UNL A   1      48.000  27.451  23.829  1.00  0.00     0.124 S 
ATOM     84  O   UNL A   1      49.111  28.174  24.438  1.00  0.00    -0.237 OA
ATOM     85  O   UNL A   1      48.282  26.067  23.441  1.00  0.00    -0.237 OA
ATOM     86  O   UNL A   1      47.200  28.210  22.873  1.00  0.00    -0.744 OA
ENDBRANCH  82  83
ENDBRANCH  50  75
BRANCH  62  87
ATOM     87  C   UNL A   1      43.494  34.493  28.896  1.00  0.00     0.058 A 
ATOM     88  C   UNL A   1      43.470  35.011  27.591  1.00  0.00     0.135 A 
ATOM     89  C   UNL A   1      43.467  35.462  29.934  1.00  0.00     0.135 A 
ATOM     90  F   UNL A   1      43.395  34.205  26.524  1.00  0.00    -0.206 F 
ATOM     91  C   UNL A   1      43.469  36.385  27.329  1.00  0.00     0.059 A 
ATOM     92  C   UNL A   1      43.410  36.832  29.696  1.00  0.00     0.059 A 
ATOM     93  F   UNL A   1      43.478  35.102  31.227  1.00  0.00    -0.206 F 
ATOM     94  C   UNL A   1      43.434  37.288  28.387  1.00  0.00     0.060 A 
BRANCH  94  95
ATOM     95  S   UNL A   1      43.351  39.060  28.067  1.00  0.00     0.124 S 
ATOM     96  O   UNL A   1      43.709  39.609  29.370  1.00  0.00    -0.237 OA
ATOM     97  O   UNL A   1      44.342  39.249  27.011  1.00  0.00    -0.237 OA
ATOM     98  O   UNL A   1      41.965  39.256  27.655  1.00  0.00    -0.744 OA
ENDBRANCH  94  95
ENDBRANCH  62  87
ENDBRANCH  36  37
ENDBRANCH  28  31
ENDBRANCH  26  27
ENDBRANCH   1  26
TORSDOF 16
ENDMDL
