MODEL 1
REMARK VINA RESULT:     -13.1      0.000      0.000
REMARK SMILES Cc1cccc(O[C@@H](C)C(=O)N2CC[C@@H](C(=O)NCCCNC(=O)c3ccc(-c4c5nc(c(-c6c(F)cc(S(=O)(=O)[O-])cc6F)c6ccc([nH]6)c(-c6c(F)cc(S(=O)(=O)[O-])cc6F)c6nc(c(-c7c(F)cc(S(=O)(=O)[O-])cc7F)c7ccc4[nH]7)C=C6)C=C5)cc3)[C@@H]2C)c1
REMARK SMILES IDX 19 1 18 2 16 3 17 4 15 6 12 7 13 8 91 9 14 10 92 11 10 12
REMARK SMILES IDX 11 13 8 14 9 15 7 16 6 17 1 18 2 19 3 20 93 21 4 22 5 23
REMARK SMILES IDX 20 24 21 25 22 26 23 27 24 29 25 30 26 31 90 32 27 33 89 34
REMARK SMILES IDX 28 35 29 36 30 37 83 38 31 39 88 40 82 41 84 42 32 43 87 44
REMARK SMILES IDX 81 45 80 46 33 48 67 49 46 50 66 51 47 52 50 53 65 54 85 55
REMARK SMILES IDX 48 56 49 57 64 59 86 60 51 61 34 62 35 63 44 64 36 65 37 66
REMARK SMILES IDX 43 67 45 68 38 69 39 70 40 71 41 72 42 73 68 74 69 75 78 76
REMARK SMILES IDX 70 77 71 78 77 79 79 80 72 81 73 82 74 83 75 84 76 85 52 86
REMARK SMILES IDX 53 87 62 88 54 89 55 90 61 91 63 92 56 93 57 94 58 95 59 96
REMARK SMILES IDX 60 97
REMARK H PARENT 18 5 22 28 84 47 50 58
REMARK Flexibility Score: inf
ROOT
ATOM      1  C   UNL A   1      32.442  31.284  26.938  1.00  0.00     0.117 C 
ENDROOT
BRANCH   1   2
ATOM      2  N   UNL A   1      31.805  30.439  25.805  1.00  0.00    -0.356 N 
ATOM      3  C   UNL A   1      31.527  29.240  25.218  1.00  0.00     0.225 C 
ATOM      4  O   UNL A   1      30.777  29.451  24.232  1.00  0.00    -0.275 OA
ATOM      5  H   UNL A   1      31.392  31.104  25.208  1.00  0.00     0.163 HD
BRANCH   3   6
ATOM      6  C   UNL A   1      31.823  27.669  25.444  1.00  0.00     0.102 C 
ATOM      7  N   UNL A   1      33.009  25.776  24.450  1.00  0.00    -0.336 N 
ATOM      8  C   UNL A   1      33.691  26.090  25.699  1.00  0.00     0.121 C 
ATOM      9  C   UNL A   1      31.682  26.424  24.474  1.00  0.00     0.094 C 
ATOM     10  C   UNL A   1      33.021  27.315  26.324  1.00  0.00     0.037 C 
ATOM     11  C   UNL A   1      30.667  25.391  25.023  1.00  0.00     0.032 C 
BRANCH   7  12
ATOM     12  C   UNL A   1      33.618  24.840  23.620  1.00  0.00     0.263 C 
ATOM     13  O   UNL A   1      34.237  25.296  22.634  1.00  0.00    -0.271 OA
BRANCH  12  14
ATOM     14  C   UNL A   1      33.585  23.221  23.690  1.00  0.00     0.259 C 
ATOM     15  C   UNL A   1      32.940  22.747  22.341  1.00  0.00     0.064 C 
BRANCH  14  16
ATOM     16  O   UNL A   1      33.319  22.255  24.708  1.00  0.00    -0.481 OA
BRANCH  16  17
ATOM     17  C   UNL A   1      34.421  21.746  25.333  1.00  0.00     0.120 A 
ATOM     18  C   UNL A   1      37.221  23.876  25.327  1.00  0.00     0.044 C 
ATOM     19  C   UNL A   1      36.569  22.516  25.455  1.00  0.00    -0.047 A 
ATOM     20  C   UNL A   1      37.025  21.233  25.069  1.00  0.00     0.003 A 
ATOM     21  C   UNL A   1      35.307  22.584  25.952  1.00  0.00     0.049 A 
ATOM     22  C   UNL A   1      36.144  20.156  24.966  1.00  0.00     0.004 A 
ATOM     23  C   UNL A   1      34.792  20.444  25.014  1.00  0.00     0.046 A 
ENDBRANCH  16  17
ENDBRANCH  14  16
ENDBRANCH  12  14
ENDBRANCH   7  12
ENDBRANCH   3   6
ENDBRANCH   1   2
BRANCH   1  24
ATOM     24  C   UNL A   1      33.970  31.082  27.211  1.00  0.00     0.042 C 
BRANCH  24  25
ATOM     25  C   UNL A   1      34.527  30.905  28.635  1.00  0.00     0.118 C 
BRANCH  25  26
ATOM     26  N   UNL A   1      35.741  31.692  28.962  1.00  0.00    -0.352 N 
ATOM     27  C   UNL A   1      37.083  31.295  29.060  1.00  0.00     0.251 C 
ATOM     28  H   UNL A   1      35.579  32.646  29.139  1.00  0.00     0.163 HD
ATOM     29  O   UNL A   1      37.988  32.025  29.388  1.00  0.00    -0.269 OA
BRANCH  27  30
ATOM     30  C   UNL A   1      37.364  29.879  28.742  1.00  0.00     0.039 A 
ATOM     31  C   UNL A   1      37.482  29.020  29.843  1.00  0.00     0.014 A 
ATOM     32  C   UNL A   1      38.054  29.669  27.554  1.00  0.00     0.014 A 
ATOM     33  C   UNL A   1      38.557  28.144  29.884  1.00  0.00     0.010 A 
ATOM     34  C   UNL A   1      39.152  28.837  27.621  1.00  0.00     0.010 A 
ATOM     35  C   UNL A   1      39.462  28.171  28.826  1.00  0.00    -0.014 A 
BRANCH  35  36
ATOM     36  C   UNL A   1      40.828  27.673  28.947  1.00  0.00     0.031 A 
ATOM     37  C   UNL A   1      41.096  26.284  28.535  1.00  0.00     0.074 A 
ATOM     38  C   UNL A   1      41.851  28.476  29.335  1.00  0.00     0.049 A 
ATOM     39  N   UNL A   1      42.114  25.595  28.916  1.00  0.00    -0.248 NA
ATOM     40  C   UNL A   1      40.182  25.538  27.683  1.00  0.00     0.031 C 
ATOM     41  C   UNL A   1      43.281  28.201  29.211  1.00  0.00     0.029 A 
ATOM     42  N   UNL A   1      41.803  29.661  30.087  1.00  0.00    -0.354 N 
ATOM     43  C   UNL A   1      42.146  24.444  28.161  1.00  0.00     0.074 A 
ATOM     44  C   UNL A   1      40.890  24.431  27.454  1.00  0.00     0.031 C 
ATOM     45  C   UNL A   1      43.955  28.979  30.073  1.00  0.00     0.029 A 
ATOM     46  C   UNL A   1      42.978  29.694  30.871  1.00  0.00     0.049 A 
ATOM     47  H   UNL A   1      41.088  30.337  30.073  1.00  0.00     0.167 HD
ATOM     48  C   UNL A   1      43.296  23.709  28.136  1.00  0.00     0.037 A 
ATOM     49  C   UNL A   1      42.931  29.708  32.234  1.00  0.00     0.037 A 
ATOM     50  C   UNL A   1      44.265  24.240  29.099  1.00  0.00     0.049 A 
ATOM     51  C   UNL A   1      43.556  28.485  32.866  1.00  0.00     0.074 A 
ATOM     52  C   UNL A   1      45.365  25.074  28.971  1.00  0.00     0.029 A 
ATOM     53  N   UNL A   1      43.966  24.201  30.459  1.00  0.00    -0.354 N 
ATOM     54  N   UNL A   1      43.881  27.413  32.197  1.00  0.00    -0.248 NA
ATOM     55  C   UNL A   1      43.852  28.358  34.289  1.00  0.00     0.031 C 
ATOM     56  C   UNL A   1      45.679  25.592  30.255  1.00  0.00     0.029 A 
ATOM     57  C   UNL A   1      44.791  25.054  31.171  1.00  0.00     0.049 A 
ATOM     58  H   UNL A   1      43.262  23.641  30.861  1.00  0.00     0.167 HD
ATOM     59  C   UNL A   1      44.345  26.450  33.055  1.00  0.00     0.074 A 
ATOM     60  C   UNL A   1      44.349  27.109  34.348  1.00  0.00     0.031 C 
ATOM     61  C   UNL A   1      44.658  25.191  32.619  1.00  0.00     0.037 A 
BRANCH  48  62
ATOM     62  C   UNL A   1      43.630  22.722  27.031  1.00  0.00     0.058 A 
ATOM     63  C   UNL A   1      42.921  21.507  26.911  1.00  0.00     0.135 A 
ATOM     64  C   UNL A   1      44.683  22.869  26.104  1.00  0.00     0.135 A 
ATOM     65  F   UNL A   1      41.829  21.258  27.646  1.00  0.00    -0.206 F 
ATOM     66  C   UNL A   1      43.301  20.483  26.037  1.00  0.00     0.059 A 
ATOM     67  C   UNL A   1      45.126  21.838  25.269  1.00  0.00     0.059 A 
ATOM     68  F   UNL A   1      45.287  24.045  25.907  1.00  0.00    -0.206 F 
ATOM     69  C   UNL A   1      44.429  20.642  25.245  1.00  0.00     0.060 A 
BRANCH  69  70
ATOM     70  S   UNL A   1      44.945  19.297  24.165  1.00  0.00     0.124 S 
ATOM     71  O   UNL A   1      44.479  19.752  22.859  1.00  0.00    -0.237 OA
ATOM     72  O   UNL A   1      46.390  19.291  24.359  1.00  0.00    -0.237 OA
ATOM     73  O   UNL A   1      44.236  18.138  24.703  1.00  0.00    -0.744 OA
ENDBRANCH  69  70
ENDBRANCH  48  62
BRANCH  49  74
ATOM     74  C   UNL A   1      41.802  30.515  32.771  1.00  0.00     0.058 A 
ATOM     75  C   UNL A   1      40.612  29.828  33.084  1.00  0.00     0.135 A 
ATOM     76  C   UNL A   1      42.022  31.747  33.401  1.00  0.00     0.135 A 
ATOM     77  F   UNL A   1      40.342  28.652  32.495  1.00  0.00    -0.206 F 
ATOM     78  C   UNL A   1      39.766  30.254  34.103  1.00  0.00     0.059 A 
ATOM     79  C   UNL A   1      41.185  32.192  34.430  1.00  0.00     0.059 A 
ATOM     80  F   UNL A   1      43.131  32.451  33.134  1.00  0.00    -0.206 F 
ATOM     81  C   UNL A   1      40.100  31.402  34.816  1.00  0.00     0.060 A 
BRANCH  81  82
ATOM     82  S   UNL A   1      39.214  31.715  36.366  1.00  0.00     0.124 S 
ATOM     83  O   UNL A   1      40.308  32.011  37.282  1.00  0.00    -0.237 OA
ATOM     84  O   UNL A   1      38.370  32.857  36.011  1.00  0.00    -0.237 OA
ATOM     85  O   UNL A   1      38.508  30.462  36.600  1.00  0.00    -0.744 OA
ENDBRANCH  81  82
ENDBRANCH  49  74
BRANCH  61  86
ATOM     86  C   UNL A   1      44.947  23.987  33.495  1.00  0.00     0.058 A 
ATOM     87  C   UNL A   1      44.002  23.006  33.842  1.00  0.00     0.135 A 
ATOM     88  C   UNL A   1      46.276  23.715  33.912  1.00  0.00     0.135 A 
ATOM     89  F   UNL A   1      42.735  23.070  33.411  1.00  0.00    -0.206 F 
ATOM     90  C   UNL A   1      44.330  21.885  34.608  1.00  0.00     0.059 A 
ATOM     91  C   UNL A   1      46.636  22.570  34.618  1.00  0.00     0.059 A 
ATOM     92  F   UNL A   1      47.286  24.553  33.634  1.00  0.00    -0.206 F 
ATOM     93  C   UNL A   1      45.649  21.673  34.992  1.00  0.00     0.060 A 
BRANCH  93  94
ATOM     94  S   UNL A   1      46.088  20.201  35.932  1.00  0.00     0.124 S 
ATOM     95  O   UNL A   1      45.712  20.598  37.284  1.00  0.00    -0.237 OA
ATOM     96  O   UNL A   1      45.255  19.168  35.323  1.00  0.00    -0.237 OA
ATOM     97  O   UNL A   1      47.520  20.064  35.686  1.00  0.00    -0.744 OA
ENDBRANCH  93  94
ENDBRANCH  61  86
ENDBRANCH  35  36
ENDBRANCH  27  30
ENDBRANCH  25  26
ENDBRANCH  24  25
ENDBRANCH   1  24
TORSDOF 17
ENDMDL
MODEL 2
REMARK VINA RESULT:     -12.8      4.893     11.592
REMARK SMILES Cc1cccc(O[C@@H](C)C(=O)N2CC[C@@H](C(=O)NCCCNC(=O)c3ccc(-c4c5nc(c(-c6c(F)cc(S(=O)(=O)[O-])cc6F)c6ccc([nH]6)c(-c6c(F)cc(S(=O)(=O)[O-])cc6F)c6nc(c(-c7c(F)cc(S(=O)(=O)[O-])cc7F)c7ccc4[nH]7)C=C6)C=C5)cc3)[C@@H]2C)c1
REMARK SMILES IDX 19 1 18 2 16 3 17 4 15 6 12 7 13 8 91 9 14 10 92 11 10 12
REMARK SMILES IDX 11 13 8 14 9 15 7 16 6 17 1 18 2 19 3 20 93 21 4 22 5 23
REMARK SMILES IDX 20 24 21 25 22 26 23 27 24 29 25 30 26 31 90 32 27 33 89 34
REMARK SMILES IDX 28 35 29 36 30 37 83 38 31 39 88 40 82 41 84 42 32 43 87 44
REMARK SMILES IDX 81 45 80 46 33 48 67 49 46 50 66 51 47 52 50 53 65 54 85 55
REMARK SMILES IDX 48 56 49 57 64 59 86 60 51 61 34 62 35 63 44 64 36 65 37 66
REMARK SMILES IDX 43 67 45 68 38 69 39 70 40 71 41 72 42 73 68 74 69 75 78 76
REMARK SMILES IDX 70 77 71 78 77 79 79 80 72 81 73 82 74 83 75 84 76 85 52 86
REMARK SMILES IDX 53 87 62 88 54 89 55 90 61 91 63 92 56 93 57 94 58 95 59 96
REMARK SMILES IDX 60 97
REMARK H PARENT 18 5 22 28 84 47 50 58
REMARK Flexibility Score: inf
ROOT
ATOM      1  C   UNL A   1      37.875  20.806  25.209  1.00  0.00     0.117 C 
ENDROOT
BRANCH   1   2
ATOM      2  N   UNL A   1      37.319  21.731  24.095  1.00  0.00    -0.356 N 
ATOM      3  C   UNL A   1      36.392  22.611  23.622  1.00  0.00     0.225 C 
ATOM      4  O   UNL A   1      36.779  23.023  22.500  1.00  0.00    -0.275 OA
ATOM      5  H   UNL A   1      37.962  21.634  23.356  1.00  0.00     0.163 HD
BRANCH   3   6
ATOM      6  C   UNL A   1      35.011  23.304  24.091  1.00  0.00     0.102 C 
ATOM      7  N   UNL A   1      33.492  25.135  23.527  1.00  0.00    -0.336 N 
ATOM      8  C   UNL A   1      32.781  23.895  23.241  1.00  0.00     0.121 C 
ATOM      9  C   UNL A   1      34.643  24.815  24.395  1.00  0.00     0.094 C 
ATOM     10  C   UNL A   1      33.720  22.721  23.517  1.00  0.00     0.037 C 
ATOM     11  C   UNL A   1      34.189  25.003  25.863  1.00  0.00     0.032 C 
BRANCH   7  12
ATOM     12  C   UNL A   1      32.885  26.317  23.115  1.00  0.00     0.263 C 
ATOM     13  O   UNL A   1      32.192  26.249  22.077  1.00  0.00    -0.271 OA
BRANCH  12  14
ATOM     14  C   UNL A   1      32.999  27.809  23.739  1.00  0.00     0.259 C 
ATOM     15  C   UNL A   1      32.510  28.783  22.611  1.00  0.00     0.064 C 
BRANCH  14  16
ATOM     16  O   UNL A   1      33.933  28.488  24.580  1.00  0.00    -0.481 OA
BRANCH  16  17
ATOM     17  C   UNL A   1      33.440  28.904  25.783  1.00  0.00     0.120 A 
ATOM     18  C   UNL A   1      30.826  31.247  25.564  1.00  0.00     0.044 C 
ATOM     19  C   UNL A   1      31.945  30.549  26.308  1.00  0.00    -0.047 A 
ATOM     20  C   UNL A   1      32.858  31.038  27.273  1.00  0.00     0.003 A 
ATOM     21  C   UNL A   1      32.127  29.268  25.899  1.00  0.00     0.049 A 
ATOM     22  C   UNL A   1      34.020  30.333  27.586  1.00  0.00     0.004 A 
ATOM     23  C   UNL A   1      34.361  29.283  26.754  1.00  0.00     0.046 A 
ENDBRANCH  16  17
ENDBRANCH  14  16
ENDBRANCH  12  14
ENDBRANCH   7  12
ENDBRANCH   3   6
ENDBRANCH   1   2
BRANCH   1  24
ATOM     24  C   UNL A   1      39.005  21.386  26.124  1.00  0.00     0.042 C 
BRANCH  24  25
ATOM     25  C   UNL A   1      39.359  22.885  26.130  1.00  0.00     0.118 C 
BRANCH  25  26
ATOM     26  N   UNL A   1      40.635  23.250  26.793  1.00  0.00    -0.352 N 
ATOM     27  C   UNL A   1      41.075  24.479  27.303  1.00  0.00     0.251 C 
ATOM     28  H   UNL A   1      41.275  22.509  26.891  1.00  0.00     0.163 HD
ATOM     29  O   UNL A   1      42.169  24.668  27.780  1.00  0.00    -0.269 OA
BRANCH  27  30
ATOM     30  C   UNL A   1      40.111  25.597  27.222  1.00  0.00     0.039 A 
ATOM     31  C   UNL A   1      40.523  26.704  26.466  1.00  0.00     0.014 A 
ATOM     32  C   UNL A   1      39.254  25.713  28.310  1.00  0.00     0.014 A 
ATOM     33  C   UNL A   1      40.358  27.970  27.007  1.00  0.00     0.010 A 
ATOM     34  C   UNL A   1      39.140  26.968  28.870  1.00  0.00     0.010 A 
ATOM     35  C   UNL A   1      39.794  28.069  28.277  1.00  0.00    -0.014 A 
BRANCH  35  36
ATOM     36  C   UNL A   1      39.985  29.236  29.132  1.00  0.00     0.031 A 
ATOM     37  C   UNL A   1      38.949  30.284  29.111  1.00  0.00     0.074 A 
ATOM     38  C   UNL A   1      41.027  29.327  29.996  1.00  0.00     0.049 A 
ATOM     39  N   UNL A   1      39.134  31.498  29.495  1.00  0.00    -0.248 NA
ATOM     40  C   UNL A   1      37.611  30.042  28.594  1.00  0.00     0.031 C 
ATOM     41  C   UNL A   1      41.172  30.272  31.103  1.00  0.00     0.029 A 
ATOM     42  N   UNL A   1      42.270  28.677  29.947  1.00  0.00    -0.354 N 
ATOM     43  C   UNL A   1      37.904  32.115  29.543  1.00  0.00     0.074 A 
ATOM     44  C   UNL A   1      37.000  31.182  28.916  1.00  0.00     0.031 C 
ATOM     45  C   UNL A   1      42.469  30.364  31.435  1.00  0.00     0.029 A 
ATOM     46  C   UNL A   1      43.222  29.576  30.478  1.00  0.00     0.049 A 
ATOM     47  H   UNL A   1      42.446  27.770  29.608  1.00  0.00     0.167 HD
ATOM     48  C   UNL A   1      37.785  33.288  30.228  1.00  0.00     0.037 A 
ATOM     49  C   UNL A   1      44.271  30.032  29.734  1.00  0.00     0.037 A 
ATOM     50  C   UNL A   1      39.102  33.764  30.662  1.00  0.00     0.049 A 
ATOM     51  C   UNL A   1      44.236  31.525  29.504  1.00  0.00     0.074 A 
ATOM     52  C   UNL A   1      39.785  33.688  31.866  1.00  0.00     0.029 A 
ATOM     53  N   UNL A   1      40.049  34.121  29.703  1.00  0.00    -0.354 N 
ATOM     54  N   UNL A   1      43.199  32.272  29.764  1.00  0.00    -0.248 NA
ATOM     55  C   UNL A   1      45.347  32.296  28.953  1.00  0.00     0.031 C 
ATOM     56  C   UNL A   1      41.160  33.932  31.611  1.00  0.00     0.029 A 
ATOM     57  C   UNL A   1      41.314  34.183  30.258  1.00  0.00     0.049 A 
ATOM     58  H   UNL A   1      39.844  34.304  28.757  1.00  0.00     0.167 HD
ATOM     59  C   UNL A   1      43.443  33.563  29.373  1.00  0.00     0.074 A 
ATOM     60  C   UNL A   1      44.818  33.533  28.913  1.00  0.00     0.031 C 
ATOM     61  C   UNL A   1      42.476  34.529  29.442  1.00  0.00     0.037 A 
BRANCH  48  62
ATOM     62  C   UNL A   1      36.461  33.819  30.750  1.00  0.00     0.058 A 
ATOM     63  C   UNL A   1      35.460  34.262  29.859  1.00  0.00     0.135 A 
ATOM     64  C   UNL A   1      36.139  33.993  32.112  1.00  0.00     0.135 A 
ATOM     65  F   UNL A   1      35.566  34.072  28.537  1.00  0.00    -0.206 F 
ATOM     66  C   UNL A   1      34.303  34.927  30.278  1.00  0.00     0.059 A 
ATOM     67  C   UNL A   1      35.025  34.714  32.556  1.00  0.00     0.059 A 
ATOM     68  F   UNL A   1      36.847  33.408  33.083  1.00  0.00    -0.206 F 
ATOM     69  C   UNL A   1      34.111  35.183  31.629  1.00  0.00     0.060 A 
BRANCH  69  70
ATOM     70  S   UNL A   1      32.648  36.091  32.155  1.00  0.00     0.124 S 
ATOM     71  O   UNL A   1      33.165  36.902  33.253  1.00  0.00    -0.237 OA
ATOM     72  O   UNL A   1      32.290  36.816  30.941  1.00  0.00    -0.237 OA
ATOM     73  O   UNL A   1      31.717  35.036  32.551  1.00  0.00    -0.744 OA
ENDBRANCH  69  70
ENDBRANCH  48  62
BRANCH  49  74
ATOM     74  C   UNL A   1      44.831  28.998  28.822  1.00  0.00     0.058 A 
ATOM     75  C   UNL A   1      44.359  28.986  27.495  1.00  0.00     0.135 A 
ATOM     76  C   UNL A   1      46.078  28.407  29.069  1.00  0.00     0.135 A 
ATOM     77  F   UNL A   1      43.162  29.522  27.205  1.00  0.00    -0.206 F 
ATOM     78  C   UNL A   1      45.157  28.569  26.434  1.00  0.00     0.059 A 
ATOM     79  C   UNL A   1      46.898  27.984  28.018  1.00  0.00     0.059 A 
ATOM     80  F   UNL A   1      46.574  28.379  30.313  1.00  0.00    -0.206 F 
ATOM     81  C   UNL A   1      46.452  28.133  26.702  1.00  0.00     0.060 A 
BRANCH  81  82
ATOM     82  S   UNL A   1      47.589  27.970  25.300  1.00  0.00     0.124 S 
ATOM     83  O   UNL A   1      46.866  28.667  24.244  1.00  0.00    -0.237 OA
ATOM     84  O   UNL A   1      48.785  28.654  25.796  1.00  0.00    -0.237 OA
ATOM     85  O   UNL A   1      47.713  26.526  25.144  1.00  0.00    -0.744 OA
ENDBRANCH  81  82
ENDBRANCH  49  74
BRANCH  61  86
ATOM     86  C   UNL A   1      42.547  35.913  28.825  1.00  0.00     0.058 A 
ATOM     87  C   UNL A   1      41.940  36.278  27.611  1.00  0.00     0.135 A 
ATOM     88  C   UNL A   1      43.145  36.981  29.544  1.00  0.00     0.135 A 
ATOM     89  F   UNL A   1      41.234  35.399  26.887  1.00  0.00    -0.206 F 
ATOM     90  C   UNL A   1      41.988  37.582  27.110  1.00  0.00     0.059 A 
ATOM     91  C   UNL A   1      43.145  38.298  29.094  1.00  0.00     0.059 A 
ATOM     92  F   UNL A   1      43.744  36.783  30.728  1.00  0.00    -0.206 F 
ATOM     93  C   UNL A   1      42.592  38.586  27.857  1.00  0.00     0.060 A 
BRANCH  93  94
ATOM     94  S   UNL A   1      42.609  40.280  27.244  1.00  0.00     0.124 S 
ATOM     95  O   UNL A   1      43.144  40.999  28.394  1.00  0.00    -0.237 OA
ATOM     96  O   UNL A   1      43.494  40.194  26.085  1.00  0.00    -0.237 OA
ATOM     97  O   UNL A   1      41.206  40.535  26.932  1.00  0.00    -0.744 OA
ENDBRANCH  93  94
ENDBRANCH  61  86
ENDBRANCH  35  36
ENDBRANCH  27  30
ENDBRANCH  25  26
ENDBRANCH  24  25
ENDBRANCH   1  24
TORSDOF 17
ENDMDL
MODEL 3
REMARK VINA RESULT:     -12.7      1.293      2.007
REMARK SMILES Cc1cccc(O[C@@H](C)C(=O)N2CC[C@@H](C(=O)NCCCNC(=O)c3ccc(-c4c5nc(c(-c6c(F)cc(S(=O)(=O)[O-])cc6F)c6ccc([nH]6)c(-c6c(F)cc(S(=O)(=O)[O-])cc6F)c6nc(c(-c7c(F)cc(S(=O)(=O)[O-])cc7F)c7ccc4[nH]7)C=C6)C=C5)cc3)[C@@H]2C)c1
REMARK SMILES IDX 19 1 18 2 16 3 17 4 15 6 12 7 13 8 91 9 14 10 92 11 10 12
REMARK SMILES IDX 11 13 8 14 9 15 7 16 6 17 1 18 2 19 3 20 93 21 4 22 5 23
REMARK SMILES IDX 20 24 21 25 22 26 23 27 24 29 25 30 26 31 90 32 27 33 89 34
REMARK SMILES IDX 28 35 29 36 30 37 83 38 31 39 88 40 82 41 84 42 32 43 87 44
REMARK SMILES IDX 81 45 80 46 33 48 67 49 46 50 66 51 47 52 50 53 65 54 85 55
REMARK SMILES IDX 48 56 49 57 64 59 86 60 51 61 34 62 35 63 44 64 36 65 37 66
REMARK SMILES IDX 43 67 45 68 38 69 39 70 40 71 41 72 42 73 68 74 69 75 78 76
REMARK SMILES IDX 70 77 71 78 77 79 79 80 72 81 73 82 74 83 75 84 76 85 52 86
REMARK SMILES IDX 53 87 62 88 54 89 55 90 61 91 63 92 56 93 57 94 58 95 59 96
REMARK SMILES IDX 60 97
REMARK H PARENT 18 5 22 28 84 47 50 58
REMARK Flexibility Score: inf
ROOT
ATOM      1  C   UNL A   1      32.141  30.595  26.233  1.00  0.00     0.117 C 
ENDROOT
BRANCH   1   2
ATOM      2  N   UNL A   1      32.774  29.914  24.993  1.00  0.00    -0.356 N 
ATOM      3  C   UNL A   1      32.789  28.939  24.040  1.00  0.00     0.225 C 
ATOM      4  O   UNL A   1      33.720  29.191  23.235  1.00  0.00    -0.275 OA
ATOM      5  H   UNL A   1      33.564  30.465  24.790  1.00  0.00     0.163 HD
BRANCH   3   6
ATOM      6  C   UNL A   1      31.951  27.624  23.622  1.00  0.00     0.102 C 
ATOM      7  N   UNL A   1      31.932  25.193  23.888  1.00  0.00    -0.336 N 
ATOM      8  C   UNL A   1      30.777  25.705  24.616  1.00  0.00     0.121 C 
ATOM      9  C   UNL A   1      32.404  26.252  22.973  1.00  0.00     0.094 C 
ATOM     10  C   UNL A   1      30.787  27.232  24.532  1.00  0.00     0.037 C 
ATOM     11  C   UNL A   1      31.724  26.022  21.601  1.00  0.00     0.032 C 
BRANCH   7  12
ATOM     12  C   UNL A   1      32.226  23.843  24.045  1.00  0.00     0.263 C 
ATOM     13  O   UNL A   1      31.655  23.259  24.992  1.00  0.00    -0.271 OA
BRANCH  12  14
ATOM     14  C   UNL A   1      33.269  22.910  23.227  1.00  0.00     0.259 C 
ATOM     15  C   UNL A   1      33.254  21.517  23.947  1.00  0.00     0.064 C 
BRANCH  14  16
ATOM     16  O   UNL A   1      34.542  23.112  22.610  1.00  0.00    -0.481 OA
BRANCH  16  17
ATOM     17  C   UNL A   1      35.565  23.405  23.464  1.00  0.00     0.120 A 
ATOM     18  C   UNL A   1      37.313  20.602  24.674  1.00  0.00     0.044 C 
ATOM     19  C   UNL A   1      36.889  22.054  24.745  1.00  0.00    -0.047 A 
ATOM     20  C   UNL A   1      36.614  22.881  25.860  1.00  0.00     0.003 A 
ATOM     21  C   UNL A   1      36.666  22.596  23.521  1.00  0.00     0.049 A 
ATOM     22  C   UNL A   1      35.916  24.080  25.711  1.00  0.00     0.004 A 
ATOM     23  C   UNL A   1      35.300  24.302  24.494  1.00  0.00     0.046 A 
ENDBRANCH  16  17
ENDBRANCH  14  16
ENDBRANCH  12  14
ENDBRANCH   7  12
ENDBRANCH   3   6
ENDBRANCH   1   2
BRANCH   1  24
ATOM     24  C   UNL A   1      33.119  31.195  27.298  1.00  0.00     0.042 C 
BRANCH  24  25
ATOM     25  C   UNL A   1      34.410  30.469  27.719  1.00  0.00     0.118 C 
BRANCH  25  26
ATOM     26  N   UNL A   1      35.560  31.336  28.074  1.00  0.00    -0.352 N 
ATOM     27  C   UNL A   1      36.818  31.009  28.598  1.00  0.00     0.251 C 
ATOM     28  H   UNL A   1      35.415  32.297  27.915  1.00  0.00     0.163 HD
ATOM     29  O   UNL A   1      37.664  31.818  28.898  1.00  0.00    -0.269 OA
BRANCH  27  30
ATOM     30  C   UNL A   1      37.083  29.568  28.793  1.00  0.00     0.039 A 
ATOM     31  C   UNL A   1      37.417  29.180  30.098  1.00  0.00     0.014 A 
ATOM     32  C   UNL A   1      37.563  28.902  27.671  1.00  0.00     0.014 A 
ATOM     33  C   UNL A   1      38.509  28.344  30.279  1.00  0.00     0.010 A 
ATOM     34  C   UNL A   1      38.681  28.115  27.855  1.00  0.00     0.010 A 
ATOM     35  C   UNL A   1      39.215  27.939  29.149  1.00  0.00    -0.014 A 
BRANCH  35  36
ATOM     36  C   UNL A   1      40.597  27.473  29.211  1.00  0.00     0.031 A 
ATOM     37  C   UNL A   1      40.878  26.089  28.791  1.00  0.00     0.074 A 
ATOM     38  C   UNL A   1      41.617  28.300  29.551  1.00  0.00     0.049 A 
ATOM     39  N   UNL A   1      41.927  25.424  29.128  1.00  0.00    -0.248 NA
ATOM     40  C   UNL A   1      39.945  25.319  27.982  1.00  0.00     0.031 C 
ATOM     41  C   UNL A   1      43.047  28.057  29.364  1.00  0.00     0.029 A 
ATOM     42  N   UNL A   1      41.575  29.486  30.302  1.00  0.00    -0.354 N 
ATOM     43  C   UNL A   1      41.953  24.271  28.376  1.00  0.00     0.074 A 
ATOM     44  C   UNL A   1      40.667  24.228  27.725  1.00  0.00     0.031 C 
ATOM     45  C   UNL A   1      43.740  28.853  30.194  1.00  0.00     0.029 A 
ATOM     46  C   UNL A   1      42.783  29.549  31.032  1.00  0.00     0.049 A 
ATOM     47  H   UNL A   1      40.845  30.146  30.318  1.00  0.00     0.167 HD
ATOM     48  C   UNL A   1      43.116  23.563  28.301  1.00  0.00     0.037 A 
ATOM     49  C   UNL A   1      42.796  29.566  32.397  1.00  0.00     0.037 A 
ATOM     50  C   UNL A   1      44.115  24.120  29.219  1.00  0.00     0.049 A 
ATOM     51  C   UNL A   1      43.476  28.360  33.003  1.00  0.00     0.074 A 
ATOM     52  C   UNL A   1      45.188  24.978  29.040  1.00  0.00     0.029 A 
ATOM     53  N   UNL A   1      43.878  24.078  30.591  1.00  0.00    -0.354 N 
ATOM     54  N   UNL A   1      43.796  27.294  32.323  1.00  0.00    -0.248 NA
ATOM     55  C   UNL A   1      43.838  28.245  34.412  1.00  0.00     0.031 C 
ATOM     56  C   UNL A   1      45.548  25.506  30.308  1.00  0.00     0.029 A 
ATOM     57  C   UNL A   1      44.713  24.952  31.264  1.00  0.00     0.049 A 
ATOM     58  H   UNL A   1      43.204  23.503  31.025  1.00  0.00     0.167 HD
ATOM     59  C   UNL A   1      44.320  26.345  33.162  1.00  0.00     0.074 A 
ATOM     60  C   UNL A   1      44.365  27.007  34.452  1.00  0.00     0.031 C 
ATOM     61  C   UNL A   1      44.642  25.092  32.716  1.00  0.00     0.037 A 
BRANCH  48  62
ATOM     62  C   UNL A   1      43.423  22.580  27.184  1.00  0.00     0.058 A 
ATOM     63  C   UNL A   1      42.705  21.370  27.071  1.00  0.00     0.135 A 
ATOM     64  C   UNL A   1      44.460  22.725  26.240  1.00  0.00     0.135 A 
ATOM     65  F   UNL A   1      41.624  21.125  27.824  1.00  0.00    -0.206 F 
ATOM     66  C   UNL A   1      43.061  20.349  26.185  1.00  0.00     0.059 A 
ATOM     67  C   UNL A   1      44.881  21.696  25.391  1.00  0.00     0.059 A 
ATOM     68  F   UNL A   1      45.070  23.897  26.039  1.00  0.00    -0.206 F 
ATOM     69  C   UNL A   1      44.176  20.505  25.373  1.00  0.00     0.060 A 
BRANCH  69  70
ATOM     70  S   UNL A   1      44.663  19.162  24.276  1.00  0.00     0.124 S 
ATOM     71  O   UNL A   1      43.750  18.094  24.670  1.00  0.00    -0.237 OA
ATOM     72  O   UNL A   1      44.430  19.747  22.961  1.00  0.00    -0.237 OA
ATOM     73  O   UNL A   1      46.065  18.933  24.620  1.00  0.00    -0.744 OA
ENDBRANCH  69  70
ENDBRANCH  48  62
BRANCH  49  74
ATOM     74  C   UNL A   1      41.674  30.349  32.981  1.00  0.00     0.058 A 
ATOM     75  C   UNL A   1      41.797  31.753  32.975  1.00  0.00     0.135 A 
ATOM     76  C   UNL A   1      40.382  29.815  33.071  1.00  0.00     0.135 A 
ATOM     77  F   UNL A   1      43.014  32.318  32.909  1.00  0.00    -0.206 F 
ATOM     78  C   UNL A   1      40.688  32.587  32.884  1.00  0.00     0.059 A 
ATOM     79  C   UNL A   1      39.252  30.635  32.979  1.00  0.00     0.059 A 
ATOM     80  F   UNL A   1      40.203  28.487  33.092  1.00  0.00    -0.206 F 
ATOM     81  C   UNL A   1      39.421  32.013  32.818  1.00  0.00     0.060 A 
BRANCH  81  82
ATOM     82  S   UNL A   1      38.043  33.076  32.312  1.00  0.00     0.124 S 
ATOM     83  O   UNL A   1      37.008  32.098  32.002  1.00  0.00    -0.237 OA
ATOM     84  O   UNL A   1      37.811  33.870  33.519  1.00  0.00    -0.237 OA
ATOM     85  O   UNL A   1      38.591  33.806  31.176  1.00  0.00    -0.744 OA
ENDBRANCH  81  82
ENDBRANCH  49  74
BRANCH  61  86
ATOM     86  C   UNL A   1      44.997  23.897  33.581  1.00  0.00     0.058 A 
ATOM     87  C   UNL A   1      44.118  22.844  33.889  1.00  0.00     0.135 A 
ATOM     88  C   UNL A   1      46.331  23.716  34.029  1.00  0.00     0.135 A 
ATOM     89  F   UNL A   1      42.860  22.823  33.427  1.00  0.00    -0.206 F 
ATOM     90  C   UNL A   1      44.508  21.737  34.647  1.00  0.00     0.059 A 
ATOM     91  C   UNL A   1      46.757  22.589  34.727  1.00  0.00     0.059 A 
ATOM     92  F   UNL A   1      47.283  24.630  33.789  1.00  0.00    -0.206 F 
ATOM     93  C   UNL A   1      45.829  21.616  35.061  1.00  0.00     0.060 A 
BRANCH  93  94
ATOM     94  S   UNL A   1      46.352  20.165  35.990  1.00  0.00     0.124 S 
ATOM     95  O   UNL A   1      47.802  20.231  35.839  1.00  0.00    -0.237 OA
ATOM     96  O   UNL A   1      45.845  20.440  37.332  1.00  0.00    -0.237 OA
ATOM     97  O   UNL A   1      45.691  19.066  35.293  1.00  0.00    -0.744 OA
ENDBRANCH  93  94
ENDBRANCH  61  86
ENDBRANCH  35  36
ENDBRANCH  27  30
ENDBRANCH  25  26
ENDBRANCH  24  25
ENDBRANCH   1  24
TORSDOF 17
ENDMDL
