MODEL 1
REMARK VINA RESULT:     -11.1      0.000      0.000
REMARK SMILES COc1ccc([C@H](CC(=O)NCCCNC(=O)c2ccc(-c3c4nc(c(-c5c(F)cc(S(=O)(=O)[O-])cc5F)c5ccc([nH]5)c(-c5c(F)cc(S(=O)(=O)[O-])cc5F)c5nc(c(-c6c(F)cc(S(=O)(=O)[O-])cc6F)c6ccc3[nH]6)C=C5)C=C4)cc2)NC(C)=O)cc1
REMARK SMILES IDX 13 1 12 2 11 3 9 4 10 5 8 7 7 8 6 9 3 10 4 11 89 12 5 13
REMARK SMILES IDX 88 14 2 15 1 16 84 17 85 18 86 20 87 21 14 22 15 23 16 24
REMARK SMILES IDX 17 26 18 27 19 28 83 29 20 30 82 31 21 32 22 33 23 34 76 35
REMARK SMILES IDX 24 36 81 37 75 38 77 39 25 40 80 41 74 42 73 43 26 45 60 46
REMARK SMILES IDX 39 47 59 48 40 49 43 50 58 51 78 52 41 53 42 54 57 56 79 57
REMARK SMILES IDX 44 58 27 59 28 60 37 61 29 62 30 63 36 64 38 65 31 66 32 67
REMARK SMILES IDX 33 68 34 69 35 70 61 71 62 72 71 73 63 74 64 75 70 76 72 77
REMARK SMILES IDX 65 78 66 79 67 80 68 81 69 82 45 83 46 84 55 85 47 86 48 87
REMARK SMILES IDX 54 88 56 89 49 90 50 91 51 92 52 93 53 94
REMARK H PARENT 11 6 84 19 15 25 77 44 43 55
REMARK Flexibility Score: inf
ROOT
ATOM      1  C   UNL A   1      37.408  23.060  25.914  1.00  0.00     0.042 C 
ENDROOT
BRANCH   1   2
ATOM      2  C   UNL A   1      36.808  23.369  24.546  1.00  0.00     0.117 C 
BRANCH   2   3
ATOM      3  N   UNL A   1      35.411  22.983  24.466  1.00  0.00    -0.356 N 
ATOM      4  C   UNL A   1      34.294  23.660  24.836  1.00  0.00     0.222 C 
ATOM      5  O   UNL A   1      33.208  23.080  24.769  1.00  0.00    -0.275 OA
ATOM      6  H   UNL A   1      35.249  22.090  24.084  1.00  0.00     0.163 HD
BRANCH   4   7
ATOM      7  C   UNL A   1      34.368  25.108  25.254  1.00  0.00     0.129 C 
BRANCH   7   8
ATOM      8  C   UNL A   1      33.162  25.951  24.823  1.00  0.00     0.121 C 
BRANCH   8   9
ATOM      9  C   UNL A   1      33.102  27.326  25.488  1.00  0.00    -0.025 A 
ATOM     10  C   UNL A   1      32.907  29.902  26.651  1.00  0.00     0.118 A 
ATOM     11  C   UNL A   1      33.968  29.058  26.967  1.00  0.00     0.047 A 
ATOM     12  C   UNL A   1      31.945  29.470  25.740  1.00  0.00     0.047 A 
ATOM     13  C   UNL A   1      34.066  27.785  26.397  1.00  0.00     0.010 A 
ATOM     14  C   UNL A   1      32.044  28.196  25.165  1.00  0.00     0.010 A 
BRANCH  10  15
ATOM     15  O   UNL A   1      32.944  31.123  27.267  1.00  0.00    -0.497 OA
ATOM     16  C   UNL A   1      34.155  31.452  27.936  1.00  0.00     0.278 C 
ENDBRANCH  10  15
ENDBRANCH   8   9
BRANCH   8  17
ATOM     17  N   UNL A   1      33.129  26.117  23.374  1.00  0.00    -0.349 N 
ATOM     18  C   UNL A   1      32.102  25.629  22.601  1.00  0.00     0.217 C 
ATOM     19  H   UNL A   1      33.868  26.595  22.935  1.00  0.00     0.164 HD
ATOM     20  C   UNL A   1      32.298  25.809  21.122  1.00  0.00     0.114 C 
ATOM     21  O   UNL A   1      31.122  25.053  23.061  1.00  0.00    -0.275 OA
ENDBRANCH   8  17
ENDBRANCH   7   8
ENDBRANCH   4   7
ENDBRANCH   2   3
ENDBRANCH   1   2
BRANCH   1  22
ATOM     22  C   UNL A   1      38.307  24.156  26.476  1.00  0.00     0.118 C 
BRANCH  22  23
ATOM     23  N   UNL A   1      39.706  23.957  26.133  1.00  0.00    -0.352 N 
ATOM     24  C   UNL A   1      40.807  24.691  26.510  1.00  0.00     0.251 C 
ATOM     25  H   UNL A   1      39.892  23.188  25.548  1.00  0.00     0.163 HD
ATOM     26  O   UNL A   1      41.886  24.481  25.965  1.00  0.00    -0.269 OA
BRANCH  24  27
ATOM     27  C   UNL A   1      40.690  25.736  27.551  1.00  0.00     0.039 A 
ATOM     28  C   UNL A   1      39.684  25.619  28.514  1.00  0.00     0.014 A 
ATOM     29  C   UNL A   1      41.543  26.844  27.564  1.00  0.00     0.014 A 
ATOM     30  C   UNL A   1      39.565  26.583  29.518  1.00  0.00     0.010 A 
ATOM     31  C   UNL A   1      41.464  27.770  28.601  1.00  0.00     0.010 A 
ATOM     32  C   UNL A   1      40.470  27.654  29.585  1.00  0.00    -0.014 A 
BRANCH  32  33
ATOM     33  C   UNL A   1      40.384  28.671  30.665  1.00  0.00     0.031 A 
ATOM     34  C   UNL A   1      41.251  28.546  31.890  1.00  0.00     0.074 A 
ATOM     35  C   UNL A   1      39.485  29.671  30.575  1.00  0.00     0.049 A 
ATOM     36  N   UNL A   1      41.264  29.280  32.972  1.00  0.00    -0.248 NA
ATOM     37  C   UNL A   1      42.214  27.434  31.909  1.00  0.00     0.031 C 
ATOM     38  C   UNL A   1      38.557  29.876  29.460  1.00  0.00     0.029 A 
ATOM     39  N   UNL A   1      39.191  30.693  31.442  1.00  0.00    -0.354 N 
ATOM     40  C   UNL A   1      42.218  28.709  33.807  1.00  0.00     0.074 A 
ATOM     41  C   UNL A   1      42.732  27.543  33.123  1.00  0.00     0.031 C 
ATOM     42  C   UNL A   1      37.810  30.965  29.704  1.00  0.00     0.029 A 
ATOM     43  C   UNL A   1      38.178  31.514  31.006  1.00  0.00     0.049 A 
ATOM     44  H   UNL A   1      39.663  30.827  32.296  1.00  0.00     0.167 HD
ATOM     45  C   UNL A   1      42.639  29.130  35.024  1.00  0.00     0.037 A 
ATOM     46  C   UNL A   1      37.602  32.582  31.592  1.00  0.00     0.037 A 
ATOM     47  C   UNL A   1      42.148  30.309  35.687  1.00  0.00     0.049 A 
ATOM     48  C   UNL A   1      38.097  33.037  32.939  1.00  0.00     0.074 A 
ATOM     49  C   UNL A   1      42.552  30.850  36.895  1.00  0.00     0.029 A 
ATOM     50  N   UNL A   1      41.143  31.131  35.198  1.00  0.00    -0.354 N 
ATOM     51  N   UNL A   1      39.037  32.517  33.690  1.00  0.00    -0.248 NA
ATOM     52  C   UNL A   1      37.457  34.228  33.515  1.00  0.00     0.031 C 
ATOM     53  C   UNL A   1      41.769  31.981  37.152  1.00  0.00     0.029 A 
ATOM     54  C   UNL A   1      40.906  32.167  36.086  1.00  0.00     0.049 A 
ATOM     55  H   UNL A   1      40.669  30.998  34.346  1.00  0.00     0.167 HD
ATOM     56  C   UNL A   1      39.120  33.330  34.815  1.00  0.00     0.074 A 
ATOM     57  C   UNL A   1      38.140  34.383  34.642  1.00  0.00     0.031 C 
ATOM     58  C   UNL A   1      39.934  33.216  35.893  1.00  0.00     0.037 A 
BRANCH  45  59
ATOM     59  C   UNL A   1      43.693  28.308  35.717  1.00  0.00     0.058 A 
ATOM     60  C   UNL A   1      45.062  28.540  35.508  1.00  0.00     0.135 A 
ATOM     61  C   UNL A   1      43.331  27.298  36.622  1.00  0.00     0.135 A 
ATOM     62  F   UNL A   1      45.463  29.484  34.642  1.00  0.00    -0.206 F 
ATOM     63  C   UNL A   1      46.034  27.779  36.147  1.00  0.00     0.059 A 
ATOM     64  C   UNL A   1      44.287  26.541  37.293  1.00  0.00     0.059 A 
ATOM     65  F   UNL A   1      42.037  27.035  36.861  1.00  0.00    -0.206 F 
ATOM     66  C   UNL A   1      45.637  26.778  37.037  1.00  0.00     0.060 A 
BRANCH  66  67
ATOM     67  S   UNL A   1      46.911  25.799  37.859  1.00  0.00     0.124 S 
ATOM     68  O   UNL A   1      47.005  24.643  36.973  1.00  0.00    -0.237 OA
ATOM     69  O   UNL A   1      48.058  26.701  37.847  1.00  0.00    -0.237 OA
ATOM     70  O   UNL A   1      46.339  25.535  39.175  1.00  0.00    -0.744 OA
ENDBRANCH  66  67
ENDBRANCH  45  59
BRANCH  46  71
ATOM     71  C   UNL A   1      36.508  33.310  30.897  1.00  0.00     0.058 A 
ATOM     72  C   UNL A   1      35.182  33.214  31.345  1.00  0.00     0.135 A 
ATOM     73  C   UNL A   1      36.765  34.126  29.786  1.00  0.00     0.135 A 
ATOM     74  F   UNL A   1      34.885  32.440  32.401  1.00  0.00    -0.206 F 
ATOM     75  C   UNL A   1      34.147  33.890  30.708  1.00  0.00     0.059 A 
ATOM     76  C   UNL A   1      35.750  34.831  29.145  1.00  0.00     0.059 A 
ATOM     77  F   UNL A   1      38.020  34.262  29.327  1.00  0.00    -0.206 F 
ATOM     78  C   UNL A   1      34.441  34.697  29.608  1.00  0.00     0.060 A 
BRANCH  78  79
ATOM     79  S   UNL A   1      33.099  35.611  28.818  1.00  0.00     0.124 S 
ATOM     80  O   UNL A   1      33.830  36.655  28.110  1.00  0.00    -0.237 OA
ATOM     81  O   UNL A   1      32.478  34.587  27.984  1.00  0.00    -0.237 OA
ATOM     82  O   UNL A   1      32.290  36.062  29.948  1.00  0.00    -0.744 OA
ENDBRANCH  78  79
ENDBRANCH  46  71
BRANCH  58  83
ATOM     83  C   UNL A   1      39.831  34.275  36.954  1.00  0.00     0.058 A 
ATOM     84  C   UNL A   1      40.512  35.496  36.845  1.00  0.00     0.135 A 
ATOM     85  C   UNL A   1      38.994  34.086  38.066  1.00  0.00     0.135 A 
ATOM     86  F   UNL A   1      41.328  35.724  35.805  1.00  0.00    -0.206 F 
ATOM     87  C   UNL A   1      40.382  36.488  37.812  1.00  0.00     0.059 A 
ATOM     88  C   UNL A   1      38.831  35.072  39.033  1.00  0.00     0.059 A 
ATOM     89  F   UNL A   1      38.313  32.938  38.212  1.00  0.00    -0.206 F 
ATOM     90  C   UNL A   1      39.538  36.267  38.902  1.00  0.00     0.060 A 
BRANCH  90  91
ATOM     91  S   UNL A   1      39.347  37.576  40.131  1.00  0.00     0.124 S 
ATOM     92  O   UNL A   1      38.172  38.282  39.630  1.00  0.00    -0.237 OA
ATOM     93  O   UNL A   1      39.154  36.823  41.367  1.00  0.00    -0.237 OA
ATOM     94  O   UNL A   1      40.606  38.310  40.043  1.00  0.00    -0.744 OA
ENDBRANCH  90  91
ENDBRANCH  58  83
ENDBRANCH  32  33
ENDBRANCH  24  27
ENDBRANCH  22  23
ENDBRANCH   1  22
TORSDOF 17
ENDMDL
MODEL 2
REMARK VINA RESULT:     -11.0      1.277      2.166
REMARK SMILES COc1ccc([C@H](CC(=O)NCCCNC(=O)c2ccc(-c3c4nc(c(-c5c(F)cc(S(=O)(=O)[O-])cc5F)c5ccc([nH]5)c(-c5c(F)cc(S(=O)(=O)[O-])cc5F)c5nc(c(-c6c(F)cc(S(=O)(=O)[O-])cc6F)c6ccc3[nH]6)C=C5)C=C4)cc2)NC(C)=O)cc1
REMARK SMILES IDX 13 1 12 2 11 3 9 4 10 5 8 7 7 8 6 9 3 10 4 11 89 12 5 13
REMARK SMILES IDX 88 14 2 15 1 16 84 17 85 18 86 20 87 21 14 22 15 23 16 24
REMARK SMILES IDX 17 26 18 27 19 28 83 29 20 30 82 31 21 32 22 33 23 34 76 35
REMARK SMILES IDX 24 36 81 37 75 38 77 39 25 40 80 41 74 42 73 43 26 45 60 46
REMARK SMILES IDX 39 47 59 48 40 49 43 50 58 51 78 52 41 53 42 54 57 56 79 57
REMARK SMILES IDX 44 58 27 59 28 60 37 61 29 62 30 63 36 64 38 65 31 66 32 67
REMARK SMILES IDX 33 68 34 69 35 70 61 71 62 72 71 73 63 74 64 75 70 76 72 77
REMARK SMILES IDX 65 78 66 79 67 80 68 81 69 82 45 83 46 84 55 85 47 86 48 87
REMARK SMILES IDX 54 88 56 89 49 90 50 91 51 92 52 93 53 94
REMARK H PARENT 11 6 84 19 15 25 77 44 43 55
REMARK Flexibility Score: inf
ROOT
ATOM      1  C   UNL A   1      37.442  23.247  25.749  1.00  0.00     0.042 C 
ENDROOT
BRANCH   1   2
ATOM      2  C   UNL A   1      35.966  23.629  25.777  1.00  0.00     0.117 C 
BRANCH   2   3
ATOM      3  N   UNL A   1      35.427  23.811  24.442  1.00  0.00    -0.356 N 
ATOM      4  C   UNL A   1      34.513  24.703  23.982  1.00  0.00     0.222 C 
ATOM      5  O   UNL A   1      34.126  24.598  22.816  1.00  0.00    -0.275 OA
ATOM      6  H   UNL A   1      35.779  23.189  23.765  1.00  0.00     0.163 HD
BRANCH   4   7
ATOM      7  C   UNL A   1      34.032  25.839  24.852  1.00  0.00     0.129 C 
BRANCH   7   8
ATOM      8  C   UNL A   1      32.524  25.829  25.125  1.00  0.00     0.121 C 
BRANCH   8   9
ATOM      9  C   UNL A   1      31.725  26.757  24.209  1.00  0.00    -0.025 A 
ATOM     10  C   UNL A   1      30.341  28.539  22.496  1.00  0.00     0.118 A 
ATOM     11  C   UNL A   1      29.649  27.590  23.245  1.00  0.00     0.047 A 
ATOM     12  C   UNL A   1      31.728  28.612  22.610  1.00  0.00     0.047 A 
ATOM     13  C   UNL A   1      30.329  26.708  24.090  1.00  0.00     0.010 A 
ATOM     14  C   UNL A   1      32.411  27.731  23.459  1.00  0.00     0.010 A 
BRANCH  10  15
ATOM     15  O   UNL A   1      29.551  29.347  21.725  1.00  0.00    -0.497 OA
ATOM     16  C   UNL A   1      28.253  29.627  22.235  1.00  0.00     0.278 C 
ENDBRANCH  10  15
ENDBRANCH   8   9
BRANCH   8  17
ATOM     17  N   UNL A   1      31.982  24.479  25.030  1.00  0.00    -0.349 N 
ATOM     18  C   UNL A   1      31.461  23.817  26.117  1.00  0.00     0.217 C 
ATOM     19  H   UNL A   1      31.990  24.025  24.157  1.00  0.00     0.164 HD
ATOM     20  C   UNL A   1      31.048  22.398  25.841  1.00  0.00     0.114 C 
ATOM     21  O   UNL A   1      31.375  24.312  27.235  1.00  0.00    -0.275 OA
ENDBRANCH   8  17
ENDBRANCH   7   8
ENDBRANCH   4   7
ENDBRANCH   2   3
ENDBRANCH   1   2
BRANCH   1  22
ATOM     22  C   UNL A   1      38.361  24.205  26.503  1.00  0.00     0.118 C 
BRANCH  22  23
ATOM     23  N   UNL A   1      39.763  24.003  26.175  1.00  0.00    -0.352 N 
ATOM     24  C   UNL A   1      40.861  24.733  26.565  1.00  0.00     0.251 C 
ATOM     25  H   UNL A   1      39.954  23.233  25.591  1.00  0.00     0.163 HD
ATOM     26  O   UNL A   1      41.946  24.521  26.032  1.00  0.00    -0.269 OA
BRANCH  24  27
ATOM     27  C   UNL A   1      40.735  25.778  27.606  1.00  0.00     0.039 A 
ATOM     28  C   UNL A   1      39.719  25.660  28.559  1.00  0.00     0.014 A 
ATOM     29  C   UNL A   1      41.590  26.884  27.628  1.00  0.00     0.014 A 
ATOM     30  C   UNL A   1      39.592  26.624  29.563  1.00  0.00     0.010 A 
ATOM     31  C   UNL A   1      41.502  27.810  28.666  1.00  0.00     0.010 A 
ATOM     32  C   UNL A   1      40.497  27.694  29.640  1.00  0.00    -0.014 A 
BRANCH  32  33
ATOM     33  C   UNL A   1      40.401  28.710  30.720  1.00  0.00     0.031 A 
ATOM     34  C   UNL A   1      41.274  28.597  31.942  1.00  0.00     0.074 A 
ATOM     35  C   UNL A   1      39.490  29.699  30.632  1.00  0.00     0.049 A 
ATOM     36  N   UNL A   1      41.281  29.331  33.024  1.00  0.00    -0.248 NA
ATOM     37  C   UNL A   1      42.251  27.496  31.958  1.00  0.00     0.031 C 
ATOM     38  C   UNL A   1      38.556  29.892  29.520  1.00  0.00     0.029 A 
ATOM     39  N   UNL A   1      39.186  30.717  31.500  1.00  0.00    -0.354 N 
ATOM     40  C   UNL A   1      42.244  28.772  33.856  1.00  0.00     0.074 A 
ATOM     41  C   UNL A   1      42.771  27.612  33.171  1.00  0.00     0.031 C 
ATOM     42  C   UNL A   1      37.795  30.971  29.766  1.00  0.00     0.029 A 
ATOM     43  C   UNL A   1      38.161  31.525  31.067  1.00  0.00     0.049 A 
ATOM     44  H   UNL A   1      39.658  30.857  32.352  1.00  0.00     0.167 HD
ATOM     45  C   UNL A   1      42.664  29.198  35.071  1.00  0.00     0.037 A 
ATOM     46  C   UNL A   1      37.574  32.586  31.654  1.00  0.00     0.037 A 
ATOM     47  C   UNL A   1      42.160  30.371  35.736  1.00  0.00     0.049 A 
ATOM     48  C   UNL A   1      38.066  33.047  32.999  1.00  0.00     0.074 A 
ATOM     49  C   UNL A   1      42.561  30.918  36.942  1.00  0.00     0.029 A 
ATOM     50  N   UNL A   1      41.143  31.181  35.249  1.00  0.00    -0.354 N 
ATOM     51  N   UNL A   1      39.015  32.539  33.748  1.00  0.00    -0.248 NA
ATOM     52  C   UNL A   1      37.413  34.230  33.577  1.00  0.00     0.031 C 
ATOM     53  C   UNL A   1      41.765  32.039  37.202  1.00  0.00     0.029 A 
ATOM     54  C   UNL A   1      40.896  32.214  36.138  1.00  0.00     0.049 A 
ATOM     55  H   UNL A   1      40.669  31.041  34.399  1.00  0.00     0.167 HD
ATOM     56  C   UNL A   1      39.091  33.353  34.872  1.00  0.00     0.074 A 
ATOM     57  C   UNL A   1      38.098  34.394  34.701  1.00  0.00     0.031 C 
ATOM     58  C   UNL A   1      39.910  33.250  35.948  1.00  0.00     0.037 A 
BRANCH  45  59
ATOM     59  C   UNL A   1      43.730  28.390  35.762  1.00  0.00     0.058 A 
ATOM     60  C   UNL A   1      45.096  28.634  35.542  1.00  0.00     0.135 A 
ATOM     61  C   UNL A   1      43.384  27.382  36.674  1.00  0.00     0.135 A 
ATOM     62  F   UNL A   1      45.482  29.578  34.668  1.00  0.00    -0.206 F 
ATOM     63  C   UNL A   1      46.079  27.885  36.178  1.00  0.00     0.059 A 
ATOM     64  C   UNL A   1      44.352  26.637  37.343  1.00  0.00     0.059 A 
ATOM     65  F   UNL A   1      42.094  27.108  36.923  1.00  0.00    -0.206 F 
ATOM     66  C   UNL A   1      45.698  26.886  37.076  1.00  0.00     0.060 A 
BRANCH  66  67
ATOM     67  S   UNL A   1      46.987  25.923  37.894  1.00  0.00     0.124 S 
ATOM     68  O   UNL A   1      47.741  26.970  38.577  1.00  0.00    -0.237 OA
ATOM     69  O   UNL A   1      46.215  25.033  38.756  1.00  0.00    -0.237 OA
ATOM     70  O   UNL A   1      47.679  25.273  36.787  1.00  0.00    -0.744 OA
ENDBRANCH  66  67
ENDBRANCH  45  59
BRANCH  46  71
ATOM     71  C   UNL A   1      36.468  33.299  30.962  1.00  0.00     0.058 A 
ATOM     72  C   UNL A   1      35.144  33.184  31.413  1.00  0.00     0.135 A 
ATOM     73  C   UNL A   1      36.712  34.121  29.852  1.00  0.00     0.135 A 
ATOM     74  F   UNL A   1      34.860  32.405  32.467  1.00  0.00    -0.206 F 
ATOM     75  C   UNL A   1      34.099  33.847  30.779  1.00  0.00     0.059 A 
ATOM     76  C   UNL A   1      35.686  34.812  29.214  1.00  0.00     0.059 A 
ATOM     77  F   UNL A   1      37.964  34.276  29.391  1.00  0.00    -0.206 F 
ATOM     78  C   UNL A   1      34.380  34.660  29.679  1.00  0.00     0.060 A 
BRANCH  78  79
ATOM     79  S   UNL A   1      33.023  35.557  28.893  1.00  0.00     0.124 S 
ATOM     80  O   UNL A   1      32.378  34.498  28.125  1.00  0.00    -0.237 OA
ATOM     81  O   UNL A   1      32.277  36.057  30.043  1.00  0.00    -0.237 OA
ATOM     82  O   UNL A   1      33.708  36.580  28.108  1.00  0.00    -0.744 OA
ENDBRANCH  78  79
ENDBRANCH  46  71
BRANCH  58  83
ATOM     83  C   UNL A   1      39.797  34.308  37.008  1.00  0.00     0.058 A 
ATOM     84  C   UNL A   1      39.100  34.081  38.205  1.00  0.00     0.135 A 
ATOM     85  C   UNL A   1      40.443  35.545  36.849  1.00  0.00     0.135 A 
ATOM     86  F   UNL A   1      38.461  32.918  38.404  1.00  0.00    -0.206 F 
ATOM     87  C   UNL A   1      39.031  35.051  39.199  1.00  0.00     0.059 A 
ATOM     88  C   UNL A   1      40.407  36.520  37.839  1.00  0.00     0.059 A 
ATOM     89  F   UNL A   1      41.131  35.808  35.727  1.00  0.00    -0.206 F 
ATOM     90  C   UNL A   1      39.689  36.268  39.008  1.00  0.00     0.060 A 
BRANCH  90  91
ATOM     91  S   UNL A   1      39.626  37.505  40.322  1.00  0.00     0.124 S 
ATOM     92  O   UNL A   1      39.071  38.656  39.616  1.00  0.00    -0.237 OA
ATOM     93  O   UNL A   1      38.744  36.878  41.302  1.00  0.00    -0.237 OA
ATOM     94  O   UNL A   1      41.020  37.633  40.735  1.00  0.00    -0.744 OA
ENDBRANCH  90  91
ENDBRANCH  58  83
ENDBRANCH  32  33
ENDBRANCH  24  27
ENDBRANCH  22  23
ENDBRANCH   1  22
TORSDOF 17
ENDMDL
MODEL 3
REMARK VINA RESULT:     -11.0      6.773     12.399
REMARK SMILES COc1ccc([C@H](CC(=O)NCCCNC(=O)c2ccc(-c3c4nc(c(-c5c(F)cc(S(=O)(=O)[O-])cc5F)c5ccc([nH]5)c(-c5c(F)cc(S(=O)(=O)[O-])cc5F)c5nc(c(-c6c(F)cc(S(=O)(=O)[O-])cc6F)c6ccc3[nH]6)C=C5)C=C4)cc2)NC(C)=O)cc1
REMARK SMILES IDX 13 1 12 2 11 3 9 4 10 5 8 7 7 8 6 9 3 10 4 11 89 12 5 13
REMARK SMILES IDX 88 14 2 15 1 16 84 17 85 18 86 20 87 21 14 22 15 23 16 24
REMARK SMILES IDX 17 26 18 27 19 28 83 29 20 30 82 31 21 32 22 33 23 34 76 35
REMARK SMILES IDX 24 36 81 37 75 38 77 39 25 40 80 41 74 42 73 43 26 45 60 46
REMARK SMILES IDX 39 47 59 48 40 49 43 50 58 51 78 52 41 53 42 54 57 56 79 57
REMARK SMILES IDX 44 58 27 59 28 60 37 61 29 62 30 63 36 64 38 65 31 66 32 67
REMARK SMILES IDX 33 68 34 69 35 70 61 71 62 72 71 73 63 74 64 75 70 76 72 77
REMARK SMILES IDX 65 78 66 79 67 80 68 81 69 82 45 83 46 84 55 85 47 86 48 87
REMARK SMILES IDX 54 88 56 89 49 90 50 91 51 92 52 93 53 94
REMARK H PARENT 11 6 84 19 15 25 77 44 43 55
REMARK Flexibility Score: inf
ROOT
ATOM      1  C   UNL A   1      33.773  29.064  27.107  1.00  0.00     0.042 C 
ENDROOT
BRANCH   1   2
ATOM      2  C   UNL A   1      33.691  28.058  25.963  1.00  0.00     0.117 C 
BRANCH   2   3
ATOM      3  N   UNL A   1      32.906  26.891  26.321  1.00  0.00    -0.356 N 
ATOM      4  C   UNL A   1      33.082  25.585  25.994  1.00  0.00     0.222 C 
ATOM      5  O   UNL A   1      32.217  24.775  26.331  1.00  0.00    -0.275 OA
ATOM      6  H   UNL A   1      32.125  27.076  26.890  1.00  0.00     0.163 HD
BRANCH   4   7
ATOM      7  C   UNL A   1      34.337  25.123  25.295  1.00  0.00     0.129 C 
BRANCH   7   8
ATOM      8  C   UNL A   1      34.087  24.335  24.003  1.00  0.00     0.121 C 
BRANCH   8   9
ATOM      9  C   UNL A   1      34.032  22.821  24.206  1.00  0.00    -0.025 A 
ATOM     10  C   UNL A   1      34.041  20.017  24.609  1.00  0.00     0.118 A 
ATOM     11  C   UNL A   1      32.941  20.650  24.032  1.00  0.00     0.047 A 
ATOM     12  C   UNL A   1      35.148  20.780  24.973  1.00  0.00     0.047 A 
ATOM     13  C   UNL A   1      32.933  22.034  23.834  1.00  0.00     0.010 A 
ATOM     14  C   UNL A   1      35.142  22.167  24.772  1.00  0.00     0.010 A 
BRANCH  10  15
ATOM     15  O   UNL A   1      33.922  18.660  24.728  1.00  0.00    -0.497 OA
ATOM     16  C   UNL A   1      32.601  18.156  24.883  1.00  0.00     0.278 C 
ENDBRANCH  10  15
ENDBRANCH   8   9
BRANCH   8  17
ATOM     17  N   UNL A   1      32.861  24.777  23.349  1.00  0.00    -0.349 N 
ATOM     18  C   UNL A   1      32.867  25.658  22.293  1.00  0.00     0.217 C 
ATOM     19  H   UNL A   1      31.999  24.434  23.675  1.00  0.00     0.164 HD
ATOM     20  C   UNL A   1      31.501  26.072  21.821  1.00  0.00     0.114 C 
ATOM     21  O   UNL A   1      33.892  26.111  21.794  1.00  0.00    -0.275 OA
ENDBRANCH   8  17
ENDBRANCH   7   8
ENDBRANCH   4   7
ENDBRANCH   2   3
ENDBRANCH   1   2
BRANCH   1  22
ATOM     22  C   UNL A   1      35.189  29.357  27.595  1.00  0.00     0.118 C 
BRANCH  22  23
ATOM     23  N   UNL A   1      35.204  30.178  28.795  1.00  0.00    -0.352 N 
ATOM     24  C   UNL A   1      36.231  30.406  29.679  1.00  0.00     0.251 C 
ATOM     25  H   UNL A   1      34.358  30.636  29.004  1.00  0.00     0.163 HD
ATOM     26  O   UNL A   1      35.999  30.979  30.739  1.00  0.00    -0.269 OA
BRANCH  24  27
ATOM     27  C   UNL A   1      37.605  29.951  29.366  1.00  0.00     0.039 A 
ATOM     28  C   UNL A   1      38.025  29.944  28.033  1.00  0.00     0.014 A 
ATOM     29  C   UNL A   1      38.466  29.503  30.372  1.00  0.00     0.014 A 
ATOM     30  C   UNL A   1      39.323  29.537  27.715  1.00  0.00     0.010 A 
ATOM     31  C   UNL A   1      39.779  29.157  30.061  1.00  0.00     0.010 A 
ATOM     32  C   UNL A   1      40.220  29.163  28.728  1.00  0.00    -0.014 A 
BRANCH  32  33
ATOM     33  C   UNL A   1      41.615  28.761  28.414  1.00  0.00     0.031 A 
ATOM     34  C   UNL A   1      42.708  29.796  28.374  1.00  0.00     0.074 A 
ATOM     35  C   UNL A   1      41.891  27.478  28.105  1.00  0.00     0.049 A 
ATOM     36  N   UNL A   1      43.965  29.659  28.041  1.00  0.00    -0.248 NA
ATOM     37  C   UNL A   1      42.330  31.172  28.734  1.00  0.00     0.031 C 
ATOM     38  C   UNL A   1      40.912  26.389  28.066  1.00  0.00     0.029 A 
ATOM     39  N   UNL A   1      43.071  26.875  27.749  1.00  0.00    -0.354 N 
ATOM     40  C   UNL A   1      44.523  30.929  28.131  1.00  0.00     0.074 A 
ATOM     41  C   UNL A   1      43.457  31.831  28.509  1.00  0.00     0.031 C 
ATOM     42  C   UNL A   1      41.534  25.250  27.721  1.00  0.00     0.029 A 
ATOM     43  C   UNL A   1      42.946  25.533  27.480  1.00  0.00     0.049 A 
ATOM     44  H   UNL A   1      43.927  27.359  27.692  1.00  0.00     0.167 HD
ATOM     45  C   UNL A   1      45.810  31.306  27.934  1.00  0.00     0.037 A 
ATOM     46  C   UNL A   1      43.863  24.632  27.076  1.00  0.00     0.037 A 
ATOM     47  C   UNL A   1      46.873  30.400  27.589  1.00  0.00     0.049 A 
ATOM     48  C   UNL A   1      45.288  25.072  26.876  1.00  0.00     0.074 A 
ATOM     49  C   UNL A   1      48.220  30.675  27.424  1.00  0.00     0.029 A 
ATOM     50  N   UNL A   1      46.712  29.041  27.356  1.00  0.00    -0.354 N 
ATOM     51  N   UNL A   1      45.809  26.267  27.017  1.00  0.00    -0.248 NA
ATOM     52  C   UNL A   1      46.252  24.041  26.468  1.00  0.00     0.031 C 
ATOM     53  C   UNL A   1      48.867  29.489  27.060  1.00  0.00     0.029 A 
ATOM     54  C   UNL A   1      47.932  28.468  27.037  1.00  0.00     0.049 A 
ATOM     55  H   UNL A   1      45.857  28.557  27.410  1.00  0.00     0.167 HD
ATOM     56  C   UNL A   1      47.164  26.128  26.741  1.00  0.00     0.074 A 
ATOM     57  C   UNL A   1      47.385  24.729  26.433  1.00  0.00     0.031 C 
ATOM     58  C   UNL A   1      48.138  27.071  26.744  1.00  0.00     0.037 A 
BRANCH  45  59
ATOM     59  C   UNL A   1      46.139  32.766  28.094  1.00  0.00     0.058 A 
ATOM     60  C   UNL A   1      46.628  33.281  29.305  1.00  0.00     0.135 A 
ATOM     61  C   UNL A   1      45.993  33.653  27.017  1.00  0.00     0.135 A 
ATOM     62  F   UNL A   1      46.773  32.478  30.372  1.00  0.00    -0.206 F 
ATOM     63  C   UNL A   1      46.930  34.630  29.452  1.00  0.00     0.059 A 
ATOM     64  C   UNL A   1      46.314  35.003  27.133  1.00  0.00     0.059 A 
ATOM     65  F   UNL A   1      45.531  33.214  25.836  1.00  0.00    -0.206 F 
ATOM     66  C   UNL A   1      46.767  35.486  28.360  1.00  0.00     0.060 A 
BRANCH  66  67
ATOM     67  S   UNL A   1      47.163  37.234  28.567  1.00  0.00     0.124 S 
ATOM     68  O   UNL A   1      47.006  37.730  27.203  1.00  0.00    -0.237 OA
ATOM     69  O   UNL A   1      46.152  37.676  29.522  1.00  0.00    -0.237 OA
ATOM     70  O   UNL A   1      48.532  37.214  29.073  1.00  0.00    -0.744 OA
ENDBRANCH  66  67
ENDBRANCH  45  59
BRANCH  46  71
ATOM     71  C   UNL A   1      43.465  23.217  26.854  1.00  0.00     0.058 A 
ATOM     72  C   UNL A   1      43.266  22.347  27.937  1.00  0.00     0.135 A 
ATOM     73  C   UNL A   1      43.259  22.711  25.562  1.00  0.00     0.135 A 
ATOM     74  F   UNL A   1      43.457  22.783  29.191  1.00  0.00    -0.206 F 
ATOM     75  C   UNL A   1      42.892  21.021  27.746  1.00  0.00     0.059 A 
ATOM     76  C   UNL A   1      42.862  21.394  25.347  1.00  0.00     0.059 A 
ATOM     77  F   UNL A   1      43.422  23.507  24.493  1.00  0.00    -0.206 F 
ATOM     78  C   UNL A   1      42.691  20.554  26.446  1.00  0.00     0.060 A 
BRANCH  78  79
ATOM     79  S   UNL A   1      42.156  18.845  26.212  1.00  0.00     0.124 S 
ATOM     80  O   UNL A   1      42.254  18.317  27.568  1.00  0.00    -0.237 OA
ATOM     81  O   UNL A   1      40.803  19.014  25.689  1.00  0.00    -0.237 OA
ATOM     82  O   UNL A   1      43.126  18.317  25.257  1.00  0.00    -0.744 OA
ENDBRANCH  78  79
ENDBRANCH  46  71
BRANCH  58  83
ATOM     83  C   UNL A   1      49.539  26.621  26.442  1.00  0.00     0.058 A 
ATOM     84  C   UNL A   1      50.353  26.036  27.423  1.00  0.00     0.135 A 
ATOM     85  C   UNL A   1      50.052  26.725  25.138  1.00  0.00     0.135 A 
ATOM     86  F   UNL A   1      49.912  25.919  28.685  1.00  0.00    -0.206 F 
ATOM     87  C   UNL A   1      51.636  25.587  27.127  1.00  0.00     0.059 A 
ATOM     88  C   UNL A   1      51.322  26.262  24.815  1.00  0.00     0.059 A 
ATOM     89  F   UNL A   1      49.309  27.269  24.161  1.00  0.00    -0.206 F 
ATOM     90  C   UNL A   1      52.112  25.703  25.819  1.00  0.00     0.060 A 
BRANCH  90  91
ATOM     91  S   UNL A   1      53.764  25.081  25.438  1.00  0.00     0.124 S 
ATOM     92  O   UNL A   1      53.534  23.641  25.398  1.00  0.00    -0.237 OA
ATOM     93  O   UNL A   1      54.050  25.713  24.154  1.00  0.00    -0.237 OA
ATOM     94  O   UNL A   1      54.571  25.557  26.557  1.00  0.00    -0.744 OA
ENDBRANCH  90  91
ENDBRANCH  58  83
ENDBRANCH  32  33
ENDBRANCH  24  27
ENDBRANCH  22  23
ENDBRANCH   1  22
TORSDOF 17
ENDMDL
