MODEL 1
REMARK VINA RESULT:     -11.4      0.000      0.000
REMARK SMILES CCCc1c(C(=O)NCCCNC(=O)c2ccc(-c3c4nc(c(-c5c(F)cc(S(=O)(=O)[O-])cc5F)c5ccc([nH]5)c(-c5c(F)cc(S(=O)(=O)[O-])cc5F)c5nc(c(-c6c(F)cc(S(=O)(=O)[O-])cc6F)c6ccc3[nH]6)C=C5)C=C4)cc2)nnn1[C@@H](C)[C@H](C)O
REMARK SMILES IDX 10 1 9 2 8 3 6 4 7 5 5 7 4 8 83 9 81 10 82 11 3 12 2 13 1 14
REMARK SMILES IDX 84 15 85 16 86 17 87 18 88 19 11 21 12 22 13 23 14 25 15 26
REMARK SMILES IDX 16 27 80 28 17 29 79 30 18 31 19 32 20 33 73 34 21 35 78 36
REMARK SMILES IDX 72 37 74 38 22 39 77 40 71 41 70 42 23 44 57 45 36 46 56 47
REMARK SMILES IDX 37 48 40 49 55 50 75 51 38 52 39 53 54 55 76 56 41 57 24 58
REMARK SMILES IDX 25 59 34 60 26 61 27 62 33 63 35 64 28 65 29 66 30 67 31 68
REMARK SMILES IDX 32 69 58 70 59 71 68 72 60 73 61 74 67 75 69 76 62 77 63 78
REMARK SMILES IDX 64 79 65 80 66 81 42 82 43 83 52 84 44 85 45 86 51 87 53 88
REMARK SMILES IDX 46 89 47 90 48 91 49 92 50 93
REMARK H PARENT 8 6 88 20 12 24 74 43 40 54
REMARK Flexibility Score: inf
ROOT
ATOM      1  C   UNL A   1      33.189  29.127  26.090  1.00  0.00     0.042 C 
ENDROOT
BRANCH   1   2
ATOM      2  C   UNL A   1      32.559  27.792  26.412  1.00  0.00     0.118 C 
BRANCH   2   3
ATOM      3  N   UNL A   1      31.321  27.389  25.821  1.00  0.00    -0.351 N 
ATOM      4  C   UNL A   1      30.794  26.105  25.788  1.00  0.00     0.273 C 
ATOM      5  O   UNL A   1      29.631  26.017  25.386  1.00  0.00    -0.267 OA
ATOM      6  H   UNL A   1      30.787  28.096  25.392  1.00  0.00     0.163 HD
BRANCH   4   7
ATOM      7  C   UNL A   1      31.575  24.889  26.126  1.00  0.00     0.173 A 
ATOM      8  C   UNL A   1      32.715  24.228  25.616  1.00  0.00     0.072 A 
ATOM      9  N   UNL A   1      32.689  23.034  26.307  1.00  0.00    -0.243 N 
ATOM     10  N   UNL A   1      31.122  24.167  27.218  1.00  0.00    -0.125 NA
ATOM     11  N   UNL A   1      31.822  23.060  27.325  1.00  0.00    -0.066 NA
BRANCH   8  12
ATOM     12  C   UNL A   1      33.684  24.540  24.500  1.00  0.00     0.058 C 
BRANCH  12  13
ATOM     13  C   UNL A   1      33.241  25.085  23.143  1.00  0.00     0.003 C 
ATOM     14  C   UNL A   1      33.499  26.572  22.901  1.00  0.00     0.004 C 
ENDBRANCH  12  13
ENDBRANCH   8  12
BRANCH   9  15
ATOM     15  C   UNL A   1      33.531  21.857  26.157  1.00  0.00     0.135 C 
ATOM     16  C   UNL A   1      34.142  21.512  27.514  1.00  0.00     0.036 C 
BRANCH  15  17
ATOM     17  C   UNL A   1      32.821  20.693  25.430  1.00  0.00     0.135 C 
ATOM     18  C   UNL A   1      33.054  20.706  23.921  1.00  0.00     0.040 C 
BRANCH  17  19
ATOM     19  O   UNL A   1      31.402  20.799  25.642  1.00  0.00    -0.391 OA
ATOM     20  H   UNL A   1      31.110  20.091  26.237  1.00  0.00     0.211 HD
ENDBRANCH  17  19
ENDBRANCH  15  17
ENDBRANCH   9  15
ENDBRANCH   4   7
ENDBRANCH   2   3
ENDBRANCH   1   2
BRANCH   1  21
ATOM     21  C   UNL A   1      33.982  29.710  27.225  1.00  0.00     0.118 C 
BRANCH  21  22
ATOM     22  N   UNL A   1      34.305  31.137  27.091  1.00  0.00    -0.352 N 
ATOM     23  C   UNL A   1      35.379  31.806  27.690  1.00  0.00     0.251 C 
ATOM     24  H   UNL A   1      33.709  31.676  26.524  1.00  0.00     0.163 HD
ATOM     25  O   UNL A   1      35.450  33.005  27.728  1.00  0.00    -0.269 OA
BRANCH  23  26
ATOM     26  C   UNL A   1      36.423  30.940  28.281  1.00  0.00     0.039 A 
ATOM     27  C   UNL A   1      36.701  29.665  27.782  1.00  0.00     0.014 A 
ATOM     28  C   UNL A   1      37.269  31.562  29.187  1.00  0.00     0.014 A 
ATOM     29  C   UNL A   1      37.920  29.073  28.117  1.00  0.00     0.010 A 
ATOM     30  C   UNL A   1      38.548  31.098  29.289  1.00  0.00     0.010 A 
ATOM     31  C   UNL A   1      38.859  29.816  28.842  1.00  0.00    -0.014 A 
BRANCH  31  32
ATOM     32  C   UNL A   1      40.212  29.334  29.107  1.00  0.00     0.031 A 
ATOM     33  C   UNL A   1      40.579  29.162  30.546  1.00  0.00     0.074 A 
ATOM     34  C   UNL A   1      40.946  28.781  28.114  1.00  0.00     0.049 A 
ATOM     35  N   UNL A   1      41.503  29.766  31.222  1.00  0.00    -0.248 NA
ATOM     36  C   UNL A   1      39.733  28.284  31.374  1.00  0.00     0.031 C 
ATOM     37  C   UNL A   1      40.546  28.538  26.715  1.00  0.00     0.029 A 
ATOM     38  N   UNL A   1      42.152  28.163  28.173  1.00  0.00    -0.354 N 
ATOM     39  C   UNL A   1      41.507  29.178  32.489  1.00  0.00     0.074 A 
ATOM     40  C   UNL A   1      40.277  28.438  32.583  1.00  0.00     0.031 C 
ATOM     41  C   UNL A   1      41.344  27.599  26.170  1.00  0.00     0.029 A 
ATOM     42  C   UNL A   1      42.432  27.341  27.088  1.00  0.00     0.049 A 
ATOM     43  H   UNL A   1      42.778  28.287  28.923  1.00  0.00     0.167 HD
ATOM     44  C   UNL A   1      42.630  29.145  33.265  1.00  0.00     0.037 A 
ATOM     45  C   UNL A   1      43.472  26.483  26.964  1.00  0.00     0.037 A 
ATOM     46  C   UNL A   1      43.631  30.048  32.756  1.00  0.00     0.049 A 
ATOM     47  C   UNL A   1      44.486  26.897  27.967  1.00  0.00     0.074 A 
ATOM     48  C   UNL A   1      43.692  31.408  32.527  1.00  0.00     0.029 A 
ATOM     49  N   UNL A   1      44.667  29.499  32.038  1.00  0.00    -0.354 N 
ATOM     50  N   UNL A   1      45.113  28.044  27.943  1.00  0.00    -0.248 NA
ATOM     51  C   UNL A   1      44.472  26.224  29.256  1.00  0.00     0.031 C 
ATOM     52  C   UNL A   1      44.433  31.542  31.316  1.00  0.00     0.029 A 
ATOM     53  C   UNL A   1      44.844  30.268  30.917  1.00  0.00     0.049 A 
ATOM     54  H   UNL A   1      45.187  28.699  32.283  1.00  0.00     0.167 HD
ATOM     55  C   UNL A   1      45.208  28.429  29.274  1.00  0.00     0.074 A 
ATOM     56  C   UNL A   1      44.886  27.226  30.037  1.00  0.00     0.031 C 
ATOM     57  C   UNL A   1      45.258  29.747  29.629  1.00  0.00     0.037 A 
BRANCH  44  58
ATOM     58  C   UNL A   1      42.987  28.054  34.258  1.00  0.00     0.058 A 
ATOM     59  C   UNL A   1      43.144  28.387  35.623  1.00  0.00     0.135 A 
ATOM     60  C   UNL A   1      43.453  26.770  33.898  1.00  0.00     0.135 A 
ATOM     61  F   UNL A   1      42.735  29.578  36.089  1.00  0.00    -0.206 F 
ATOM     62  C   UNL A   1      43.794  27.550  36.533  1.00  0.00     0.059 A 
ATOM     63  C   UNL A   1      44.053  25.897  34.801  1.00  0.00     0.059 A 
ATOM     64  F   UNL A   1      43.445  26.332  32.634  1.00  0.00    -0.206 F 
ATOM     65  C   UNL A   1      44.263  26.313  36.105  1.00  0.00     0.060 A 
BRANCH  65  66
ATOM     66  S   UNL A   1      45.208  25.281  37.238  1.00  0.00     0.124 S 
ATOM     67  O   UNL A   1      46.573  25.691  36.934  1.00  0.00    -0.237 OA
ATOM     68  O   UNL A   1      44.688  25.698  38.536  1.00  0.00    -0.237 OA
ATOM     69  O   UNL A   1      44.849  23.924  36.833  1.00  0.00    -0.744 OA
ENDBRANCH  65  66
ENDBRANCH  44  58
BRANCH  45  70
ATOM     70  C   UNL A   1      43.480  25.163  26.283  1.00  0.00     0.058 A 
ATOM     71  C   UNL A   1      44.370  24.894  25.231  1.00  0.00     0.135 A 
ATOM     72  C   UNL A   1      42.798  24.050  26.821  1.00  0.00     0.135 A 
ATOM     73  F   UNL A   1      45.074  25.892  24.674  1.00  0.00    -0.206 F 
ATOM     74  C   UNL A   1      44.605  23.596  24.768  1.00  0.00     0.059 A 
ATOM     75  C   UNL A   1      43.008  22.748  26.369  1.00  0.00     0.059 A 
ATOM     76  F   UNL A   1      41.969  24.190  27.867  1.00  0.00    -0.206 F 
ATOM     77  C   UNL A   1      43.933  22.525  25.357  1.00  0.00     0.060 A 
BRANCH  77  78
ATOM     78  S   UNL A   1      44.365  20.834  24.877  1.00  0.00     0.124 S 
ATOM     79  O   UNL A   1      45.603  20.618  25.617  1.00  0.00    -0.237 OA
ATOM     80  O   UNL A   1      43.206  20.079  25.340  1.00  0.00    -0.237 OA
ATOM     81  O   UNL A   1      44.510  20.920  23.427  1.00  0.00    -0.744 OA
ENDBRANCH  77  78
ENDBRANCH  45  70
BRANCH  57  82
ATOM     82  C   UNL A   1      45.532  30.779  28.566  1.00  0.00     0.058 A 
ATOM     83  C   UNL A   1      44.537  31.472  27.852  1.00  0.00     0.135 A 
ATOM     84  C   UNL A   1      46.851  31.235  28.426  1.00  0.00     0.135 A 
ATOM     85  F   UNL A   1      43.243  31.163  27.997  1.00  0.00    -0.206 F 
ATOM     86  C   UNL A   1      44.842  32.562  27.033  1.00  0.00     0.059 A 
ATOM     87  C   UNL A   1      47.176  32.336  27.639  1.00  0.00     0.059 A 
ATOM     88  F   UNL A   1      47.839  30.652  29.127  1.00  0.00    -0.206 F 
ATOM     89  C   UNL A   1      46.165  32.995  26.943  1.00  0.00     0.060 A 
BRANCH  89  90
ATOM     90  S   UNL A   1      46.543  34.483  25.991  1.00  0.00     0.124 S 
ATOM     91  O   UNL A   1      46.357  35.537  26.983  1.00  0.00    -0.237 OA
ATOM     92  O   UNL A   1      47.921  34.249  25.566  1.00  0.00    -0.237 OA
ATOM     93  O   UNL A   1      45.557  34.458  24.913  1.00  0.00    -0.744 OA
ENDBRANCH  89  90
ENDBRANCH  57  82
ENDBRANCH  31  32
ENDBRANCH  23  26
ENDBRANCH  21  22
ENDBRANCH   1  21
TORSDOF 18
ENDMDL
MODEL 2
REMARK VINA RESULT:     -11.3      2.858      9.164
REMARK SMILES CCCc1c(C(=O)NCCCNC(=O)c2ccc(-c3c4nc(c(-c5c(F)cc(S(=O)(=O)[O-])cc5F)c5ccc([nH]5)c(-c5c(F)cc(S(=O)(=O)[O-])cc5F)c5nc(c(-c6c(F)cc(S(=O)(=O)[O-])cc6F)c6ccc3[nH]6)C=C5)C=C4)cc2)nnn1[C@@H](C)[C@H](C)O
REMARK SMILES IDX 10 1 9 2 8 3 6 4 7 5 5 7 4 8 83 9 81 10 82 11 3 12 2 13 1 14
REMARK SMILES IDX 84 15 85 16 86 17 87 18 88 19 11 21 12 22 13 23 14 25 15 26
REMARK SMILES IDX 16 27 80 28 17 29 79 30 18 31 19 32 20 33 73 34 21 35 78 36
REMARK SMILES IDX 72 37 74 38 22 39 77 40 71 41 70 42 23 44 57 45 36 46 56 47
REMARK SMILES IDX 37 48 40 49 55 50 75 51 38 52 39 53 54 55 76 56 41 57 24 58
REMARK SMILES IDX 25 59 34 60 26 61 27 62 33 63 35 64 28 65 29 66 30 67 31 68
REMARK SMILES IDX 32 69 58 70 59 71 68 72 60 73 61 74 67 75 69 76 62 77 63 78
REMARK SMILES IDX 64 79 65 80 66 81 42 82 43 83 52 84 44 85 45 86 51 87 53 88
REMARK SMILES IDX 46 89 47 90 48 91 49 92 50 93
REMARK H PARENT 8 6 88 20 12 24 74 43 40 54
REMARK Flexibility Score: inf
ROOT
ATOM      1  C   UNL A   1      40.622  20.106  26.934  1.00  0.00     0.042 C 
ENDROOT
BRANCH   1   2
ATOM      2  C   UNL A   1      39.919  20.917  25.872  1.00  0.00     0.118 C 
BRANCH   2   3
ATOM      3  N   UNL A   1      39.605  22.298  26.074  1.00  0.00    -0.351 N 
ATOM      4  C   UNL A   1      38.339  22.864  26.125  1.00  0.00     0.273 C 
ATOM      5  O   UNL A   1      38.296  24.042  26.488  1.00  0.00    -0.267 OA
ATOM      6  H   UNL A   1      40.367  22.911  26.187  1.00  0.00     0.163 HD
BRANCH   4   7
ATOM      7  C   UNL A   1      37.106  22.155  25.701  1.00  0.00     0.173 A 
ATOM      8  C   UNL A   1      35.714  22.396  25.757  1.00  0.00     0.072 A 
ATOM      9  N   UNL A   1      35.195  21.174  25.380  1.00  0.00    -0.243 N 
ATOM     10  N   UNL A   1      37.297  20.933  25.079  1.00  0.00    -0.125 NA
ATOM     11  N   UNL A   1      36.130  20.364  24.873  1.00  0.00    -0.066 NA
BRANCH   8  12
ATOM     12  C   UNL A   1      34.880  23.558  26.244  1.00  0.00     0.058 C 
BRANCH  12  13
ATOM     13  C   UNL A   1      34.647  24.819  25.413  1.00  0.00     0.003 C 
ATOM     14  C   UNL A   1      33.200  25.303  25.323  1.00  0.00     0.004 C 
ENDBRANCH  12  13
ENDBRANCH   8  12
BRANCH   9  15
ATOM     15  C   UNL A   1      33.811  20.725  25.349  1.00  0.00     0.135 C 
ATOM     16  C   UNL A   1      33.098  21.409  24.184  1.00  0.00     0.036 C 
BRANCH  15  17
ATOM     17  C   UNL A   1      33.673  19.187  25.403  1.00  0.00     0.135 C 
ATOM     18  C   UNL A   1      32.931  18.616  24.198  1.00  0.00     0.040 C 
BRANCH  17  19
ATOM     19  O   UNL A   1      32.924  18.821  26.576  1.00  0.00    -0.391 OA
ATOM     20  H   UNL A   1      33.419  19.079  27.369  1.00  0.00     0.211 HD
ENDBRANCH  17  19
ENDBRANCH  15  17
ENDBRANCH   9  15
ENDBRANCH   4   7
ENDBRANCH   2   3
ENDBRANCH   1   2
BRANCH   1  21
ATOM     21  C   UNL A   1      42.068  20.473  27.116  1.00  0.00     0.118 C 
BRANCH  21  22
ATOM     22  N   UNL A   1      42.988  19.891  26.129  1.00  0.00    -0.352 N 
ATOM     23  C   UNL A   1      43.795  20.595  25.228  1.00  0.00     0.251 C 
ATOM     24  H   UNL A   1      43.044  18.909  26.099  1.00  0.00     0.163 HD
ATOM     25  O   UNL A   1      44.343  20.061  24.301  1.00  0.00    -0.269 OA
BRANCH  23  26
ATOM     26  C   UNL A   1      43.928  22.047  25.488  1.00  0.00     0.039 A 
ATOM     27  C   UNL A   1      43.022  22.978  24.977  1.00  0.00     0.014 A 
ATOM     28  C   UNL A   1      44.849  22.393  26.465  1.00  0.00     0.014 A 
ATOM     29  C   UNL A   1      42.975  24.246  25.561  1.00  0.00     0.010 A 
ATOM     30  C   UNL A   1      44.614  23.524  27.191  1.00  0.00     0.010 A 
ATOM     31  C   UNL A   1      43.751  24.499  26.699  1.00  0.00    -0.014 A 
BRANCH  31  32
ATOM     32  C   UNL A   1      43.653  25.741  27.460  1.00  0.00     0.031 A 
ATOM     33  C   UNL A   1      44.668  26.791  27.140  1.00  0.00     0.074 A 
ATOM     34  C   UNL A   1      42.530  26.026  28.160  1.00  0.00     0.049 A 
ATOM     35  N   UNL A   1      45.570  27.305  27.912  1.00  0.00    -0.248 NA
ATOM     36  C   UNL A   1      44.767  27.251  25.744  1.00  0.00     0.031 C 
ATOM     37  C   UNL A   1      41.287  25.236  28.245  1.00  0.00     0.029 A 
ATOM     38  N   UNL A   1      42.187  27.162  28.817  1.00  0.00    -0.354 N 
ATOM     39  C   UNL A   1      46.192  28.312  27.170  1.00  0.00     0.074 A 
ATOM     40  C   UNL A   1      45.806  28.087  25.802  1.00  0.00     0.031 C 
ATOM     41  C   UNL A   1      40.273  26.025  28.649  1.00  0.00     0.029 A 
ATOM     42  C   UNL A   1      40.825  27.297  29.061  1.00  0.00     0.049 A 
ATOM     43  H   UNL A   1      42.849  27.835  29.098  1.00  0.00     0.167 HD
ATOM     44  C   UNL A   1      46.774  29.392  27.767  1.00  0.00     0.037 A 
ATOM     45  C   UNL A   1      40.190  28.393  29.540  1.00  0.00     0.037 A 
ATOM     46  C   UNL A   1      46.938  29.169  29.181  1.00  0.00     0.049 A 
ATOM     47  C   UNL A   1      41.229  29.243  30.174  1.00  0.00     0.074 A 
ATOM     48  C   UNL A   1      47.609  28.240  29.950  1.00  0.00     0.029 A 
ATOM     49  N   UNL A   1      46.032  29.770  30.023  1.00  0.00    -0.354 N 
ATOM     50  N   UNL A   1      41.926  28.888  31.222  1.00  0.00    -0.248 NA
ATOM     51  C   UNL A   1      41.814  30.304  29.370  1.00  0.00     0.031 C 
ATOM     52  C   UNL A   1      46.747  27.990  31.058  1.00  0.00     0.029 A 
ATOM     53  C   UNL A   1      45.638  28.832  30.940  1.00  0.00     0.049 A 
ATOM     54  H   UNL A   1      45.723  30.704  29.975  1.00  0.00     0.167 HD
ATOM     55  C   UNL A   1      43.205  29.373  30.984  1.00  0.00     0.074 A 
ATOM     56  C   UNL A   1      43.050  30.316  29.880  1.00  0.00     0.031 C 
ATOM     57  C   UNL A   1      44.306  28.757  31.507  1.00  0.00     0.037 A 
BRANCH  44  58
ATOM     58  C   UNL A   1      46.867  30.787  27.174  1.00  0.00     0.058 A 
ATOM     59  C   UNL A   1      48.104  31.470  27.207  1.00  0.00     0.135 A 
ATOM     60  C   UNL A   1      45.751  31.584  26.837  1.00  0.00     0.135 A 
ATOM     61  F   UNL A   1      49.238  30.819  27.511  1.00  0.00    -0.206 F 
ATOM     62  C   UNL A   1      48.208  32.849  27.011  1.00  0.00     0.059 A 
ATOM     63  C   UNL A   1      45.841  32.950  26.582  1.00  0.00     0.059 A 
ATOM     64  F   UNL A   1      44.502  31.107  26.835  1.00  0.00    -0.206 F 
ATOM     65  C   UNL A   1      47.065  33.584  26.718  1.00  0.00     0.060 A 
BRANCH  65  66
ATOM     66  S   UNL A   1      47.170  35.376  26.583  1.00  0.00     0.124 S 
ATOM     67  O   UNL A   1      46.164  35.799  27.550  1.00  0.00    -0.237 OA
ATOM     68  O   UNL A   1      48.559  35.628  26.953  1.00  0.00    -0.237 OA
ATOM     69  O   UNL A   1      46.846  35.627  25.182  1.00  0.00    -0.744 OA
ENDBRANCH  65  66
ENDBRANCH  44  58
BRANCH  45  70
ATOM     70  C   UNL A   1      38.833  28.880  29.183  1.00  0.00     0.058 A 
ATOM     71  C   UNL A   1      37.846  29.067  30.164  1.00  0.00     0.135 A 
ATOM     72  C   UNL A   1      38.555  29.425  27.910  1.00  0.00     0.135 A 
ATOM     73  F   UNL A   1      38.038  28.598  31.407  1.00  0.00    -0.206 F 
ATOM     74  C   UNL A   1      36.674  29.787  29.914  1.00  0.00     0.059 A 
ATOM     75  C   UNL A   1      37.389  30.138  27.634  1.00  0.00     0.059 A 
ATOM     76  F   UNL A   1      39.457  29.353  26.918  1.00  0.00    -0.206 F 
ATOM     77  C   UNL A   1      36.463  30.337  28.650  1.00  0.00     0.060 A 
BRANCH  77  78
ATOM     78  S   UNL A   1      35.033  31.411  28.378  1.00  0.00     0.124 S 
ATOM     79  O   UNL A   1      34.720  31.846  29.735  1.00  0.00    -0.237 OA
ATOM     80  O   UNL A   1      35.581  32.434  27.493  1.00  0.00    -0.237 OA
ATOM     81  O   UNL A   1      34.051  30.521  27.764  1.00  0.00    -0.744 OA
ENDBRANCH  77  78
ENDBRANCH  45  70
BRANCH  57  82
ATOM     82  C   UNL A   1      44.120  27.740  32.605  1.00  0.00     0.058 A 
ATOM     83  C   UNL A   1      43.834  28.057  33.944  1.00  0.00     0.135 A 
ATOM     84  C   UNL A   1      44.012  26.392  32.231  1.00  0.00     0.135 A 
ATOM     85  F   UNL A   1      43.824  29.328  34.365  1.00  0.00    -0.206 F 
ATOM     86  C   UNL A   1      43.466  27.078  34.871  1.00  0.00     0.059 A 
ATOM     87  C   UNL A   1      43.619  25.404  33.128  1.00  0.00     0.059 A 
ATOM     88  F   UNL A   1      44.216  26.033  30.952  1.00  0.00    -0.206 F 
ATOM     89  C   UNL A   1      43.348  25.754  34.449  1.00  0.00     0.060 A 
BRANCH  89  90
ATOM     90  S   UNL A   1      42.744  24.508  35.610  1.00  0.00     0.124 S 
ATOM     91  O   UNL A   1      43.025  23.265  34.900  1.00  0.00    -0.237 OA
ATOM     92  O   UNL A   1      43.557  24.758  36.797  1.00  0.00    -0.237 OA
ATOM     93  O   UNL A   1      41.328  24.838  35.756  1.00  0.00    -0.744 OA
ENDBRANCH  89  90
ENDBRANCH  57  82
ENDBRANCH  31  32
ENDBRANCH  23  26
ENDBRANCH  21  22
ENDBRANCH   1  21
TORSDOF 18
ENDMDL
MODEL 3
REMARK VINA RESULT:     -11.2      2.957      9.362
REMARK SMILES CCCc1c(C(=O)NCCCNC(=O)c2ccc(-c3c4nc(c(-c5c(F)cc(S(=O)(=O)[O-])cc5F)c5ccc([nH]5)c(-c5c(F)cc(S(=O)(=O)[O-])cc5F)c5nc(c(-c6c(F)cc(S(=O)(=O)[O-])cc6F)c6ccc3[nH]6)C=C5)C=C4)cc2)nnn1[C@@H](C)[C@H](C)O
REMARK SMILES IDX 10 1 9 2 8 3 6 4 7 5 5 7 4 8 83 9 81 10 82 11 3 12 2 13 1 14
REMARK SMILES IDX 84 15 85 16 86 17 87 18 88 19 11 21 12 22 13 23 14 25 15 26
REMARK SMILES IDX 16 27 80 28 17 29 79 30 18 31 19 32 20 33 73 34 21 35 78 36
REMARK SMILES IDX 72 37 74 38 22 39 77 40 71 41 70 42 23 44 57 45 36 46 56 47
REMARK SMILES IDX 37 48 40 49 55 50 75 51 38 52 39 53 54 55 76 56 41 57 24 58
REMARK SMILES IDX 25 59 34 60 26 61 27 62 33 63 35 64 28 65 29 66 30 67 31 68
REMARK SMILES IDX 32 69 58 70 59 71 68 72 60 73 61 74 67 75 69 76 62 77 63 78
REMARK SMILES IDX 64 79 65 80 66 81 42 82 43 83 52 84 44 85 45 86 51 87 53 88
REMARK SMILES IDX 46 89 47 90 48 91 49 92 50 93
REMARK H PARENT 8 6 88 20 12 24 74 43 40 54
REMARK Flexibility Score: inf
ROOT
ATOM      1  C   UNL A   1      36.357  22.875  25.110  1.00  0.00     0.042 C 
ENDROOT
BRANCH   1   2
ATOM      2  C   UNL A   1      35.511  23.595  26.134  1.00  0.00     0.118 C 
BRANCH   2   3
ATOM      3  N   UNL A   1      34.741  22.877  27.102  1.00  0.00    -0.351 N 
ATOM      4  C   UNL A   1      33.356  22.818  27.184  1.00  0.00     0.273 C 
ATOM      5  O   UNL A   1      32.905  21.996  27.985  1.00  0.00    -0.267 OA
ATOM      6  H   UNL A   1      35.244  22.373  27.781  1.00  0.00     0.163 HD
BRANCH   4   7
ATOM      7  C   UNL A   1      32.451  23.725  26.435  1.00  0.00     0.173 A 
ATOM      8  C   UNL A   1      32.226  24.060  25.080  1.00  0.00     0.072 A 
ATOM      9  N   UNL A   1      31.393  25.154  25.189  1.00  0.00    -0.243 N 
ATOM     10  N   UNL A   1      31.568  24.464  27.205  1.00  0.00    -0.125 NA
ATOM     11  N   UNL A   1      30.921  25.308  26.431  1.00  0.00    -0.066 NA
BRANCH   8  12
ATOM     12  C   UNL A   1      32.805  23.561  23.778  1.00  0.00     0.058 C 
BRANCH  12  13
ATOM     13  C   UNL A   1      33.153  22.094  23.530  1.00  0.00     0.003 C 
ATOM     14  C   UNL A   1      32.179  21.068  24.107  1.00  0.00     0.004 C 
ENDBRANCH  12  13
ENDBRANCH   8  12
BRANCH   9  15
ATOM     15  C   UNL A   1      30.888  26.041  24.152  1.00  0.00     0.135 C 
ATOM     16  C   UNL A   1      29.365  26.100  24.253  1.00  0.00     0.036 C 
BRANCH  15  17
ATOM     17  C   UNL A   1      31.606  27.409  24.122  1.00  0.00     0.135 C 
ATOM     18  C   UNL A   1      31.372  28.173  22.822  1.00  0.00     0.040 C 
BRANCH  17  19
ATOM     19  O   UNL A   1      33.025  27.201  24.244  1.00  0.00    -0.391 OA
ATOM     20  H   UNL A   1      33.199  26.268  24.443  1.00  0.00     0.211 HD
ENDBRANCH  17  19
ENDBRANCH  15  17
ENDBRANCH   9  15
ENDBRANCH   4   7
ENDBRANCH   2   3
ENDBRANCH   1   2
BRANCH   1  21
ATOM     21  C   UNL A   1      37.833  23.095  25.283  1.00  0.00     0.118 C 
BRANCH  21  22
ATOM     22  N   UNL A   1      38.508  22.136  26.169  1.00  0.00    -0.352 N 
ATOM     23  C   UNL A   1      39.618  22.393  26.981  1.00  0.00     0.251 C 
ATOM     24  H   UNL A   1      38.142  21.223  26.195  1.00  0.00     0.163 HD
ATOM     25  O   UNL A   1      40.255  21.514  27.497  1.00  0.00    -0.269 OA
BRANCH  23  26
ATOM     26  C   UNL A   1      39.962  23.822  27.162  1.00  0.00     0.039 A 
ATOM     27  C   UNL A   1      38.988  24.822  27.194  1.00  0.00     0.014 A 
ATOM     28  C   UNL A   1      41.271  24.073  27.544  1.00  0.00     0.014 A 
ATOM     29  C   UNL A   1      39.327  26.060  27.742  1.00  0.00     0.010 A 
ATOM     30  C   UNL A   1      41.511  25.178  28.309  1.00  0.00     0.010 A 
ATOM     31  C   UNL A   1      40.586  26.218  28.336  1.00  0.00    -0.014 A 
BRANCH  31  32
ATOM     32  C   UNL A   1      40.969  27.425  29.063  1.00  0.00     0.031 A 
ATOM     33  C   UNL A   1      42.053  28.248  28.446  1.00  0.00     0.074 A 
ATOM     34  C   UNL A   1      40.171  27.915  30.041  1.00  0.00     0.049 A 
ATOM     35  N   UNL A   1      43.222  28.533  28.923  1.00  0.00    -0.248 NA
ATOM     36  C   UNL A   1      41.857  28.726  27.066  1.00  0.00     0.031 C 
ATOM     37  C   UNL A   1      38.863  27.402  30.488  1.00  0.00     0.029 A 
ATOM     38  N   UNL A   1      40.274  29.074  30.737  1.00  0.00    -0.354 N 
ATOM     39  C   UNL A   1      43.812  29.412  28.011  1.00  0.00     0.074 A 
ATOM     40  C   UNL A   1      43.023  29.322  26.811  1.00  0.00     0.031 C 
ATOM     41  C   UNL A   1      38.192  28.373  31.139  1.00  0.00     0.029 A 
ATOM     42  C   UNL A   1      39.094  29.485  31.348  1.00  0.00     0.049 A 
ATOM     43  H   UNL A   1      41.114  29.583  30.806  1.00  0.00     0.167 HD
ATOM     44  C   UNL A   1      44.753  30.324  28.395  1.00  0.00     0.037 A 
ATOM     45  C   UNL A   1      38.864  30.672  31.958  1.00  0.00     0.037 A 
ATOM     46  C   UNL A   1      45.252  30.021  29.712  1.00  0.00     0.049 A 
ATOM     47  C   UNL A   1      40.194  31.262  32.255  1.00  0.00     0.074 A 
ATOM     48  C   UNL A   1      45.898  28.945  30.287  1.00  0.00     0.029 A 
ATOM     49  N   UNL A   1      44.765  30.770  30.757  1.00  0.00    -0.354 N 
ATOM     50  N   UNL A   1      41.062  30.730  33.075  1.00  0.00    -0.248 NA
ATOM     51  C   UNL A   1      40.744  32.202  31.293  1.00  0.00     0.031 C 
ATOM     52  C   UNL A   1      45.344  28.844  31.597  1.00  0.00     0.029 A 
ATOM     53  C   UNL A   1      44.450  29.903  31.772  1.00  0.00     0.049 A 
ATOM     54  H   UNL A   1      44.659  31.749  30.774  1.00  0.00     0.167 HD
ATOM     55  C   UNL A   1      42.298  30.943  32.478  1.00  0.00     0.074 A 
ATOM     56  C   UNL A   1      42.046  31.936  31.438  1.00  0.00     0.031 C 
ATOM     57  C   UNL A   1      43.344  30.091  32.689  1.00  0.00     0.037 A 
BRANCH  44  58
ATOM     58  C   UNL A   1      44.971  31.687  27.765  1.00  0.00     0.058 A 
ATOM     59  C   UNL A   1      46.192  31.955  27.103  1.00  0.00     0.135 A 
ATOM     60  C   UNL A   1      44.167  32.820  28.020  1.00  0.00     0.135 A 
ATOM     61  F   UNL A   1      47.040  30.959  26.801  1.00  0.00    -0.206 F 
ATOM     62  C   UNL A   1      46.618  33.252  26.804  1.00  0.00     0.059 A 
ATOM     63  C   UNL A   1      44.548  34.116  27.680  1.00  0.00     0.059 A 
ATOM     64  F   UNL A   1      43.020  32.747  28.703  1.00  0.00    -0.206 F 
ATOM     65  C   UNL A   1      45.795  34.328  27.115  1.00  0.00     0.060 A 
BRANCH  65  66
ATOM     66  S   UNL A   1      46.387  36.007  26.845  1.00  0.00     0.124 S 
ATOM     67  O   UNL A   1      47.165  35.846  25.623  1.00  0.00    -0.237 OA
ATOM     68  O   UNL A   1      45.139  36.752  26.716  1.00  0.00    -0.237 OA
ATOM     69  O   UNL A   1      47.156  36.289  28.054  1.00  0.00    -0.744 OA
ENDBRANCH  65  66
ENDBRANCH  44  58
BRANCH  45  70
ATOM     70  C   UNL A   1      37.597  31.447  31.980  1.00  0.00     0.058 A 
ATOM     71  C   UNL A   1      36.996  31.820  33.193  1.00  0.00     0.135 A 
ATOM     72  C   UNL A   1      37.089  32.065  30.817  1.00  0.00     0.135 A 
ATOM     73  F   UNL A   1      37.432  31.295  34.349  1.00  0.00    -0.206 F 
ATOM     74  C   UNL A   1      35.981  32.780  33.257  1.00  0.00     0.059 A 
ATOM     75  C   UNL A   1      36.071  33.017  30.854  1.00  0.00     0.059 A 
ATOM     76  F   UNL A   1      37.632  31.823  29.614  1.00  0.00    -0.206 F 
ATOM     77  C   UNL A   1      35.538  33.389  32.082  1.00  0.00     0.060 A 
BRANCH  77  78
ATOM     78  S   UNL A   1      34.351  34.751  32.183  1.00  0.00     0.124 S 
ATOM     79  O   UNL A   1      35.111  35.760  32.914  1.00  0.00    -0.237 OA
ATOM     80  O   UNL A   1      34.097  35.041  30.776  1.00  0.00    -0.237 OA
ATOM     81  O   UNL A   1      33.226  34.168  32.909  1.00  0.00    -0.744 OA
ENDBRANCH  77  78
ENDBRANCH  45  70
BRANCH  57  82
ATOM     82  C   UNL A   1      43.259  29.098  33.821  1.00  0.00     0.058 A 
ATOM     83  C   UNL A   1      43.513  29.403  35.170  1.00  0.00     0.135 A 
ATOM     84  C   UNL A   1      42.686  27.847  33.546  1.00  0.00     0.135 A 
ATOM     85  F   UNL A   1      43.974  30.607  35.529  1.00  0.00    -0.206 F 
ATOM     86  C   UNL A   1      43.216  28.503  36.197  1.00  0.00     0.059 A 
ATOM     87  C   UNL A   1      42.355  26.946  34.555  1.00  0.00     0.059 A 
ATOM     88  F   UNL A   1      42.366  27.519  32.283  1.00  0.00    -0.206 F 
ATOM     89  C   UNL A   1      42.625  27.281  35.879  1.00  0.00     0.060 A 
BRANCH  89  90
ATOM     90  S   UNL A   1      42.119  26.173  37.214  1.00  0.00     0.124 S 
ATOM     91  O   UNL A   1      42.196  24.865  36.572  1.00  0.00    -0.237 OA
ATOM     92  O   UNL A   1      43.122  26.434  38.243  1.00  0.00    -0.237 OA
ATOM     93  O   UNL A   1      40.771  26.629  37.543  1.00  0.00    -0.744 OA
ENDBRANCH  89  90
ENDBRANCH  57  82
ENDBRANCH  31  32
ENDBRANCH  23  26
ENDBRANCH  21  22
ENDBRANCH   1  21
TORSDOF 18
ENDMDL
