MODEL 1
REMARK VINA RESULT:     -12.4      0.000      0.000
REMARK SMILES O=C(COc1cc(-c2ccccc2)nc(NCc2ccc(Cl)cc2)n1)NCCCNC(=O)c1ccc(-c2c3nc(c(-c4c(F)cc(S(=O)(=O)[O-])cc4F)c4ccc([nH]4)c(-c4c(F)cc(S(=O)(=O)[O-])cc4F)c4nc(c(-c5c(F)cc(S(=O)(=O)[O-])cc5F)c5ccc2[nH]5)C=C4)C=C3)cc1
REMARK SMILES IDX 27 1 26 2 1 3 2 4 3 6 4 7 5 8 6 9 25 10 7 11 15 12 14 13
REMARK SMILES IDX 8 14 9 15 13 16 10 17 12 18 11 19 16 20 17 22 18 23 19 24
REMARK SMILES IDX 24 25 20 26 23 27 21 28 22 29 28 30 29 31 30 32 31 33 32 35
REMARK SMILES IDX 33 36 34 37 98 38 35 39 97 40 36 41 37 42 38 43 91 44 39 45
REMARK SMILES IDX 96 46 90 47 92 48 40 49 95 50 89 51 88 52 41 54 75 55 54 56
REMARK SMILES IDX 74 57 55 58 58 59 73 60 93 61 56 62 57 63 72 65 94 66 59 67
REMARK SMILES IDX 42 68 43 69 52 70 44 71 45 72 51 73 53 74 46 75 47 76 48 77
REMARK SMILES IDX 49 78 50 79 76 80 77 81 86 82 78 83 79 84 85 85 87 86 80 87
REMARK SMILES IDX 81 88 82 89 83 90 84 91 60 92 61 93 70 94 62 95 63 96 69 97
REMARK SMILES IDX 71 98 64 99 65 100 66 101 67 102 68 103
REMARK H PARENT 26 5 16 21 30 34 92 53 58 64
REMARK Flexibility Score: inf
ROOT
ATOM      1  C   UNL A   1      39.800  21.913  26.376  1.00  0.00     0.117 C 
ENDROOT
BRANCH   1   2
ATOM      2  N   UNL A   1      38.614  22.737  26.262  1.00  0.00    -0.353 N 
ATOM      3  O   UNL A   1      37.380  21.258  25.003  1.00  0.00    -0.271 OA
ATOM      4  C   UNL A   1      37.450  22.285  25.669  1.00  0.00     0.258 C 
ATOM      5  H   UNL A   1      38.638  23.653  26.621  1.00  0.00     0.163 HD
BRANCH   4   6
ATOM      6  C   UNL A   1      36.227  23.158  25.969  1.00  0.00     0.331 C 
BRANCH   6   7
ATOM      7  O   UNL A   1      35.966  24.139  24.961  1.00  0.00    -0.467 OA
BRANCH   7   8
ATOM      8  C   UNL A   1      34.622  24.246  24.684  1.00  0.00     0.219 A 
ATOM      9  C   UNL A   1      34.053  25.468  24.443  1.00  0.00     0.097 A 
ATOM     10  N   UNL A   1      33.965  23.087  24.547  1.00  0.00    -0.177 NA
ATOM     11  C   UNL A   1      32.720  25.465  24.116  1.00  0.00     0.080 A 
ATOM     12  C   UNL A   1      32.675  23.171  24.202  1.00  0.00     0.226 A 
ATOM     13  N   UNL A   1      32.018  24.323  24.007  1.00  0.00    -0.213 NA
BRANCH  11  14
ATOM     14  C   UNL A   1      32.002  26.723  23.877  1.00  0.00     0.000 A 
ATOM     15  C   UNL A   1      31.143  26.864  22.775  1.00  0.00     0.010 A 
ATOM     16  C   UNL A   1      32.102  27.799  24.779  1.00  0.00     0.010 A 
ATOM     17  C   UNL A   1      30.390  28.027  22.596  1.00  0.00     0.001 A 
ATOM     18  C   UNL A   1      31.355  28.964  24.599  1.00  0.00     0.001 A 
ATOM     19  C   UNL A   1      30.494  29.075  23.511  1.00  0.00     0.000 A 
ENDBRANCH  11  14
BRANCH  12  20
ATOM     20  N   UNL A   1      31.930  22.051  23.982  1.00  0.00    -0.350 N 
ATOM     21  H   UNL A   1      31.161  21.887  24.575  1.00  0.00     0.164 HD
BRANCH  20  22
ATOM     22  C   UNL A   1      32.193  21.095  22.946  1.00  0.00     0.152 C 
BRANCH  22  23
ATOM     23  C   UNL A   1      32.486  19.732  23.539  1.00  0.00    -0.029 A 
ATOM     24  C   UNL A   1      32.596  19.550  24.928  1.00  0.00     0.007 A 
ATOM     25  C   UNL A   1      32.611  18.613  22.702  1.00  0.00     0.007 A 
ATOM     26  C   UNL A   1      32.851  18.285  25.465  1.00  0.00     0.021 A 
ATOM     27  C   UNL A   1      32.858  17.346  23.238  1.00  0.00     0.021 A 
ATOM     28  C   UNL A   1      32.981  17.189  24.617  1.00  0.00     0.041 A 
ATOM     29  Cl  UNL A   1      33.291  15.630  25.277  1.00  0.00    -0.084 Cl
ENDBRANCH  22  23
ENDBRANCH  20  22
ENDBRANCH  12  20
ENDBRANCH   7   8
ENDBRANCH   6   7
ENDBRANCH   4   6
ENDBRANCH   1   2
BRANCH   1  30
ATOM     30  C   UNL A   1      40.619  22.196  27.624  1.00  0.00     0.042 C 
BRANCH  30  31
ATOM     31  C   UNL A   1      41.891  23.002  27.379  1.00  0.00     0.118 C 
BRANCH  31  32
ATOM     32  N   UNL A   1      41.811  23.875  26.217  1.00  0.00    -0.352 N 
ATOM     33  C   UNL A   1      41.523  25.215  26.132  1.00  0.00     0.251 C 
ATOM     34  H   UNL A   1      41.993  23.436  25.354  1.00  0.00     0.163 HD
ATOM     35  O   UNL A   1      41.395  25.724  25.018  1.00  0.00    -0.269 OA
BRANCH  33  36
ATOM     36  C   UNL A   1      41.338  26.042  27.348  1.00  0.00     0.039 A 
ATOM     37  C   UNL A   1      42.297  27.015  27.645  1.00  0.00     0.014 A 
ATOM     38  C   UNL A   1      40.251  25.858  28.208  1.00  0.00     0.014 A 
ATOM     39  C   UNL A   1      42.133  27.838  28.763  1.00  0.00     0.010 A 
ATOM     40  C   UNL A   1      40.046  26.734  29.275  1.00  0.00     0.010 A 
ATOM     41  C   UNL A   1      40.987  27.731  29.569  1.00  0.00    -0.014 A 
BRANCH  41  42
ATOM     42  C   UNL A   1      40.769  28.662  30.710  1.00  0.00     0.031 A 
ATOM     43  C   UNL A   1      41.598  28.552  31.962  1.00  0.00     0.074 A 
ATOM     44  C   UNL A   1      39.794  29.590  30.630  1.00  0.00     0.049 A 
ATOM     45  N   UNL A   1      41.552  29.280  33.049  1.00  0.00    -0.248 NA
ATOM     46  C   UNL A   1      42.592  27.468  32.013  1.00  0.00     0.031 C 
ATOM     47  C   UNL A   1      38.878  29.759  29.499  1.00  0.00     0.029 A 
ATOM     48  N   UNL A   1      39.410  30.568  31.514  1.00  0.00    -0.354 N 
ATOM     49  C   UNL A   1      42.501  28.742  33.911  1.00  0.00     0.074 A 
ATOM     50  C   UNL A   1      43.066  27.588  33.245  1.00  0.00     0.031 C 
ATOM     51  C   UNL A   1      38.064  30.798  29.742  1.00  0.00     0.029 A 
ATOM     52  C   UNL A   1      38.375  31.350  31.056  1.00  0.00     0.049 A 
ATOM     53  H   UNL A   1      39.834  30.696  32.393  1.00  0.00     0.167 HD
ATOM     54  C   UNL A   1      42.886  29.183  35.133  1.00  0.00     0.037 A 
ATOM     55  C   UNL A   1      37.748  32.397  31.628  1.00  0.00     0.037 A 
ATOM     56  C   UNL A   1      42.337  30.345  35.784  1.00  0.00     0.049 A 
ATOM     57  C   UNL A   1      38.206  32.879  32.978  1.00  0.00     0.074 A 
ATOM     58  C   UNL A   1      42.700  30.905  36.996  1.00  0.00     0.029 A 
ATOM     59  N   UNL A   1      41.304  31.122  35.281  1.00  0.00    -0.354 N 
ATOM     60  N   UNL A   1      39.157  32.400  33.746  1.00  0.00    -0.248 NA
ATOM     61  C   UNL A   1      37.514  34.049  33.534  1.00  0.00     0.031 C 
ATOM     62  C   UNL A   1      41.858  31.994  37.247  1.00  0.00     0.029 A 
ATOM     63  C   UNL A   1      41.005  32.145  36.167  1.00  0.00     0.049 A 
ATOM     64  H   UNL A   1      40.849  30.970  34.421  1.00  0.00     0.167 HD
ATOM     65  C   UNL A   1      39.195  33.228  34.862  1.00  0.00     0.074 A 
ATOM     66  C   UNL A   1      38.185  34.247  34.660  1.00  0.00     0.031 C 
ATOM     67  C   UNL A   1      39.995  33.153  35.955  1.00  0.00     0.037 A 
BRANCH  54  68
ATOM     68  C   UNL A   1      43.965  28.410  35.846  1.00  0.00     0.058 A 
ATOM     69  C   UNL A   1      43.659  27.358  36.726  1.00  0.00     0.135 A 
ATOM     70  C   UNL A   1      45.321  28.695  35.619  1.00  0.00     0.135 A 
ATOM     71  F   UNL A   1      42.380  27.049  36.993  1.00  0.00    -0.206 F 
ATOM     72  C   UNL A   1      44.656  26.639  37.377  1.00  0.00     0.059 A 
ATOM     73  C   UNL A   1      46.336  27.968  36.236  1.00  0.00     0.059 A 
ATOM     74  F   UNL A   1      45.673  29.688  34.787  1.00  0.00    -0.206 F 
ATOM     75  C   UNL A   1      45.992  26.952  37.125  1.00  0.00     0.060 A 
BRANCH  75  76
ATOM     76  S   UNL A   1      47.273  26.006  37.976  1.00  0.00     0.124 S 
ATOM     77  O   UNL A   1      46.818  24.636  37.755  1.00  0.00    -0.237 OA
ATOM     78  O   UNL A   1      48.481  26.396  37.255  1.00  0.00    -0.237 OA
ATOM     79  O   UNL A   1      47.188  26.479  39.354  1.00  0.00    -0.744 OA
ENDBRANCH  75  76
ENDBRANCH  54  68
BRANCH  55  80
ATOM     80  C   UNL A   1      36.643  33.086  30.907  1.00  0.00     0.058 A 
ATOM     81  C   UNL A   1      35.304  32.888  31.278  1.00  0.00     0.135 A 
ATOM     82  C   UNL A   1      36.903  33.961  29.842  1.00  0.00     0.135 A 
ATOM     83  F   UNL A   1      35.004  32.056  32.286  1.00  0.00    -0.206 F 
ATOM     84  C   UNL A   1      34.261  33.517  30.606  1.00  0.00     0.059 A 
ATOM     85  C   UNL A   1      35.878  34.624  29.173  1.00  0.00     0.059 A 
ATOM     86  F   UNL A   1      38.168  34.199  29.460  1.00  0.00    -0.206 F 
ATOM     87  C   UNL A   1      34.558  34.386  29.556  1.00  0.00     0.060 A 
BRANCH  87  88
ATOM     88  S   UNL A   1      33.200  35.234  28.722  1.00  0.00     0.124 S 
ATOM     89  O   UNL A   1      32.567  34.136  28.000  1.00  0.00    -0.237 OA
ATOM     90  O   UNL A   1      32.445  35.782  29.845  1.00  0.00    -0.237 OA
ATOM     91  O   UNL A   1      33.882  36.225  27.894  1.00  0.00    -0.744 OA
ENDBRANCH  87  88
ENDBRANCH  55  80
BRANCH  67  92
ATOM     92  C   UNL A   1      39.833  34.222  37.002  1.00  0.00     0.058 A 
ATOM     93  C   UNL A   1      40.428  35.487  36.868  1.00  0.00     0.135 A 
ATOM     94  C   UNL A   1      39.053  33.984  38.146  1.00  0.00     0.135 A 
ATOM     95  F   UNL A   1      41.185  35.768  35.796  1.00  0.00    -0.206 F 
ATOM     96  C   UNL A   1      40.289  36.463  37.851  1.00  0.00     0.059 A 
ATOM     97  C   UNL A   1      38.877  34.955  39.126  1.00  0.00     0.059 A 
ATOM     98  F   UNL A   1      38.451  32.796  38.319  1.00  0.00    -0.206 F 
ATOM     99  C   UNL A   1      39.515  36.185  38.979  1.00  0.00     0.060 A 
BRANCH  99 100
ATOM    100  S   UNL A   1      39.342  37.459  40.246  1.00  0.00     0.124 S 
ATOM    101  O   UNL A   1      40.704  37.972  40.334  1.00  0.00    -0.237 OA
ATOM    102  O   UNL A   1      38.362  38.362  39.651  1.00  0.00    -0.237 OA
ATOM    103  O   UNL A   1      38.873  36.717  41.413  1.00  0.00    -0.744 OA
ENDBRANCH  99 100
ENDBRANCH  67  92
ENDBRANCH  41  42
ENDBRANCH  33  36
ENDBRANCH  31  32
ENDBRANCH  30  31
ENDBRANCH   1  30
TORSDOF 19
ENDMDL
MODEL 2
REMARK VINA RESULT:     -12.4      3.092      9.273
REMARK SMILES O=C(COc1cc(-c2ccccc2)nc(NCc2ccc(Cl)cc2)n1)NCCCNC(=O)c1ccc(-c2c3nc(c(-c4c(F)cc(S(=O)(=O)[O-])cc4F)c4ccc([nH]4)c(-c4c(F)cc(S(=O)(=O)[O-])cc4F)c4nc(c(-c5c(F)cc(S(=O)(=O)[O-])cc5F)c5ccc2[nH]5)C=C4)C=C3)cc1
REMARK SMILES IDX 27 1 26 2 1 3 2 4 3 6 4 7 5 8 6 9 25 10 7 11 15 12 14 13
REMARK SMILES IDX 8 14 9 15 13 16 10 17 12 18 11 19 16 20 17 22 18 23 19 24
REMARK SMILES IDX 24 25 20 26 23 27 21 28 22 29 28 30 29 31 30 32 31 33 32 35
REMARK SMILES IDX 33 36 34 37 98 38 35 39 97 40 36 41 37 42 38 43 91 44 39 45
REMARK SMILES IDX 96 46 90 47 92 48 40 49 95 50 89 51 88 52 41 54 75 55 54 56
REMARK SMILES IDX 74 57 55 58 58 59 73 60 93 61 56 62 57 63 72 65 94 66 59 67
REMARK SMILES IDX 42 68 43 69 52 70 44 71 45 72 51 73 53 74 46 75 47 76 48 77
REMARK SMILES IDX 49 78 50 79 76 80 77 81 86 82 78 83 79 84 85 85 87 86 80 87
REMARK SMILES IDX 81 88 82 89 83 90 84 91 60 92 61 93 70 94 62 95 63 96 69 97
REMARK SMILES IDX 71 98 64 99 65 100 66 101 67 102 68 103
REMARK H PARENT 26 5 16 21 30 34 92 53 58 64
REMARK Flexibility Score: inf
ROOT
ATOM      1  C   UNL A   1      31.775  27.504  25.384  1.00  0.00     0.117 C 
ENDROOT
BRANCH   1   2
ATOM      2  N   UNL A   1      31.858  26.392  24.459  1.00  0.00    -0.353 N 
ATOM      3  O   UNL A   1      32.413  27.630  22.600  1.00  0.00    -0.271 OA
ATOM      4  C   UNL A   1      32.284  26.543  23.152  1.00  0.00     0.258 C 
ATOM      5  H   UNL A   1      31.603  25.495  24.774  1.00  0.00     0.163 HD
BRANCH   4   6
ATOM      6  C   UNL A   1      32.641  25.221  22.465  1.00  0.00     0.331 C 
BRANCH   6   7
ATOM      7  O   UNL A   1      34.049  24.981  22.387  1.00  0.00    -0.467 OA
BRANCH   7   8
ATOM      8  C   UNL A   1      34.436  23.929  23.185  1.00  0.00     0.219 A 
ATOM      9  C   UNL A   1      35.630  23.961  23.855  1.00  0.00     0.097 A 
ATOM     10  N   UNL A   1      33.524  22.962  23.352  1.00  0.00    -0.177 NA
ATOM     11  C   UNL A   1      35.898  22.892  24.674  1.00  0.00     0.080 A 
ATOM     12  C   UNL A   1      33.853  21.969  24.187  1.00  0.00     0.226 A 
ATOM     13  N   UNL A   1      35.023  21.884  24.835  1.00  0.00    -0.213 NA
BRANCH  11  14
ATOM     14  C   UNL A   1      37.168  22.807  25.407  1.00  0.00     0.000 A 
ATOM     15  C   UNL A   1      37.936  21.632  25.380  1.00  0.00     0.010 A 
ATOM     16  C   UNL A   1      37.682  23.918  26.101  1.00  0.00     0.010 A 
ATOM     17  C   UNL A   1      39.187  21.579  26.002  1.00  0.00     0.001 A 
ATOM     18  C   UNL A   1      38.928  23.865  26.726  1.00  0.00     0.001 A 
ATOM     19  C   UNL A   1      39.683  22.697  26.670  1.00  0.00     0.000 A 
ENDBRANCH  11  14
BRANCH  12  20
ATOM     20  N   UNL A   1      32.975  20.966  24.469  1.00  0.00    -0.350 N 
ATOM     21  H   UNL A   1      32.661  20.878  25.398  1.00  0.00     0.164 HD
BRANCH  20  22
ATOM     22  C   UNL A   1      32.480  20.029  23.502  1.00  0.00     0.152 C 
BRANCH  22  23
ATOM     23  C   UNL A   1      32.670  18.607  23.991  1.00  0.00    -0.029 A 
ATOM     24  C   UNL A   1      33.183  17.608  23.147  1.00  0.00     0.007 A 
ATOM     25  C   UNL A   1      32.371  18.276  25.321  1.00  0.00     0.007 A 
ATOM     26  C   UNL A   1      33.367  16.304  23.614  1.00  0.00     0.021 A 
ATOM     27  C   UNL A   1      32.563  16.974  25.792  1.00  0.00     0.021 A 
ATOM     28  C   UNL A   1      33.056  15.993  24.934  1.00  0.00     0.041 A 
ATOM     29  Cl  UNL A   1      33.287  14.389  25.511  1.00  0.00    -0.084 Cl
ENDBRANCH  22  23
ENDBRANCH  20  22
ENDBRANCH  12  20
ENDBRANCH   7   8
ENDBRANCH   6   7
ENDBRANCH   4   6
ENDBRANCH   1   2
BRANCH   1  30
ATOM     30  C   UNL A   1      32.942  27.575  26.354  1.00  0.00     0.042 C 
BRANCH  30  31
ATOM     31  C   UNL A   1      34.029  28.573  25.967  1.00  0.00     0.118 C 
BRANCH  31  32
ATOM     32  N   UNL A   1      33.757  29.932  26.414  1.00  0.00    -0.352 N 
ATOM     33  C   UNL A   1      34.406  30.706  27.344  1.00  0.00     0.251 C 
ATOM     34  H   UNL A   1      32.986  30.364  25.980  1.00  0.00     0.163 HD
ATOM     35  O   UNL A   1      33.921  31.797  27.648  1.00  0.00    -0.269 OA
BRANCH  33  36
ATOM     36  C   UNL A   1      35.650  30.242  28.001  1.00  0.00     0.039 A 
ATOM     37  C   UNL A   1      36.867  30.444  27.342  1.00  0.00     0.014 A 
ATOM     38  C   UNL A   1      35.635  29.592  29.238  1.00  0.00     0.014 A 
ATOM     39  C   UNL A   1      38.063  30.052  27.950  1.00  0.00     0.010 A 
ATOM     40  C   UNL A   1      36.833  29.278  29.880  1.00  0.00     0.010 A 
ATOM     41  C   UNL A   1      38.062  29.499  29.242  1.00  0.00    -0.014 A 
BRANCH  41  42
ATOM     42  C   UNL A   1      39.339  29.159  29.926  1.00  0.00     0.031 A 
ATOM     43  C   UNL A   1      39.774  29.906  31.160  1.00  0.00     0.074 A 
ATOM     44  C   UNL A   1      40.130  28.195  29.412  1.00  0.00     0.049 A 
ATOM     45  N   UNL A   1      40.850  29.741  31.888  1.00  0.00    -0.248 NA
ATOM     46  C   UNL A   1      38.902  30.997  31.622  1.00  0.00     0.031 C 
ATOM     47  C   UNL A   1      39.856  27.441  28.186  1.00  0.00     0.029 A 
ATOM     48  N   UNL A   1      41.324  27.681  29.854  1.00  0.00    -0.354 N 
ATOM     49  C   UNL A   1      40.786  30.706  32.887  1.00  0.00     0.074 A 
ATOM     50  C   UNL A   1      39.598  31.493  32.636  1.00  0.00     0.031 C 
ATOM     51  C   UNL A   1      40.832  26.540  27.995  1.00  0.00     0.029 A 
ATOM     52  C   UNL A   1      41.818  26.671  29.062  1.00  0.00     0.049 A 
ATOM     53  H   UNL A   1      41.784  28.006  30.661  1.00  0.00     0.167 HD
ATOM     54  C   UNL A   1      41.625  30.903  33.933  1.00  0.00     0.037 A 
ATOM     55  C   UNL A   1      42.937  25.931  29.181  1.00  0.00     0.037 A 
ATOM     56  C   UNL A   1      42.796  30.104  34.192  1.00  0.00     0.049 A 
ATOM     57  C   UNL A   1      43.844  26.156  30.361  1.00  0.00     0.074 A 
ATOM     58  C   UNL A   1      43.677  30.188  35.256  1.00  0.00     0.029 A 
ATOM     59  N   UNL A   1      43.253  29.078  33.378  1.00  0.00    -0.354 N 
ATOM     60  N   UNL A   1      43.728  27.026  31.336  1.00  0.00    -0.248 NA
ATOM     61  C   UNL A   1      45.028  25.292  30.462  1.00  0.00     0.031 C 
ATOM     62  C   UNL A   1      44.691  29.243  35.062  1.00  0.00     0.029 A 
ATOM     63  C   UNL A   1      44.413  28.534  33.906  1.00  0.00     0.049 A 
ATOM     64  H   UNL A   1      42.817  28.780  32.547  1.00  0.00     0.167 HD
ATOM     65  C   UNL A   1      44.807  26.795  32.181  1.00  0.00     0.074 A 
ATOM     66  C   UNL A   1      45.554  25.692  31.611  1.00  0.00     0.031 C 
ATOM     67  C   UNL A   1      45.149  27.436  33.327  1.00  0.00     0.037 A 
BRANCH  54  68
ATOM     68  C   UNL A   1      41.302  32.023  34.886  1.00  0.00     0.058 A 
ATOM     69  C   UNL A   1      41.810  33.320  34.699  1.00  0.00     0.135 A 
ATOM     70  C   UNL A   1      40.443  31.812  35.977  1.00  0.00     0.135 A 
ATOM     71  F   UNL A   1      42.646  33.579  33.682  1.00  0.00    -0.206 F 
ATOM     72  C   UNL A   1      41.504  34.356  35.575  1.00  0.00     0.059 A 
ATOM     73  C   UNL A   1      40.099  32.841  36.849  1.00  0.00     0.059 A 
ATOM     74  F   UNL A   1      39.927  30.593  36.205  1.00  0.00    -0.206 F 
ATOM     75  C   UNL A   1      40.647  34.106  36.648  1.00  0.00     0.060 A 
BRANCH  75  76
ATOM     76  S   UNL A   1      40.257  35.464  37.772  1.00  0.00     0.124 S 
ATOM     77  O   UNL A   1      39.007  35.000  38.368  1.00  0.00    -0.237 OA
ATOM     78  O   UNL A   1      41.415  35.477  38.661  1.00  0.00    -0.237 OA
ATOM     79  O   UNL A   1      40.138  36.617  36.886  1.00  0.00    -0.744 OA
ENDBRANCH  75  76
ENDBRANCH  54  68
BRANCH  55  80
ATOM     80  C   UNL A   1      43.243  24.879  28.174  1.00  0.00     0.058 A 
ATOM     81  C   UNL A   1      43.888  25.197  26.969  1.00  0.00     0.135 A 
ATOM     82  C   UNL A   1      42.909  23.535  28.400  1.00  0.00     0.135 A 
ATOM     83  F   UNL A   1      44.224  26.468  26.704  1.00  0.00    -0.206 F 
ATOM     84  C   UNL A   1      44.171  24.226  26.014  1.00  0.00     0.059 A 
ATOM     85  C   UNL A   1      43.207  22.541  27.473  1.00  0.00     0.059 A 
ATOM     86  F   UNL A   1      42.308  23.175  29.545  1.00  0.00    -0.206 F 
ATOM     87  C   UNL A   1      43.829  22.898  26.277  1.00  0.00     0.060 A 
BRANCH  87  88
ATOM     88  S   UNL A   1      44.244  21.638  25.052  1.00  0.00     0.124 S 
ATOM     89  O   UNL A   1      44.117  22.386  23.806  1.00  0.00    -0.237 OA
ATOM     90  O   UNL A   1      45.601  21.268  25.441  1.00  0.00    -0.237 OA
ATOM     91  O   UNL A   1      43.233  20.608  25.277  1.00  0.00    -0.744 OA
ENDBRANCH  87  88
ENDBRANCH  55  80
BRANCH  67  92
ATOM     92  C   UNL A   1      46.367  26.938  34.058  1.00  0.00     0.058 A 
ATOM     93  C   UNL A   1      47.649  27.445  33.791  1.00  0.00     0.135 A 
ATOM     94  C   UNL A   1      46.246  25.955  35.053  1.00  0.00     0.135 A 
ATOM     95  F   UNL A   1      47.822  28.384  32.848  1.00  0.00    -0.206 F 
ATOM     96  C   UNL A   1      48.773  26.964  34.456  1.00  0.00     0.059 A 
ATOM     97  C   UNL A   1      47.352  25.481  35.751  1.00  0.00     0.059 A 
ATOM     98  F   UNL A   1      45.042  25.445  35.358  1.00  0.00    -0.206 F 
ATOM     99  C   UNL A   1      48.615  25.978  35.432  1.00  0.00     0.060 A 
BRANCH  99 100
ATOM    100  S   UNL A   1      50.080  25.364  36.289  1.00  0.00     0.124 S 
ATOM    101  O   UNL A   1      51.131  25.665  35.324  1.00  0.00    -0.237 OA
ATOM    102  O   UNL A   1      50.089  26.165  37.508  1.00  0.00    -0.237 OA
ATOM    103  O   UNL A   1      49.791  23.945  36.481  1.00  0.00    -0.744 OA
ENDBRANCH  99 100
ENDBRANCH  67  92
ENDBRANCH  41  42
ENDBRANCH  33  36
ENDBRANCH  31  32
ENDBRANCH  30  31
ENDBRANCH   1  30
TORSDOF 19
ENDMDL
MODEL 3
REMARK VINA RESULT:     -12.2      1.724      4.172
REMARK SMILES O=C(COc1cc(-c2ccccc2)nc(NCc2ccc(Cl)cc2)n1)NCCCNC(=O)c1ccc(-c2c3nc(c(-c4c(F)cc(S(=O)(=O)[O-])cc4F)c4ccc([nH]4)c(-c4c(F)cc(S(=O)(=O)[O-])cc4F)c4nc(c(-c5c(F)cc(S(=O)(=O)[O-])cc5F)c5ccc2[nH]5)C=C4)C=C3)cc1
REMARK SMILES IDX 27 1 26 2 1 3 2 4 3 6 4 7 5 8 6 9 25 10 7 11 15 12 14 13
REMARK SMILES IDX 8 14 9 15 13 16 10 17 12 18 11 19 16 20 17 22 18 23 19 24
REMARK SMILES IDX 24 25 20 26 23 27 21 28 22 29 28 30 29 31 30 32 31 33 32 35
REMARK SMILES IDX 33 36 34 37 98 38 35 39 97 40 36 41 37 42 38 43 91 44 39 45
REMARK SMILES IDX 96 46 90 47 92 48 40 49 95 50 89 51 88 52 41 54 75 55 54 56
REMARK SMILES IDX 74 57 55 58 58 59 73 60 93 61 56 62 57 63 72 65 94 66 59 67
REMARK SMILES IDX 42 68 43 69 52 70 44 71 45 72 51 73 53 74 46 75 47 76 48 77
REMARK SMILES IDX 49 78 50 79 76 80 77 81 86 82 78 83 79 84 85 85 87 86 80 87
REMARK SMILES IDX 81 88 82 89 83 90 84 91 60 92 61 93 70 94 62 95 63 96 69 97
REMARK SMILES IDX 71 98 64 99 65 100 66 101 67 102 68 103
REMARK H PARENT 26 5 16 21 30 34 92 53 58 64
REMARK Flexibility Score: inf
ROOT
ATOM      1  C   UNL A   1      40.286  21.731  26.494  1.00  0.00     0.117 C 
ENDROOT
BRANCH   1   2
ATOM      2  N   UNL A   1      38.987  22.361  26.369  1.00  0.00    -0.353 N 
ATOM      3  O   UNL A   1      38.098  20.847  24.881  1.00  0.00    -0.271 OA
ATOM      4  C   UNL A   1      37.954  21.793  25.647  1.00  0.00     0.258 C 
ATOM      5  H   UNL A   1      38.834  23.224  26.816  1.00  0.00     0.163 HD
BRANCH   4   6
ATOM      6  C   UNL A   1      36.585  22.420  25.935  1.00  0.00     0.331 C 
BRANCH   6   7
ATOM      7  O   UNL A   1      35.954  22.969  24.775  1.00  0.00    -0.467 OA
BRANCH   7   8
ATOM      8  C   UNL A   1      34.847  22.243  24.400  1.00  0.00     0.219 A 
ATOM      9  C   UNL A   1      34.771  20.900  24.659  1.00  0.00     0.097 A 
ATOM     10  N   UNL A   1      33.831  22.954  23.895  1.00  0.00    -0.177 NA
ATOM     11  C   UNL A   1      33.600  20.276  24.302  1.00  0.00     0.080 A 
ATOM     12  C   UNL A   1      32.717  22.275  23.596  1.00  0.00     0.226 A 
ATOM     13  N   UNL A   1      32.574  20.952  23.756  1.00  0.00    -0.213 NA
BRANCH  11  14
ATOM     14  C   UNL A   1      33.429  18.831  24.498  1.00  0.00     0.000 A 
ATOM     15  C   UNL A   1      32.759  18.333  25.627  1.00  0.00     0.010 A 
ATOM     16  C   UNL A   1      33.871  17.910  23.531  1.00  0.00     0.010 A 
ATOM     17  C   UNL A   1      32.516  16.964  25.770  1.00  0.00     0.001 A 
ATOM     18  C   UNL A   1      33.634  16.542  23.675  1.00  0.00     0.001 A 
ATOM     19  C   UNL A   1      32.950  16.071  24.792  1.00  0.00     0.000 A 
ENDBRANCH  11  14
BRANCH  12  20
ATOM     20  N   UNL A   1      31.608  22.912  23.130  1.00  0.00    -0.350 N 
ATOM     21  H   UNL A   1      31.422  22.863  22.163  1.00  0.00     0.164 HD
BRANCH  20  22
ATOM     22  C   UNL A   1      30.692  23.651  23.952  1.00  0.00     0.152 C 
BRANCH  22  23
ATOM     23  C   UNL A   1      30.597  25.089  23.484  1.00  0.00    -0.029 A 
ATOM     24  C   UNL A   1      31.468  25.597  22.505  1.00  0.00     0.007 A 
ATOM     25  C   UNL A   1      29.599  25.930  23.999  1.00  0.00     0.007 A 
ATOM     26  C   UNL A   1      31.361  26.921  22.072  1.00  0.00     0.021 A 
ATOM     27  C   UNL A   1      29.486  27.252  23.560  1.00  0.00     0.021 A 
ATOM     28  C   UNL A   1      30.370  27.742  22.602  1.00  0.00     0.041 A 
ATOM     29  Cl  UNL A   1      30.235  29.372  22.065  1.00  0.00    -0.084 Cl
ENDBRANCH  22  23
ENDBRANCH  20  22
ENDBRANCH  12  20
ENDBRANCH   7   8
ENDBRANCH   6   7
ENDBRANCH   4   6
ENDBRANCH   1   2
BRANCH   1  30
ATOM     30  C   UNL A   1      40.930  21.933  27.855  1.00  0.00     0.042 C 
BRANCH  30  31
ATOM     31  C   UNL A   1      42.230  22.730  27.829  1.00  0.00     0.118 C 
BRANCH  31  32
ATOM     32  N   UNL A   1      42.448  23.448  26.581  1.00  0.00    -0.352 N 
ATOM     33  C   UNL A   1      42.331  24.786  26.295  1.00  0.00     0.251 C 
ATOM     34  H   UNL A   1      42.723  22.885  25.822  1.00  0.00     0.163 HD
ATOM     35  O   UNL A   1      42.452  25.154  25.125  1.00  0.00    -0.269 OA
BRANCH  33  36
ATOM     36  C   UNL A   1      42.036  25.778  27.355  1.00  0.00     0.039 A 
ATOM     37  C   UNL A   1      40.868  25.621  28.108  1.00  0.00     0.014 A 
ATOM     38  C   UNL A   1      42.875  26.868  27.602  1.00  0.00     0.014 A 
ATOM     39  C   UNL A   1      40.578  26.517  29.140  1.00  0.00     0.010 A 
ATOM     40  C   UNL A   1      42.628  27.711  28.686  1.00  0.00     0.010 A 
ATOM     41  C   UNL A   1      41.474  27.550  29.465  1.00  0.00    -0.014 A 
BRANCH  41  42
ATOM     42  C   UNL A   1      41.209  28.453  30.618  1.00  0.00     0.031 A 
ATOM     43  C   UNL A   1      42.034  28.360  31.874  1.00  0.00     0.074 A 
ATOM     44  C   UNL A   1      40.196  29.340  30.545  1.00  0.00     0.049 A 
ATOM     45  N   UNL A   1      41.950  29.069  32.972  1.00  0.00    -0.248 NA
ATOM     46  C   UNL A   1      43.073  27.318  31.916  1.00  0.00     0.031 C 
ATOM     47  C   UNL A   1      39.281  29.488  29.411  1.00  0.00     0.029 A 
ATOM     48  N   UNL A   1      39.764  30.288  31.441  1.00  0.00    -0.354 N 
ATOM     49  C   UNL A   1      42.915  28.558  33.832  1.00  0.00     0.074 A 
ATOM     50  C   UNL A   1      43.533  27.440  33.153  1.00  0.00     0.031 C 
ATOM     51  C   UNL A   1      38.422  30.488  29.664  1.00  0.00     0.029 A 
ATOM     52  C   UNL A   1      38.701  31.032  30.988  1.00  0.00     0.049 A 
ATOM     53  H   UNL A   1      40.177  30.420  32.325  1.00  0.00     0.167 HD
ATOM     54  C   UNL A   1      43.274  28.996  35.064  1.00  0.00     0.037 A 
ATOM     55  C   UNL A   1      38.026  32.043  31.571  1.00  0.00     0.037 A 
ATOM     56  C   UNL A   1      42.671  30.123  35.728  1.00  0.00     0.049 A 
ATOM     57  C   UNL A   1      38.454  32.522  32.932  1.00  0.00     0.074 A 
ATOM     58  C   UNL A   1      43.003  30.680  36.951  1.00  0.00     0.029 A 
ATOM     59  N   UNL A   1      41.609  30.863  35.229  1.00  0.00    -0.354 N 
ATOM     60  N   UNL A   1      39.419  32.073  33.699  1.00  0.00    -0.248 NA
ATOM     61  C   UNL A   1      37.709  33.654  33.501  1.00  0.00     0.031 C 
ATOM     62  C   UNL A   1      42.113  31.728  37.212  1.00  0.00     0.029 A 
ATOM     63  C   UNL A   1      41.261  31.859  36.129  1.00  0.00     0.049 A 
ATOM     64  H   UNL A   1      41.167  30.705  34.364  1.00  0.00     0.167 HD
ATOM     65  C   UNL A   1      39.415  32.885  34.827  1.00  0.00     0.074 A 
ATOM     66  C   UNL A   1      38.364  33.862  34.634  1.00  0.00     0.031 C 
ATOM     67  C   UNL A   1      40.211  32.827  35.925  1.00  0.00     0.037 A 
BRANCH  54  68
ATOM     68  C   UNL A   1      44.380  28.259  35.772  1.00  0.00     0.058 A 
ATOM     69  C   UNL A   1      45.731  28.576  35.560  1.00  0.00     0.135 A 
ATOM     70  C   UNL A   1      44.087  27.250  36.704  1.00  0.00     0.135 A 
ATOM     71  F   UNL A   1      46.073  29.522  34.670  1.00  0.00    -0.206 F 
ATOM     72  C   UNL A   1      46.752  27.900  36.221  1.00  0.00     0.059 A 
ATOM     73  C   UNL A   1      45.090  26.581  37.400  1.00  0.00     0.059 A 
ATOM     74  F   UNL A   1      42.812  26.905  36.949  1.00  0.00    -0.206 F 
ATOM     75  C   UNL A   1      46.420  26.903  37.140  1.00  0.00     0.060 A 
BRANCH  75  76
ATOM     76  S   UNL A   1      47.757  26.039  37.993  1.00  0.00     0.124 S 
ATOM     77  O   UNL A   1      47.248  25.993  39.361  1.00  0.00    -0.237 OA
ATOM     78  O   UNL A   1      47.802  24.761  37.290  1.00  0.00    -0.237 OA
ATOM     79  O   UNL A   1      48.912  26.907  37.783  1.00  0.00    -0.744 OA
ENDBRANCH  75  76
ENDBRANCH  54  68
BRANCH  55  80
ATOM     80  C   UNL A   1      36.897  32.695  30.853  1.00  0.00     0.058 A 
ATOM     81  C   UNL A   1      37.130  33.699  29.901  1.00  0.00     0.135 A 
ATOM     82  C   UNL A   1      35.568  32.320  31.095  1.00  0.00     0.135 A 
ATOM     83  F   UNL A   1      38.383  34.096  29.638  1.00  0.00    -0.206 F 
ATOM     84  C   UNL A   1      36.083  34.325  29.230  1.00  0.00     0.059 A 
ATOM     85  C   UNL A   1      34.506  32.911  30.416  1.00  0.00     0.059 A 
ATOM     86  F   UNL A   1      35.292  31.351  31.983  1.00  0.00    -0.206 F 
ATOM     87  C   UNL A   1      34.773  33.921  29.493  1.00  0.00     0.060 A 
BRANCH  87  88
ATOM     88  S   UNL A   1      33.426  34.705  28.582  1.00  0.00     0.124 S 
ATOM     89  O   UNL A   1      32.502  35.043  29.658  1.00  0.00    -0.237 OA
ATOM     90  O   UNL A   1      34.102  35.828  27.941  1.00  0.00    -0.237 OA
ATOM     91  O   UNL A   1      32.979  33.652  27.673  1.00  0.00    -0.744 OA
ENDBRANCH  87  88
ENDBRANCH  55  80
BRANCH  67  92
ATOM     92  C   UNL A   1      39.996  33.872  36.987  1.00  0.00     0.058 A 
ATOM     93  C   UNL A   1      40.589  35.142  36.907  1.00  0.00     0.135 A 
ATOM     94  C   UNL A   1      39.169  33.604  38.090  1.00  0.00     0.135 A 
ATOM     95  F   UNL A   1      41.390  35.451  35.875  1.00  0.00    -0.206 F 
ATOM     96  C   UNL A   1      40.401  36.095  37.903  1.00  0.00     0.059 A 
ATOM     97  C   UNL A   1      38.945  34.552  39.083  1.00  0.00     0.059 A 
ATOM     98  F   UNL A   1      38.567  32.410  38.210  1.00  0.00    -0.206 F 
ATOM     99  C   UNL A   1      39.581  35.789  38.990  1.00  0.00     0.060 A 
BRANCH  99 100
ATOM    100  S   UNL A   1      39.345  37.033  40.276  1.00  0.00     0.124 S 
ATOM    101  O   UNL A   1      38.309  36.415  41.096  1.00  0.00    -0.237 OA
ATOM    102  O   UNL A   1      40.670  37.113  40.883  1.00  0.00    -0.237 OA
ATOM    103  O   UNL A   1      38.932  38.219  39.530  1.00  0.00    -0.744 OA
ENDBRANCH  99 100
ENDBRANCH  67  92
ENDBRANCH  41  42
ENDBRANCH  33  36
ENDBRANCH  31  32
ENDBRANCH  30  31
ENDBRANCH   1  30
TORSDOF 19
ENDMDL
