MODEL 1
REMARK VINA RESULT:     -12.0      0.000      0.000
REMARK SMILES CC[C@@H](C)[C@@H](C(=O)NCCCNC(=O)c1ccc(-c2c3nc(c(-c4c(F)cc(S(=O)(=O)[O-])cc4F)c4ccc([nH]4)c(-c4c(F)cc(S(=O)(=O)[O-])cc4F)c4nc(c(-c5c(F)cc(S(=O)(=O)[O-])cc5F)c5ccc2[nH]5)C=C4)C=C3)cc1)N1C(=O)/C(=C/c2ccc(O)cc2)SC1=S
REMARK SMILES IDX 10 1 9 2 8 3 6 4 7 5 5 7 3 8 4 9 2 10 1 11 81 12 82 13 94 14
REMARK SMILES IDX 83 15 84 16 93 17 95 18 85 19 86 20 87 21 92 22 88 23 91 24
REMARK SMILES IDX 89 25 90 26 11 28 12 29 13 30 14 32 15 33 16 34 80 35 17 36
REMARK SMILES IDX 79 37 18 38 19 39 20 40 73 41 21 42 78 43 72 44 74 45 22 46
REMARK SMILES IDX 77 47 71 48 70 49 23 51 57 52 36 53 56 54 37 55 40 56 55 57
REMARK SMILES IDX 75 58 38 59 39 60 54 62 76 63 41 64 24 65 25 66 34 67 26 68
REMARK SMILES IDX 27 69 33 70 35 71 28 72 29 73 30 74 31 75 32 76 58 77 59 78
REMARK SMILES IDX 68 79 60 80 61 81 67 82 69 83 62 84 63 85 64 86 65 87 66 88
REMARK SMILES IDX 42 89 43 90 52 91 44 92 45 93 51 94 53 95 46 96 47 97 48 98
REMARK SMILES IDX 49 99 50 100
REMARK H PARENT 8 6 90 27 12 31 74 50 40 61
REMARK Flexibility Score: inf
ROOT
ATOM      1  C   UNL A   1      33.425  27.611  26.642  1.00  0.00     0.042 C 
ENDROOT
BRANCH   1   2
ATOM      2  C   UNL A   1      31.900  27.532  26.522  1.00  0.00     0.117 C 
BRANCH   2   3
ATOM      3  N   UNL A   1      31.375  26.241  26.942  1.00  0.00    -0.354 N 
ATOM      4  C   UNL A   1      31.419  24.994  26.395  1.00  0.00     0.243 C 
ATOM      5  O   UNL A   1      30.999  24.093  27.132  1.00  0.00    -0.273 OA
ATOM      6  H   UNL A   1      30.889  26.276  27.798  1.00  0.00     0.163 HD
BRANCH   4   7
ATOM      7  C   UNL A   1      32.027  24.691  24.989  1.00  0.00     0.184 C 
BRANCH   7   8
ATOM      8  C   UNL A   1      31.090  24.686  23.732  1.00  0.00     0.018 C 
ATOM      9  C   UNL A   1      31.914  24.935  22.456  1.00  0.00     0.010 C 
BRANCH   8  10
ATOM     10  C   UNL A   1      29.950  25.695  23.837  1.00  0.00     0.002 C 
ATOM     11  C   UNL A   1      30.247  27.105  23.353  1.00  0.00     0.004 C 
ENDBRANCH   8  10
ENDBRANCH   7   8
BRANCH   7  12
ATOM     12  N   UNL A   1      32.715  23.373  25.143  1.00  0.00    -0.280 N 
ATOM     13  C   UNL A   1      31.966  22.205  25.038  1.00  0.00     0.266 C 
ATOM     14  C   UNL A   1      34.042  23.210  25.474  1.00  0.00     0.149 C 
ATOM     15  O   UNL A   1      30.770  22.108  24.826  1.00  0.00    -0.268 OA
ATOM     16  C   UNL A   1      32.839  21.015  25.185  1.00  0.00     0.081 C 
ATOM     17  S   UNL A   1      34.444  21.494  25.537  1.00  0.00    -0.054 SA
ATOM     18  S   UNL A   1      35.192  24.386  25.760  1.00  0.00    -0.052 S 
ATOM     19  C   UNL A   1      32.343  19.786  24.986  1.00  0.00     0.029 C 
BRANCH  19  20
ATOM     20  C   UNL A   1      33.084  18.526  25.034  1.00  0.00    -0.024 A 
ATOM     21  C   UNL A   1      34.275  18.409  24.307  1.00  0.00     0.012 A 
ATOM     22  C   UNL A   1      32.604  17.426  25.753  1.00  0.00     0.012 A 
ATOM     23  C   UNL A   1      34.996  17.215  24.328  1.00  0.00     0.047 A 
ATOM     24  C   UNL A   1      33.327  16.232  25.777  1.00  0.00     0.047 A 
ATOM     25  C   UNL A   1      34.521  16.139  25.069  1.00  0.00     0.115 A 
BRANCH  25  26
ATOM     26  O   UNL A   1      35.261  14.995  25.076  1.00  0.00    -0.508 OA
ATOM     27  H   UNL A   1      34.882  14.193  25.381  1.00  0.00     0.293 HD
ENDBRANCH  25  26
ENDBRANCH  19  20
ENDBRANCH   7  12
ENDBRANCH   4   7
ENDBRANCH   2   3
ENDBRANCH   1   2
BRANCH   1  28
ATOM     28  C   UNL A   1      34.069  28.686  25.779  1.00  0.00     0.118 C 
BRANCH  28  29
ATOM     29  N   UNL A   1      33.755  30.018  26.257  1.00  0.00    -0.352 N 
ATOM     30  C   UNL A   1      34.297  30.724  27.306  1.00  0.00     0.251 C 
ATOM     31  H   UNL A   1      33.047  30.486  25.758  1.00  0.00     0.163 HD
ATOM     32  O   UNL A   1      33.703  31.717  27.719  1.00  0.00    -0.269 OA
BRANCH  30  33
ATOM     33  C   UNL A   1      35.568  30.300  27.949  1.00  0.00     0.039 A 
ATOM     34  C   UNL A   1      35.516  29.698  29.210  1.00  0.00     0.014 A 
ATOM     35  C   UNL A   1      36.811  30.549  27.361  1.00  0.00     0.014 A 
ATOM     36  C   UNL A   1      36.697  29.323  29.860  1.00  0.00     0.010 A 
ATOM     37  C   UNL A   1      37.981  30.082  27.962  1.00  0.00     0.010 A 
ATOM     38  C   UNL A   1      37.943  29.494  29.234  1.00  0.00    -0.014 A 
BRANCH  38  39
ATOM     39  C   UNL A   1      39.214  29.129  29.917  1.00  0.00     0.031 A 
ATOM     40  C   UNL A   1      39.647  29.882  31.152  1.00  0.00     0.074 A 
ATOM     41  C   UNL A   1      40.001  28.156  29.414  1.00  0.00     0.049 A 
ATOM     42  N   UNL A   1      40.746  29.762  31.853  1.00  0.00    -0.248 NA
ATOM     43  C   UNL A   1      38.737  30.929  31.647  1.00  0.00     0.031 C 
ATOM     44  C   UNL A   1      39.718  27.380  28.205  1.00  0.00     0.029 A 
ATOM     45  N   UNL A   1      41.202  27.657  29.853  1.00  0.00    -0.354 N 
ATOM     46  C   UNL A   1      40.667  30.728  32.853  1.00  0.00     0.074 A 
ATOM     47  C   UNL A   1      39.443  31.464  32.632  1.00  0.00     0.031 C 
ATOM     48  C   UNL A   1      40.704  26.489  28.013  1.00  0.00     0.029 A 
ATOM     49  C   UNL A   1      41.709  26.653  29.060  1.00  0.00     0.049 A 
ATOM     50  H   UNL A   1      41.659  27.987  30.660  1.00  0.00     0.167 HD
ATOM     51  C   UNL A   1      41.520  30.962  33.878  1.00  0.00     0.037 A 
ATOM     52  C   UNL A   1      42.853  25.949  29.161  1.00  0.00     0.037 A 
ATOM     53  C   UNL A   1      42.719  30.201  34.116  1.00  0.00     0.049 A 
ATOM     54  C   UNL A   1      43.785  26.223  30.312  1.00  0.00     0.074 A 
ATOM     55  C   UNL A   1      43.621  30.322  35.159  1.00  0.00     0.029 A 
ATOM     56  N   UNL A   1      43.181  29.176  33.304  1.00  0.00    -0.354 N 
ATOM     57  N   UNL A   1      43.664  27.103  31.279  1.00  0.00    -0.248 NA
ATOM     58  C   UNL A   1      45.001  25.404  30.393  1.00  0.00     0.031 C 
ATOM     59  C   UNL A   1      44.653  29.401  34.952  1.00  0.00     0.029 A 
ATOM     60  C   UNL A   1      44.365  28.668  33.811  1.00  0.00     0.049 A 
ATOM     61  H   UNL A   1      42.734  28.858  32.486  1.00  0.00     0.167 HD
ATOM     62  C   UNL A   1      44.771  26.919  32.101  1.00  0.00     0.074 A 
ATOM     63  C   UNL A   1      45.545  25.839  31.522  1.00  0.00     0.031 C 
ATOM     64  C   UNL A   1      45.116  27.581  33.232  1.00  0.00     0.037 A 
BRANCH  51  65
ATOM     65  C   UNL A   1      41.185  32.082  34.828  1.00  0.00     0.058 A 
ATOM     66  C   UNL A   1      40.364  31.880  35.949  1.00  0.00     0.135 A 
ATOM     67  C   UNL A   1      41.719  33.367  34.634  1.00  0.00     0.135 A 
ATOM     68  F   UNL A   1      39.812  30.677  36.176  1.00  0.00    -0.206 F 
ATOM     69  C   UNL A   1      40.058  32.917  36.826  1.00  0.00     0.059 A 
ATOM     70  C   UNL A   1      41.453  34.411  35.517  1.00  0.00     0.059 A 
ATOM     71  F   UNL A   1      42.511  33.618  33.581  1.00  0.00    -0.206 F 
ATOM     72  C   UNL A   1      40.609  34.179  36.601  1.00  0.00     0.060 A 
BRANCH  72  73
ATOM     73  S   UNL A   1      40.208  35.510  37.752  1.00  0.00     0.124 S 
ATOM     74  O   UNL A   1      39.022  34.975  38.414  1.00  0.00    -0.237 OA
ATOM     75  O   UNL A   1      41.412  35.585  38.574  1.00  0.00    -0.237 OA
ATOM     76  O   UNL A   1      39.977  36.658  36.880  1.00  0.00    -0.744 OA
ENDBRANCH  72  73
ENDBRANCH  51  65
BRANCH  52  77
ATOM     77  C   UNL A   1      43.174  24.899  28.155  1.00  0.00     0.058 A 
ATOM     78  C   UNL A   1      42.863  23.552  28.390  1.00  0.00     0.135 A 
ATOM     79  C   UNL A   1      43.789  25.222  26.934  1.00  0.00     0.135 A 
ATOM     80  F   UNL A   1      42.279  23.191  29.545  1.00  0.00    -0.206 F 
ATOM     81  C   UNL A   1      43.167  22.559  27.466  1.00  0.00     0.059 A 
ATOM     82  C   UNL A   1      44.078  24.250  25.981  1.00  0.00     0.059 A 
ATOM     83  F   UNL A   1      44.093  26.498  26.650  1.00  0.00    -0.206 F 
ATOM     84  C   UNL A   1      43.774  22.919  26.261  1.00  0.00     0.060 A 
BRANCH  84  85
ATOM     85  S   UNL A   1      44.123  21.628  25.047  1.00  0.00     0.124 S 
ATOM     86  O   UNL A   1      45.491  21.260  25.395  1.00  0.00    -0.237 OA
ATOM     87  O   UNL A   1      43.097  20.636  25.350  1.00  0.00    -0.237 OA
ATOM     88  O   UNL A   1      43.960  22.317  23.770  1.00  0.00    -0.744 OA
ENDBRANCH  84  85
ENDBRANCH  52  77
BRANCH  64  89
ATOM     89  C   UNL A   1      46.355  27.129  33.955  1.00  0.00     0.058 A 
ATOM     90  C   UNL A   1      47.610  27.708  33.710  1.00  0.00     0.135 A 
ATOM     91  C   UNL A   1      46.272  26.138  34.948  1.00  0.00     0.135 A 
ATOM     92  F   UNL A   1      47.745  28.655  32.769  1.00  0.00    -0.206 F 
ATOM     93  C   UNL A   1      48.743  27.303  34.407  1.00  0.00     0.059 A 
ATOM     94  C   UNL A   1      47.387  25.740  35.677  1.00  0.00     0.059 A 
ATOM     95  F   UNL A   1      45.094  25.559  35.229  1.00  0.00    -0.206 F 
ATOM     96  C   UNL A   1      48.622  26.320  35.391  1.00  0.00     0.060 A 
BRANCH  96  97
ATOM     97  S   UNL A   1      50.096  25.827  36.310  1.00  0.00     0.124 S 
ATOM     98  O   UNL A   1      51.110  26.700  35.730  1.00  0.00    -0.237 OA
ATOM     99  O   UNL A   1      49.716  26.124  37.689  1.00  0.00    -0.237 OA
ATOM    100  O   UNL A   1      50.233  24.408  35.997  1.00  0.00    -0.744 OA
ENDBRANCH  96  97
ENDBRANCH  64  89
ENDBRANCH  38  39
ENDBRANCH  30  33
ENDBRANCH  28  29
ENDBRANCH   1  28
TORSDOF 18
ENDMDL
MODEL 2
REMARK VINA RESULT:     -11.8      4.756      5.881
REMARK SMILES CC[C@@H](C)[C@@H](C(=O)NCCCNC(=O)c1ccc(-c2c3nc(c(-c4c(F)cc(S(=O)(=O)[O-])cc4F)c4ccc([nH]4)c(-c4c(F)cc(S(=O)(=O)[O-])cc4F)c4nc(c(-c5c(F)cc(S(=O)(=O)[O-])cc5F)c5ccc2[nH]5)C=C4)C=C3)cc1)N1C(=O)/C(=C/c2ccc(O)cc2)SC1=S
REMARK SMILES IDX 10 1 9 2 8 3 6 4 7 5 5 7 3 8 4 9 2 10 1 11 81 12 82 13 94 14
REMARK SMILES IDX 83 15 84 16 93 17 95 18 85 19 86 20 87 21 92 22 88 23 91 24
REMARK SMILES IDX 89 25 90 26 11 28 12 29 13 30 14 32 15 33 16 34 80 35 17 36
REMARK SMILES IDX 79 37 18 38 19 39 20 40 73 41 21 42 78 43 72 44 74 45 22 46
REMARK SMILES IDX 77 47 71 48 70 49 23 51 57 52 36 53 56 54 37 55 40 56 55 57
REMARK SMILES IDX 75 58 38 59 39 60 54 62 76 63 41 64 24 65 25 66 34 67 26 68
REMARK SMILES IDX 27 69 33 70 35 71 28 72 29 73 30 74 31 75 32 76 58 77 59 78
REMARK SMILES IDX 68 79 60 80 61 81 67 82 69 83 62 84 63 85 64 86 65 87 66 88
REMARK SMILES IDX 42 89 43 90 52 91 44 92 45 93 51 94 53 95 46 96 47 97 48 98
REMARK SMILES IDX 49 99 50 100
REMARK H PARENT 8 6 90 27 12 31 74 50 40 61
REMARK Flexibility Score: inf
ROOT
ATOM      1  C   UNL A   1      33.581  28.809  27.253  1.00  0.00     0.042 C 
ENDROOT
BRANCH   1   2
ATOM      2  C   UNL A   1      33.429  27.686  26.221  1.00  0.00     0.117 C 
BRANCH   2   3
ATOM      3  N   UNL A   1      32.516  26.643  26.664  1.00  0.00    -0.354 N 
ATOM      4  C   UNL A   1      32.121  25.458  26.122  1.00  0.00     0.243 C 
ATOM      5  O   UNL A   1      31.447  24.746  26.877  1.00  0.00    -0.273 OA
ATOM      6  H   UNL A   1      32.099  26.834  27.536  1.00  0.00     0.163 HD
BRANCH   4   7
ATOM      7  C   UNL A   1      32.544  24.978  24.698  1.00  0.00     0.184 C 
BRANCH   7   8
ATOM      8  C   UNL A   1      31.487  24.979  23.540  1.00  0.00     0.018 C 
ATOM      9  C   UNL A   1      32.186  25.173  22.184  1.00  0.00     0.010 C 
BRANCH   8  10
ATOM     10  C   UNL A   1      30.395  26.027  23.735  1.00  0.00     0.002 C 
ATOM     11  C   UNL A   1      30.518  27.294  22.902  1.00  0.00     0.004 C 
ENDBRANCH   8  10
ENDBRANCH   7   8
BRANCH   7  12
ATOM     12  N   UNL A   1      33.104  23.608  24.904  1.00  0.00    -0.280 N 
ATOM     13  C   UNL A   1      32.249  22.512  24.835  1.00  0.00     0.266 C 
ATOM     14  C   UNL A   1      34.408  23.332  25.251  1.00  0.00     0.149 C 
ATOM     15  O   UNL A   1      31.049  22.521  24.618  1.00  0.00    -0.268 OA
ATOM     16  C   UNL A   1      33.004  21.251  25.032  1.00  0.00     0.081 C 
ATOM     17  S   UNL A   1      34.646  21.589  25.378  1.00  0.00    -0.054 SA
ATOM     18  S   UNL A   1      35.663  24.404  25.504  1.00  0.00    -0.052 S 
ATOM     19  C   UNL A   1      32.395  20.068  24.873  1.00  0.00     0.029 C 
BRANCH  19  20
ATOM     20  C   UNL A   1      33.013  18.746  24.971  1.00  0.00    -0.024 A 
ATOM     21  C   UNL A   1      34.156  18.471  24.210  1.00  0.00     0.012 A 
ATOM     22  C   UNL A   1      32.462  17.742  25.774  1.00  0.00     0.012 A 
ATOM     23  C   UNL A   1      34.760  17.215  24.278  1.00  0.00     0.047 A 
ATOM     24  C   UNL A   1      33.067  16.486  25.846  1.00  0.00     0.047 A 
ATOM     25  C   UNL A   1      34.216  16.236  25.101  1.00  0.00     0.115 A 
BRANCH  25  26
ATOM     26  O   UNL A   1      34.842  15.027  25.152  1.00  0.00    -0.508 OA
ATOM     27  H   UNL A   1      34.493  14.340  25.686  1.00  0.00     0.293 HD
ENDBRANCH  25  26
ENDBRANCH  19  20
ENDBRANCH   7  12
ENDBRANCH   4   7
ENDBRANCH   2   3
ENDBRANCH   1   2
BRANCH   1  28
ATOM     28  C   UNL A   1      35.021  29.206  27.544  1.00  0.00     0.118 C 
BRANCH  28  29
ATOM     29  N   UNL A   1      35.107  30.136  28.653  1.00  0.00    -0.352 N 
ATOM     30  C   UNL A   1      36.158  30.393  29.502  1.00  0.00     0.251 C 
ATOM     31  H   UNL A   1      34.291  30.660  28.825  1.00  0.00     0.163 HD
ATOM     32  O   UNL A   1      35.939  31.007  30.543  1.00  0.00    -0.269 OA
BRANCH  30  33
ATOM     33  C   UNL A   1      37.536  29.933  29.189  1.00  0.00     0.039 A 
ATOM     34  C   UNL A   1      38.404  29.641  30.245  1.00  0.00     0.014 A 
ATOM     35  C   UNL A   1      38.007  29.850  27.875  1.00  0.00     0.014 A 
ATOM     36  C   UNL A   1      39.720  29.243  29.985  1.00  0.00     0.010 A 
ATOM     37  C   UNL A   1      39.285  29.355  27.614  1.00  0.00     0.010 A 
ATOM     38  C   UNL A   1      40.169  29.077  28.665  1.00  0.00    -0.014 A 
BRANCH  38  39
ATOM     39  C   UNL A   1      41.573  28.683  28.364  1.00  0.00     0.031 A 
ATOM     40  C   UNL A   1      42.665  29.725  28.370  1.00  0.00     0.074 A 
ATOM     41  C   UNL A   1      41.866  27.405  28.045  1.00  0.00     0.049 A 
ATOM     42  N   UNL A   1      43.933  29.598  28.072  1.00  0.00    -0.248 NA
ATOM     43  C   UNL A   1      42.273  31.098  28.730  1.00  0.00     0.031 C 
ATOM     44  C   UNL A   1      40.897  26.310  27.963  1.00  0.00     0.029 A 
ATOM     45  N   UNL A   1      43.062  26.812  27.725  1.00  0.00    -0.354 N 
ATOM     46  C   UNL A   1      44.481  30.872  28.188  1.00  0.00     0.074 A 
ATOM     47  C   UNL A   1      43.397  31.768  28.525  1.00  0.00     0.031 C 
ATOM     48  C   UNL A   1      41.540  25.176  27.639  1.00  0.00     0.029 A 
ATOM     49  C   UNL A   1      42.959  25.468  27.452  1.00  0.00     0.049 A 
ATOM     50  H   UNL A   1      43.914  27.304  27.693  1.00  0.00     0.167 HD
ATOM     51  C   UNL A   1      45.772  31.258  28.056  1.00  0.00     0.037 A 
ATOM     52  C   UNL A   1      43.897  24.572  27.088  1.00  0.00     0.037 A 
ATOM     53  C   UNL A   1      46.855  30.356  27.759  1.00  0.00     0.049 A 
ATOM     54  C   UNL A   1      45.328  25.022  26.952  1.00  0.00     0.074 A 
ATOM     55  C   UNL A   1      48.206  30.639  27.659  1.00  0.00     0.029 A 
ATOM     56  N   UNL A   1      46.710  28.998  27.516  1.00  0.00    -0.354 N 
ATOM     57  N   UNL A   1      45.835  26.222  27.121  1.00  0.00    -0.248 NA
ATOM     58  C   UNL A   1      46.316  23.999  26.586  1.00  0.00     0.031 C 
ATOM     59  C   UNL A   1      48.873  29.459  27.311  1.00  0.00     0.029 A 
ATOM     60  C   UNL A   1      47.945  28.432  27.249  1.00  0.00     0.049 A 
ATOM     61  H   UNL A   1      45.855  28.510  27.530  1.00  0.00     0.167 HD
ATOM     62  C   UNL A   1      47.204  26.089  26.916  1.00  0.00     0.074 A 
ATOM     63  C   UNL A   1      47.447  24.692  26.619  1.00  0.00     0.031 C 
ATOM     64  C   UNL A   1      48.173  27.035  26.971  1.00  0.00     0.037 A 
BRANCH  51  65
ATOM     65  C   UNL A   1      46.090  32.719  28.241  1.00  0.00     0.058 A 
ATOM     66  C   UNL A   1      46.510  33.234  29.478  1.00  0.00     0.135 A 
ATOM     67  C   UNL A   1      46.008  33.611  27.158  1.00  0.00     0.135 A 
ATOM     68  F   UNL A   1      46.591  32.432  30.553  1.00  0.00    -0.206 F 
ATOM     69  C   UNL A   1      46.805  34.584  29.645  1.00  0.00     0.059 A 
ATOM     70  C   UNL A   1      46.331  34.959  27.294  1.00  0.00     0.059 A 
ATOM     71  F   UNL A   1      45.614  33.175  25.952  1.00  0.00    -0.206 F 
ATOM     72  C   UNL A   1      46.713  35.438  28.545  1.00  0.00     0.060 A 
BRANCH  72  73
ATOM     73  S   UNL A   1      47.107  37.184  28.777  1.00  0.00     0.124 S 
ATOM     74  O   UNL A   1      46.527  37.442  30.091  1.00  0.00    -0.237 OA
ATOM     75  O   UNL A   1      48.566  37.185  28.718  1.00  0.00    -0.237 OA
ATOM     76  O   UNL A   1      46.438  37.837  27.656  1.00  0.00    -0.744 OA
ENDBRANCH  72  73
ENDBRANCH  51  65
BRANCH  52  77
ATOM     77  C   UNL A   1      43.520  23.152  26.848  1.00  0.00     0.058 A 
ATOM     78  C   UNL A   1      43.496  22.619  25.550  1.00  0.00     0.135 A 
ATOM     79  C   UNL A   1      43.183  22.297  27.909  1.00  0.00     0.135 A 
ATOM     80  F   UNL A   1      43.804  23.397  24.501  1.00  0.00    -0.206 F 
ATOM     81  C   UNL A   1      43.134  21.298  25.309  1.00  0.00     0.059 A 
ATOM     82  C   UNL A   1      42.844  20.964  27.697  1.00  0.00     0.059 A 
ATOM     83  F   UNL A   1      43.205  22.751  29.172  1.00  0.00    -0.206 F 
ATOM     84  C   UNL A   1      42.811  20.477  26.391  1.00  0.00     0.060 A 
BRANCH  84  85
ATOM     85  S   UNL A   1      42.387  18.750  26.072  1.00  0.00     0.124 S 
ATOM     86  O   UNL A   1      40.980  18.858  25.700  1.00  0.00    -0.237 OA
ATOM     87  O   UNL A   1      43.308  18.402  24.995  1.00  0.00    -0.237 OA
ATOM     88  O   UNL A   1      42.654  18.098  27.350  1.00  0.00    -0.744 OA
ENDBRANCH  84  85
ENDBRANCH  52  77
BRANCH  64  89
ATOM     89  C   UNL A   1      49.594  26.592  26.756  1.00  0.00     0.058 A 
ATOM     90  C   UNL A   1      50.180  26.571  25.481  1.00  0.00     0.135 A 
ATOM     91  C   UNL A   1      50.396  26.235  27.853  1.00  0.00     0.135 A 
ATOM     92  F   UNL A   1      49.457  26.896  24.399  1.00  0.00    -0.206 F 
ATOM     93  C   UNL A   1      51.505  26.188  25.299  1.00  0.00     0.059 A 
ATOM     94  C   UNL A   1      51.731  25.880  27.697  1.00  0.00     0.059 A 
ATOM     95  F   UNL A   1      49.889  26.250  29.096  1.00  0.00    -0.206 F 
ATOM     96  C   UNL A   1      52.274  25.847  26.413  1.00  0.00     0.060 A 
BRANCH  96  97
ATOM     97  S   UNL A   1      54.001  25.383  26.165  1.00  0.00     0.124 S 
ATOM     98  O   UNL A   1      53.867  24.098  25.490  1.00  0.00    -0.237 OA
ATOM     99  O   UNL A   1      54.503  26.482  25.343  1.00  0.00    -0.237 OA
ATOM    100  O   UNL A   1      54.537  25.329  27.522  1.00  0.00    -0.744 OA
ENDBRANCH  96  97
ENDBRANCH  64  89
ENDBRANCH  38  39
ENDBRANCH  30  33
ENDBRANCH  28  29
ENDBRANCH   1  28
TORSDOF 18
ENDMDL
MODEL 3
REMARK VINA RESULT:     -11.6      3.386      9.731
REMARK SMILES CC[C@@H](C)[C@@H](C(=O)NCCCNC(=O)c1ccc(-c2c3nc(c(-c4c(F)cc(S(=O)(=O)[O-])cc4F)c4ccc([nH]4)c(-c4c(F)cc(S(=O)(=O)[O-])cc4F)c4nc(c(-c5c(F)cc(S(=O)(=O)[O-])cc5F)c5ccc2[nH]5)C=C4)C=C3)cc1)N1C(=O)/C(=C/c2ccc(O)cc2)SC1=S
REMARK SMILES IDX 10 1 9 2 8 3 6 4 7 5 5 7 3 8 4 9 2 10 1 11 81 12 82 13 94 14
REMARK SMILES IDX 83 15 84 16 93 17 95 18 85 19 86 20 87 21 92 22 88 23 91 24
REMARK SMILES IDX 89 25 90 26 11 28 12 29 13 30 14 32 15 33 16 34 80 35 17 36
REMARK SMILES IDX 79 37 18 38 19 39 20 40 73 41 21 42 78 43 72 44 74 45 22 46
REMARK SMILES IDX 77 47 71 48 70 49 23 51 57 52 36 53 56 54 37 55 40 56 55 57
REMARK SMILES IDX 75 58 38 59 39 60 54 62 76 63 41 64 24 65 25 66 34 67 26 68
REMARK SMILES IDX 27 69 33 70 35 71 28 72 29 73 30 74 31 75 32 76 58 77 59 78
REMARK SMILES IDX 68 79 60 80 61 81 67 82 69 83 62 84 63 85 64 86 65 87 66 88
REMARK SMILES IDX 42 89 43 90 52 91 44 92 45 93 51 94 53 95 46 96 47 97 48 98
REMARK SMILES IDX 49 99 50 100
REMARK H PARENT 8 6 90 27 12 31 74 50 40 61
REMARK Flexibility Score: inf
ROOT
ATOM      1  C   UNL A   1      37.405  22.840  26.035  1.00  0.00     0.042 C 
ENDROOT
BRANCH   1   2
ATOM      2  C   UNL A   1      35.927  23.098  25.727  1.00  0.00     0.117 C 
BRANCH   2   3
ATOM      3  N   UNL A   1      35.089  23.022  26.915  1.00  0.00    -0.354 N 
ATOM      4  C   UNL A   1      33.794  22.654  27.121  1.00  0.00     0.243 C 
ATOM      5  O   UNL A   1      33.470  22.555  28.311  1.00  0.00    -0.273 OA
ATOM      6  H   UNL A   1      35.556  23.290  27.740  1.00  0.00     0.163 HD
BRANCH   4   7
ATOM      7  C   UNL A   1      32.805  22.299  25.966  1.00  0.00     0.184 C 
BRANCH   7   8
ATOM      8  C   UNL A   1      33.369  21.730  24.619  1.00  0.00     0.018 C 
ATOM      9  C   UNL A   1      32.251  21.659  23.564  1.00  0.00     0.010 C 
BRANCH   8  10
ATOM     10  C   UNL A   1      34.038  20.368  24.783  1.00  0.00     0.002 C 
ATOM     11  C   UNL A   1      33.320  19.182  24.159  1.00  0.00     0.004 C 
ENDBRANCH   8  10
ENDBRANCH   7   8
BRANCH   7  12
ATOM     12  N   UNL A   1      32.025  23.551  25.728  1.00  0.00    -0.280 N 
ATOM     13  C   UNL A   1      32.630  24.605  25.051  1.00  0.00     0.266 C 
ATOM     14  C   UNL A   1      30.756  23.793  26.208  1.00  0.00     0.149 C 
ATOM     15  O   UNL A   1      33.763  24.645  24.604  1.00  0.00    -0.268 OA
ATOM     16  C   UNL A   1      31.679  25.731  24.889  1.00  0.00     0.081 C 
ATOM     17  S   UNL A   1      30.203  25.383  25.683  1.00  0.00    -0.054 SA
ATOM     18  S   UNL A   1      29.785  22.792  27.125  1.00  0.00    -0.052 S 
ATOM     19  C   UNL A   1      32.015  26.797  24.149  1.00  0.00     0.029 C 
BRANCH  19  20
ATOM     20  C   UNL A   1      31.172  27.953  23.846  1.00  0.00    -0.024 A 
ATOM     21  C   UNL A   1      30.333  27.907  22.726  1.00  0.00     0.012 A 
ATOM     22  C   UNL A   1      31.220  29.114  24.626  1.00  0.00     0.012 A 
ATOM     23  C   UNL A   1      29.525  29.000  22.410  1.00  0.00     0.047 A 
ATOM     24  C   UNL A   1      30.410  30.206  24.312  1.00  0.00     0.047 A 
ATOM     25  C   UNL A   1      29.563  30.136  23.209  1.00  0.00     0.115 A 
BRANCH  25  26
ATOM     26  O   UNL A   1      28.749  31.177  22.876  1.00  0.00    -0.508 OA
ATOM     27  H   UNL A   1      28.613  31.396  21.974  1.00  0.00     0.293 HD
ENDBRANCH  25  26
ENDBRANCH  19  20
ENDBRANCH   7  12
ENDBRANCH   4   7
ENDBRANCH   2   3
ENDBRANCH   1   2
BRANCH   1  28
ATOM     28  C   UNL A   1      38.212  24.093  26.344  1.00  0.00     0.118 C 
BRANCH  28  29
ATOM     29  N   UNL A   1      39.631  23.882  26.136  1.00  0.00    -0.352 N 
ATOM     30  C   UNL A   1      40.701  24.632  26.565  1.00  0.00     0.251 C 
ATOM     31  H   UNL A   1      39.863  23.084  25.608  1.00  0.00     0.163 HD
ATOM     32  O   UNL A   1      41.800  24.441  26.050  1.00  0.00    -0.269 OA
BRANCH  30  33
ATOM     33  C   UNL A   1      40.547  25.667  27.621  1.00  0.00     0.039 A 
ATOM     34  C   UNL A   1      41.460  26.725  27.663  1.00  0.00     0.014 A 
ATOM     35  C   UNL A   1      39.562  25.574  28.608  1.00  0.00     0.014 A 
ATOM     36  C   UNL A   1      41.367  27.695  28.667  1.00  0.00     0.010 A 
ATOM     37  C   UNL A   1      39.406  26.595  29.546  1.00  0.00     0.010 A 
ATOM     38  C   UNL A   1      40.326  27.651  29.609  1.00  0.00    -0.014 A 
BRANCH  38  39
ATOM     39  C   UNL A   1      40.224  28.655  30.703  1.00  0.00     0.031 A 
ATOM     40  C   UNL A   1      41.105  28.532  31.922  1.00  0.00     0.074 A 
ATOM     41  C   UNL A   1      39.317  29.651  30.628  1.00  0.00     0.049 A 
ATOM     42  N   UNL A   1      41.124  29.262  33.008  1.00  0.00    -0.248 NA
ATOM     43  C   UNL A   1      42.074  27.423  31.934  1.00  0.00     0.031 C 
ATOM     44  C   UNL A   1      38.377  29.859  29.524  1.00  0.00     0.029 A 
ATOM     45  N   UNL A   1      39.033  30.673  31.500  1.00  0.00    -0.354 N 
ATOM     46  C   UNL A   1      42.087  28.690  33.835  1.00  0.00     0.074 A 
ATOM     47  C   UNL A   1      42.586  27.518  33.152  1.00  0.00     0.031 C 
ATOM     48  C   UNL A   1      37.638  30.952  29.775  1.00  0.00     0.029 A 
ATOM     49  C   UNL A   1      38.022  31.503  31.071  1.00  0.00     0.049 A 
ATOM     50  H   UNL A   1      39.507  30.800  32.353  1.00  0.00     0.167 HD
ATOM     51  C   UNL A   1      42.535  29.115  35.040  1.00  0.00     0.037 A 
ATOM     52  C   UNL A   1      37.464  32.580  31.657  1.00  0.00     0.037 A 
ATOM     53  C   UNL A   1      42.062  30.305  35.699  1.00  0.00     0.049 A 
ATOM     54  C   UNL A   1      37.982  33.039  32.995  1.00  0.00     0.074 A 
ATOM     55  C   UNL A   1      42.492  30.854  36.895  1.00  0.00     0.029 A 
ATOM     56  N   UNL A   1      41.057  31.131  35.218  1.00  0.00    -0.354 N 
ATOM     57  N   UNL A   1      38.932  32.515  33.735  1.00  0.00    -0.248 NA
ATOM     58  C   UNL A   1      37.362  34.238  33.573  1.00  0.00     0.031 C 
ATOM     59  C   UNL A   1      41.714  31.986  37.160  1.00  0.00     0.029 A 
ATOM     60  C   UNL A   1      40.839  32.175  36.102  1.00  0.00     0.049 A 
ATOM     61  H   UNL A   1      40.569  30.994  34.374  1.00  0.00     0.167 HD
ATOM     62  C   UNL A   1      39.045  33.342  34.848  1.00  0.00     0.074 A 
ATOM     63  C   UNL A   1      38.074  34.403  34.680  1.00  0.00     0.031 C 
ATOM     64  C   UNL A   1      39.879  33.233  35.912  1.00  0.00     0.037 A 
BRANCH  51  65
ATOM     65  C   UNL A   1      43.599  28.295  35.723  1.00  0.00     0.058 A 
ATOM     66  C   UNL A   1      43.275  27.264  36.620  1.00  0.00     0.135 A 
ATOM     67  C   UNL A   1      44.958  28.520  35.451  1.00  0.00     0.135 A 
ATOM     68  F   UNL A   1      41.992  27.015  36.930  1.00  0.00    -0.206 F 
ATOM     69  C   UNL A   1      44.260  26.507  37.247  1.00  0.00     0.059 A 
ATOM     70  C   UNL A   1      45.959  27.752  36.041  1.00  0.00     0.059 A 
ATOM     71  F   UNL A   1      45.326  29.490  34.601  1.00  0.00    -0.206 F 
ATOM     72  C   UNL A   1      45.600  26.759  36.950  1.00  0.00     0.060 A 
BRANCH  72  73
ATOM     73  S   UNL A   1      46.864  25.762  37.767  1.00  0.00     0.124 S 
ATOM     74  O   UNL A   1      47.030  26.479  39.027  1.00  0.00    -0.237 OA
ATOM     75  O   UNL A   1      46.218  24.456  37.862  1.00  0.00    -0.237 OA
ATOM     76  O   UNL A   1      47.998  25.831  36.850  1.00  0.00    -0.744 OA
ENDBRANCH  72  73
ENDBRANCH  51  65
BRANCH  52  77
ATOM     77  C   UNL A   1      36.365  33.316  30.973  1.00  0.00     0.058 A 
ATOM     78  C   UNL A   1      35.045  33.243  31.440  1.00  0.00     0.135 A 
ATOM     79  C   UNL A   1      36.614  34.113  29.844  1.00  0.00     0.135 A 
ATOM     80  F   UNL A   1      34.755  32.489  32.513  1.00  0.00    -0.206 F 
ATOM     81  C   UNL A   1      34.006  33.914  30.804  1.00  0.00     0.059 A 
ATOM     82  C   UNL A   1      35.597  34.817  29.207  1.00  0.00     0.059 A 
ATOM     83  F   UNL A   1      37.862  34.231  29.365  1.00  0.00    -0.206 F 
ATOM     84  C   UNL A   1      34.293  34.702  29.688  1.00  0.00     0.060 A 
BRANCH  84  85
ATOM     85  S   UNL A   1      32.945  35.608  28.897  1.00  0.00     0.124 S 
ATOM     86  O   UNL A   1      33.670  36.668  28.205  1.00  0.00    -0.237 OA
ATOM     87  O   UNL A   1      32.346  34.584  28.048  1.00  0.00    -0.237 OA
ATOM     88  O   UNL A   1      32.123  36.037  30.024  1.00  0.00    -0.744 OA
ENDBRANCH  84  85
ENDBRANCH  52  77
BRANCH  64  89
ATOM     89  C   UNL A   1      39.820  34.314  36.957  1.00  0.00     0.058 A 
ATOM     90  C   UNL A   1      40.484  35.540  36.795  1.00  0.00     0.135 A 
ATOM     91  C   UNL A   1      39.039  34.139  38.112  1.00  0.00     0.135 A 
ATOM     92  F   UNL A   1      41.247  35.757  35.713  1.00  0.00    -0.206 F 
ATOM     93  C   UNL A   1      40.397  36.544  37.753  1.00  0.00     0.059 A 
ATOM     94  C   UNL A   1      38.913  35.140  39.068  1.00  0.00     0.059 A 
ATOM     95  F   UNL A   1      38.373  32.990  38.310  1.00  0.00    -0.206 F 
ATOM     96  C   UNL A   1      39.607  36.336  38.886  1.00  0.00     0.060 A 
BRANCH  96  97
ATOM     97  S   UNL A   1      39.476  37.661  40.106  1.00  0.00     0.124 S 
ATOM     98  O   UNL A   1      40.771  38.317  39.967  1.00  0.00    -0.237 OA
ATOM     99  O   UNL A   1      38.325  38.418  39.622  1.00  0.00    -0.237 OA
ATOM    100  O   UNL A   1      39.264  36.946  41.361  1.00  0.00    -0.744 OA
ENDBRANCH  96  97
ENDBRANCH  64  89
ENDBRANCH  38  39
ENDBRANCH  30  33
ENDBRANCH  28  29
ENDBRANCH   1  28
TORSDOF 18
ENDMDL
