MODEL 1
REMARK VINA RESULT:     -11.7      0.000      0.000
REMARK SMILES CCNC(=O)NC(=O)[C@@H](C)[NH2+][C@](C)(C(=O)NCCCNC(=O)c1ccc(-c2c3nc(c(-c4c(F)cc(S(=O)(=O)[O-])cc4F)c4ccc([nH]4)c(-c4c(F)cc(S(=O)(=O)[O-])cc4F)c4nc(c(-c5c(F)cc(S(=O)(=O)[O-])cc5F)c5ccc2[nH]5)C=C4)C=C3)cc1)C(F)(F)F
REMARK SMILES IDX 17 1 16 2 14 3 15 4 12 6 13 7 11 8 9 11 10 12 7 13 3 14 4 15
REMARK SMILES IDX 5 17 6 18 8 20 2 21 1 22 89 23 90 24 91 25 92 26 18 27 19 28
REMARK SMILES IDX 20 29 21 30 22 32 23 33 24 34 88 35 25 36 87 37 26 38 27 39
REMARK SMILES IDX 28 40 81 41 29 42 86 43 80 44 82 45 30 46 85 47 79 48 78 49
REMARK SMILES IDX 31 51 65 52 44 53 64 54 45 55 48 56 63 57 83 58 46 59 47 60
REMARK SMILES IDX 62 62 84 63 49 64 32 65 33 66 42 67 34 68 35 69 41 70 43 71
REMARK SMILES IDX 36 72 37 73 38 74 39 75 40 76 66 77 67 78 76 79 68 80 69 81
REMARK SMILES IDX 75 82 77 83 70 84 71 85 72 86 73 87 74 88 50 89 51 90 60 91
REMARK SMILES IDX 52 92 53 93 59 94 61 95 54 96 55 97 56 98 57 99 58 100
REMARK H PARENT 16 5 11 9 11 10 3 16 6 19 20 31 82 50 48 61
REMARK Flexibility Score: inf
ROOT
ATOM      1  C   UNL A   1      37.492  23.176  25.947  1.00  0.00     0.118 C 
ENDROOT
BRANCH   1   2
ATOM      2  N   UNL A   1      37.368  23.235  24.499  1.00  0.00    -0.350 N 
ATOM      3  C   UNL A   1      36.318  23.017  23.648  1.00  0.00     0.290 C 
ATOM      4  O   UNL A   1      36.612  22.936  22.455  1.00  0.00    -0.267 OA
ATOM      5  H   UNL A   1      38.204  23.482  24.040  1.00  0.00     0.163 HD
BRANCH   3   6
ATOM      6  C   UNL A   1      34.855  23.013  24.175  1.00  0.00     0.269 C 
ATOM      7  C   UNL A   1      34.696  23.992  25.353  1.00  0.00     0.101 C 
BRANCH   6   8
ATOM      8  N   UNL A   1      33.999  23.287  22.955  1.00  0.00    -0.316 N 
ATOM      9  H   UNL A   1      34.569  23.838  22.313  1.00  0.00     0.348 HD
ATOM     10  H   UNL A   1      33.719  22.354  22.653  1.00  0.00     0.348 HD
BRANCH   8  11
ATOM     11  C   UNL A   1      32.718  23.994  23.096  1.00  0.00     0.271 C 
ATOM     12  C   UNL A   1      31.418  23.197  23.203  1.00  0.00     0.086 C 
BRANCH  11  13
ATOM     13  C   UNL A   1      32.571  25.011  21.952  1.00  0.00     0.285 C 
ATOM     14  N   UNL A   1      30.452  26.968  23.828  1.00  0.00    -0.338 N 
ATOM     15  C   UNL A   1      30.889  27.010  22.571  1.00  0.00     0.321 C 
ATOM     16  H   UNL A   1      29.883  27.737  24.057  1.00  0.00     0.165 HD
ATOM     17  O   UNL A   1      30.456  27.935  21.870  1.00  0.00    -0.248 OA
ATOM     18  N   UNL A   1      31.770  26.152  21.965  1.00  0.00    -0.273 N 
ATOM     19  H   UNL A   1      31.910  26.549  21.075  1.00  0.00     0.175 HD
ATOM     20  O   UNL A   1      33.216  24.822  20.907  1.00  0.00    -0.268 OA
BRANCH  14  21
ATOM     21  C   UNL A   1      30.621  26.059  24.926  1.00  0.00     0.114 C 
ATOM     22  C   UNL A   1      30.983  26.740  26.227  1.00  0.00     0.027 C 
ENDBRANCH  14  21
ENDBRANCH  11  13
ENDBRANCH   8  11
ENDBRANCH   6   8
BRANCH   6  23
ATOM     23  C   UNL A   1      34.663  21.581  24.775  1.00  0.00     0.453 C 
ATOM     24  F   UNL A   1      34.464  21.599  26.114  1.00  0.00    -0.164 F 
ATOM     25  F   UNL A   1      33.560  20.988  24.242  1.00  0.00    -0.164 F 
ATOM     26  F   UNL A   1      35.694  20.744  24.521  1.00  0.00    -0.164 F 
ENDBRANCH   6  23
ENDBRANCH   3   6
ENDBRANCH   1   2
BRANCH   1  27
ATOM     27  C   UNL A   1      38.518  24.182  26.455  1.00  0.00     0.042 C 
BRANCH  27  28
ATOM     28  C   UNL A   1      39.864  23.559  26.802  1.00  0.00     0.118 C 
BRANCH  28  29
ATOM     29  N   UNL A   1      40.953  24.116  26.017  1.00  0.00    -0.352 N 
ATOM     30  C   UNL A   1      41.613  25.312  26.150  1.00  0.00     0.251 C 
ATOM     31  H   UNL A   1      41.265  23.548  25.275  1.00  0.00     0.163 HD
ATOM     32  O   UNL A   1      42.357  25.689  25.251  1.00  0.00    -0.269 OA
BRANCH  30  33
ATOM     33  C   UNL A   1      41.412  26.148  27.354  1.00  0.00     0.039 A 
ATOM     34  C   UNL A   1      42.126  27.342  27.470  1.00  0.00     0.014 A 
ATOM     35  C   UNL A   1      40.544  25.753  28.376  1.00  0.00     0.014 A 
ATOM     36  C   UNL A   1      41.927  28.161  28.582  1.00  0.00     0.010 A 
ATOM     37  C   UNL A   1      40.269  26.618  29.431  1.00  0.00     0.010 A 
ATOM     38  C   UNL A   1      40.973  27.823  29.558  1.00  0.00    -0.014 A 
BRANCH  38  39
ATOM     39  C   UNL A   1      40.720  28.719  30.714  1.00  0.00     0.031 A 
ATOM     40  C   UNL A   1      41.576  28.632  31.951  1.00  0.00     0.074 A 
ATOM     41  C   UNL A   1      39.702  29.599  30.658  1.00  0.00     0.049 A 
ATOM     42  N   UNL A   1      41.536  29.365  33.034  1.00  0.00    -0.248 NA
ATOM     43  C   UNL A   1      42.590  27.567  31.986  1.00  0.00     0.031 C 
ATOM     44  C   UNL A   1      38.763  29.735  29.541  1.00  0.00     0.029 A 
ATOM     45  N   UNL A   1      39.296  30.558  31.551  1.00  0.00    -0.354 N 
ATOM     46  C   UNL A   1      42.514  28.849  33.877  1.00  0.00     0.074 A 
ATOM     47  C   UNL A   1      43.075  27.694  33.211  1.00  0.00     0.031 C 
ATOM     48  C   UNL A   1      37.930  30.758  29.789  1.00  0.00     0.029 A 
ATOM     49  C   UNL A   1      38.255  31.329  31.093  1.00  0.00     0.049 A 
ATOM     50  H   UNL A   1      39.711  30.682  32.435  1.00  0.00     0.167 HD
ATOM     51  C   UNL A   1      42.932  29.312  35.081  1.00  0.00     0.037 A 
ATOM     52  C   UNL A   1      37.644  32.392  31.650  1.00  0.00     0.037 A 
ATOM     53  C   UNL A   1      42.373  30.466  35.735  1.00  0.00     0.049 A 
ATOM     54  C   UNL A   1      38.124  32.893  32.984  1.00  0.00     0.074 A 
ATOM     55  C   UNL A   1      42.746  31.045  36.935  1.00  0.00     0.029 A 
ATOM     56  N   UNL A   1      41.313  31.217  35.245  1.00  0.00    -0.354 N 
ATOM     57  N   UNL A   1      39.093  32.433  33.739  1.00  0.00    -0.248 NA
ATOM     58  C   UNL A   1      37.435  34.066  33.533  1.00  0.00     0.031 C 
ATOM     59  C   UNL A   1      41.884  32.119  37.191  1.00  0.00     0.029 A 
ATOM     60  C   UNL A   1      41.007  32.242  36.125  1.00  0.00     0.049 A 
ATOM     61  H   UNL A   1      40.847  31.045  34.394  1.00  0.00     0.167 HD
ATOM     62  C   UNL A   1      39.149  33.278  34.843  1.00  0.00     0.074 A 
ATOM     63  C   UNL A   1      38.124  34.284  34.645  1.00  0.00     0.031 C 
ATOM     64  C   UNL A   1      39.973  33.228  35.920  1.00  0.00     0.037 A 
BRANCH  51  65
ATOM     65  C   UNL A   1      44.049  28.556  35.755  1.00  0.00     0.058 A 
ATOM     66  C   UNL A   1      43.791  27.505  36.653  1.00  0.00     0.135 A 
ATOM     67  C   UNL A   1      45.390  28.897  35.522  1.00  0.00     0.135 A 
ATOM     68  F   UNL A   1      42.527  27.143  36.925  1.00  0.00    -0.206 F 
ATOM     69  C   UNL A   1      44.817  26.863  37.338  1.00  0.00     0.059 A 
ATOM     70  C   UNL A   1      46.435  28.245  36.171  1.00  0.00     0.059 A 
ATOM     71  F   UNL A   1      45.698  29.889  34.671  1.00  0.00    -0.206 F 
ATOM     72  C   UNL A   1      46.137  27.247  37.098  1.00  0.00     0.060 A 
BRANCH  72  73
ATOM     73  S   UNL A   1      47.455  26.436  38.026  1.00  0.00     0.124 S 
ATOM     74  O   UNL A   1      47.788  25.323  37.143  1.00  0.00    -0.237 OA
ATOM     75  O   UNL A   1      48.462  27.487  38.127  1.00  0.00    -0.237 OA
ATOM     76  O   UNL A   1      46.809  26.069  39.282  1.00  0.00    -0.744 OA
ENDBRANCH  72  73
ENDBRANCH  51  65
BRANCH  52  77
ATOM     77  C   UNL A   1      36.562  33.093  30.909  1.00  0.00     0.058 A 
ATOM     78  C   UNL A   1      35.225  32.973  31.313  1.00  0.00     0.135 A 
ATOM     79  C   UNL A   1      36.844  33.927  29.816  1.00  0.00     0.135 A 
ATOM     80  F   UNL A   1      34.906  32.182  32.349  1.00  0.00    -0.206 F 
ATOM     81  C   UNL A   1      34.202  33.650  30.659  1.00  0.00     0.059 A 
ATOM     82  C   UNL A   1      35.841  34.634  29.161  1.00  0.00     0.059 A 
ATOM     83  F   UNL A   1      38.111  34.089  29.402  1.00  0.00    -0.206 F 
ATOM     84  C   UNL A   1      34.522  34.485  29.587  1.00  0.00     0.060 A 
BRANCH  84  85
ATOM     85  S   UNL A   1      33.195  35.422  28.796  1.00  0.00     0.124 S 
ATOM     86  O   UNL A   1      32.514  34.382  28.034  1.00  0.00    -0.237 OA
ATOM     87  O   UNL A   1      32.469  35.953  29.945  1.00  0.00    -0.237 OA
ATOM     88  O   UNL A   1      33.914  36.417  28.004  1.00  0.00    -0.744 OA
ENDBRANCH  84  85
ENDBRANCH  52  77
BRANCH  64  89
ATOM     89  C   UNL A   1      39.811  34.312  36.950  1.00  0.00     0.058 A 
ATOM     90  C   UNL A   1      40.440  35.561  36.816  1.00  0.00     0.135 A 
ATOM     91  C   UNL A   1      39.020  34.097  38.090  1.00  0.00     0.135 A 
ATOM     92  F   UNL A   1      41.210  35.818  35.747  1.00  0.00    -0.206 F 
ATOM     93  C   UNL A   1      40.331  36.539  37.800  1.00  0.00     0.059 A 
ATOM     94  C   UNL A   1      38.872  35.071  39.072  1.00  0.00     0.059 A 
ATOM     95  F   UNL A   1      38.384  32.927  38.262  1.00  0.00    -0.206 F 
ATOM     96  C   UNL A   1      39.551  36.280  38.929  1.00  0.00     0.060 A 
BRANCH  96  97
ATOM     97  S   UNL A   1      39.432  37.547  40.209  1.00  0.00     0.124 S 
ATOM     98  O   UNL A   1      38.502  38.492  39.599  1.00  0.00    -0.237 OA
ATOM     99  O   UNL A   1      38.915  36.795  41.349  1.00  0.00    -0.237 OA
ATOM    100  O   UNL A   1      40.807  38.019  40.348  1.00  0.00    -0.744 OA
ENDBRANCH  96  97
ENDBRANCH  64  89
ENDBRANCH  38  39
ENDBRANCH  30  33
ENDBRANCH  28  29
ENDBRANCH  27  28
ENDBRANCH   1  27
TORSDOF 18
ENDMDL
MODEL 2
REMARK VINA RESULT:     -11.2      4.878     10.369
REMARK SMILES CCNC(=O)NC(=O)[C@@H](C)[NH2+][C@](C)(C(=O)NCCCNC(=O)c1ccc(-c2c3nc(c(-c4c(F)cc(S(=O)(=O)[O-])cc4F)c4ccc([nH]4)c(-c4c(F)cc(S(=O)(=O)[O-])cc4F)c4nc(c(-c5c(F)cc(S(=O)(=O)[O-])cc5F)c5ccc2[nH]5)C=C4)C=C3)cc1)C(F)(F)F
REMARK SMILES IDX 17 1 16 2 14 3 15 4 12 6 13 7 11 8 9 11 10 12 7 13 3 14 4 15
REMARK SMILES IDX 5 17 6 18 8 20 2 21 1 22 89 23 90 24 91 25 92 26 18 27 19 28
REMARK SMILES IDX 20 29 21 30 22 32 23 33 24 34 88 35 25 36 87 37 26 38 27 39
REMARK SMILES IDX 28 40 81 41 29 42 86 43 80 44 82 45 30 46 85 47 79 48 78 49
REMARK SMILES IDX 31 51 65 52 44 53 64 54 45 55 48 56 63 57 83 58 46 59 47 60
REMARK SMILES IDX 62 62 84 63 49 64 32 65 33 66 42 67 34 68 35 69 41 70 43 71
REMARK SMILES IDX 36 72 37 73 38 74 39 75 40 76 66 77 67 78 76 79 68 80 69 81
REMARK SMILES IDX 75 82 77 83 70 84 71 85 72 86 73 87 74 88 50 89 51 90 60 91
REMARK SMILES IDX 52 92 53 93 59 94 61 95 54 96 55 97 56 98 57 99 58 100
REMARK H PARENT 16 5 11 9 11 10 3 16 6 19 20 31 82 50 48 61
REMARK Flexibility Score: inf
ROOT
ATOM      1  C   UNL A   1      32.645  26.070  26.338  1.00  0.00     0.118 C 
ENDROOT
BRANCH   1   2
ATOM      2  N   UNL A   1      31.533  25.620  25.515  1.00  0.00    -0.350 N 
ATOM      3  C   UNL A   1      31.390  25.446  24.165  1.00  0.00     0.290 C 
ATOM      4  O   UNL A   1      30.237  25.261  23.774  1.00  0.00    -0.267 OA
ATOM      5  H   UNL A   1      30.724  25.396  26.030  1.00  0.00     0.163 HD
BRANCH   3   6
ATOM      6  C   UNL A   1      32.635  25.358  23.238  1.00  0.00     0.269 C 
ATOM      7  C   UNL A   1      33.901  25.833  23.976  1.00  0.00     0.101 C 
BRANCH   6   8
ATOM      8  N   UNL A   1      32.650  23.929  22.735  1.00  0.00    -0.316 N 
ATOM      9  H   UNL A   1      31.679  23.670  22.558  1.00  0.00     0.348 HD
ATOM     10  H   UNL A   1      33.278  23.971  21.932  1.00  0.00     0.348 HD
BRANCH   8  11
ATOM     11  C   UNL A   1      33.230  22.861  23.561  1.00  0.00     0.271 C 
ATOM     12  C   UNL A   1      34.734  22.594  23.511  1.00  0.00     0.086 C 
BRANCH  11  13
ATOM     13  C   UNL A   1      32.493  21.542  23.275  1.00  0.00     0.285 C 
ATOM     14  N   UNL A   1      33.266  20.316  26.395  1.00  0.00    -0.338 N 
ATOM     15  C   UNL A   1      32.664  19.811  25.321  1.00  0.00     0.321 C 
ATOM     16  H   UNL A   1      33.270  19.692  27.156  1.00  0.00     0.165 HD
ATOM     17  O   UNL A   1      32.288  18.634  25.404  1.00  0.00    -0.248 OA
ATOM     18  N   UNL A   1      32.403  20.448  24.135  1.00  0.00    -0.273 N 
ATOM     19  H   UNL A   1      31.880  19.789  23.624  1.00  0.00     0.175 HD
ATOM     20  O   UNL A   1      31.915  21.412  22.183  1.00  0.00    -0.268 OA
BRANCH  14  21
ATOM     21  C   UNL A   1      33.911  21.562  26.700  1.00  0.00     0.114 C 
ATOM     22  C   UNL A   1      33.389  22.223  27.958  1.00  0.00     0.027 C 
ENDBRANCH  14  21
ENDBRANCH  11  13
ENDBRANCH   8  11
ENDBRANCH   6   8
BRANCH   6  23
ATOM     23  C   UNL A   1      32.363  26.420  22.121  1.00  0.00     0.453 C 
ATOM     24  F   UNL A   1      31.917  27.598  22.618  1.00  0.00    -0.164 F 
ATOM     25  F   UNL A   1      33.513  26.708  21.451  1.00  0.00    -0.164 F 
ATOM     26  F   UNL A   1      31.481  26.006  21.184  1.00  0.00    -0.164 F 
ENDBRANCH   6  23
ENDBRANCH   3   6
ENDBRANCH   1   2
BRANCH   1  27
ATOM     27  C   UNL A   1      32.509  27.547  26.690  1.00  0.00     0.042 C 
BRANCH  27  28
ATOM     28  C   UNL A   1      33.843  28.247  26.912  1.00  0.00     0.118 C 
BRANCH  28  29
ATOM     29  N   UNL A   1      33.683  29.617  27.369  1.00  0.00    -0.352 N 
ATOM     30  C   UNL A   1      34.545  30.415  28.081  1.00  0.00     0.251 C 
ATOM     31  H   UNL A   1      32.826  30.038  27.131  1.00  0.00     0.163 HD
ATOM     32  O   UNL A   1      34.132  31.468  28.555  1.00  0.00    -0.269 OA
BRANCH  30  33
ATOM     33  C   UNL A   1      35.948  29.997  28.295  1.00  0.00     0.039 A 
ATOM     34  C   UNL A   1      36.859  30.144  27.248  1.00  0.00     0.014 A 
ATOM     35  C   UNL A   1      36.364  29.442  29.509  1.00  0.00     0.014 A 
ATOM     36  C   UNL A   1      38.194  29.786  27.439  1.00  0.00     0.010 A 
ATOM     37  C   UNL A   1      37.713  29.185  29.731  1.00  0.00     0.010 A 
ATOM     38  C   UNL A   1      38.641  29.333  28.693  1.00  0.00    -0.014 A 
BRANCH  38  39
ATOM     39  C   UNL A   1      40.072  29.003  28.914  1.00  0.00     0.031 A 
ATOM     40  C   UNL A   1      40.991  29.992  29.582  1.00  0.00     0.074 A 
ATOM     41  C   UNL A   1      40.549  27.816  28.493  1.00  0.00     0.049 A 
ATOM     42  N   UNL A   1      42.253  29.859  29.904  1.00  0.00    -0.248 NA
ATOM     43  C   UNL A   1      40.428  31.312  29.905  1.00  0.00     0.031 C 
ATOM     44  C   UNL A   1      39.773  26.800  27.777  1.00  0.00     0.029 A 
ATOM     45  N   UNL A   1      41.793  27.255  28.619  1.00  0.00    -0.354 N 
ATOM     46  C   UNL A   1      42.631  31.074  30.463  1.00  0.00     0.074 A 
ATOM     47  C   UNL A   1      41.489  31.956  30.365  1.00  0.00     0.031 C 
ATOM     48  C   UNL A   1      40.542  25.717  27.582  1.00  0.00     0.029 A 
ATOM     49  C   UNL A   1      41.871  25.973  28.129  1.00  0.00     0.049 A 
ATOM     50  H   UNL A   1      42.559  27.725  29.022  1.00  0.00     0.167 HD
ATOM     51  C   UNL A   1      43.811  31.416  31.038  1.00  0.00     0.037 A 
ATOM     52  C   UNL A   1      42.890  25.094  28.139  1.00  0.00     0.037 A 
ATOM     53  C   UNL A   1      44.942  30.531  31.137  1.00  0.00     0.049 A 
ATOM     54  C   UNL A   1      44.189  25.490  28.785  1.00  0.00     0.074 A 
ATOM     55  C   UNL A   1      46.170  30.760  31.732  1.00  0.00     0.029 A 
ATOM     56  N   UNL A   1      44.985  29.243  30.621  1.00  0.00    -0.354 N 
ATOM     57  N   UNL A   1      44.511  26.621  29.366  1.00  0.00    -0.248 NA
ATOM     58  C   UNL A   1      45.258  24.484  28.784  1.00  0.00     0.031 C 
ATOM     59  C   UNL A   1      46.970  29.627  31.539  1.00  0.00     0.029 A 
ATOM     60  C   UNL A   1      46.223  28.672  30.868  1.00  0.00     0.049 A 
ATOM     61  H   UNL A   1      44.243  28.799  30.149  1.00  0.00     0.167 HD
ATOM     62  C   UNL A   1      45.813  26.454  29.827  1.00  0.00     0.074 A 
ATOM     63  C   UNL A   1      46.209  25.106  29.467  1.00  0.00     0.031 C 
ATOM     64  C   UNL A   1      46.607  27.333  30.490  1.00  0.00     0.037 A 
BRANCH  51  65
ATOM     65  C   UNL A   1      43.921  32.812  31.597  1.00  0.00     0.058 A 
ATOM     66  C   UNL A   1      43.546  33.108  32.920  1.00  0.00     0.135 A 
ATOM     67  C   UNL A   1      44.383  33.871  30.800  1.00  0.00     0.135 A 
ATOM     68  F   UNL A   1      43.084  32.138  33.725  1.00  0.00    -0.206 F 
ATOM     69  C   UNL A   1      43.569  34.409  33.411  1.00  0.00     0.059 A 
ATOM     70  C   UNL A   1      44.446  35.175  31.281  1.00  0.00     0.059 A 
ATOM     71  F   UNL A   1      44.760  33.648  29.531  1.00  0.00    -0.206 F 
ATOM     72  C   UNL A   1      44.011  35.439  32.579  1.00  0.00     0.060 A 
BRANCH  72  73
ATOM     73  S   UNL A   1      43.994  37.128  33.214  1.00  0.00     0.124 S 
ATOM     74  O   UNL A   1      45.217  37.151  34.010  1.00  0.00    -0.237 OA
ATOM     75  O   UNL A   1      44.020  37.925  31.991  1.00  0.00    -0.237 OA
ATOM     76  O   UNL A   1      42.750  37.193  33.974  1.00  0.00    -0.744 OA
ENDBRANCH  72  73
ENDBRANCH  51  65
BRANCH  52  77
ATOM     77  C   UNL A   1      42.692  23.729  27.584  1.00  0.00     0.058 A 
ATOM     78  C   UNL A   1      42.843  23.487  26.211  1.00  0.00     0.135 A 
ATOM     79  C   UNL A   1      42.393  22.636  28.413  1.00  0.00     0.135 A 
ATOM     80  F   UNL A   1      43.124  24.501  25.378  1.00  0.00    -0.206 F 
ATOM     81  C   UNL A   1      42.701  22.212  25.675  1.00  0.00     0.059 A 
ATOM     82  C   UNL A   1      42.270  21.347  27.904  1.00  0.00     0.059 A 
ATOM     83  F   UNL A   1      42.256  22.813  29.736  1.00  0.00    -0.206 F 
ATOM     84  C   UNL A   1      42.422  21.146  26.532  1.00  0.00     0.060 A 
BRANCH  84  85
ATOM     85  S   UNL A   1      42.319  19.482  25.836  1.00  0.00     0.124 S 
ATOM     86  O   UNL A   1      43.289  19.556  24.751  1.00  0.00    -0.237 OA
ATOM     87  O   UNL A   1      42.695  18.651  26.975  1.00  0.00    -0.237 OA
ATOM     88  O   UNL A   1      40.921  19.376  25.427  1.00  0.00    -0.744 OA
ENDBRANCH  84  85
ENDBRANCH  52  77
BRANCH  64  89
ATOM     89  C   UNL A   1      47.974  26.846  30.888  1.00  0.00     0.058 A 
ATOM     90  C   UNL A   1      48.209  26.228  32.127  1.00  0.00     0.135 A 
ATOM     91  C   UNL A   1      49.066  27.007  30.019  1.00  0.00     0.135 A 
ATOM     92  F   UNL A   1      47.200  26.053  32.996  1.00  0.00    -0.206 F 
ATOM     93  C   UNL A   1      49.486  25.832  32.512  1.00  0.00     0.059 A 
ATOM     94  C   UNL A   1      50.346  26.589  30.370  1.00  0.00     0.059 A 
ATOM     95  F   UNL A   1      48.896  27.577  28.816  1.00  0.00    -0.206 F 
ATOM     96  C   UNL A   1      50.550  26.025  31.628  1.00  0.00     0.060 A 
BRANCH  96  97
ATOM     97  S   UNL A   1      52.206  25.526  32.144  1.00  0.00     0.124 S 
ATOM     98  O   UNL A   1      52.024  24.095  32.365  1.00  0.00    -0.237 OA
ATOM     99  O   UNL A   1      53.019  25.891  30.987  1.00  0.00    -0.237 OA
ATOM    100  O   UNL A   1      52.441  26.322  33.345  1.00  0.00    -0.744 OA
ENDBRANCH  96  97
ENDBRANCH  64  89
ENDBRANCH  38  39
ENDBRANCH  30  33
ENDBRANCH  28  29
ENDBRANCH  27  28
ENDBRANCH   1  27
TORSDOF 18
ENDMDL
MODEL 3
REMARK VINA RESULT:     -11.2      2.846      8.873
REMARK SMILES CCNC(=O)NC(=O)[C@@H](C)[NH2+][C@](C)(C(=O)NCCCNC(=O)c1ccc(-c2c3nc(c(-c4c(F)cc(S(=O)(=O)[O-])cc4F)c4ccc([nH]4)c(-c4c(F)cc(S(=O)(=O)[O-])cc4F)c4nc(c(-c5c(F)cc(S(=O)(=O)[O-])cc5F)c5ccc2[nH]5)C=C4)C=C3)cc1)C(F)(F)F
REMARK SMILES IDX 17 1 16 2 14 3 15 4 12 6 13 7 11 8 9 11 10 12 7 13 3 14 4 15
REMARK SMILES IDX 5 17 6 18 8 20 2 21 1 22 89 23 90 24 91 25 92 26 18 27 19 28
REMARK SMILES IDX 20 29 21 30 22 32 23 33 24 34 88 35 25 36 87 37 26 38 27 39
REMARK SMILES IDX 28 40 81 41 29 42 86 43 80 44 82 45 30 46 85 47 79 48 78 49
REMARK SMILES IDX 31 51 65 52 44 53 64 54 45 55 48 56 63 57 83 58 46 59 47 60
REMARK SMILES IDX 62 62 84 63 49 64 32 65 33 66 42 67 34 68 35 69 41 70 43 71
REMARK SMILES IDX 36 72 37 73 38 74 39 75 40 76 66 77 67 78 76 79 68 80 69 81
REMARK SMILES IDX 75 82 77 83 70 84 71 85 72 86 73 87 74 88 50 89 51 90 60 91
REMARK SMILES IDX 52 92 53 93 59 94 61 95 54 96 55 97 56 98 57 99 58 100
REMARK H PARENT 16 5 11 9 11 10 3 16 6 19 20 31 82 50 48 61
REMARK Flexibility Score: inf
ROOT
ATOM      1  C   UNL A   1      34.343  24.417  25.507  1.00  0.00     0.118 C 
ENDROOT
BRANCH   1   2
ATOM      2  N   UNL A   1      33.151  24.089  26.274  1.00  0.00    -0.350 N 
ATOM      3  C   UNL A   1      31.866  24.560  26.238  1.00  0.00     0.290 C 
ATOM      4  O   UNL A   1      31.153  24.221  27.183  1.00  0.00    -0.267 OA
ATOM      5  H   UNL A   1      33.297  23.390  26.953  1.00  0.00     0.163 HD
BRANCH   3   6
ATOM      6  C   UNL A   1      31.343  25.351  25.007  1.00  0.00     0.269 C 
ATOM      7  C   UNL A   1      29.965  25.972  25.301  1.00  0.00     0.101 C 
BRANCH   6   8
ATOM      8  N   UNL A   1      32.455  26.321  24.662  1.00  0.00    -0.316 N 
ATOM      9  H   UNL A   1      33.028  26.421  25.500  1.00  0.00     0.348 HD
ATOM     10  H   UNL A   1      32.891  25.895  23.843  1.00  0.00     0.348 HD
BRANCH   8  11
ATOM     11  C   UNL A   1      32.134  27.679  24.202  1.00  0.00     0.271 C 
ATOM     12  C   UNL A   1      31.382  27.879  22.887  1.00  0.00     0.086 C 
BRANCH  11  13
ATOM     13  C   UNL A   1      33.423  28.517  24.156  1.00  0.00     0.285 C 
ATOM     14  N   UNL A   1      33.604  28.612  27.591  1.00  0.00    -0.338 N 
ATOM     15  C   UNL A   1      34.306  29.169  26.607  1.00  0.00     0.321 C 
ATOM     16  H   UNL A   1      33.973  28.812  28.480  1.00  0.00     0.165 HD
ATOM     17  O   UNL A   1      35.239  29.909  26.948  1.00  0.00    -0.248 OA
ATOM     18  N   UNL A   1      34.121  29.011  25.257  1.00  0.00    -0.273 N 
ATOM     19  H   UNL A   1      34.873  29.505  24.857  1.00  0.00     0.175 HD
ATOM     20  O   UNL A   1      33.910  28.792  23.047  1.00  0.00    -0.268 OA
BRANCH  14  21
ATOM     21  C   UNL A   1      32.433  27.784  27.653  1.00  0.00     0.114 C 
ATOM     22  C   UNL A   1      31.137  28.567  27.655  1.00  0.00     0.027 C 
ENDBRANCH  14  21
ENDBRANCH  11  13
ENDBRANCH   8  11
ENDBRANCH   6   8
BRANCH   6  23
ATOM     23  C   UNL A   1      31.098  24.255  23.917  1.00  0.00     0.453 C 
ATOM     24  F   UNL A   1      30.890  23.027  24.448  1.00  0.00    -0.164 F 
ATOM     25  F   UNL A   1      29.980  24.545  23.196  1.00  0.00    -0.164 F 
ATOM     26  F   UNL A   1      32.103  24.152  23.018  1.00  0.00    -0.164 F 
ENDBRANCH   6  23
ENDBRANCH   3   6
ENDBRANCH   1   2
BRANCH   1  27
ATOM     27  C   UNL A   1      35.516  23.529  25.902  1.00  0.00     0.042 C 
BRANCH  27  28
ATOM     28  C   UNL A   1      36.874  24.112  25.533  1.00  0.00     0.118 C 
BRANCH  28  29
ATOM     29  N   UNL A   1      37.949  23.143  25.665  1.00  0.00    -0.352 N 
ATOM     30  C   UNL A   1      39.206  23.289  26.200  1.00  0.00     0.251 C 
ATOM     31  H   UNL A   1      37.746  22.245  25.318  1.00  0.00     0.163 HD
ATOM     32  O   UNL A   1      40.040  22.408  26.018  1.00  0.00    -0.269 OA
BRANCH  30  33
ATOM     33  C   UNL A   1      39.557  24.504  26.967  1.00  0.00     0.039 A 
ATOM     34  C   UNL A   1      39.084  24.633  28.274  1.00  0.00     0.014 A 
ATOM     35  C   UNL A   1      40.327  25.524  26.401  1.00  0.00     0.014 A 
ATOM     36  C   UNL A   1      39.429  25.757  29.026  1.00  0.00     0.010 A 
ATOM     37  C   UNL A   1      40.756  26.591  27.184  1.00  0.00     0.010 A 
ATOM     38  C   UNL A   1      40.296  26.731  28.500  1.00  0.00    -0.014 A 
BRANCH  38  39
ATOM     39  C   UNL A   1      40.708  27.900  29.317  1.00  0.00     0.031 A 
ATOM     40  C   UNL A   1      39.793  29.086  29.473  1.00  0.00     0.074 A 
ATOM     41  C   UNL A   1      41.921  27.902  29.902  1.00  0.00     0.049 A 
ATOM     42  N   UNL A   1      39.962  30.170  30.187  1.00  0.00    -0.248 NA
ATOM     43  C   UNL A   1      38.537  29.064  28.708  1.00  0.00     0.031 C 
ATOM     44  C   UNL A   1      42.923  26.840  29.774  1.00  0.00     0.029 A 
ATOM     45  N   UNL A   1      42.513  28.816  30.736  1.00  0.00    -0.354 N 
ATOM     46  C   UNL A   1      38.839  30.955  29.955  1.00  0.00     0.074 A 
ATOM     47  C   UNL A   1      38.035  30.259  28.974  1.00  0.00     0.031 C 
ATOM     48  C   UNL A   1      43.978  27.135  30.549  1.00  0.00     0.029 A 
ATOM     49  C   UNL A   1      43.742  28.418  31.204  1.00  0.00     0.049 A 
ATOM     50  H   UNL A   1      42.097  29.676  30.976  1.00  0.00     0.167 HD
ATOM     51  C   UNL A   1      38.490  32.133  30.528  1.00  0.00     0.037 A 
ATOM     52  C   UNL A   1      44.577  29.009  32.080  1.00  0.00     0.037 A 
ATOM     53  C   UNL A   1      39.293  32.819  31.507  1.00  0.00     0.049 A 
ATOM     54  C   UNL A   1      44.170  30.313  32.708  1.00  0.00     0.074 A 
ATOM     55  C   UNL A   1      39.018  33.995  32.180  1.00  0.00     0.029 A 
ATOM     56  N   UNL A   1      40.537  32.389  31.950  1.00  0.00    -0.354 N 
ATOM     57  N   UNL A   1      43.075  31.012  32.526  1.00  0.00    -0.248 NA
ATOM     58  C   UNL A   1      45.110  30.901  33.671  1.00  0.00     0.031 C 
ATOM     59  C   UNL A   1      40.113  34.299  32.998  1.00  0.00     0.029 A 
ATOM     60  C   UNL A   1      41.049  33.285  32.874  1.00  0.00     0.049 A 
ATOM     61  H   UNL A   1      40.988  31.566  31.651  1.00  0.00     0.167 HD
ATOM     62  C   UNL A   1      43.180  32.111  33.373  1.00  0.00     0.074 A 
ATOM     63  C   UNL A   1      44.441  31.971  34.077  1.00  0.00     0.031 C 
ATOM     64  C   UNL A   1      42.313  33.139  33.554  1.00  0.00     0.037 A 
BRANCH  51  65
ATOM     65  C   UNL A   1      37.180  32.743  30.098  1.00  0.00     0.058 A 
ATOM     66  C   UNL A   1      37.107  33.662  29.036  1.00  0.00     0.135 A 
ATOM     67  C   UNL A   1      35.986  32.426  30.765  1.00  0.00     0.135 A 
ATOM     68  F   UNL A   1      38.219  34.014  28.369  1.00  0.00    -0.206 F 
ATOM     69  C   UNL A   1      35.914  34.288  28.692  1.00  0.00     0.059 A 
ATOM     70  C   UNL A   1      34.774  33.014  30.415  1.00  0.00     0.059 A 
ATOM     71  F   UNL A   1      35.992  31.551  31.783  1.00  0.00    -0.206 F 
ATOM     72  C   UNL A   1      34.753  33.964  29.396  1.00  0.00     0.060 A 
BRANCH  72  73
ATOM     73  S   UNL A   1      33.220  34.816  28.969  1.00  0.00     0.124 S 
ATOM     74  O   UNL A   1      32.647  33.903  27.984  1.00  0.00    -0.237 OA
ATOM     75  O   UNL A   1      32.527  34.879  30.251  1.00  0.00    -0.237 OA
ATOM     76  O   UNL A   1      33.678  36.098  28.444  1.00  0.00    -0.744 OA
ENDBRANCH  72  73
ENDBRANCH  51  65
BRANCH  52  77
ATOM     77  C   UNL A   1      45.842  28.330  32.466  1.00  0.00     0.058 A 
ATOM     78  C   UNL A   1      45.868  27.416  33.528  1.00  0.00     0.135 A 
ATOM     79  C   UNL A   1      47.035  28.545  31.758  1.00  0.00     0.135 A 
ATOM     80  F   UNL A   1      44.753  27.182  34.238  1.00  0.00    -0.206 F 
ATOM     81  C   UNL A   1      47.030  26.740  33.882  1.00  0.00     0.059 A 
ATOM     82  C   UNL A   1      48.205  27.863  32.076  1.00  0.00     0.059 A 
ATOM     83  F   UNL A   1      47.058  29.397  30.721  1.00  0.00    -0.206 F 
ATOM     84  C   UNL A   1      48.193  26.965  33.144  1.00  0.00     0.060 A 
BRANCH  84  85
ATOM     85  S   UNL A   1      49.677  26.023  33.560  1.00  0.00     0.124 S 
ATOM     86  O   UNL A   1      49.326  24.693  33.076  1.00  0.00    -0.237 OA
ATOM     87  O   UNL A   1      50.708  26.728  32.805  1.00  0.00    -0.237 OA
ATOM     88  O   UNL A   1      49.767  26.164  35.011  1.00  0.00    -0.744 OA
ENDBRANCH  84  85
ENDBRANCH  52  77
BRANCH  64  89
ATOM     89  C   UNL A   1      42.695  34.177  34.575  1.00  0.00     0.058 A 
ATOM     90  C   UNL A   1      43.422  35.327  34.226  1.00  0.00     0.135 A 
ATOM     91  C   UNL A   1      42.333  34.015  35.923  1.00  0.00     0.135 A 
ATOM     92  F   UNL A   1      43.795  35.529  32.953  1.00  0.00    -0.206 F 
ATOM     93  C   UNL A   1      43.820  36.254  35.185  1.00  0.00     0.059 A 
ATOM     94  C   UNL A   1      42.693  34.945  36.893  1.00  0.00     0.059 A 
ATOM     95  F   UNL A   1      41.625  32.942  36.309  1.00  0.00    -0.206 F 
ATOM     96  C   UNL A   1      43.457  36.049  36.518  1.00  0.00     0.060 A 
BRANCH  96  97
ATOM     97  S   UNL A   1      43.995  37.246  37.756  1.00  0.00     0.124 S 
ATOM     98  O   UNL A   1      42.747  37.514  38.464  1.00  0.00    -0.237 OA
ATOM     99  O   UNL A   1      44.999  36.495  38.504  1.00  0.00    -0.237 OA
ATOM    100  O   UNL A   1      44.514  38.352  36.956  1.00  0.00    -0.744 OA
ENDBRANCH  96  97
ENDBRANCH  64  89
ENDBRANCH  38  39
ENDBRANCH  30  33
ENDBRANCH  28  29
ENDBRANCH  27  28
ENDBRANCH   1  27
TORSDOF 18
ENDMDL
