MODEL 1
REMARK VINA RESULT:     -12.1      0.000      0.000
REMARK SMILES O=C(NCCCNC(=O)[C@@H]1CCCC[C@@H]1C(=O)Nc1cccc(Br)c1)c1ccc(-c2c3nc(c(-c4c(F)cc(S(=O)(=O)[O-])cc4F)c4ccc([nH]4)c(-c4c(F)cc(S(=O)(=O)[O-])cc4F)c4nc(c(-c5c(F)cc(S(=O)(=O)[O-])cc5F)c5ccc2[nH]5)C=C4)C=C3)cc1
REMARK SMILES IDX 4 1 3 2 1 3 2 4 26 6 27 7 91 8 28 9 90 10 29 11 30 12 31 13
REMARK SMILES IDX 84 14 32 15 89 16 83 17 85 18 33 19 88 20 82 21 81 22 34 24
REMARK SMILES IDX 68 25 47 26 67 27 48 28 51 29 66 30 86 31 49 32 50 33 65 35
REMARK SMILES IDX 87 36 52 37 35 38 36 39 45 40 37 41 38 42 44 43 46 44 39 45
REMARK SMILES IDX 40 46 41 47 42 48 43 49 69 50 70 51 79 52 71 53 72 54 78 55
REMARK SMILES IDX 80 56 73 57 74 58 75 59 76 60 77 61 53 62 54 63 63 64 55 65
REMARK SMILES IDX 56 66 62 67 64 68 57 69 58 70 59 71 60 72 61 73 5 74 6 75
REMARK SMILES IDX 7 76 8 77 9 79 10 80 11 81 15 82 12 83 14 84 13 85 16 86
REMARK SMILES IDX 17 87 18 88 19 90 20 91 25 92 21 93 23 94 22 95 24 96
REMARK H PARENT 3 5 85 23 51 34 7 78 18 89
REMARK Flexibility Score: inf
ROOT
ATOM      1  C   UNL A   1      34.133  28.198  26.311  1.00  0.00     0.118 C 
ENDROOT
BRANCH   1   2
ATOM      2  N   UNL A   1      33.875  29.561  26.770  1.00  0.00    -0.352 N 
ATOM      3  O   UNL A   1      34.007  31.384  28.113  1.00  0.00    -0.269 OA
ATOM      4  C   UNL A   1      34.523  30.354  27.703  1.00  0.00     0.251 C 
ATOM      5  H   UNL A   1      33.102  29.994  26.339  1.00  0.00     0.163 HD
BRANCH   4   6
ATOM      6  C   UNL A   1      35.864  29.977  28.177  1.00  0.00     0.039 A 
ATOM      7  C   UNL A   1      36.924  30.190  27.309  1.00  0.00     0.014 A 
ATOM      8  C   UNL A   1      36.094  29.502  29.477  1.00  0.00     0.014 A 
ATOM      9  C   UNL A   1      38.178  29.732  27.644  1.00  0.00     0.010 A 
ATOM     10  C   UNL A   1      37.397  29.163  29.866  1.00  0.00     0.010 A 
ATOM     11  C   UNL A   1      38.441  29.245  28.935  1.00  0.00    -0.014 A 
BRANCH  11  12
ATOM     12  C   UNL A   1      39.860  28.923  29.219  1.00  0.00     0.031 A 
ATOM     13  C   UNL A   1      40.467  27.644  28.735  1.00  0.00     0.074 A 
ATOM     14  C   UNL A   1      40.620  29.930  29.696  1.00  0.00     0.049 A 
ATOM     15  N   UNL A   1      41.730  27.344  28.589  1.00  0.00    -0.248 NA
ATOM     16  C   UNL A   1      39.545  26.558  28.367  1.00  0.00     0.031 C 
ATOM     17  C   UNL A   1      40.090  31.212  30.181  1.00  0.00     0.029 A 
ATOM     18  N   UNL A   1      41.979  30.099  29.736  1.00  0.00    -0.354 N 
ATOM     19  C   UNL A   1      41.760  26.032  28.135  1.00  0.00     0.074 A 
ATOM     20  C   UNL A   1      40.387  25.587  28.036  1.00  0.00     0.031 C 
ATOM     21  C   UNL A   1      41.101  32.078  30.326  1.00  0.00     0.029 A 
ATOM     22  C   UNL A   1      42.353  31.392  30.033  1.00  0.00     0.049 A 
ATOM     23  H   UNL A   1      42.621  29.372  29.570  1.00  0.00     0.167 HD
ATOM     24  C   UNL A   1      42.844  25.276  27.838  1.00  0.00     0.037 A 
ATOM     25  C   UNL A   1      43.570  31.967  30.047  1.00  0.00     0.037 A 
ATOM     26  C   UNL A   1      44.199  25.758  27.940  1.00  0.00     0.049 A 
ATOM     27  C   UNL A   1      44.750  31.115  29.684  1.00  0.00     0.074 A 
ATOM     28  C   UNL A   1      45.378  25.083  27.678  1.00  0.00     0.029 A 
ATOM     29  N   UNL A   1      44.554  27.041  28.337  1.00  0.00    -0.354 N 
ATOM     30  N   UNL A   1      44.763  29.872  29.259  1.00  0.00    -0.248 NA
ATOM     31  C   UNL A   1      46.075  31.728  29.818  1.00  0.00     0.031 C 
ATOM     32  C   UNL A   1      46.445  25.945  27.959  1.00  0.00     0.029 A 
ATOM     33  C   UNL A   1      45.932  27.174  28.345  1.00  0.00     0.049 A 
ATOM     34  H   UNL A   1      43.917  27.752  28.579  1.00  0.00     0.167 HD
ATOM     35  C   UNL A   1      46.102  29.551  29.075  1.00  0.00     0.074 A 
ATOM     36  C   UNL A   1      46.862  30.743  29.403  1.00  0.00     0.031 C 
ATOM     37  C   UNL A   1      46.655  28.376  28.682  1.00  0.00     0.037 A 
BRANCH  24  38
ATOM     38  C   UNL A   1      42.610  23.845  27.437  1.00  0.00     0.058 A 
ATOM     39  C   UNL A   1      42.497  22.810  28.380  1.00  0.00     0.135 A 
ATOM     40  C   UNL A   1      42.485  23.505  26.079  1.00  0.00     0.135 A 
ATOM     41  F   UNL A   1      42.629  23.072  29.690  1.00  0.00    -0.206 F 
ATOM     42  C   UNL A   1      42.295  21.488  27.990  1.00  0.00     0.059 A 
ATOM     43  C   UNL A   1      42.260  22.194  25.668  1.00  0.00     0.059 A 
ATOM     44  F   UNL A   1      42.590  24.452  25.134  1.00  0.00    -0.206 F 
ATOM     45  C   UNL A   1      42.182  21.189  26.631  1.00  0.00     0.060 A 
BRANCH  45  46
ATOM     46  S   UNL A   1      41.936  19.469  26.138  1.00  0.00     0.124 S 
ATOM     47  O   UNL A   1      42.792  19.380  24.960  1.00  0.00    -0.237 OA
ATOM     48  O   UNL A   1      42.399  18.738  27.314  1.00  0.00    -0.237 OA
ATOM     49  O   UNL A   1      40.501  19.391  25.880  1.00  0.00    -0.744 OA
ENDBRANCH  45  46
ENDBRANCH  24  38
BRANCH  25  50
ATOM     50  C   UNL A   1      43.716  33.400  30.423  1.00  0.00     0.058 A 
ATOM     51  C   UNL A   1      43.968  33.795  31.745  1.00  0.00     0.135 A 
ATOM     52  C   UNL A   1      43.642  34.409  29.448  1.00  0.00     0.135 A 
ATOM     53  F   UNL A   1      44.046  32.875  32.718  1.00  0.00    -0.206 F 
ATOM     54  C   UNL A   1      44.134  35.135  32.088  1.00  0.00     0.059 A 
ATOM     55  C   UNL A   1      43.838  35.748  29.758  1.00  0.00     0.059 A 
ATOM     56  F   UNL A   1      43.419  34.087  28.163  1.00  0.00    -0.206 F 
ATOM     57  C   UNL A   1      44.072  36.105  31.084  1.00  0.00     0.060 A 
BRANCH  57  58
ATOM     58  S   UNL A   1      44.345  37.836  31.520  1.00  0.00     0.124 S 
ATOM     59  O   UNL A   1      43.633  37.932  32.790  1.00  0.00    -0.237 OA
ATOM     60  O   UNL A   1      45.800  37.910  31.595  1.00  0.00    -0.237 OA
ATOM     61  O   UNL A   1      43.744  38.560  30.404  1.00  0.00    -0.744 OA
ENDBRANCH  57  58
ENDBRANCH  25  50
BRANCH  37  62
ATOM     62  C   UNL A   1      48.150  28.345  28.568  1.00  0.00     0.058 A 
ATOM     63  C   UNL A   1      48.805  28.664  27.367  1.00  0.00     0.135 A 
ATOM     64  C   UNL A   1      48.937  28.009  29.680  1.00  0.00     0.135 A 
ATOM     65  F   UNL A   1      48.094  28.984  26.275  1.00  0.00    -0.206 F 
ATOM     66  C   UNL A   1      50.190  28.614  27.264  1.00  0.00     0.059 A 
ATOM     67  C   UNL A   1      50.324  27.981  29.607  1.00  0.00     0.059 A 
ATOM     68  F   UNL A   1      48.356  27.708  30.853  1.00  0.00    -0.206 F 
ATOM     69  C   UNL A   1      50.940  28.267  28.389  1.00  0.00     0.060 A 
BRANCH  69  70
ATOM     70  S   UNL A   1      52.738  28.212  28.247  1.00  0.00     0.124 S 
ATOM     71  O   UNL A   1      53.135  29.294  29.141  1.00  0.00    -0.237 OA
ATOM     72  O   UNL A   1      53.048  26.862  28.709  1.00  0.00    -0.237 OA
ATOM     73  O   UNL A   1      52.972  28.451  26.827  1.00  0.00    -0.744 OA
ENDBRANCH  69  70
ENDBRANCH  37  62
ENDBRANCH  11  12
ENDBRANCH   4   6
ENDBRANCH   1   2
BRANCH   1  74
ATOM     74  C   UNL A   1      33.008  27.188  26.550  1.00  0.00     0.042 C 
BRANCH  74  75
ATOM     75  C   UNL A   1      33.192  25.699  26.192  1.00  0.00     0.117 C 
BRANCH  75  76
ATOM     76  N   UNL A   1      34.378  25.316  25.450  1.00  0.00    -0.356 N 
ATOM     77  C   UNL A   1      34.725  24.094  24.932  1.00  0.00     0.223 C 
ATOM     78  H   UNL A   1      35.028  26.038  25.294  1.00  0.00     0.163 HD
ATOM     79  O   UNL A   1      35.753  24.042  24.254  1.00  0.00    -0.275 OA
BRANCH  77  80
ATOM     80  C   UNL A   1      33.873  22.854  25.212  1.00  0.00     0.091 C 
ATOM     81  C   UNL A   1      34.580  21.562  24.783  1.00  0.00     0.014 C 
ATOM     82  C   UNL A   1      32.446  22.921  24.645  1.00  0.00     0.091 C 
ATOM     83  C   UNL A   1      33.784  20.317  25.185  1.00  0.00     0.001 C 
ATOM     84  C   UNL A   1      31.646  21.706  25.162  1.00  0.00     0.014 C 
ATOM     85  C   UNL A   1      32.304  20.373  24.806  1.00  0.00     0.001 C 
BRANCH  82  86
ATOM     86  C   UNL A   1      32.283  22.937  23.097  1.00  0.00     0.228 C 
ATOM     87  O   UNL A   1      32.788  22.109  22.343  1.00  0.00    -0.274 OA
ATOM     88  N   UNL A   1      31.331  23.807  22.604  1.00  0.00    -0.326 N 
ATOM     89  H   UNL A   1      30.740  23.501  21.879  1.00  0.00     0.169 HD
BRANCH  88  90
ATOM     90  C   UNL A   1      31.174  25.103  23.095  1.00  0.00     0.042 A 
ATOM     91  C   UNL A   1      30.012  25.401  23.795  1.00  0.00     0.026 A 
ATOM     92  C   UNL A   1      32.121  26.088  22.828  1.00  0.00     0.041 A 
ATOM     93  C   UNL A   1      29.745  26.711  24.134  1.00  0.00     0.003 A 
ATOM     94  C   UNL A   1      31.809  27.414  23.133  1.00  0.00     0.020 A 
ATOM     95  C   UNL A   1      30.609  27.733  23.761  1.00  0.00     0.016 A 
ATOM     96  Br  UNL A   1      32.996  28.804  22.658  1.00  0.00    -0.051 Br
ENDBRANCH  88  90
ENDBRANCH  82  86
ENDBRANCH  77  80
ENDBRANCH  75  76
ENDBRANCH  74  75
ENDBRANCH   1  74
TORSDOF 15
ENDMDL
MODEL 2
REMARK VINA RESULT:     -12.0      4.219      9.603
REMARK SMILES O=C(NCCCNC(=O)[C@@H]1CCCC[C@@H]1C(=O)Nc1cccc(Br)c1)c1ccc(-c2c3nc(c(-c4c(F)cc(S(=O)(=O)[O-])cc4F)c4ccc([nH]4)c(-c4c(F)cc(S(=O)(=O)[O-])cc4F)c4nc(c(-c5c(F)cc(S(=O)(=O)[O-])cc5F)c5ccc2[nH]5)C=C4)C=C3)cc1
REMARK SMILES IDX 4 1 3 2 1 3 2 4 26 6 27 7 91 8 28 9 90 10 29 11 30 12 31 13
REMARK SMILES IDX 84 14 32 15 89 16 83 17 85 18 33 19 88 20 82 21 81 22 34 24
REMARK SMILES IDX 68 25 47 26 67 27 48 28 51 29 66 30 86 31 49 32 50 33 65 35
REMARK SMILES IDX 87 36 52 37 35 38 36 39 45 40 37 41 38 42 44 43 46 44 39 45
REMARK SMILES IDX 40 46 41 47 42 48 43 49 69 50 70 51 79 52 71 53 72 54 78 55
REMARK SMILES IDX 80 56 73 57 74 58 75 59 76 60 77 61 53 62 54 63 63 64 55 65
REMARK SMILES IDX 56 66 62 67 64 68 57 69 58 70 59 71 60 72 61 73 5 74 6 75
REMARK SMILES IDX 7 76 8 77 9 79 10 80 11 81 15 82 12 83 14 84 13 85 16 86
REMARK SMILES IDX 17 87 18 88 19 90 20 91 25 92 21 93 23 94 22 95 24 96
REMARK H PARENT 3 5 85 23 51 34 7 78 18 89
REMARK Flexibility Score: inf
ROOT
ATOM      1  C   UNL A   1      36.585  23.859  25.850  1.00  0.00     0.118 C 
ENDROOT
BRANCH   1   2
ATOM      2  N   UNL A   1      37.672  22.883  25.919  1.00  0.00    -0.352 N 
ATOM      3  O   UNL A   1      39.806  22.121  25.989  1.00  0.00    -0.269 OA
ATOM      4  C   UNL A   1      39.018  23.028  26.214  1.00  0.00     0.251 C 
ATOM      5  H   UNL A   1      37.398  21.959  25.722  1.00  0.00     0.163 HD
BRANCH   4   6
ATOM      6  C   UNL A   1      39.500  24.268  26.841  1.00  0.00     0.039 A 
ATOM      7  C   UNL A   1      39.289  24.410  28.205  1.00  0.00     0.014 A 
ATOM      8  C   UNL A   1      40.218  25.239  26.130  1.00  0.00     0.014 A 
ATOM      9  C   UNL A   1      39.595  25.602  28.819  1.00  0.00     0.010 A 
ATOM     10  C   UNL A   1      40.652  26.398  26.789  1.00  0.00     0.010 A 
ATOM     11  C   UNL A   1      40.309  26.598  28.133  1.00  0.00    -0.014 A 
BRANCH  11  12
ATOM     12  C   UNL A   1      40.708  27.773  28.945  1.00  0.00     0.031 A 
ATOM     13  C   UNL A   1      39.741  28.884  29.210  1.00  0.00     0.074 A 
ATOM     14  C   UNL A   1      41.866  27.665  29.627  1.00  0.00     0.049 A 
ATOM     15  N   UNL A   1      39.784  29.797  30.144  1.00  0.00    -0.248 NA
ATOM     16  C   UNL A   1      38.577  28.992  28.318  1.00  0.00     0.031 C 
ATOM     17  C   UNL A   1      42.855  26.598  29.421  1.00  0.00     0.029 A 
ATOM     18  N   UNL A   1      42.354  28.362  30.701  1.00  0.00    -0.354 N 
ATOM     19  C   UNL A   1      38.670  30.602  29.942  1.00  0.00     0.074 A 
ATOM     20  C   UNL A   1      37.971  30.074  28.790  1.00  0.00     0.031 C 
ATOM     21  C   UNL A   1      43.743  26.623  30.423  1.00  0.00     0.029 A 
ATOM     22  C   UNL A   1      43.442  27.755  31.289  1.00  0.00     0.049 A 
ATOM     23  H   UNL A   1      41.965  29.209  31.019  1.00  0.00     0.167 HD
ATOM     24  C   UNL A   1      38.282  31.684  30.657  1.00  0.00     0.037 A 
ATOM     25  C   UNL A   1      44.112  28.066  32.414  1.00  0.00     0.037 A 
ATOM     26  C   UNL A   1      39.000  32.175  31.807  1.00  0.00     0.049 A 
ATOM     27  C   UNL A   1      43.641  29.251  33.204  1.00  0.00     0.074 A 
ATOM     28  C   UNL A   1      38.710  33.268  32.604  1.00  0.00     0.029 A 
ATOM     29  N   UNL A   1      40.154  31.599  32.322  1.00  0.00    -0.354 N 
ATOM     30  N   UNL A   1      42.586  30.005  32.999  1.00  0.00    -0.248 NA
ATOM     31  C   UNL A   1      44.453  29.640  34.361  1.00  0.00     0.031 C 
ATOM     32  C   UNL A   1      39.715  33.377  33.574  1.00  0.00     0.029 A 
ATOM     33  C   UNL A   1      40.600  32.322  33.415  1.00  0.00     0.049 A 
ATOM     34  H   UNL A   1      40.592  30.794  31.961  1.00  0.00     0.167 HD
ATOM     35  C   UNL A   1      42.607  30.965  34.002  1.00  0.00     0.074 A 
ATOM     36  C   UNL A   1      43.761  30.670  34.831  1.00  0.00     0.031 C 
ATOM     37  C   UNL A   1      41.758  32.001  34.215  1.00  0.00     0.037 A 
BRANCH  24  38
ATOM     38  C   UNL A   1      37.068  32.437  30.182  1.00  0.00     0.058 A 
ATOM     39  C   UNL A   1      37.149  33.470  29.234  1.00  0.00     0.135 A 
ATOM     40  C   UNL A   1      35.796  32.107  30.679  1.00  0.00     0.135 A 
ATOM     41  F   UNL A   1      38.341  33.842  28.740  1.00  0.00    -0.206 F 
ATOM     42  C   UNL A   1      36.017  34.166  28.817  1.00  0.00     0.059 A 
ATOM     43  C   UNL A   1      34.648  32.774  30.259  1.00  0.00     0.059 A 
ATOM     44  F   UNL A   1      35.659  31.132  31.591  1.00  0.00    -0.206 F 
ATOM     45  C   UNL A   1      34.771  33.814  29.339  1.00  0.00     0.060 A 
BRANCH  45  46
ATOM     46  S   UNL A   1      33.314  34.735  28.801  1.00  0.00     0.124 S 
ATOM     47  O   UNL A   1      32.615  34.936  30.066  1.00  0.00    -0.237 OA
ATOM     48  O   UNL A   1      33.902  35.931  28.206  1.00  0.00    -0.237 OA
ATOM     49  O   UNL A   1      32.663  33.826  27.862  1.00  0.00    -0.744 OA
ENDBRANCH  45  46
ENDBRANCH  24  38
BRANCH  25  50
ATOM     50  C   UNL A   1      45.285  27.251  32.836  1.00  0.00     0.058 A 
ATOM     51  C   UNL A   1      45.156  26.179  33.731  1.00  0.00     0.135 A 
ATOM     52  C   UNL A   1      46.563  27.510  32.313  1.00  0.00     0.135 A 
ATOM     53  F   UNL A   1      43.959  25.888  34.263  1.00  0.00    -0.206 F 
ATOM     54  C   UNL A   1      46.250  25.400  34.099  1.00  0.00     0.059 A 
ATOM     55  C   UNL A   1      47.663  26.726  32.638  1.00  0.00     0.059 A 
ATOM     56  F   UNL A   1      46.742  28.514  31.440  1.00  0.00    -0.206 F 
ATOM     57  C   UNL A   1      47.501  25.679  33.542  1.00  0.00     0.060 A 
BRANCH  57  58
ATOM     58  S   UNL A   1      48.907  24.633  33.976  1.00  0.00     0.124 S 
ATOM     59  O   UNL A   1      49.482  25.367  35.097  1.00  0.00    -0.237 OA
ATOM     60  O   UNL A   1      48.260  23.367  34.304  1.00  0.00    -0.237 OA
ATOM     61  O   UNL A   1      49.705  24.622  32.753  1.00  0.00    -0.744 OA
ENDBRANCH  57  58
ENDBRANCH  25  50
BRANCH  37  62
ATOM     62  C   UNL A   1      42.045  32.869  35.404  1.00  0.00     0.058 A 
ATOM     63  C   UNL A   1      42.928  33.958  35.326  1.00  0.00     0.135 A 
ATOM     64  C   UNL A   1      41.415  32.616  36.632  1.00  0.00     0.135 A 
ATOM     65  F   UNL A   1      43.560  34.234  34.175  1.00  0.00    -0.206 F 
ATOM     66  C   UNL A   1      43.204  34.745  36.437  1.00  0.00     0.059 A 
ATOM     67  C   UNL A   1      41.655  33.408  37.748  1.00  0.00     0.059 A 
ATOM     68  F   UNL A   1      40.554  31.592  36.753  1.00  0.00    -0.206 F 
ATOM     69  C   UNL A   1      42.565  34.459  37.645  1.00  0.00     0.060 A 
BRANCH  69  70
ATOM     70  S   UNL A   1      42.925  35.491  39.080  1.00  0.00     0.124 S 
ATOM     71  O   UNL A   1      41.721  36.312  39.159  1.00  0.00    -0.237 OA
ATOM     72  O   UNL A   1      43.091  34.505  40.143  1.00  0.00    -0.237 OA
ATOM     73  O   UNL A   1      44.143  36.196  38.692  1.00  0.00    -0.744 OA
ENDBRANCH  69  70
ENDBRANCH  37  62
ENDBRANCH  11  12
ENDBRANCH   4   6
ENDBRANCH   1   2
BRANCH   1  74
ATOM     74  C   UNL A   1      35.717  23.803  24.591  1.00  0.00     0.042 C 
BRANCH  74  75
ATOM     75  C   UNL A   1      34.456  24.682  24.459  1.00  0.00     0.117 C 
BRANCH  75  76
ATOM     76  N   UNL A   1      34.277  25.767  25.406  1.00  0.00    -0.356 N 
ATOM     77  C   UNL A   1      33.196  26.590  25.595  1.00  0.00     0.223 C 
ATOM     78  H   UNL A   1      35.043  25.936  26.000  1.00  0.00     0.163 HD
ATOM     79  O   UNL A   1      33.252  27.384  26.535  1.00  0.00    -0.275 OA
BRANCH  77  80
ATOM     80  C   UNL A   1      31.990  26.525  24.656  1.00  0.00     0.091 C 
ATOM     81  C   UNL A   1      31.124  27.789  24.745  1.00  0.00     0.014 C 
ATOM     82  C   UNL A   1      31.136  25.256  24.802  1.00  0.00     0.091 C 
ATOM     83  C   UNL A   1      29.995  27.778  23.710  1.00  0.00     0.001 C 
ATOM     84  C   UNL A   1      30.080  25.231  23.676  1.00  0.00     0.014 C 
ATOM     85  C   UNL A   1      29.195  26.477  23.671  1.00  0.00     0.001 C 
BRANCH  82  86
ATOM     86  C   UNL A   1      30.366  25.052  26.140  1.00  0.00     0.228 C 
ATOM     87  O   UNL A   1      29.711  25.929  26.697  1.00  0.00    -0.274 OA
ATOM     88  N   UNL A   1      30.252  23.746  26.572  1.00  0.00    -0.326 N 
ATOM     89  H   UNL A   1      29.389  23.442  26.937  1.00  0.00     0.169 HD
BRANCH  88  90
ATOM     90  C   UNL A   1      31.310  22.840  26.510  1.00  0.00     0.042 A 
ATOM     91  C   UNL A   1      32.381  23.026  27.376  1.00  0.00     0.026 A 
ATOM     92  C   UNL A   1      31.326  21.823  25.560  1.00  0.00     0.041 A 
ATOM     93  C   UNL A   1      33.517  22.261  27.217  1.00  0.00     0.003 A 
ATOM     94  C   UNL A   1      32.504  21.095  25.382  1.00  0.00     0.020 A 
ATOM     95  C   UNL A   1      33.612  21.330  26.190  1.00  0.00     0.016 A 
ATOM     96  Br  UNL A   1      32.625  19.804  24.008  1.00  0.00    -0.051 Br
ENDBRANCH  88  90
ENDBRANCH  82  86
ENDBRANCH  77  80
ENDBRANCH  75  76
ENDBRANCH  74  75
ENDBRANCH   1  74
TORSDOF 15
ENDMDL
MODEL 3
REMARK VINA RESULT:     -11.8      1.298      2.743
REMARK SMILES O=C(NCCCNC(=O)[C@@H]1CCCC[C@@H]1C(=O)Nc1cccc(Br)c1)c1ccc(-c2c3nc(c(-c4c(F)cc(S(=O)(=O)[O-])cc4F)c4ccc([nH]4)c(-c4c(F)cc(S(=O)(=O)[O-])cc4F)c4nc(c(-c5c(F)cc(S(=O)(=O)[O-])cc5F)c5ccc2[nH]5)C=C4)C=C3)cc1
REMARK SMILES IDX 4 1 3 2 1 3 2 4 26 6 27 7 91 8 28 9 90 10 29 11 30 12 31 13
REMARK SMILES IDX 84 14 32 15 89 16 83 17 85 18 33 19 88 20 82 21 81 22 34 24
REMARK SMILES IDX 68 25 47 26 67 27 48 28 51 29 66 30 86 31 49 32 50 33 65 35
REMARK SMILES IDX 87 36 52 37 35 38 36 39 45 40 37 41 38 42 44 43 46 44 39 45
REMARK SMILES IDX 40 46 41 47 42 48 43 49 69 50 70 51 79 52 71 53 72 54 78 55
REMARK SMILES IDX 80 56 73 57 74 58 75 59 76 60 77 61 53 62 54 63 63 64 55 65
REMARK SMILES IDX 56 66 62 67 64 68 57 69 58 70 59 71 60 72 61 73 5 74 6 75
REMARK SMILES IDX 7 76 8 77 9 79 10 80 11 81 15 82 12 83 14 84 13 85 16 86
REMARK SMILES IDX 17 87 18 88 19 90 20 91 25 92 21 93 23 94 22 95 24 96
REMARK H PARENT 3 5 85 23 51 34 7 78 18 89
REMARK Flexibility Score: inf
ROOT
ATOM      1  C   UNL A   1      34.399  28.688  26.133  1.00  0.00     0.118 C 
ENDROOT
BRANCH   1   2
ATOM      2  N   UNL A   1      34.124  29.987  26.746  1.00  0.00    -0.352 N 
ATOM      3  O   UNL A   1      34.206  31.630  28.307  1.00  0.00    -0.269 OA
ATOM      4  C   UNL A   1      34.738  30.656  27.792  1.00  0.00     0.251 C 
ATOM      5  H   UNL A   1      33.368  30.472  26.344  1.00  0.00     0.163 HD
BRANCH   4   6
ATOM      6  C   UNL A   1      36.060  30.218  28.266  1.00  0.00     0.039 A 
ATOM      7  C   UNL A   1      37.140  30.452  27.427  1.00  0.00     0.014 A 
ATOM      8  C   UNL A   1      36.256  29.665  29.539  1.00  0.00     0.014 A 
ATOM      9  C   UNL A   1      38.376  29.944  27.755  1.00  0.00     0.010 A 
ATOM     10  C   UNL A   1      37.543  29.270  29.929  1.00  0.00     0.010 A 
ATOM     11  C   UNL A   1      38.605  29.377  29.020  1.00  0.00    -0.014 A 
BRANCH  11  12
ATOM     12  C   UNL A   1      40.010  29.003  29.308  1.00  0.00     0.031 A 
ATOM     13  C   UNL A   1      40.573  27.707  28.815  1.00  0.00     0.074 A 
ATOM     14  C   UNL A   1      40.803  29.978  29.796  1.00  0.00     0.049 A 
ATOM     15  N   UNL A   1      41.826  27.364  28.672  1.00  0.00    -0.248 NA
ATOM     16  C   UNL A   1      39.615  26.657  28.434  1.00  0.00     0.031 C 
ATOM     17  C   UNL A   1      40.317  31.274  30.289  1.00  0.00     0.029 A 
ATOM     18  N   UNL A   1      42.167  30.099  29.843  1.00  0.00    -0.354 N 
ATOM     19  C   UNL A   1      41.811  26.055  28.208  1.00  0.00     0.074 A 
ATOM     20  C   UNL A   1      40.424  25.660  28.099  1.00  0.00     0.031 C 
ATOM     21  C   UNL A   1      41.357  32.103  30.446  1.00  0.00     0.029 A 
ATOM     22  C   UNL A   1      42.586  31.375  30.152  1.00  0.00     0.049 A 
ATOM     23  H   UNL A   1      42.784  29.350  29.674  1.00  0.00     0.167 HD
ATOM     24  C   UNL A   1      42.869  25.263  27.909  1.00  0.00     0.037 A 
ATOM     25  C   UNL A   1      43.822  31.906  30.176  1.00  0.00     0.037 A 
ATOM     26  C   UNL A   1      44.240  25.696  28.021  1.00  0.00     0.049 A 
ATOM     27  C   UNL A   1      44.973  31.016  29.810  1.00  0.00     0.074 A 
ATOM     28  C   UNL A   1      45.395  24.982  27.758  1.00  0.00     0.029 A 
ATOM     29  N   UNL A   1      44.638  26.962  28.430  1.00  0.00    -0.354 N 
ATOM     30  N   UNL A   1      44.944  29.777  29.375  1.00  0.00    -0.248 NA
ATOM     31  C   UNL A   1      46.318  31.580  29.955  1.00  0.00     0.031 C 
ATOM     32  C   UNL A   1      46.491  25.803  28.051  1.00  0.00     0.029 A 
ATOM     33  C   UNL A   1      46.020  27.046  28.444  1.00  0.00     0.049 A 
ATOM     34  H   UNL A   1      44.026  27.694  28.675  1.00  0.00     0.167 HD
ATOM     35  C   UNL A   1      46.271  29.410  29.194  1.00  0.00     0.074 A 
ATOM     36  C   UNL A   1      47.071  30.572  29.535  1.00  0.00     0.031 C 
ATOM     37  C   UNL A   1      46.783  28.220  28.794  1.00  0.00     0.037 A 
BRANCH  24  38
ATOM     38  C   UNL A   1      42.586  23.845  27.496  1.00  0.00     0.058 A 
ATOM     39  C   UNL A   1      42.409  22.811  28.430  1.00  0.00     0.135 A 
ATOM     40  C   UNL A   1      42.478  23.516  26.133  1.00  0.00     0.135 A 
ATOM     41  F   UNL A   1      42.522  23.062  29.744  1.00  0.00    -0.206 F 
ATOM     42  C   UNL A   1      42.163  21.500  28.029  1.00  0.00     0.059 A 
ATOM     43  C   UNL A   1      42.209  22.217  25.710  1.00  0.00     0.059 A 
ATOM     44  F   UNL A   1      42.643  24.462  25.196  1.00  0.00    -0.206 F 
ATOM     45  C   UNL A   1      42.069  21.212  26.666  1.00  0.00     0.060 A 
BRANCH  45  46
ATOM     46  S   UNL A   1      41.764  19.506  26.159  1.00  0.00     0.124 S 
ATOM     47  O   UNL A   1      42.171  18.771  27.352  1.00  0.00    -0.237 OA
ATOM     48  O   UNL A   1      40.332  19.514  25.880  1.00  0.00    -0.237 OA
ATOM     49  O   UNL A   1      42.626  19.338  24.993  1.00  0.00    -0.744 OA
ENDBRANCH  45  46
ENDBRANCH  24  38
BRANCH  25  50
ATOM     50  C   UNL A   1      44.017  33.330  30.564  1.00  0.00     0.058 A 
ATOM     51  C   UNL A   1      43.999  34.364  29.617  1.00  0.00     0.135 A 
ATOM     52  C   UNL A   1      44.188  33.689  31.912  1.00  0.00     0.135 A 
ATOM     53  F   UNL A   1      43.841  34.079  28.315  1.00  0.00    -0.206 F 
ATOM     54  C   UNL A   1      44.152  35.697  29.988  1.00  0.00     0.059 A 
ATOM     55  C   UNL A   1      44.308  35.014  32.312  1.00  0.00     0.059 A 
ATOM     56  F   UNL A   1      44.197  32.741  32.864  1.00  0.00    -0.206 F 
ATOM     57  C   UNL A   1      44.300  36.013  31.341  1.00  0.00     0.060 A 
BRANCH  57  58
ATOM     58  S   UNL A   1      44.440  37.747  31.827  1.00  0.00     0.124 S 
ATOM     59  O   UNL A   1      45.886  37.902  31.940  1.00  0.00    -0.237 OA
ATOM     60  O   UNL A   1      43.809  38.433  30.705  1.00  0.00    -0.237 OA
ATOM     61  O   UNL A   1      43.699  37.802  33.084  1.00  0.00    -0.744 OA
ENDBRANCH  57  58
ENDBRANCH  25  50
BRANCH  37  62
ATOM     62  C   UNL A   1      48.277  28.137  28.686  1.00  0.00     0.058 A 
ATOM     63  C   UNL A   1      48.948  28.447  27.492  1.00  0.00     0.135 A 
ATOM     64  C   UNL A   1      49.046  27.758  29.797  1.00  0.00     0.135 A 
ATOM     65  F   UNL A   1      48.255  28.805  26.401  1.00  0.00    -0.206 F 
ATOM     66  C   UNL A   1      50.331  28.348  27.394  1.00  0.00     0.059 A 
ATOM     67  C   UNL A   1      50.431  27.681  29.729  1.00  0.00     0.059 A 
ATOM     68  F   UNL A   1      48.450  27.463  30.963  1.00  0.00    -0.206 F 
ATOM     69  C   UNL A   1      51.064  27.961  28.518  1.00  0.00     0.060 A 
BRANCH  69  70
ATOM     70  S   UNL A   1      52.859  27.842  28.383  1.00  0.00     0.124 S 
ATOM     71  O   UNL A   1      53.080  28.309  27.018  1.00  0.00    -0.237 OA
ATOM     72  O   UNL A   1      53.313  28.739  29.442  1.00  0.00    -0.237 OA
ATOM     73  O   UNL A   1      53.122  26.426  28.614  1.00  0.00    -0.744 OA
ENDBRANCH  69  70
ENDBRANCH  37  62
ENDBRANCH  11  12
ENDBRANCH   4   6
ENDBRANCH   1   2
BRANCH   1  74
ATOM     74  C   UNL A   1      33.462  27.547  26.535  1.00  0.00     0.042 C 
BRANCH  74  75
ATOM     75  C   UNL A   1      32.128  27.837  27.254  1.00  0.00     0.117 C 
BRANCH  75  76
ATOM     76  N   UNL A   1      31.070  26.849  27.156  1.00  0.00    -0.356 N 
ATOM     77  C   UNL A   1      30.596  26.186  26.053  1.00  0.00     0.223 C 
ATOM     78  H   UNL A   1      30.629  26.619  28.006  1.00  0.00     0.163 HD
ATOM     79  O   UNL A   1      29.745  25.316  26.242  1.00  0.00    -0.275 OA
BRANCH  77  80
ATOM     80  C   UNL A   1      31.099  26.539  24.652  1.00  0.00     0.091 C 
ATOM     81  C   UNL A   1      29.951  26.927  23.710  1.00  0.00     0.014 C 
ATOM     82  C   UNL A   1      32.006  25.476  24.013  1.00  0.00     0.091 C 
ATOM     83  C   UNL A   1      30.468  27.407  22.351  1.00  0.00     0.001 C 
ATOM     84  C   UNL A   1      32.591  26.041  22.701  1.00  0.00     0.014 C 
ATOM     85  C   UNL A   1      31.509  26.486  21.717  1.00  0.00     0.001 C 
BRANCH  82  86
ATOM     86  C   UNL A   1      31.369  24.100  23.662  1.00  0.00     0.228 C 
ATOM     87  O   UNL A   1      30.292  23.966  23.087  1.00  0.00    -0.274 OA
ATOM     88  N   UNL A   1      32.193  23.002  23.816  1.00  0.00    -0.326 N 
ATOM     89  H   UNL A   1      32.182  22.302  23.124  1.00  0.00     0.169 HD
BRANCH  88  90
ATOM     90  C   UNL A   1      33.040  22.848  24.913  1.00  0.00     0.042 A 
ATOM     91  C   UNL A   1      32.469  22.530  26.139  1.00  0.00     0.026 A 
ATOM     92  C   UNL A   1      34.408  23.078  24.798  1.00  0.00     0.041 A 
ATOM     93  C   UNL A   1      33.254  22.550  27.273  1.00  0.00     0.003 A 
ATOM     94  C   UNL A   1      35.173  23.144  25.964  1.00  0.00     0.020 A 
ATOM     95  C   UNL A   1      34.594  22.909  27.207  1.00  0.00     0.016 A 
ATOM     96  Br  UNL A   1      37.004  23.598  25.873  1.00  0.00    -0.051 Br
ENDBRANCH  88  90
ENDBRANCH  82  86
ENDBRANCH  77  80
ENDBRANCH  75  76
ENDBRANCH  74  75
ENDBRANCH   1  74
TORSDOF 15
ENDMDL
