MODEL 1
REMARK VINA RESULT:     -12.7      0.000      0.000
REMARK SMILES O=C(NCCCNC(=O)[C@@H]1C=C[C@@H](NC(=O)c2c[nH]c(=O)[nH]2)C1)c1ccc(-c2c3nc(c(-c4c(F)cc(S(=O)(=O)[O-])cc4F)c4ccc([nH]4)c(-c4c(F)cc(S(=O)(=O)[O-])cc4F)c4nc(c(-c5c(F)cc(S(=O)(=O)[O-])cc5F)c5ccc2[nH]5)C=C4)C=C3)cc1
REMARK SMILES IDX 4 1 3 2 1 3 2 4 24 6 25 7 89 8 26 9 88 10 27 11 28 12 29 13
REMARK SMILES IDX 82 14 30 15 87 16 81 17 83 18 31 19 86 20 80 21 79 22 32 24
REMARK SMILES IDX 66 25 45 26 65 27 46 28 49 29 64 30 84 31 47 32 48 33 63 35
REMARK SMILES IDX 85 36 50 37 33 38 34 39 43 40 35 41 36 42 42 43 44 44 37 45
REMARK SMILES IDX 38 46 39 47 40 48 41 49 67 50 68 51 77 52 69 53 70 54 76 55
REMARK SMILES IDX 78 56 71 57 72 58 73 59 74 60 75 61 51 62 52 63 61 64 53 65
REMARK SMILES IDX 54 66 60 67 62 68 55 69 56 70 57 71 58 72 59 73 5 74 6 75
REMARK SMILES IDX 7 76 8 77 9 79 10 80 11 81 23 82 12 83 13 84 14 85 15 86
REMARK SMILES IDX 16 88 17 89 18 90 22 91 19 92 20 93 21 96
REMARK H PARENT 3 5 83 23 49 34 7 78 14 87 22 94 19 95
REMARK Flexibility Score: inf
ROOT
ATOM      1  C   UNL A   1      35.449  30.601  27.862  1.00  0.00     0.118 C 
ENDROOT
BRANCH   1   2
ATOM      2  N   UNL A   1      35.413  30.629  29.319  1.00  0.00    -0.352 N 
ATOM      3  O   UNL A   1      36.028  30.101  31.413  1.00  0.00    -0.269 OA
ATOM      4  C   UNL A   1      36.348  30.206  30.232  1.00  0.00     0.251 C 
ATOM      5  H   UNL A   1      34.591  31.008  29.709  1.00  0.00     0.163 HD
BRANCH   4   6
ATOM      6  C   UNL A   1      37.724  29.896  29.791  1.00  0.00     0.039 A 
ATOM      7  C   UNL A   1      38.701  29.561  30.730  1.00  0.00     0.014 A 
ATOM      8  C   UNL A   1      38.035  29.904  28.429  1.00  0.00     0.014 A 
ATOM      9  C   UNL A   1      40.016  29.381  30.327  1.00  0.00     0.010 A 
ATOM     10  C   UNL A   1      39.337  29.606  28.015  1.00  0.00     0.010 A 
ATOM     11  C   UNL A   1      40.344  29.362  28.962  1.00  0.00    -0.014 A 
BRANCH  11  12
ATOM     12  C   UNL A   1      41.728  29.000  28.566  1.00  0.00     0.031 A 
ATOM     13  C   UNL A   1      42.838  30.012  28.592  1.00  0.00     0.074 A 
ATOM     14  C   UNL A   1      41.977  27.722  28.216  1.00  0.00     0.049 A 
ATOM     15  N   UNL A   1      44.101  29.853  28.290  1.00  0.00    -0.248 NA
ATOM     16  C   UNL A   1      42.489  31.382  29.004  1.00  0.00     0.031 C 
ATOM     17  C   UNL A   1      40.970  26.656  28.149  1.00  0.00     0.029 A 
ATOM     18  N   UNL A   1      43.144  27.090  27.872  1.00  0.00    -0.354 N 
ATOM     19  C   UNL A   1      44.696  31.097  28.460  1.00  0.00     0.074 A 
ATOM     20  C   UNL A   1      43.648  32.011  28.863  1.00  0.00     0.031 C 
ATOM     21  C   UNL A   1      41.570  25.499  27.840  1.00  0.00     0.029 A 
ATOM     22  C   UNL A   1      42.985  25.750  27.604  1.00  0.00     0.049 A 
ATOM     23  H   UNL A   1      44.012  27.551  27.821  1.00  0.00     0.167 HD
ATOM     24  C   UNL A   1      45.998  31.438  28.304  1.00  0.00     0.037 A 
ATOM     25  C   UNL A   1      43.872  24.828  27.188  1.00  0.00     0.037 A 
ATOM     26  C   UNL A   1      47.029  30.513  27.900  1.00  0.00     0.049 A 
ATOM     27  C   UNL A   1      45.298  25.247  26.975  1.00  0.00     0.074 A 
ATOM     28  C   UNL A   1      48.380  30.754  27.724  1.00  0.00     0.029 A 
ATOM     29  N   UNL A   1      46.823  29.172  27.602  1.00  0.00    -0.354 N 
ATOM     30  N   UNL A   1      45.848  26.423  27.165  1.00  0.00    -0.248 NA
ATOM     31  C   UNL A   1      46.225  24.218  26.489  1.00  0.00     0.031 C 
ATOM     32  C   UNL A   1      48.981  29.575  27.271  1.00  0.00     0.029 A 
ATOM     33  C   UNL A   1      48.018  28.581  27.222  1.00  0.00     0.049 A 
ATOM     34  H   UNL A   1      45.956  28.711  27.653  1.00  0.00     0.167 HD
ATOM     35  C   UNL A   1      47.189  26.270  26.842  1.00  0.00     0.074 A 
ATOM     36  C   UNL A   1      47.371  24.883  26.464  1.00  0.00     0.031 C 
ATOM     37  C   UNL A   1      48.181  27.195  26.855  1.00  0.00     0.037 A 
BRANCH  24  38
ATOM     38  C   UNL A   1      46.384  32.874  28.549  1.00  0.00     0.058 A 
ATOM     39  C   UNL A   1      46.809  33.320  29.811  1.00  0.00     0.135 A 
ATOM     40  C   UNL A   1      46.374  33.806  27.498  1.00  0.00     0.135 A 
ATOM     41  F   UNL A   1      46.825  32.478  30.856  1.00  0.00    -0.206 F 
ATOM     42  C   UNL A   1      47.186  34.642  30.027  1.00  0.00     0.059 A 
ATOM     43  C   UNL A   1      46.775  35.127  27.685  1.00  0.00     0.059 A 
ATOM     44  F   UNL A   1      45.979  33.435  26.269  1.00  0.00    -0.206 F 
ATOM     45  C   UNL A   1      47.166  35.539  28.957  1.00  0.00     0.060 A 
BRANCH  45  46
ATOM     46  S   UNL A   1      47.669  37.248  29.255  1.00  0.00     0.124 S 
ATOM     47  O   UNL A   1      48.627  37.083  30.344  1.00  0.00    -0.237 OA
ATOM     48  O   UNL A   1      48.234  37.635  27.967  1.00  0.00    -0.237 OA
ATOM     49  O   UNL A   1      46.420  37.913  29.614  1.00  0.00    -0.744 OA
ENDBRANCH  45  46
ENDBRANCH  24  38
BRANCH  25  50
ATOM     50  C   UNL A   1      43.427  23.434  26.925  1.00  0.00     0.058 A 
ATOM     51  C   UNL A   1      43.178  22.540  27.977  1.00  0.00     0.135 A 
ATOM     52  C   UNL A   1      43.225  22.972  25.615  1.00  0.00     0.135 A 
ATOM     53  F   UNL A   1      43.355  22.933  29.247  1.00  0.00    -0.206 F 
ATOM     54  C   UNL A   1      42.768  21.232  27.739  1.00  0.00     0.059 A 
ATOM     55  C   UNL A   1      42.784  21.679  25.352  1.00  0.00     0.059 A 
ATOM     56  F   UNL A   1      43.430  23.792  24.572  1.00  0.00    -0.206 F 
ATOM     57  C   UNL A   1      42.572  20.813  26.422  1.00  0.00     0.060 A 
BRANCH  57  58
ATOM     58  S   UNL A   1      42.011  19.122  26.125  1.00  0.00     0.124 S 
ATOM     59  O   UNL A   1      42.382  18.468  27.374  1.00  0.00    -0.237 OA
ATOM     60  O   UNL A   1      40.580  19.309  25.903  1.00  0.00    -0.237 OA
ATOM     61  O   UNL A   1      42.773  18.718  24.948  1.00  0.00    -0.744 OA
ENDBRANCH  57  58
ENDBRANCH  25  50
BRANCH  37  62
ATOM     62  C   UNL A   1      49.560  26.724  26.485  1.00  0.00     0.058 A 
ATOM     63  C   UNL A   1      50.414  26.122  27.424  1.00  0.00     0.135 A 
ATOM     64  C   UNL A   1      50.020  26.847  25.165  1.00  0.00     0.135 A 
ATOM     65  F   UNL A   1      50.027  25.989  28.702  1.00  0.00    -0.206 F 
ATOM     66  C   UNL A   1      51.686  25.683  27.071  1.00  0.00     0.059 A 
ATOM     67  C   UNL A   1      51.275  26.386  24.782  1.00  0.00     0.059 A 
ATOM     68  F   UNL A   1      49.241  27.408  24.227  1.00  0.00    -0.206 F 
ATOM     69  C   UNL A   1      52.106  25.818  25.746  1.00  0.00     0.060 A 
BRANCH  69  70
ATOM     70  S   UNL A   1      53.748  25.217  25.296  1.00  0.00     0.124 S 
ATOM     71  O   UNL A   1      53.574  23.773  25.406  1.00  0.00    -0.237 OA
ATOM     72  O   UNL A   1      53.910  25.736  23.942  1.00  0.00    -0.237 OA
ATOM     73  O   UNL A   1      54.618  25.823  26.300  1.00  0.00    -0.744 OA
ENDBRANCH  69  70
ENDBRANCH  37  62
ENDBRANCH  11  12
ENDBRANCH   4   6
ENDBRANCH   1   2
BRANCH   1  74
ATOM     74  C   UNL A   1      34.088  30.265  27.267  1.00  0.00     0.042 C 
BRANCH  74  75
ATOM     75  C   UNL A   1      34.088  28.926  26.539  1.00  0.00     0.117 C 
BRANCH  75  76
ATOM     76  N   UNL A   1      34.230  29.070  25.108  1.00  0.00    -0.356 N 
ATOM     77  C   UNL A   1      33.451  28.695  24.064  1.00  0.00     0.227 C 
ATOM     78  H   UNL A   1      35.057  29.533  24.838  1.00  0.00     0.163 HD
ATOM     79  O   UNL A   1      33.769  29.174  22.967  1.00  0.00    -0.274 OA
BRANCH  77  80
ATOM     80  C   UNL A   1      32.199  27.802  24.149  1.00  0.00     0.103 C 
ATOM     81  C   UNL A   1      31.975  26.964  22.922  1.00  0.00    -0.016 C 
ATOM     82  C   UNL A   1      30.814  28.402  24.403  1.00  0.00     0.047 C 
ATOM     83  C   UNL A   1      30.786  27.213  22.357  1.00  0.00    -0.006 C 
ATOM     84  C   UNL A   1      30.089  28.328  23.058  1.00  0.00     0.106 C 
BRANCH  84  85
ATOM     85  N   UNL A   1      28.672  28.105  23.133  1.00  0.00    -0.344 N 
ATOM     86  C   UNL A   1      27.678  29.030  22.950  1.00  0.00     0.269 C 
ATOM     87  H   UNL A   1      28.385  27.186  23.339  1.00  0.00     0.164 HD
ATOM     88  O   UNL A   1      26.525  28.760  23.276  1.00  0.00    -0.268 OA
BRANCH  86  89
ATOM     89  C   UNL A   1      28.013  30.377  22.413  1.00  0.00     0.124 A 
ATOM     90  C   UNL A   1      28.287  30.755  21.153  1.00  0.00     0.119 A 
ATOM     91  N   UNL A   1      28.041  31.499  23.211  1.00  0.00    -0.302 N 
ATOM     92  N   UNL A   1      28.546  32.102  21.143  1.00  0.00    -0.312 N 
ATOM     93  C   UNL A   1      28.389  32.613  22.441  1.00  0.00     0.323 A 
ATOM     94  H   UNL A   1      27.847  31.514  24.177  1.00  0.00     0.172 HD
ATOM     95  H   UNL A   1      28.803  32.628  20.351  1.00  0.00     0.171 HD
ATOM     96  O   UNL A   1      28.531  33.762  22.799  1.00  0.00    -0.248 OA
ENDBRANCH  86  89
ENDBRANCH  84  85
ENDBRANCH  77  80
ENDBRANCH  75  76
ENDBRANCH  74  75
ENDBRANCH   1  74
TORSDOF 15
ENDMDL
MODEL 2
REMARK VINA RESULT:     -12.5      7.593     12.980
REMARK SMILES O=C(NCCCNC(=O)[C@@H]1C=C[C@@H](NC(=O)c2c[nH]c(=O)[nH]2)C1)c1ccc(-c2c3nc(c(-c4c(F)cc(S(=O)(=O)[O-])cc4F)c4ccc([nH]4)c(-c4c(F)cc(S(=O)(=O)[O-])cc4F)c4nc(c(-c5c(F)cc(S(=O)(=O)[O-])cc5F)c5ccc2[nH]5)C=C4)C=C3)cc1
REMARK SMILES IDX 4 1 3 2 1 3 2 4 24 6 25 7 89 8 26 9 88 10 27 11 28 12 29 13
REMARK SMILES IDX 82 14 30 15 87 16 81 17 83 18 31 19 86 20 80 21 79 22 32 24
REMARK SMILES IDX 66 25 45 26 65 27 46 28 49 29 64 30 84 31 47 32 48 33 63 35
REMARK SMILES IDX 85 36 50 37 33 38 34 39 43 40 35 41 36 42 42 43 44 44 37 45
REMARK SMILES IDX 38 46 39 47 40 48 41 49 67 50 68 51 77 52 69 53 70 54 76 55
REMARK SMILES IDX 78 56 71 57 72 58 73 59 74 60 75 61 51 62 52 63 61 64 53 65
REMARK SMILES IDX 54 66 60 67 62 68 55 69 56 70 57 71 58 72 59 73 5 74 6 75
REMARK SMILES IDX 7 76 8 77 9 79 10 80 11 81 23 82 12 83 13 84 14 85 15 86
REMARK SMILES IDX 16 88 17 89 18 90 22 91 19 92 20 93 21 96
REMARK H PARENT 3 5 83 23 49 34 7 78 14 87 22 94 19 95
REMARK Flexibility Score: inf
ROOT
ATOM      1  C   UNL A   1      39.336  23.492  26.904  1.00  0.00     0.118 C 
ENDROOT
BRANCH   1   2
ATOM      2  N   UNL A   1      40.386  24.025  26.045  1.00  0.00    -0.352 N 
ATOM      3  O   UNL A   1      41.715  25.587  25.131  1.00  0.00    -0.269 OA
ATOM      4  C   UNL A   1      41.026  25.240  26.086  1.00  0.00     0.251 C 
ATOM      5  H   UNL A   1      40.682  23.422  25.324  1.00  0.00     0.163 HD
BRANCH   4   6
ATOM      6  C   UNL A   1      40.892  26.107  27.276  1.00  0.00     0.039 A 
ATOM      7  C   UNL A   1      41.727  27.214  27.434  1.00  0.00     0.014 A 
ATOM      8  C   UNL A   1      39.901  25.836  28.224  1.00  0.00     0.014 A 
ATOM      9  C   UNL A   1      41.675  27.959  28.602  1.00  0.00     0.010 A 
ATOM     10  C   UNL A   1      39.774  26.660  29.347  1.00  0.00     0.010 A 
ATOM     11  C   UNL A   1      40.674  27.717  29.555  1.00  0.00    -0.014 A 
BRANCH  11  12
ATOM     12  C   UNL A   1      40.549  28.642  30.710  1.00  0.00     0.031 A 
ATOM     13  C   UNL A   1      41.452  28.526  31.905  1.00  0.00     0.074 A 
ATOM     14  C   UNL A   1      39.625  29.622  30.644  1.00  0.00     0.049 A 
ATOM     15  N   UNL A   1      41.480  29.262  32.986  1.00  0.00    -0.248 NA
ATOM     16  C   UNL A   1      42.447  27.442  31.893  1.00  0.00     0.031 C 
ATOM     17  C   UNL A   1      38.689  29.823  29.532  1.00  0.00     0.029 A 
ATOM     18  N   UNL A   1      39.328  30.643  31.509  1.00  0.00    -0.354 N 
ATOM     19  C   UNL A   1      42.482  28.728  33.788  1.00  0.00     0.074 A 
ATOM     20  C   UNL A   1      43.018  27.583  33.082  1.00  0.00     0.031 C 
ATOM     21  C   UNL A   1      37.963  30.926  29.757  1.00  0.00     0.029 A 
ATOM     22  C   UNL A   1      38.318  31.464  31.063  1.00  0.00     0.049 A 
ATOM     23  H   UNL A   1      39.791  30.775  32.367  1.00  0.00     0.167 HD
ATOM     24  C   UNL A   1      42.917  29.161  34.996  1.00  0.00     0.037 A 
ATOM     25  C   UNL A   1      37.722  32.519  31.649  1.00  0.00     0.037 A 
ATOM     26  C   UNL A   1      42.369  30.304  35.686  1.00  0.00     0.049 A 
ATOM     27  C   UNL A   1      38.192  32.945  33.010  1.00  0.00     0.074 A 
ATOM     28  C   UNL A   1      42.746  30.834  36.907  1.00  0.00     0.029 A 
ATOM     29  N   UNL A   1      41.323  31.089  35.219  1.00  0.00    -0.354 N 
ATOM     30  N   UNL A   1      39.158  32.442  33.742  1.00  0.00    -0.248 NA
ATOM     31  C   UNL A   1      37.493  34.078  33.627  1.00  0.00     0.031 C 
ATOM     32  C   UNL A   1      41.897  31.904  37.203  1.00  0.00     0.029 A 
ATOM     33  C   UNL A   1      41.028  32.083  36.139  1.00  0.00     0.049 A 
ATOM     34  H   UNL A   1      40.859  30.957  34.361  1.00  0.00     0.167 HD
ATOM     35  C   UNL A   1      39.196  33.211  34.898  1.00  0.00     0.074 A 
ATOM     36  C   UNL A   1      38.169  34.225  34.757  1.00  0.00     0.031 C 
ATOM     37  C   UNL A   1      40.005  33.089  35.979  1.00  0.00     0.037 A 
BRANCH  24  38
ATOM     38  C   UNL A   1      44.026  28.389  35.662  1.00  0.00     0.058 A 
ATOM     39  C   UNL A   1      43.763  27.338  36.555  1.00  0.00     0.135 A 
ATOM     40  C   UNL A   1      45.370  28.673  35.369  1.00  0.00     0.135 A 
ATOM     41  F   UNL A   1      42.499  27.031  36.885  1.00  0.00    -0.206 F 
ATOM     42  C   UNL A   1      44.791  26.613  37.150  1.00  0.00     0.059 A 
ATOM     43  C   UNL A   1      46.414  27.942  35.930  1.00  0.00     0.059 A 
ATOM     44  F   UNL A   1      45.682  29.666  34.520  1.00  0.00    -0.206 F 
ATOM     45  C   UNL A   1      46.115  26.922  36.831  1.00  0.00     0.060 A 
BRANCH  45  46
ATOM     46  S   UNL A   1      47.435  25.964  37.606  1.00  0.00     0.124 S 
ATOM     47  O   UNL A   1      48.223  27.015  38.242  1.00  0.00    -0.237 OA
ATOM     48  O   UNL A   1      46.695  25.092  38.513  1.00  0.00    -0.237 OA
ATOM     49  O   UNL A   1      48.076  25.292  36.480  1.00  0.00    -0.744 OA
ENDBRANCH  45  46
ENDBRANCH  24  38
BRANCH  25  50
ATOM     50  C   UNL A   1      36.606  33.219  30.960  1.00  0.00     0.058 A 
ATOM     51  C   UNL A   1      35.278  33.060  31.383  1.00  0.00     0.135 A 
ATOM     52  C   UNL A   1      36.847  34.076  29.875  1.00  0.00     0.135 A 
ATOM     53  F   UNL A   1      34.995  32.252  32.416  1.00  0.00    -0.206 F 
ATOM     54  C   UNL A   1      34.228  33.706  30.739  1.00  0.00     0.059 A 
ATOM     55  C   UNL A   1      35.818  34.759  29.236  1.00  0.00     0.059 A 
ATOM     56  F   UNL A   1      38.102  34.280  29.443  1.00  0.00    -0.206 F 
ATOM     57  C   UNL A   1      34.509  34.555  29.667  1.00  0.00     0.060 A 
BRANCH  57  58
ATOM     58  S   UNL A   1      33.141  35.412  28.859  1.00  0.00     0.124 S 
ATOM     59  O   UNL A   1      33.847  36.428  28.087  1.00  0.00    -0.237 OA
ATOM     60  O   UNL A   1      32.521  34.339  28.087  1.00  0.00    -0.237 OA
ATOM     61  O   UNL A   1      32.346  35.907  29.979  1.00  0.00    -0.744 OA
ENDBRANCH  57  58
ENDBRANCH  25  50
BRANCH  37  62
ATOM     62  C   UNL A   1      39.838  34.102  37.077  1.00  0.00     0.058 A 
ATOM     63  C   UNL A   1      40.367  35.399  36.976  1.00  0.00     0.135 A 
ATOM     64  C   UNL A   1      39.108  33.780  38.232  1.00  0.00     0.135 A 
ATOM     65  F   UNL A   1      41.082  35.755  35.897  1.00  0.00    -0.206 F 
ATOM     66  C   UNL A   1      40.202  36.331  37.995  1.00  0.00     0.059 A 
ATOM     67  C   UNL A   1      38.903  34.706  39.249  1.00  0.00     0.059 A 
ATOM     68  F   UNL A   1      38.575  32.556  38.375  1.00  0.00    -0.206 F 
ATOM     69  C   UNL A   1      39.466  35.975  39.126  1.00  0.00     0.060 A 
BRANCH  69  70
ATOM     70  S   UNL A   1      39.234  37.205  40.427  1.00  0.00     0.124 S 
ATOM     71  O   UNL A   1      38.532  36.429  41.444  1.00  0.00    -0.237 OA
ATOM     72  O   UNL A   1      40.606  37.581  40.750  1.00  0.00    -0.237 OA
ATOM     73  O   UNL A   1      38.443  38.245  39.775  1.00  0.00    -0.744 OA
ENDBRANCH  69  70
ENDBRANCH  37  62
ENDBRANCH  11  12
ENDBRANCH   4   6
ENDBRANCH   1   2
BRANCH   1  74
ATOM     74  C   UNL A   1      38.226  22.831  26.099  1.00  0.00     0.042 C 
BRANCH  74  75
ATOM     75  C   UNL A   1      36.930  23.633  26.132  1.00  0.00     0.117 C 
BRANCH  75  76
ATOM     76  N   UNL A   1      35.872  22.954  26.844  1.00  0.00    -0.356 N 
ATOM     77  C   UNL A   1      34.837  22.181  26.436  1.00  0.00     0.227 C 
ATOM     78  H   UNL A   1      35.912  23.077  27.821  1.00  0.00     0.163 HD
ATOM     79  O   UNL A   1      34.241  21.573  27.336  1.00  0.00    -0.274 OA
BRANCH  77  80
ATOM     80  C   UNL A   1      34.401  21.956  24.975  1.00  0.00     0.103 C 
ATOM     81  C   UNL A   1      33.113  22.644  24.620  1.00  0.00    -0.016 C 
ATOM     82  C   UNL A   1      34.193  20.545  24.420  1.00  0.00     0.047 C 
ATOM     83  C   UNL A   1      32.184  21.776  24.197  1.00  0.00    -0.006 C 
ATOM     84  C   UNL A   1      32.676  20.375  24.310  1.00  0.00     0.106 C 
BRANCH  84  85
ATOM     85  N   UNL A   1      32.226  19.564  23.214  1.00  0.00    -0.344 N 
ATOM     86  C   UNL A   1      32.467  18.229  23.019  1.00  0.00     0.269 C 
ATOM     87  H   UNL A   1      31.684  20.017  22.528  1.00  0.00     0.164 HD
ATOM     88  O   UNL A   1      32.227  17.717  21.928  1.00  0.00    -0.268 OA
BRANCH  86  89
ATOM     89  C   UNL A   1      33.074  17.420  24.112  1.00  0.00     0.124 A 
ATOM     90  C   UNL A   1      32.637  17.204  25.364  1.00  0.00     0.119 A 
ATOM     91  N   UNL A   1      34.236  16.703  23.934  1.00  0.00    -0.302 N 
ATOM     92  N   UNL A   1      33.538  16.398  26.012  1.00  0.00    -0.312 N 
ATOM     93  C   UNL A   1      34.569  16.050  25.125  1.00  0.00     0.323 A 
ATOM     94  H   UNL A   1      34.753  16.658  23.097  1.00  0.00     0.172 HD
ATOM     95  H   UNL A   1      33.473  16.109  26.951  1.00  0.00     0.171 HD
ATOM     96  O   UNL A   1      35.528  15.346  25.355  1.00  0.00    -0.248 OA
ENDBRANCH  86  89
ENDBRANCH  84  85
ENDBRANCH  77  80
ENDBRANCH  75  76
ENDBRANCH  74  75
ENDBRANCH   1  74
TORSDOF 15
ENDMDL
MODEL 3
REMARK VINA RESULT:     -12.4      0.529      8.392
REMARK SMILES O=C(NCCCNC(=O)[C@@H]1C=C[C@@H](NC(=O)c2c[nH]c(=O)[nH]2)C1)c1ccc(-c2c3nc(c(-c4c(F)cc(S(=O)(=O)[O-])cc4F)c4ccc([nH]4)c(-c4c(F)cc(S(=O)(=O)[O-])cc4F)c4nc(c(-c5c(F)cc(S(=O)(=O)[O-])cc5F)c5ccc2[nH]5)C=C4)C=C3)cc1
REMARK SMILES IDX 4 1 3 2 1 3 2 4 24 6 25 7 89 8 26 9 88 10 27 11 28 12 29 13
REMARK SMILES IDX 82 14 30 15 87 16 81 17 83 18 31 19 86 20 80 21 79 22 32 24
REMARK SMILES IDX 66 25 45 26 65 27 46 28 49 29 64 30 84 31 47 32 48 33 63 35
REMARK SMILES IDX 85 36 50 37 33 38 34 39 43 40 35 41 36 42 42 43 44 44 37 45
REMARK SMILES IDX 38 46 39 47 40 48 41 49 67 50 68 51 77 52 69 53 70 54 76 55
REMARK SMILES IDX 78 56 71 57 72 58 73 59 74 60 75 61 51 62 52 63 61 64 53 65
REMARK SMILES IDX 54 66 60 67 62 68 55 69 56 70 57 71 58 72 59 73 5 74 6 75
REMARK SMILES IDX 7 76 8 77 9 79 10 80 11 81 23 82 12 83 13 84 14 85 15 86
REMARK SMILES IDX 16 88 17 89 18 90 22 91 19 92 20 93 21 96
REMARK H PARENT 3 5 83 23 49 34 7 78 14 87 22 94 19 95
REMARK Flexibility Score: inf
ROOT
ATOM      1  C   UNL A   1      35.441  29.805  27.760  1.00  0.00     0.118 C 
ENDROOT
BRANCH   1   2
ATOM      2  N   UNL A   1      35.419  30.025  29.201  1.00  0.00    -0.352 N 
ATOM      3  O   UNL A   1      36.092  29.823  31.333  1.00  0.00    -0.269 OA
ATOM      4  C   UNL A   1      36.391  29.790  30.143  1.00  0.00     0.251 C 
ATOM      5  H   UNL A   1      34.579  30.398  29.553  1.00  0.00     0.163 HD
BRANCH   4   6
ATOM      6  C   UNL A   1      37.780  29.514  29.719  1.00  0.00     0.039 A 
ATOM      7  C   UNL A   1      38.706  29.016  30.638  1.00  0.00     0.014 A 
ATOM      8  C   UNL A   1      38.154  29.719  28.389  1.00  0.00     0.014 A 
ATOM      9  C   UNL A   1      40.034  28.864  30.268  1.00  0.00     0.010 A 
ATOM     10  C   UNL A   1      39.468  29.453  27.990  1.00  0.00     0.010 A 
ATOM     11  C   UNL A   1      40.425  29.042  28.932  1.00  0.00    -0.014 A 
BRANCH  11  12
ATOM     12  C   UNL A   1      41.818  28.708  28.545  1.00  0.00     0.031 A 
ATOM     13  C   UNL A   1      42.196  27.322  28.106  1.00  0.00     0.074 A 
ATOM     14  C   UNL A   1      42.737  29.695  28.559  1.00  0.00     0.049 A 
ATOM     15  N   UNL A   1      43.363  26.872  27.724  1.00  0.00    -0.248 NA
ATOM     16  C   UNL A   1      41.131  26.305  28.100  1.00  0.00     0.031 C 
ATOM     17  C   UNL A   1      42.481  31.078  28.975  1.00  0.00     0.029 A 
ATOM     18  N   UNL A   1      44.060  29.702  28.199  1.00  0.00    -0.354 N 
ATOM     19  C   UNL A   1      43.182  25.523  27.444  1.00  0.00     0.074 A 
ATOM     20  C   UNL A   1      41.796  25.218  27.732  1.00  0.00     0.031 C 
ATOM     21  C   UNL A   1      43.590  31.808  28.797  1.00  0.00     0.029 A 
ATOM     22  C   UNL A   1      44.659  30.933  28.335  1.00  0.00     0.049 A 
ATOM     23  H   UNL A   1      44.535  28.904  27.875  1.00  0.00     0.167 HD
ATOM     24  C   UNL A   1      44.088  24.627  26.982  1.00  0.00     0.037 A 
ATOM     25  C   UNL A   1      45.935  31.314  28.137  1.00  0.00     0.037 A 
ATOM     26  C   UNL A   1      45.466  24.949  26.702  1.00  0.00     0.049 A 
ATOM     27  C   UNL A   1      46.927  30.288  27.672  1.00  0.00     0.074 A 
ATOM     28  C   UNL A   1      46.462  24.119  26.219  1.00  0.00     0.029 A 
ATOM     29  N   UNL A   1      46.045  26.198  26.888  1.00  0.00    -0.354 N 
ATOM     30  N   UNL A   1      46.731  29.022  27.390  1.00  0.00    -0.248 NA
ATOM     31  C   UNL A   1      48.314  30.738  27.502  1.00  0.00     0.031 C 
ATOM     32  C   UNL A   1      47.653  24.850  26.162  1.00  0.00     0.029 A 
ATOM     33  C   UNL A   1      47.389  26.153  26.550  1.00  0.00     0.049 A 
ATOM     34  H   UNL A   1      45.571  26.996  27.211  1.00  0.00     0.167 HD
ATOM     35  C   UNL A   1      47.966  28.529  26.987  1.00  0.00     0.074 A 
ATOM     36  C   UNL A   1      48.896  29.639  27.044  1.00  0.00     0.031 C 
ATOM     37  C   UNL A   1      48.300  27.271  26.607  1.00  0.00     0.037 A 
BRANCH  24  38
ATOM     38  C   UNL A   1      43.628  23.209  26.765  1.00  0.00     0.058 A 
ATOM     39  C   UNL A   1      43.482  22.667  25.478  1.00  0.00     0.135 A 
ATOM     40  C   UNL A   1      43.375  22.365  27.860  1.00  0.00     0.135 A 
ATOM     41  F   UNL A   1      43.696  23.430  24.395  1.00  0.00    -0.206 F 
ATOM     42  C   UNL A   1      43.079  21.349  25.284  1.00  0.00     0.059 A 
ATOM     43  C   UNL A   1      42.999  21.035  27.689  1.00  0.00     0.059 A 
ATOM     44  F   UNL A   1      43.501  22.828  29.114  1.00  0.00    -0.206 F 
ATOM     45  C   UNL A   1      42.840  20.540  26.396  1.00  0.00     0.060 A 
BRANCH  45  46
ATOM     46  S   UNL A   1      42.328  18.829  26.124  1.00  0.00     0.124 S 
ATOM     47  O   UNL A   1      40.932  19.003  25.733  1.00  0.00    -0.237 OA
ATOM     48  O   UNL A   1      43.233  18.399  25.064  1.00  0.00    -0.237 OA
ATOM     49  O   UNL A   1      42.542  18.198  27.422  1.00  0.00    -0.744 OA
ENDBRANCH  45  46
ENDBRANCH  24  38
BRANCH  25  50
ATOM     50  C   UNL A   1      46.340  32.720  28.404  1.00  0.00     0.058 A 
ATOM     51  C   UNL A   1      46.843  33.106  29.654  1.00  0.00     0.135 A 
ATOM     52  C   UNL A   1      46.248  33.702  27.405  1.00  0.00     0.135 A 
ATOM     53  F   UNL A   1      46.951  32.204  30.641  1.00  0.00    -0.206 F 
ATOM     54  C   UNL A   1      47.217  34.421  29.913  1.00  0.00     0.059 A 
ATOM     55  C   UNL A   1      46.648  35.016  27.629  1.00  0.00     0.059 A 
ATOM     56  F   UNL A   1      45.793  33.382  26.183  1.00  0.00    -0.206 F 
ATOM     57  C   UNL A   1      47.118  35.368  28.892  1.00  0.00     0.060 A 
BRANCH  57  58
ATOM     58  S   UNL A   1      47.635  37.064  29.230  1.00  0.00     0.124 S 
ATOM     59  O   UNL A   1      49.087  36.944  29.173  1.00  0.00    -0.237 OA
ATOM     60  O   UNL A   1      47.011  37.798  28.134  1.00  0.00    -0.237 OA
ATOM     61  O   UNL A   1      47.074  37.329  30.552  1.00  0.00    -0.744 OA
ENDBRANCH  57  58
ENDBRANCH  25  50
BRANCH  37  62
ATOM     62  C   UNL A   1      49.724  27.039  26.185  1.00  0.00     0.058 A 
ATOM     63  C   UNL A   1      50.729  26.718  27.111  1.00  0.00     0.135 A 
ATOM     64  C   UNL A   1      50.080  27.108  24.829  1.00  0.00     0.135 A 
ATOM     65  F   UNL A   1      50.444  26.650  28.422  1.00  0.00    -0.206 F 
ATOM     66  C   UNL A   1      52.043  26.500  26.710  1.00  0.00     0.059 A 
ATOM     67  C   UNL A   1      51.380  26.861  24.401  1.00  0.00     0.059 A 
ATOM     68  F   UNL A   1      49.156  27.404  23.901  1.00  0.00    -0.206 F 
ATOM     69  C   UNL A   1      52.358  26.571  25.352  1.00  0.00     0.060 A 
BRANCH  69  70
ATOM     70  S   UNL A   1      54.060  26.256  24.843  1.00  0.00     0.124 S 
ATOM     71  O   UNL A   1      54.177  27.105  23.662  1.00  0.00    -0.237 OA
ATOM     72  O   UNL A   1      54.821  26.687  26.012  1.00  0.00    -0.237 OA
ATOM     73  O   UNL A   1      54.078  24.819  24.587  1.00  0.00    -0.744 OA
ENDBRANCH  69  70
ENDBRANCH  37  62
ENDBRANCH  11  12
ENDBRANCH   4   6
ENDBRANCH   1   2
BRANCH   1  74
ATOM     74  C   UNL A   1      34.274  28.941  27.300  1.00  0.00     0.042 C 
BRANCH  74  75
ATOM     75  C   UNL A   1      33.477  29.594  26.177  1.00  0.00     0.117 C 
BRANCH  75  76
ATOM     76  N   UNL A   1      33.994  29.272  24.867  1.00  0.00    -0.356 N 
ATOM     77  C   UNL A   1      33.506  28.529  23.843  1.00  0.00     0.227 C 
ATOM     78  H   UNL A   1      34.874  29.673  24.680  1.00  0.00     0.163 HD
ATOM     79  O   UNL A   1      34.115  28.642  22.770  1.00  0.00    -0.274 OA
BRANCH  77  80
ATOM     80  C   UNL A   1      32.253  27.635  23.895  1.00  0.00     0.103 C 
ATOM     81  C   UNL A   1      31.952  26.947  22.594  1.00  0.00    -0.016 C 
ATOM     82  C   UNL A   1      30.890  28.205  24.296  1.00  0.00     0.047 C 
ATOM     83  C   UNL A   1      30.736  27.264  22.131  1.00  0.00    -0.006 C 
ATOM     84  C   UNL A   1      30.090  28.291  22.995  1.00  0.00     0.106 C 
BRANCH  84  85
ATOM     85  N   UNL A   1      28.678  28.064  23.125  1.00  0.00    -0.344 N 
ATOM     86  C   UNL A   1      27.675  28.985  22.975  1.00  0.00     0.269 C 
ATOM     87  H   UNL A   1      28.401  27.145  23.347  1.00  0.00     0.164 HD
ATOM     88  O   UNL A   1      26.535  28.715  23.346  1.00  0.00    -0.268 OA
BRANCH  86  89
ATOM     89  C   UNL A   1      27.985  30.331  22.418  1.00  0.00     0.124 A 
ATOM     90  C   UNL A   1      28.185  30.707  21.144  1.00  0.00     0.119 A 
ATOM     91  N   UNL A   1      28.067  31.452  23.214  1.00  0.00    -0.302 N 
ATOM     92  N   UNL A   1      28.452  32.053  21.119  1.00  0.00    -0.312 N 
ATOM     93  C   UNL A   1      28.375  32.564  22.423  1.00  0.00     0.323 A 
ATOM     94  H   UNL A   1      27.931  31.468  24.189  1.00  0.00     0.172 HD
ATOM     95  H   UNL A   1      28.664  32.577  20.313  1.00  0.00     0.171 HD
ATOM     96  O   UNL A   1      28.545  33.713  22.773  1.00  0.00    -0.248 OA
ENDBRANCH  86  89
ENDBRANCH  84  85
ENDBRANCH  77  80
ENDBRANCH  75  76
ENDBRANCH  74  75
ENDBRANCH   1  74
TORSDOF 15
ENDMDL
