MODEL 1
REMARK VINA RESULT:     -13.2      0.000      0.000
REMARK SMILES N#CC1=C(N)N2C(=O)[C@@H](CC(=O)NCCCNC(=O)c3ccc(-c4c5nc(c(-c6c(F)cc(S(=O)(=O)[O-])cc6F)c6ccc([nH]6)c(-c6c(F)cc(S(=O)(=O)[O-])cc6F)c6nc(c(-c7c(F)cc(S(=O)(=O)[O-])cc7F)c7ccc4[nH]7)C=C6)C=C5)cc3)SC2=C(C#N)[C@H]1c1ccc(Cl)cc1
REMARK SMILES IDX 15 1 14 2 13 3 11 4 12 5 10 7 9 8 3 9 4 10 91 11 6 12 88 13
REMARK SMILES IDX 7 14 87 15 8 16 86 17 2 18 1 19 5 20 92 23 93 24 98 25 94 26
REMARK SMILES IDX 97 27 95 28 96 29 89 30 90 31 16 32 17 33 18 34 19 36 20 37
REMARK SMILES IDX 21 38 85 39 22 40 84 41 23 42 24 43 25 44 78 45 26 46 83 47
REMARK SMILES IDX 77 48 79 49 27 50 82 51 76 52 75 53 28 55 62 56 41 57 61 58
REMARK SMILES IDX 42 59 45 60 60 61 80 62 43 63 44 64 59 66 81 67 46 68 29 69
REMARK SMILES IDX 30 70 39 71 31 72 32 73 38 74 40 75 33 76 34 77 35 78 36 79
REMARK SMILES IDX 37 80 63 81 64 82 73 83 65 84 66 85 72 86 74 87 67 88 68 89
REMARK SMILES IDX 69 90 70 91 71 92 47 93 48 94 57 95 49 96 50 97 56 98 58 99
REMARK SMILES IDX 51 100 52 101 53 102 54 103 55 104
REMARK H PARENT 13 6 5 21 5 22 17 35 79 54 45 65
REMARK Flexibility Score: inf
ROOT
ATOM      1  C   UNL A   1      37.823  23.004  25.765  1.00  0.00     0.042 C 
ENDROOT
BRANCH   1   2
ATOM      2  C   UNL A   1      36.397  22.857  26.300  1.00  0.00     0.117 C 
BRANCH   2   3
ATOM      3  N   UNL A   1      35.722  21.638  25.886  1.00  0.00    -0.356 N 
ATOM      4  C   UNL A   1      34.947  21.386  24.800  1.00  0.00     0.221 C 
ATOM      5  O   UNL A   1      34.484  20.258  24.635  1.00  0.00    -0.275 OA
ATOM      6  H   UNL A   1      35.847  20.871  26.490  1.00  0.00     0.163 HD
BRANCH   4   7
ATOM      7  C   UNL A   1      34.666  22.480  23.801  1.00  0.00     0.125 C 
BRANCH   7   8
ATOM      8  C   UNL A   1      33.315  22.347  23.104  1.00  0.00     0.152 C 
ATOM      9  C   UNL A   1      30.988  26.441  23.164  1.00  0.00     0.083 C 
ATOM     10  C   UNL A   1      31.620  25.579  22.351  1.00  0.00     0.126 C 
ATOM     11  C   UNL A   1      30.835  26.210  24.660  1.00  0.00     0.107 C 
ATOM     12  N   UNL A   1      32.079  24.387  22.899  1.00  0.00    -0.258 N 
ATOM     13  C   UNL A   1      30.888  24.725  24.955  1.00  0.00     0.073 C 
ATOM     14  C   UNL A   1      32.957  23.544  22.238  1.00  0.00     0.247 C 
ATOM     15  C   UNL A   1      31.569  23.940  24.103  1.00  0.00     0.099 C 
ATOM     16  O   UNL A   1      33.440  23.762  21.132  1.00  0.00    -0.273 OA
ATOM     17  S   UNL A   1      31.979  22.278  24.367  1.00  0.00    -0.093 SA
BRANCH   9  18
ATOM     18  C   UNL A   1      30.369  27.713  22.609  1.00  0.00     0.100 C 
ATOM     19  N   UNL A   1      29.855  28.768  22.148  1.00  0.00    -0.193 NA
ENDBRANCH   9  18
BRANCH  10  20
ATOM     20  N   UNL A   1      31.813  25.851  21.023  1.00  0.00    -0.384 N 
ATOM     21  H   UNL A   1      32.195  26.716  20.748  1.00  0.00     0.158 HD
ATOM     22  H   UNL A   1      31.570  25.182  20.344  1.00  0.00     0.158 HD
ENDBRANCH  10  20
BRANCH  11  23
ATOM     23  C   UNL A   1      31.881  27.021  25.466  1.00  0.00    -0.034 A 
ATOM     24  C   UNL A   1      33.272  26.904  25.249  1.00  0.00     0.006 A 
ATOM     25  C   UNL A   1      31.459  27.940  26.445  1.00  0.00     0.006 A 
ATOM     26  C   UNL A   1      34.192  27.669  25.974  1.00  0.00     0.021 A 
ATOM     27  C   UNL A   1      32.379  28.726  27.151  1.00  0.00     0.021 A 
ATOM     28  C   UNL A   1      33.741  28.583  26.917  1.00  0.00     0.041 A 
ATOM     29  Cl  UNL A   1      34.872  29.535  27.795  1.00  0.00    -0.084 Cl
ENDBRANCH  11  23
BRANCH  13  30
ATOM     30  C   UNL A   1      30.314  24.248  26.166  1.00  0.00     0.098 C 
ATOM     31  N   UNL A   1      29.871  23.830  27.155  1.00  0.00    -0.193 NA
ENDBRANCH  13  30
ENDBRANCH   7   8
ENDBRANCH   4   7
ENDBRANCH   2   3
ENDBRANCH   1   2
BRANCH   1  32
ATOM     32  C   UNL A   1      38.642  24.086  26.463  1.00  0.00     0.118 C 
BRANCH  32  33
ATOM     33  N   UNL A   1      40.062  23.876  26.219  1.00  0.00    -0.352 N 
ATOM     34  C   UNL A   1      41.108  24.716  26.510  1.00  0.00     0.251 C 
ATOM     35  H   UNL A   1      40.303  23.023  25.791  1.00  0.00     0.163 HD
ATOM     36  O   UNL A   1      42.168  24.596  25.901  1.00  0.00    -0.269 OA
BRANCH  34  37
ATOM     37  C   UNL A   1      40.952  25.755  27.552  1.00  0.00     0.039 A 
ATOM     38  C   UNL A   1      39.913  25.641  28.478  1.00  0.00     0.014 A 
ATOM     39  C   UNL A   1      41.806  26.863  27.589  1.00  0.00     0.014 A 
ATOM     40  C   UNL A   1      39.760  26.615  29.469  1.00  0.00     0.010 A 
ATOM     41  C   UNL A   1      41.696  27.792  28.622  1.00  0.00     0.010 A 
ATOM     42  C   UNL A   1      40.667  27.683  29.569  1.00  0.00    -0.014 A 
BRANCH  42  43
ATOM     43  C   UNL A   1      40.554  28.691  30.658  1.00  0.00     0.031 A 
ATOM     44  C   UNL A   1      41.439  28.600  31.873  1.00  0.00     0.074 A 
ATOM     45  C   UNL A   1      39.626  29.664  30.570  1.00  0.00     0.049 A 
ATOM     46  N   UNL A   1      41.444  29.345  32.949  1.00  0.00    -0.248 NA
ATOM     47  C   UNL A   1      42.437  27.517  31.892  1.00  0.00     0.031 C 
ATOM     48  C   UNL A   1      38.689  29.841  29.458  1.00  0.00     0.029 A 
ATOM     49  N   UNL A   1      39.307  30.684  31.432  1.00  0.00    -0.354 N 
ATOM     50  C   UNL A   1      42.443  28.829  33.766  1.00  0.00     0.074 A 
ATOM     51  C   UNL A   1      42.975  27.664  33.094  1.00  0.00     0.031 C 
ATOM     52  C   UNL A   1      37.921  30.917  29.694  1.00  0.00     0.029 A 
ATOM     53  C   UNL A   1      38.272  31.477  30.994  1.00  0.00     0.049 A 
ATOM     54  H   UNL A   1      39.777  30.834  32.284  1.00  0.00     0.167 HD
ATOM     55  C   UNL A   1      42.898  29.300  34.953  1.00  0.00     0.037 A 
ATOM     56  C   UNL A   1      37.660  32.526  31.582  1.00  0.00     0.037 A 
ATOM     57  C   UNL A   1      42.362  30.462  35.616  1.00  0.00     0.049 A 
ATOM     58  C   UNL A   1      38.140  32.987  32.933  1.00  0.00     0.074 A 
ATOM     59  C   UNL A   1      42.764  31.030  36.813  1.00  0.00     0.029 A 
ATOM     60  N   UNL A   1      41.307  31.230  35.145  1.00  0.00    -0.354 N 
ATOM     61  N   UNL A   1      39.123  32.517  33.666  1.00  0.00    -0.248 NA
ATOM     62  C   UNL A   1      37.433  34.124  33.538  1.00  0.00     0.031 C 
ATOM     63  C   UNL A   1      41.916  32.105  37.094  1.00  0.00     0.029 A 
ATOM     64  C   UNL A   1      41.030  32.253  36.039  1.00  0.00     0.049 A 
ATOM     65  H   UNL A   1      40.826  31.072  34.301  1.00  0.00     0.167 HD
ATOM     66  C   UNL A   1      39.175  33.328  34.796  1.00  0.00     0.074 A 
ATOM     67  C   UNL A   1      38.137  34.325  34.642  1.00  0.00     0.031 C 
ATOM     68  C   UNL A   1      40.007  33.253  35.865  1.00  0.00     0.037 A 
BRANCH  55  69
ATOM     69  C   UNL A   1      44.041  28.570  35.607  1.00  0.00     0.058 A 
ATOM     70  C   UNL A   1      45.377  28.906  35.336  1.00  0.00     0.135 A 
ATOM     71  C   UNL A   1      43.803  27.565  36.559  1.00  0.00     0.135 A 
ATOM     72  F   UNL A   1      45.667  29.850  34.425  1.00  0.00    -0.206 F 
ATOM     73  C   UNL A   1      46.435  28.256  35.963  1.00  0.00     0.059 A 
ATOM     74  C   UNL A   1      44.845  26.924  37.224  1.00  0.00     0.059 A 
ATOM     75  F   UNL A   1      42.546  27.200  36.859  1.00  0.00    -0.206 F 
ATOM     76  C   UNL A   1      46.158  27.269  36.910  1.00  0.00     0.060 A 
BRANCH  76  77
ATOM     77  S   UNL A   1      47.546  26.454  37.728  1.00  0.00     0.124 S 
ATOM     78  O   UNL A   1      48.654  26.816  36.851  1.00  0.00    -0.237 OA
ATOM     79  O   UNL A   1      47.546  27.089  39.042  1.00  0.00    -0.237 OA
ATOM     80  O   UNL A   1      47.170  25.044  37.715  1.00  0.00    -0.744 OA
ENDBRANCH  76  77
ENDBRANCH  55  69
BRANCH  56  81
ATOM     81  C   UNL A   1      36.526  33.215  30.906  1.00  0.00     0.058 A 
ATOM     82  C   UNL A   1      36.742  34.059  29.805  1.00  0.00     0.135 A 
ATOM     83  C   UNL A   1      35.207  33.076  31.367  1.00  0.00     0.135 A 
ATOM     84  F   UNL A   1      37.984  34.231  29.325  1.00  0.00    -0.206 F 
ATOM     85  C   UNL A   1      35.703  34.770  29.214  1.00  0.00     0.059 A 
ATOM     86  C   UNL A   1      34.145  33.748  30.769  1.00  0.00     0.059 A 
ATOM     87  F   UNL A   1      34.938  32.268  32.405  1.00  0.00    -0.206 F 
ATOM     88  C   UNL A   1      34.407  34.610  29.706  1.00  0.00     0.060 A 
BRANCH  88  89
ATOM     89  S   UNL A   1      33.065  35.532  28.928  1.00  0.00     0.124 S 
ATOM     90  O   UNL A   1      33.800  36.542  28.176  1.00  0.00    -0.237 OA
ATOM     91  O   UNL A   1      32.405  34.499  28.135  1.00  0.00    -0.237 OA
ATOM     92  O   UNL A   1      32.294  36.028  30.065  1.00  0.00    -0.744 OA
ENDBRANCH  88  89
ENDBRANCH  56  81
BRANCH  68  93
ATOM     93  C   UNL A   1      39.871  34.310  36.930  1.00  0.00     0.058 A 
ATOM     94  C   UNL A   1      40.484  35.568  36.813  1.00  0.00     0.135 A 
ATOM     95  C   UNL A   1      39.067  34.077  38.058  1.00  0.00     0.135 A 
ATOM     96  F   UNL A   1      41.269  35.844  35.761  1.00  0.00    -0.206 F 
ATOM     97  C   UNL A   1      40.326  36.547  37.790  1.00  0.00     0.059 A 
ATOM     98  C   UNL A   1      38.866  35.054  39.028  1.00  0.00     0.059 A 
ATOM     99  F   UNL A   1      38.450  32.896  38.217  1.00  0.00    -0.206 F 
ATOM    100  C   UNL A   1      39.508  36.282  38.890  1.00  0.00     0.060 A 
BRANCH 100 101
ATOM    101  S   UNL A   1      39.278  37.579  40.125  1.00  0.00     0.124 S 
ATOM    102  O   UNL A   1      38.188  38.354  39.541  1.00  0.00    -0.237 OA
ATOM    103  O   UNL A   1      38.943  36.813  41.320  1.00  0.00    -0.237 OA
ATOM    104  O   UNL A   1      40.575  38.250  40.160  1.00  0.00    -0.744 OA
ENDBRANCH 100 101
ENDBRANCH  68  93
ENDBRANCH  42  43
ENDBRANCH  34  37
ENDBRANCH  32  33
ENDBRANCH   1  32
TORSDOF 18
ENDMDL
MODEL 2
REMARK VINA RESULT:     -13.1      6.347     11.791
REMARK SMILES N#CC1=C(N)N2C(=O)[C@@H](CC(=O)NCCCNC(=O)c3ccc(-c4c5nc(c(-c6c(F)cc(S(=O)(=O)[O-])cc6F)c6ccc([nH]6)c(-c6c(F)cc(S(=O)(=O)[O-])cc6F)c6nc(c(-c7c(F)cc(S(=O)(=O)[O-])cc7F)c7ccc4[nH]7)C=C6)C=C5)cc3)SC2=C(C#N)[C@H]1c1ccc(Cl)cc1
REMARK SMILES IDX 15 1 14 2 13 3 11 4 12 5 10 7 9 8 3 9 4 10 91 11 6 12 88 13
REMARK SMILES IDX 7 14 87 15 8 16 86 17 2 18 1 19 5 20 92 23 93 24 98 25 94 26
REMARK SMILES IDX 97 27 95 28 96 29 89 30 90 31 16 32 17 33 18 34 19 36 20 37
REMARK SMILES IDX 21 38 85 39 22 40 84 41 23 42 24 43 25 44 78 45 26 46 83 47
REMARK SMILES IDX 77 48 79 49 27 50 82 51 76 52 75 53 28 55 62 56 41 57 61 58
REMARK SMILES IDX 42 59 45 60 60 61 80 62 43 63 44 64 59 66 81 67 46 68 29 69
REMARK SMILES IDX 30 70 39 71 31 72 32 73 38 74 40 75 33 76 34 77 35 78 36 79
REMARK SMILES IDX 37 80 63 81 64 82 73 83 65 84 66 85 72 86 74 87 67 88 68 89
REMARK SMILES IDX 69 90 70 91 71 92 47 93 48 94 57 95 49 96 50 97 56 98 58 99
REMARK SMILES IDX 51 100 52 101 53 102 54 103 55 104
REMARK H PARENT 13 6 5 21 5 22 17 35 79 54 45 65
REMARK Flexibility Score: inf
ROOT
ATOM      1  C   UNL A   1      33.867  29.850  27.242  1.00  0.00     0.042 C 
ENDROOT
BRANCH   1   2
ATOM      2  C   UNL A   1      33.865  29.369  25.790  1.00  0.00     0.117 C 
BRANCH   2   3
ATOM      3  N   UNL A   1      32.668  29.718  25.042  1.00  0.00    -0.356 N 
ATOM      4  C   UNL A   1      31.489  29.059  24.911  1.00  0.00     0.221 C 
ATOM      5  O   UNL A   1      30.590  29.555  24.231  1.00  0.00    -0.275 OA
ATOM      6  H   UNL A   1      32.721  30.571  24.552  1.00  0.00     0.163 HD
BRANCH   4   7
ATOM      7  C   UNL A   1      31.281  27.734  25.601  1.00  0.00     0.125 C 
BRANCH   7   8
ATOM      8  C   UNL A   1      30.272  26.827  24.904  1.00  0.00     0.152 C 
ATOM      9  C   UNL A   1      31.960  22.449  24.495  1.00  0.00     0.083 C 
ATOM     10  C   UNL A   1      31.031  23.185  25.128  1.00  0.00     0.126 C 
ATOM     11  C   UNL A   1      32.933  23.032  23.482  1.00  0.00     0.107 C 
ATOM     12  N   UNL A   1      30.910  24.523  24.770  1.00  0.00    -0.258 N 
ATOM     13  C   UNL A   1      32.331  24.272  22.853  1.00  0.00     0.073 C 
ATOM     14  C   UNL A   1      30.182  25.437  25.513  1.00  0.00     0.247 C 
ATOM     15  C   UNL A   1      31.431  24.966  23.570  1.00  0.00     0.099 C 
ATOM     16  O   UNL A   1      29.599  25.182  26.562  1.00  0.00    -0.273 OA
ATOM     17  S   UNL A   1      30.810  26.533  23.169  1.00  0.00    -0.093 SA
BRANCH   9  18
ATOM     18  C   UNL A   1      32.073  20.957  24.761  1.00  0.00     0.100 C 
ATOM     19  N   UNL A   1      32.167  19.719  24.981  1.00  0.00    -0.193 NA
ENDBRANCH   9  18
BRANCH  10  20
ATOM     20  N   UNL A   1      30.223  22.650  26.093  1.00  0.00    -0.384 N 
ATOM     21  H   UNL A   1      30.617  22.153  26.846  1.00  0.00     0.158 HD
ATOM     22  H   UNL A   1      29.247  22.761  26.035  1.00  0.00     0.158 HD
ENDBRANCH  10  20
BRANCH  11  23
ATOM     23  C   UNL A   1      34.321  23.295  24.118  1.00  0.00    -0.034 A 
ATOM     24  C   UNL A   1      34.478  23.861  25.403  1.00  0.00     0.006 A 
ATOM     25  C   UNL A   1      35.493  22.942  23.423  1.00  0.00     0.006 A 
ATOM     26  C   UNL A   1      35.745  24.062  25.962  1.00  0.00     0.021 A 
ATOM     27  C   UNL A   1      36.760  23.117  23.996  1.00  0.00     0.021 A 
ATOM     28  C   UNL A   1      36.881  23.681  25.260  1.00  0.00     0.041 A 
ATOM     29  Cl  UNL A   1      38.436  23.912  25.957  1.00  0.00    -0.084 Cl
ENDBRANCH  11  23
BRANCH  13  30
ATOM     30  C   UNL A   1      32.821  24.704  21.589  1.00  0.00     0.098 C 
ATOM     31  N   UNL A   1      33.187  25.071  20.549  1.00  0.00    -0.193 NA
ENDBRANCH  13  30
ENDBRANCH   7   8
ENDBRANCH   4   7
ENDBRANCH   2   3
ENDBRANCH   1   2
BRANCH   1  32
ATOM     32  C   UNL A   1      35.164  29.564  27.993  1.00  0.00     0.118 C 
BRANCH  32  33
ATOM     33  N   UNL A   1      35.284  30.449  29.143  1.00  0.00    -0.352 N 
ATOM     34  C   UNL A   1      36.317  30.536  30.043  1.00  0.00     0.251 C 
ATOM     35  H   UNL A   1      34.530  31.063  29.293  1.00  0.00     0.163 HD
ATOM     36  O   UNL A   1      36.111  31.017  31.155  1.00  0.00    -0.269 OA
BRANCH  34  37
ATOM     37  C   UNL A   1      37.664  30.053  29.671  1.00  0.00     0.039 A 
ATOM     38  C   UNL A   1      38.047  30.068  28.328  1.00  0.00     0.014 A 
ATOM     39  C   UNL A   1      38.536  29.547  30.641  1.00  0.00     0.014 A 
ATOM     40  C   UNL A   1      39.319  29.617  27.965  1.00  0.00     0.010 A 
ATOM     41  C   UNL A   1      39.829  29.168  30.287  1.00  0.00     0.010 A 
ATOM     42  C   UNL A   1      40.234  29.192  28.944  1.00  0.00    -0.014 A 
BRANCH  42  43
ATOM     43  C   UNL A   1      41.613  28.771  28.580  1.00  0.00     0.031 A 
ATOM     44  C   UNL A   1      42.729  29.782  28.532  1.00  0.00     0.074 A 
ATOM     45  C   UNL A   1      41.852  27.486  28.251  1.00  0.00     0.049 A 
ATOM     46  N   UNL A   1      43.977  29.618  28.175  1.00  0.00    -0.248 NA
ATOM     47  C   UNL A   1      42.393  31.164  28.914  1.00  0.00     0.031 C 
ATOM     48  C   UNL A   1      40.849  26.418  28.230  1.00  0.00     0.029 A 
ATOM     49  N   UNL A   1      43.009  26.857  27.863  1.00  0.00    -0.354 N 
ATOM     50  C   UNL A   1      44.576  30.866  28.297  1.00  0.00     0.074 A 
ATOM     51  C   UNL A   1      43.538  31.794  28.691  1.00  0.00     0.031 C 
ATOM     52  C   UNL A   1      41.439  25.265  27.874  1.00  0.00     0.029 A 
ATOM     53  C   UNL A   1      42.848  25.518  27.592  1.00  0.00     0.049 A 
ATOM     54  H   UNL A   1      43.874  27.321  27.787  1.00  0.00     0.167 HD
ATOM     55  C   UNL A   1      45.878  31.204  28.128  1.00  0.00     0.037 A 
ATOM     56  C   UNL A   1      43.730  24.599  27.147  1.00  0.00     0.037 A 
ATOM     57  C   UNL A   1      46.906  30.275  27.734  1.00  0.00     0.049 A 
ATOM     58  C   UNL A   1      45.156  25.018  26.900  1.00  0.00     0.074 A 
ATOM     59  C   UNL A   1      48.257  30.515  27.552  1.00  0.00     0.029 A 
ATOM     60  N   UNL A   1      46.700  28.931  27.459  1.00  0.00    -0.354 N 
ATOM     61  N   UNL A   1      45.715  26.193  27.073  1.00  0.00    -0.248 NA
ATOM     62  C   UNL A   1      46.075  23.985  26.402  1.00  0.00     0.031 C 
ATOM     63  C   UNL A   1      48.856  29.332  27.110  1.00  0.00     0.029 A 
ATOM     64  C   UNL A   1      47.894  28.335  27.085  1.00  0.00     0.049 A 
ATOM     65  H   UNL A   1      45.832  28.468  27.519  1.00  0.00     0.167 HD
ATOM     66  C   UNL A   1      47.057  26.028  26.744  1.00  0.00     0.074 A 
ATOM     67  C   UNL A   1      47.227  24.638  26.378  1.00  0.00     0.031 C 
ATOM     68  C   UNL A   1      48.057  26.944  26.744  1.00  0.00     0.037 A 
BRANCH  55  69
ATOM     69  C   UNL A   1      46.269  32.637  28.379  1.00  0.00     0.058 A 
ATOM     70  C   UNL A   1      46.701  33.068  29.644  1.00  0.00     0.135 A 
ATOM     71  C   UNL A   1      46.273  33.576  27.334  1.00  0.00     0.135 A 
ATOM     72  F   UNL A   1      46.706  32.218  30.684  1.00  0.00    -0.206 F 
ATOM     73  C   UNL A   1      47.095  34.382  29.871  1.00  0.00     0.059 A 
ATOM     74  C   UNL A   1      46.696  34.889  27.531  1.00  0.00     0.059 A 
ATOM     75  F   UNL A   1      45.871  33.222  26.103  1.00  0.00    -0.206 F 
ATOM     76  C   UNL A   1      47.094  35.284  28.807  1.00  0.00     0.060 A 
BRANCH  76  77
ATOM     77  S   UNL A   1      47.631  36.979  29.119  1.00  0.00     0.124 S 
ATOM     78  O   UNL A   1      47.387  37.102  30.553  1.00  0.00    -0.237 OA
ATOM     79  O   UNL A   1      49.034  36.938  28.718  1.00  0.00    -0.237 OA
ATOM     80  O   UNL A   1      46.760  37.777  28.264  1.00  0.00    -0.744 OA
ENDBRANCH  76  77
ENDBRANCH  55  69
BRANCH  56  81
ATOM     81  C   UNL A   1      43.300  23.195  26.901  1.00  0.00     0.058 A 
ATOM     82  C   UNL A   1      43.043  22.317  27.967  1.00  0.00     0.135 A 
ATOM     83  C   UNL A   1      43.172  22.688  25.597  1.00  0.00     0.135 A 
ATOM     84  F   UNL A   1      43.154  22.749  29.233  1.00  0.00    -0.206 F 
ATOM     85  C   UNL A   1      42.718  20.982  27.752  1.00  0.00     0.059 A 
ATOM     86  C   UNL A   1      42.811  21.365  25.357  1.00  0.00     0.059 A 
ATOM     87  F   UNL A   1      43.387  23.486  24.540  1.00  0.00    -0.206 F 
ATOM     88  C   UNL A   1      42.606  20.515  26.442  1.00  0.00     0.060 A 
BRANCH  88  89
ATOM     89  S   UNL A   1      42.177  18.782  26.174  1.00  0.00     0.124 S 
ATOM     90  O   UNL A   1      43.116  18.405  25.125  1.00  0.00    -0.237 OA
ATOM     91  O   UNL A   1      42.421  18.201  27.491  1.00  0.00    -0.237 OA
ATOM     92  O   UNL A   1      40.773  18.842  25.774  1.00  0.00    -0.744 OA
ENDBRANCH  88  89
ENDBRANCH  56  81
BRANCH  68  93
ATOM     93  C   UNL A   1      49.441  26.466  26.391  1.00  0.00     0.058 A 
ATOM     94  C   UNL A   1      49.984  26.638  25.108  1.00  0.00     0.135 A 
ATOM     95  C   UNL A   1      50.257  25.877  27.373  1.00  0.00     0.135 A 
ATOM     96  F   UNL A   1      49.249  27.188  24.130  1.00  0.00    -0.206 F 
ATOM     97  C   UNL A   1      51.276  26.219  24.803  1.00  0.00     0.059 A 
ATOM     98  C   UNL A   1      51.563  25.485  27.100  1.00  0.00     0.059 A 
ATOM     99  F   UNL A   1      49.792  25.696  28.619  1.00  0.00    -0.206 F 
ATOM    100  C   UNL A   1      52.061  25.650  25.809  1.00  0.00     0.060 A 
BRANCH 100 101
ATOM    101  S   UNL A   1      53.749  25.154  25.408  1.00  0.00     0.124 S 
ATOM    102  O   UNL A   1      53.953  25.810  24.121  1.00  0.00    -0.237 OA
ATOM    103  O   UNL A   1      54.507  25.703  26.528  1.00  0.00    -0.237 OA
ATOM    104  O   UNL A   1      53.674  23.696  25.364  1.00  0.00    -0.744 OA
ENDBRANCH 100 101
ENDBRANCH  68  93
ENDBRANCH  42  43
ENDBRANCH  34  37
ENDBRANCH  32  33
ENDBRANCH   1  32
TORSDOF 18
ENDMDL
MODEL 3
REMARK VINA RESULT:     -13.1      6.240     11.669
REMARK SMILES N#CC1=C(N)N2C(=O)[C@@H](CC(=O)NCCCNC(=O)c3ccc(-c4c5nc(c(-c6c(F)cc(S(=O)(=O)[O-])cc6F)c6ccc([nH]6)c(-c6c(F)cc(S(=O)(=O)[O-])cc6F)c6nc(c(-c7c(F)cc(S(=O)(=O)[O-])cc7F)c7ccc4[nH]7)C=C6)C=C5)cc3)SC2=C(C#N)[C@H]1c1ccc(Cl)cc1
REMARK SMILES IDX 15 1 14 2 13 3 11 4 12 5 10 7 9 8 3 9 4 10 91 11 6 12 88 13
REMARK SMILES IDX 7 14 87 15 8 16 86 17 2 18 1 19 5 20 92 23 93 24 98 25 94 26
REMARK SMILES IDX 97 27 95 28 96 29 89 30 90 31 16 32 17 33 18 34 19 36 20 37
REMARK SMILES IDX 21 38 85 39 22 40 84 41 23 42 24 43 25 44 78 45 26 46 83 47
REMARK SMILES IDX 77 48 79 49 27 50 82 51 76 52 75 53 28 55 62 56 41 57 61 58
REMARK SMILES IDX 42 59 45 60 60 61 80 62 43 63 44 64 59 66 81 67 46 68 29 69
REMARK SMILES IDX 30 70 39 71 31 72 32 73 38 74 40 75 33 76 34 77 35 78 36 79
REMARK SMILES IDX 37 80 63 81 64 82 73 83 65 84 66 85 72 86 74 87 67 88 68 89
REMARK SMILES IDX 69 90 70 91 71 92 47 93 48 94 57 95 49 96 50 97 56 98 58 99
REMARK SMILES IDX 51 100 52 101 53 102 54 103 55 104
REMARK H PARENT 13 6 5 21 5 22 17 35 79 54 45 65
REMARK Flexibility Score: inf
ROOT
ATOM      1  C   UNL A   1      33.979  30.090  27.260  1.00  0.00     0.042 C 
ENDROOT
BRANCH   1   2
ATOM      2  C   UNL A   1      33.858  29.324  25.940  1.00  0.00     0.117 C 
BRANCH   2   3
ATOM      3  N   UNL A   1      32.660  29.630  25.175  1.00  0.00    -0.356 N 
ATOM      4  C   UNL A   1      31.516  28.918  25.011  1.00  0.00     0.221 C 
ATOM      5  O   UNL A   1      30.608  29.384  24.322  1.00  0.00    -0.275 OA
ATOM      6  H   UNL A   1      32.682  30.493  24.701  1.00  0.00     0.163 HD
BRANCH   4   7
ATOM      7  C   UNL A   1      31.358  27.574  25.674  1.00  0.00     0.125 C 
BRANCH   7   8
ATOM      8  C   UNL A   1      30.335  26.667  24.996  1.00  0.00     0.152 C 
ATOM      9  C   UNL A   1      31.998  22.281  24.584  1.00  0.00     0.083 C 
ATOM     10  C   UNL A   1      31.082  23.023  25.226  1.00  0.00     0.126 C 
ATOM     11  C   UNL A   1      32.958  22.854  23.554  1.00  0.00     0.107 C 
ATOM     12  N   UNL A   1      30.961  24.360  24.864  1.00  0.00    -0.258 N 
ATOM     13  C   UNL A   1      32.353  24.094  22.928  1.00  0.00     0.073 C 
ATOM     14  C   UNL A   1      30.248  25.281  25.613  1.00  0.00     0.247 C 
ATOM     15  C   UNL A   1      31.466  24.795  23.654  1.00  0.00     0.099 C 
ATOM     16  O   UNL A   1      29.679  25.034  26.672  1.00  0.00    -0.273 OA
ATOM     17  S   UNL A   1      30.846  26.363  23.255  1.00  0.00    -0.093 SA
BRANCH   9  18
ATOM     18  C   UNL A   1      32.109  20.789  24.856  1.00  0.00     0.100 C 
ATOM     19  N   UNL A   1      32.201  19.552  25.081  1.00  0.00    -0.193 NA
ENDBRANCH   9  18
BRANCH  10  20
ATOM     20  N   UNL A   1      30.285  22.496  26.207  1.00  0.00    -0.384 N 
ATOM     21  H   UNL A   1      29.316  22.665  26.197  1.00  0.00     0.158 HD
ATOM     22  H   UNL A   1      30.682  21.947  26.921  1.00  0.00     0.158 HD
ENDBRANCH  10  20
BRANCH  11  23
ATOM     23  C   UNL A   1      34.357  23.114  24.169  1.00  0.00    -0.034 A 
ATOM     24  C   UNL A   1      35.557  22.905  23.455  1.00  0.00     0.006 A 
ATOM     25  C   UNL A   1      34.468  23.604  25.484  1.00  0.00     0.006 A 
ATOM     26  C   UNL A   1      36.805  23.174  24.028  1.00  0.00     0.021 A 
ATOM     27  C   UNL A   1      35.716  23.900  26.048  1.00  0.00     0.021 A 
ATOM     28  C   UNL A   1      36.879  23.679  25.320  1.00  0.00     0.041 A 
ATOM     29  Cl  UNL A   1      38.413  24.025  26.016  1.00  0.00    -0.084 Cl
ENDBRANCH  11  23
BRANCH  13  30
ATOM     30  C   UNL A   1      32.826  24.517  21.654  1.00  0.00     0.098 C 
ATOM     31  N   UNL A   1      33.182  24.884  20.611  1.00  0.00    -0.193 NA
ENDBRANCH  13  30
ENDBRANCH   7   8
ENDBRANCH   4   7
ENDBRANCH   2   3
ENDBRANCH   1   2
BRANCH   1  32
ATOM     32  C   UNL A   1      35.241  29.768  28.054  1.00  0.00     0.118 C 
BRANCH  32  33
ATOM     33  N   UNL A   1      35.270  30.543  29.286  1.00  0.00    -0.352 N 
ATOM     34  C   UNL A   1      36.268  30.608  30.227  1.00  0.00     0.251 C 
ATOM     35  H   UNL A   1      34.473  31.091  29.468  1.00  0.00     0.163 HD
ATOM     36  O   UNL A   1      36.000  30.965  31.371  1.00  0.00    -0.269 OA
BRANCH  34  37
ATOM     37  C   UNL A   1      37.655  30.248  29.858  1.00  0.00     0.039 A 
ATOM     38  C   UNL A   1      38.533  29.808  30.851  1.00  0.00     0.014 A 
ATOM     39  C   UNL A   1      38.102  30.384  28.539  1.00  0.00     0.014 A 
ATOM     40  C   UNL A   1      39.844  29.462  30.512  1.00  0.00     0.010 A 
ATOM     41  C   UNL A   1      39.385  29.969  28.192  1.00  0.00     0.010 A 
ATOM     42  C   UNL A   1      40.274  29.510  29.175  1.00  0.00    -0.014 A 
BRANCH  42  43
ATOM     43  C   UNL A   1      41.646  29.083  28.791  1.00  0.00     0.031 A 
ATOM     44  C   UNL A   1      42.775  30.080  28.767  1.00  0.00     0.074 A 
ATOM     45  C   UNL A   1      41.867  27.805  28.425  1.00  0.00     0.049 A 
ATOM     46  N   UNL A   1      44.019  29.910  28.399  1.00  0.00    -0.248 NA
ATOM     47  C   UNL A   1      42.459  31.454  29.190  1.00  0.00     0.031 C 
ATOM     48  C   UNL A   1      40.850  26.751  28.378  1.00  0.00     0.029 A 
ATOM     49  N   UNL A   1      43.014  27.172  28.013  1.00  0.00    -0.354 N 
ATOM     50  C   UNL A   1      44.634  31.147  28.553  1.00  0.00     0.074 A 
ATOM     51  C   UNL A   1      43.611  32.076  28.979  1.00  0.00     0.031 C 
ATOM     52  C   UNL A   1      41.423  25.601  27.987  1.00  0.00     0.029 A 
ATOM     53  C   UNL A   1      42.834  25.843  27.704  1.00  0.00     0.049 A 
ATOM     54  H   UNL A   1      43.884  27.627  27.945  1.00  0.00     0.167 HD
ATOM     55  C   UNL A   1      45.940  31.473  28.387  1.00  0.00     0.037 A 
ATOM     56  C   UNL A   1      43.702  24.927  27.229  1.00  0.00     0.037 A 
ATOM     57  C   UNL A   1      46.954  30.542  27.961  1.00  0.00     0.049 A 
ATOM     58  C   UNL A   1      45.132  25.334  26.986  1.00  0.00     0.074 A 
ATOM     59  C   UNL A   1      48.307  30.770  27.779  1.00  0.00     0.029 A 
ATOM     60  N   UNL A   1      46.729  29.209  27.649  1.00  0.00    -0.354 N 
ATOM     61  N   UNL A   1      45.707  26.497  27.189  1.00  0.00    -0.248 NA
ATOM     62  C   UNL A   1      46.035  24.304  26.454  1.00  0.00     0.031 C 
ATOM     63  C   UNL A   1      48.889  29.593  27.300  1.00  0.00     0.029 A 
ATOM     64  C   UNL A   1      47.914  28.609  27.252  1.00  0.00     0.049 A 
ATOM     65  H   UNL A   1      45.856  28.756  27.700  1.00  0.00     0.167 HD
ATOM     66  C   UNL A   1      47.045  26.323  26.849  1.00  0.00     0.074 A 
ATOM     67  C   UNL A   1      47.196  24.943  26.442  1.00  0.00     0.031 C 
ATOM     68  C   UNL A   1      48.057  27.227  26.869  1.00  0.00     0.037 A 
BRANCH  55  69
ATOM     69  C   UNL A   1      46.351  32.892  28.676  1.00  0.00     0.058 A 
ATOM     70  C   UNL A   1      46.330  33.881  27.678  1.00  0.00     0.135 A 
ATOM     71  C   UNL A   1      46.713  33.286  29.975  1.00  0.00     0.135 A 
ATOM     72  F   UNL A   1      46.005  33.561  26.415  1.00  0.00    -0.206 F 
ATOM     73  C   UNL A   1      46.678  35.200  27.951  1.00  0.00     0.059 A 
ATOM     74  C   UNL A   1      47.032  34.608  30.278  1.00  0.00     0.059 A 
ATOM     75  F   UNL A   1      46.751  32.386  30.971  1.00  0.00    -0.206 F 
ATOM     76  C   UNL A   1      47.022  35.555  29.255  1.00  0.00     0.060 A 
BRANCH  76  77
ATOM     77  S   UNL A   1      47.448  37.277  29.590  1.00  0.00     0.124 S 
ATOM     78  O   UNL A   1      48.351  37.137  30.728  1.00  0.00    -0.237 OA
ATOM     79  O   UNL A   1      48.069  37.691  28.337  1.00  0.00    -0.237 OA
ATOM     80  O   UNL A   1      46.160  37.896  29.884  1.00  0.00    -0.744 OA
ENDBRANCH  76  77
ENDBRANCH  55  69
BRANCH  56  81
ATOM     81  C   UNL A   1      43.252  23.535  26.945  1.00  0.00     0.058 A 
ATOM     82  C   UNL A   1      43.094  22.599  27.979  1.00  0.00     0.135 A 
ATOM     83  C   UNL A   1      43.007  23.101  25.632  1.00  0.00     0.135 A 
ATOM     84  F   UNL A   1      43.320  22.961  29.252  1.00  0.00    -0.206 F 
ATOM     85  C   UNL A   1      42.752  21.276  27.720  1.00  0.00     0.059 A 
ATOM     86  C   UNL A   1      42.627  21.791  25.352  1.00  0.00     0.059 A 
ATOM     87  F   UNL A   1      43.124  23.957  24.605  1.00  0.00    -0.206 F 
ATOM     88  C   UNL A   1      42.522  20.881  26.402  1.00  0.00     0.060 A 
BRANCH  88  89
ATOM     89  S   UNL A   1      42.072  19.164  26.078  1.00  0.00     0.124 S 
ATOM     90  O   UNL A   1      42.926  18.845  24.940  1.00  0.00    -0.237 OA
ATOM     91  O   UNL A   1      42.419  18.515  27.339  1.00  0.00    -0.237 OA
ATOM     92  O   UNL A   1      40.642  19.239  25.794  1.00  0.00    -0.744 OA
ENDBRANCH  88  89
ENDBRANCH  56  81
BRANCH  68  93
ATOM     93  C   UNL A   1      49.433  26.741  26.496  1.00  0.00     0.058 A 
ATOM     94  C   UNL A   1      50.240  26.026  27.396  1.00  0.00     0.135 A 
ATOM     95  C   UNL A   1      49.927  26.948  25.197  1.00  0.00     0.135 A 
ATOM     96  F   UNL A   1      49.822  25.806  28.652  1.00  0.00    -0.206 F 
ATOM     97  C   UNL A   1      51.497  25.556  27.029  1.00  0.00     0.059 A 
ATOM     98  C   UNL A   1      51.166  26.455  24.798  1.00  0.00     0.059 A 
ATOM     99  F   UNL A   1      49.195  27.617  24.293  1.00  0.00    -0.206 F 
ATOM    100  C   UNL A   1      51.948  25.770  25.724  1.00  0.00     0.060 A 
BRANCH 100 101
ATOM    101  S   UNL A   1      53.563  25.115  25.253  1.00  0.00     0.124 S 
ATOM    102  O   UNL A   1      54.439  25.757  26.227  1.00  0.00    -0.237 OA
ATOM    103  O   UNL A   1      53.374  23.678  25.419  1.00  0.00    -0.237 OA
ATOM    104  O   UNL A   1      53.723  25.566  23.873  1.00  0.00    -0.744 OA
ENDBRANCH 100 101
ENDBRANCH  68  93
ENDBRANCH  42  43
ENDBRANCH  34  37
ENDBRANCH  32  33
ENDBRANCH   1  32
TORSDOF 18
ENDMDL
