MODEL 1
REMARK VINA RESULT:     -12.1      0.000      0.000
REMARK SMILES C[C@@H]1[NH2+]CC[C@H]1C(=O)NCc1cccc(C(=O)NCCCNC(=O)c2ccc(-c3c4nc(c(-c5c(F)cc(S(=O)(=O)[O-])cc5F)c5ccc([nH]5)c(-c5c(F)cc(S(=O)(=O)[O-])cc5F)c5nc(c(-c6c(F)cc(S(=O)(=O)[O-])cc6F)c6ccc3[nH]6)C=C5)C=C4)cc2)c1
REMARK SMILES IDX 20 1 19 2 18 3 16 4 17 5 15 7 11 8 12 9 91 10 13 11 14 12
REMARK SMILES IDX 10 13 9 14 7 15 8 16 6 18 1 19 2 20 3 21 4 22 5 25 21 26
REMARK SMILES IDX 22 27 23 28 24 30 25 31 26 32 90 33 27 34 89 35 28 36 29 37
REMARK SMILES IDX 30 38 83 39 31 40 88 41 82 42 84 43 32 44 87 45 81 46 80 47
REMARK SMILES IDX 33 49 67 50 46 51 66 52 47 53 50 54 65 55 85 56 48 57 49 58
REMARK SMILES IDX 64 60 86 61 51 62 34 63 35 64 44 65 36 66 37 67 43 68 45 69
REMARK SMILES IDX 38 70 39 71 40 72 41 73 42 74 68 75 69 76 78 77 70 78 71 79
REMARK SMILES IDX 77 80 79 81 72 82 73 83 74 84 75 85 76 86 52 87 53 88 62 89
REMARK SMILES IDX 54 90 55 91 61 92 63 93 56 94 57 95 58 96 59 97 60 98
REMARK H PARENT 18 6 9 17 3 23 3 24 22 29 84 48 50 59
REMARK Flexibility Score: inf
ROOT
ATOM      1  C   UNL A   1      38.699  23.289  26.512  1.00  0.00     0.042 C 
ENDROOT
BRANCH   1   2
ATOM      2  C   UNL A   1      38.225  22.046  25.779  1.00  0.00     0.118 C 
BRANCH   2   3
ATOM      3  N   UNL A   1      37.761  22.276  24.415  1.00  0.00    -0.352 N 
ATOM      4  C   UNL A   1      36.615  22.806  23.863  1.00  0.00     0.251 C 
ATOM      5  O   UNL A   1      36.569  22.910  22.635  1.00  0.00    -0.269 OA
ATOM      6  H   UNL A   1      38.414  21.989  23.735  1.00  0.00     0.163 HD
BRANCH   4   7
ATOM      7  C   UNL A   1      35.404  23.168  24.653  1.00  0.00     0.040 A 
ATOM      8  C   UNL A   1      33.796  24.838  25.376  1.00  0.00    -0.028 A 
ATOM      9  C   UNL A   1      33.465  24.042  26.476  1.00  0.00     0.005 A 
ATOM     10  C   UNL A   1      34.633  24.294  24.396  1.00  0.00     0.019 A 
ATOM     11  C   UNL A   1      34.054  22.788  26.636  1.00  0.00     0.001 A 
ATOM     12  C   UNL A   1      35.064  22.380  25.760  1.00  0.00     0.014 A 
BRANCH   8  13
ATOM     13  C   UNL A   1      33.396  26.295  25.346  1.00  0.00     0.151 C 
BRANCH  13  14
ATOM     14  N   UNL A   1      32.443  26.659  26.379  1.00  0.00    -0.352 N 
ATOM     15  C   UNL A   1      32.239  27.825  27.045  1.00  0.00     0.229 C 
ATOM     16  O   UNL A   1      31.464  27.804  28.003  1.00  0.00    -0.275 OA
ATOM     17  H   UNL A   1      31.836  25.931  26.644  1.00  0.00     0.163 HD
BRANCH  15  18
ATOM     18  C   UNL A   1      32.928  29.115  26.637  1.00  0.00     0.142 C 
ATOM     19  C   UNL A   1      31.655  31.240  26.111  1.00  0.00     0.076 C 
ATOM     20  C   UNL A   1      32.256  30.363  27.206  1.00  0.00     0.192 C 
ATOM     21  N   UNL A   1      33.284  31.133  27.926  1.00  0.00    -0.343 N 
ATOM     22  C   UNL A   1      34.593  30.581  27.573  1.00  0.00     0.261 C 
ATOM     23  H   UNL A   1      33.135  31.053  28.932  1.00  0.00     0.346 HD
ATOM     24  H   UNL A   1      33.234  32.118  27.668  1.00  0.00     0.346 HD
ATOM     25  C   UNL A   1      34.385  29.169  27.063  1.00  0.00     0.081 C 
ENDBRANCH  15  18
ENDBRANCH  13  14
ENDBRANCH   8  13
ENDBRANCH   4   7
ENDBRANCH   2   3
ENDBRANCH   1   2
BRANCH   1  26
ATOM     26  C   UNL A   1      40.124  23.208  27.026  1.00  0.00     0.118 C 
BRANCH  26  27
ATOM     27  N   UNL A   1      41.086  23.836  26.127  1.00  0.00    -0.352 N 
ATOM     28  C   UNL A   1      41.674  25.078  26.148  1.00  0.00     0.251 C 
ATOM     29  H   UNL A   1      41.362  23.270  25.371  1.00  0.00     0.163 HD
ATOM     30  O   UNL A   1      42.307  25.453  25.165  1.00  0.00    -0.269 OA
BRANCH  28  31
ATOM     31  C   UNL A   1      41.546  25.966  27.326  1.00  0.00     0.039 A 
ATOM     32  C   UNL A   1      42.464  27.008  27.492  1.00  0.00     0.014 A 
ATOM     33  C   UNL A   1      40.556  25.759  28.285  1.00  0.00     0.014 A 
ATOM     34  C   UNL A   1      42.338  27.878  28.578  1.00  0.00     0.010 A 
ATOM     35  C   UNL A   1      40.362  26.689  29.300  1.00  0.00     0.010 A 
ATOM     36  C   UNL A   1      41.259  27.752  29.468  1.00  0.00    -0.014 A 
BRANCH  36  37
ATOM     37  C   UNL A   1      41.051  28.716  30.580  1.00  0.00     0.031 A 
ATOM     38  C   UNL A   1      41.887  28.627  31.830  1.00  0.00     0.074 A 
ATOM     39  C   UNL A   1      40.056  29.621  30.495  1.00  0.00     0.049 A 
ATOM     40  N   UNL A   1      41.811  29.336  32.926  1.00  0.00    -0.248 NA
ATOM     41  C   UNL A   1      42.920  27.579  31.867  1.00  0.00     0.031 C 
ATOM     42  C   UNL A   1      39.133  29.758  29.365  1.00  0.00     0.029 A 
ATOM     43  N   UNL A   1      39.645  30.588  31.377  1.00  0.00    -0.354 N 
ATOM     44  C   UNL A   1      42.767  28.808  33.788  1.00  0.00     0.074 A 
ATOM     45  C   UNL A   1      43.366  27.680  33.110  1.00  0.00     0.031 C 
ATOM     46  C   UNL A   1      38.284  30.768  29.610  1.00  0.00     0.029 A 
ATOM     47  C   UNL A   1      38.572  31.323  30.929  1.00  0.00     0.049 A 
ATOM     48  H   UNL A   1      40.078  30.742  32.247  1.00  0.00     0.167 HD
ATOM     49  C   UNL A   1      43.129  29.238  35.020  1.00  0.00     0.037 A 
ATOM     50  C   UNL A   1      37.892  32.326  31.516  1.00  0.00     0.037 A 
ATOM     51  C   UNL A   1      42.542  30.380  35.674  1.00  0.00     0.049 A 
ATOM     52  C   UNL A   1      38.323  32.805  32.874  1.00  0.00     0.074 A 
ATOM     53  C   UNL A   1      42.890  30.949  36.885  1.00  0.00     0.029 A 
ATOM     54  N   UNL A   1      41.478  31.118  35.175  1.00  0.00    -0.354 N 
ATOM     55  N   UNL A   1      39.288  32.349  33.638  1.00  0.00    -0.248 NA
ATOM     56  C   UNL A   1      37.584  33.937  33.444  1.00  0.00     0.031 C 
ATOM     57  C   UNL A   1      42.001  31.999  37.145  1.00  0.00     0.029 A 
ATOM     58  C   UNL A   1      41.136  32.121  36.069  1.00  0.00     0.049 A 
ATOM     59  H   UNL A   1      41.031  30.954  34.313  1.00  0.00     0.167 HD
ATOM     60  C   UNL A   1      39.282  33.151  34.774  1.00  0.00     0.074 A 
ATOM     61  C   UNL A   1      38.231  34.131  34.586  1.00  0.00     0.031 C 
ATOM     62  C   UNL A   1      40.078  33.082  35.872  1.00  0.00     0.037 A 
BRANCH  49  63
ATOM     63  C   UNL A   1      44.203  28.465  35.740  1.00  0.00     0.058 A 
ATOM     64  C   UNL A   1      45.568  28.743  35.556  1.00  0.00     0.135 A 
ATOM     65  C   UNL A   1      43.863  27.436  36.634  1.00  0.00     0.135 A 
ATOM     66  F   UNL A   1      45.954  29.707  34.705  1.00  0.00    -0.206 F 
ATOM     67  C   UNL A   1      46.557  28.000  36.194  1.00  0.00     0.059 A 
ATOM     68  C   UNL A   1      44.834  26.702  37.309  1.00  0.00     0.059 A 
ATOM     69  F   UNL A   1      42.576  27.128  36.853  1.00  0.00    -0.206 F 
ATOM     70  C   UNL A   1      46.179  26.977  37.067  1.00  0.00     0.060 A 
BRANCH  70  71
ATOM     71  S   UNL A   1      47.472  26.010  37.872  1.00  0.00     0.124 S 
ATOM     72  O   UNL A   1      47.727  24.976  36.873  1.00  0.00    -0.237 OA
ATOM     73  O   UNL A   1      48.535  26.995  38.048  1.00  0.00    -0.237 OA
ATOM     74  O   UNL A   1      46.838  25.550  39.103  1.00  0.00    -0.744 OA
ENDBRANCH  70  71
ENDBRANCH  49  63
BRANCH  50  75
ATOM     75  C   UNL A   1      36.750  32.954  30.797  1.00  0.00     0.058 A 
ATOM     76  C   UNL A   1      35.429  32.744  31.215  1.00  0.00     0.135 A 
ATOM     77  C   UNL A   1      36.963  33.821  29.714  1.00  0.00     0.135 A 
ATOM     78  F   UNL A   1      35.173  31.918  32.241  1.00  0.00    -0.206 F 
ATOM     79  C   UNL A   1      34.357  33.370  30.586  1.00  0.00     0.059 A 
ATOM     80  C   UNL A   1      35.911  34.479  29.085  1.00  0.00     0.059 A 
ATOM     81  F   UNL A   1      38.211  34.070  29.286  1.00  0.00    -0.206 F 
ATOM     82  C   UNL A   1      34.610  34.244  29.527  1.00  0.00     0.060 A 
BRANCH  82  83
ATOM     83  S   UNL A   1      33.220  35.117  28.774  1.00  0.00     0.124 S 
ATOM     84  O   UNL A   1      32.659  34.087  27.907  1.00  0.00    -0.237 OA
ATOM     85  O   UNL A   1      32.418  35.479  29.939  1.00  0.00    -0.237 OA
ATOM     86  O   UNL A   1      33.858  36.239  28.091  1.00  0.00    -0.744 OA
ENDBRANCH  82  83
ENDBRANCH  50  75
BRANCH  62  87
ATOM     87  C   UNL A   1      39.853  34.107  36.951  1.00  0.00     0.058 A 
ATOM     88  C   UNL A   1      39.089  33.820  38.093  1.00  0.00     0.135 A 
ATOM     89  C   UNL A   1      40.447  35.375  36.862  1.00  0.00     0.135 A 
ATOM     90  F   UNL A   1      38.493  32.624  38.226  1.00  0.00    -0.206 F 
ATOM     91  C   UNL A   1      38.898  34.766  39.095  1.00  0.00     0.059 A 
ATOM     92  C   UNL A   1      40.295  36.326  37.866  1.00  0.00     0.059 A 
ATOM     93  F   UNL A   1      41.197  35.698  35.797  1.00  0.00    -0.206 F 
ATOM     94  C   UNL A   1      39.506  36.016  38.973  1.00  0.00     0.060 A 
BRANCH  94  95
ATOM     95  S   UNL A   1      39.269  37.225  40.291  1.00  0.00     0.124 S 
ATOM     96  O   UNL A   1      38.488  38.253  39.612  1.00  0.00    -0.237 OA
ATOM     97  O   UNL A   1      38.554  36.450  41.302  1.00  0.00    -0.237 OA
ATOM     98  O   UNL A   1      40.631  37.607  40.652  1.00  0.00    -0.744 OA
ENDBRANCH  94  95
ENDBRANCH  62  87
ENDBRANCH  36  37
ENDBRANCH  28  31
ENDBRANCH  26  27
ENDBRANCH   1  26
TORSDOF 16
ENDMDL
MODEL 2
REMARK VINA RESULT:     -12.1      1.521      2.375
REMARK SMILES C[C@@H]1[NH2+]CC[C@H]1C(=O)NCc1cccc(C(=O)NCCCNC(=O)c2ccc(-c3c4nc(c(-c5c(F)cc(S(=O)(=O)[O-])cc5F)c5ccc([nH]5)c(-c5c(F)cc(S(=O)(=O)[O-])cc5F)c5nc(c(-c6c(F)cc(S(=O)(=O)[O-])cc6F)c6ccc3[nH]6)C=C5)C=C4)cc2)c1
REMARK SMILES IDX 20 1 19 2 18 3 16 4 17 5 15 7 11 8 12 9 91 10 13 11 14 12
REMARK SMILES IDX 10 13 9 14 7 15 8 16 6 18 1 19 2 20 3 21 4 22 5 25 21 26
REMARK SMILES IDX 22 27 23 28 24 30 25 31 26 32 90 33 27 34 89 35 28 36 29 37
REMARK SMILES IDX 30 38 83 39 31 40 88 41 82 42 84 43 32 44 87 45 81 46 80 47
REMARK SMILES IDX 33 49 67 50 46 51 66 52 47 53 50 54 65 55 85 56 48 57 49 58
REMARK SMILES IDX 64 60 86 61 51 62 34 63 35 64 44 65 36 66 37 67 43 68 45 69
REMARK SMILES IDX 38 70 39 71 40 72 41 73 42 74 68 75 69 76 78 77 70 78 71 79
REMARK SMILES IDX 77 80 79 81 72 82 73 83 74 84 75 85 76 86 52 87 53 88 62 89
REMARK SMILES IDX 54 90 55 91 61 92 63 93 56 94 57 95 58 96 59 97 60 98
REMARK H PARENT 18 6 9 17 3 23 3 24 22 29 84 48 50 59
REMARK Flexibility Score: inf
ROOT
ATOM      1  C   UNL A   1      38.552  23.550  26.489  1.00  0.00     0.042 C 
ENDROOT
BRANCH   1   2
ATOM      2  C   UNL A   1      37.881  22.337  25.870  1.00  0.00     0.118 C 
BRANCH   2   3
ATOM      3  N   UNL A   1      37.562  22.468  24.452  1.00  0.00    -0.352 N 
ATOM      4  C   UNL A   1      36.503  22.998  23.747  1.00  0.00     0.251 C 
ATOM      5  O   UNL A   1      36.580  22.997  22.516  1.00  0.00    -0.269 OA
ATOM      6  H   UNL A   1      38.260  22.094  23.867  1.00  0.00     0.163 HD
BRANCH   4   7
ATOM      7  C   UNL A   1      35.242  23.479  24.380  1.00  0.00     0.040 A 
ATOM      8  C   UNL A   1      32.852  23.885  24.244  1.00  0.00    -0.028 A 
ATOM      9  C   UNL A   1      32.950  24.808  25.290  1.00  0.00     0.005 A 
ATOM     10  C   UNL A   1      33.978  23.114  23.937  1.00  0.00     0.019 A 
ATOM     11  C   UNL A   1      34.176  25.025  25.920  1.00  0.00     0.001 A 
ATOM     12  C   UNL A   1      35.328  24.407  25.426  1.00  0.00     0.014 A 
BRANCH   8  13
ATOM     13  C   UNL A   1      31.619  23.856  23.371  1.00  0.00     0.151 C 
BRANCH  13  14
ATOM     14  N   UNL A   1      31.810  24.475  22.072  1.00  0.00    -0.352 N 
ATOM     15  C   UNL A   1      31.766  25.774  21.678  1.00  0.00     0.229 C 
ATOM     16  O   UNL A   1      31.798  26.001  20.467  1.00  0.00    -0.275 OA
ATOM     17  H   UNL A   1      32.007  23.839  21.346  1.00  0.00     0.163 HD
BRANCH  15  18
ATOM     18  C   UNL A   1      31.683  26.914  22.676  1.00  0.00     0.142 C 
ATOM     19  C   UNL A   1      33.734  28.070  23.609  1.00  0.00     0.076 C 
ATOM     20  C   UNL A   1      32.742  27.991  22.452  1.00  0.00     0.192 C 
ATOM     21  N   UNL A   1      32.045  29.282  22.329  1.00  0.00    -0.343 N 
ATOM     22  C   UNL A   1      30.661  29.092  22.764  1.00  0.00     0.261 C 
ATOM     23  H   UNL A   1      32.063  29.593  21.357  1.00  0.00     0.346 HD
ATOM     24  H   UNL A   1      32.504  29.988  22.904  1.00  0.00     0.346 HD
ATOM     25  C   UNL A   1      30.336  27.615  22.665  1.00  0.00     0.081 C 
ENDBRANCH  15  18
ENDBRANCH  13  14
ENDBRANCH   8  13
ENDBRANCH   4   7
ENDBRANCH   2   3
ENDBRANCH   1   2
BRANCH   1  26
ATOM     26  C   UNL A   1      39.962  23.298  26.990  1.00  0.00     0.118 C 
BRANCH  26  27
ATOM     27  N   UNL A   1      40.981  23.881  26.125  1.00  0.00    -0.352 N 
ATOM     28  C   UNL A   1      41.633  25.090  26.173  1.00  0.00     0.251 C 
ATOM     29  H   UNL A   1      41.250  23.306  25.372  1.00  0.00     0.163 HD
ATOM     30  O   UNL A   1      42.313  25.438  25.212  1.00  0.00    -0.269 OA
BRANCH  28  31
ATOM     31  C   UNL A   1      41.516  25.976  27.353  1.00  0.00     0.039 A 
ATOM     32  C   UNL A   1      42.389  27.062  27.475  1.00  0.00     0.014 A 
ATOM     33  C   UNL A   1      40.583  25.725  28.358  1.00  0.00     0.014 A 
ATOM     34  C   UNL A   1      42.271  27.930  28.564  1.00  0.00     0.010 A 
ATOM     35  C   UNL A   1      40.391  26.650  29.378  1.00  0.00     0.010 A 
ATOM     36  C   UNL A   1      41.242  27.755  29.503  1.00  0.00    -0.014 A 
BRANCH  36  37
ATOM     37  C   UNL A   1      41.039  28.713  30.621  1.00  0.00     0.031 A 
ATOM     38  C   UNL A   1      41.867  28.605  31.875  1.00  0.00     0.074 A 
ATOM     39  C   UNL A   1      40.055  29.630  30.537  1.00  0.00     0.049 A 
ATOM     40  N   UNL A   1      41.794  29.306  32.976  1.00  0.00    -0.248 NA
ATOM     41  C   UNL A   1      42.888  27.545  31.909  1.00  0.00     0.031 C 
ATOM     42  C   UNL A   1      39.140  29.787  29.404  1.00  0.00     0.029 A 
ATOM     43  N   UNL A   1      39.650  30.595  31.425  1.00  0.00    -0.354 N 
ATOM     44  C   UNL A   1      42.738  28.760  33.839  1.00  0.00     0.074 A 
ATOM     45  C   UNL A   1      43.328  27.631  33.156  1.00  0.00     0.031 C 
ATOM     46  C   UNL A   1      38.302  30.804  29.652  1.00  0.00     0.029 A 
ATOM     47  C   UNL A   1      38.589  31.346  30.977  1.00  0.00     0.049 A 
ATOM     48  H   UNL A   1      40.081  30.737  32.299  1.00  0.00     0.167 HD
ATOM     49  C   UNL A   1      43.099  29.177  35.076  1.00  0.00     0.037 A 
ATOM     50  C   UNL A   1      37.917  32.353  31.568  1.00  0.00     0.037 A 
ATOM     51  C   UNL A   1      42.521  30.320  35.736  1.00  0.00     0.049 A 
ATOM     52  C   UNL A   1      38.346  32.816  32.932  1.00  0.00     0.074 A 
ATOM     53  C   UNL A   1      42.869  30.876  36.953  1.00  0.00     0.029 A 
ATOM     54  N   UNL A   1      41.468  31.075  35.237  1.00  0.00    -0.354 N 
ATOM     55  N   UNL A   1      39.302  32.343  33.698  1.00  0.00    -0.248 NA
ATOM     56  C   UNL A   1      37.617  33.952  33.507  1.00  0.00     0.031 C 
ATOM     57  C   UNL A   1      41.991  31.934  37.216  1.00  0.00     0.029 A 
ATOM     58  C   UNL A   1      41.133  32.074  36.137  1.00  0.00     0.049 A 
ATOM     59  H   UNL A   1      41.025  30.922  34.371  1.00  0.00     0.167 HD
ATOM     60  C   UNL A   1      39.299  33.136  34.840  1.00  0.00     0.074 A 
ATOM     61  C   UNL A   1      38.260  34.129  34.654  1.00  0.00     0.031 C 
ATOM     62  C   UNL A   1      40.088  33.049  35.942  1.00  0.00     0.037 A 
BRANCH  49  63
ATOM     63  C   UNL A   1      44.160  28.386  35.796  1.00  0.00     0.058 A 
ATOM     64  C   UNL A   1      43.838  27.352  36.690  1.00  0.00     0.135 A 
ATOM     65  C   UNL A   1      45.521  28.662  35.582  1.00  0.00     0.135 A 
ATOM     66  F   UNL A   1      42.554  27.052  36.944  1.00  0.00    -0.206 F 
ATOM     67  C   UNL A   1      44.823  26.652  37.382  1.00  0.00     0.059 A 
ATOM     68  C   UNL A   1      46.524  27.952  36.236  1.00  0.00     0.059 A 
ATOM     69  F   UNL A   1      45.889  29.636  34.736  1.00  0.00    -0.206 F 
ATOM     70  C   UNL A   1      46.164  26.963  37.150  1.00  0.00     0.060 A 
BRANCH  70  71
ATOM     71  S   UNL A   1      47.429  26.060  38.069  1.00  0.00     0.124 S 
ATOM     72  O   UNL A   1      48.140  27.149  38.731  1.00  0.00    -0.237 OA
ATOM     73  O   UNL A   1      46.630  25.204  38.940  1.00  0.00    -0.237 OA
ATOM     74  O   UNL A   1      48.176  25.364  37.026  1.00  0.00    -0.744 OA
ENDBRANCH  70  71
ENDBRANCH  49  63
BRANCH  50  75
ATOM     75  C   UNL A   1      36.787  32.999  30.848  1.00  0.00     0.058 A 
ATOM     76  C   UNL A   1      35.457  32.748  31.215  1.00  0.00     0.135 A 
ATOM     77  C   UNL A   1      37.016  33.923  29.817  1.00  0.00     0.135 A 
ATOM     78  F   UNL A   1      35.185  31.867  32.190  1.00  0.00    -0.206 F 
ATOM     79  C   UNL A   1      34.394  33.390  30.587  1.00  0.00     0.059 A 
ATOM     80  C   UNL A   1      35.973  34.597  29.191  1.00  0.00     0.059 A 
ATOM     81  F   UNL A   1      38.272  34.213  29.440  1.00  0.00    -0.206 F 
ATOM     82  C   UNL A   1      34.663  34.320  29.582  1.00  0.00     0.060 A 
BRANCH  82  83
ATOM     83  S   UNL A   1      33.281  35.209  28.832  1.00  0.00     0.124 S 
ATOM     84  O   UNL A   1      32.527  35.629  30.008  1.00  0.00    -0.237 OA
ATOM     85  O   UNL A   1      33.962  36.270  28.097  1.00  0.00    -0.237 OA
ATOM     86  O   UNL A   1      32.641  34.195  28.000  1.00  0.00    -0.744 OA
ENDBRANCH  82  83
ENDBRANCH  50  75
BRANCH  62  87
ATOM     87  C   UNL A   1      39.868  34.068  37.027  1.00  0.00     0.058 A 
ATOM     88  C   UNL A   1      40.499  35.322  37.000  1.00  0.00     0.135 A 
ATOM     89  C   UNL A   1      38.981  33.803  38.082  1.00  0.00     0.135 A 
ATOM     90  F   UNL A   1      41.361  35.625  36.017  1.00  0.00    -0.206 F 
ATOM     91  C   UNL A   1      40.279  36.266  37.998  1.00  0.00     0.059 A 
ATOM     92  C   UNL A   1      38.722  34.744  39.074  1.00  0.00     0.059 A 
ATOM     93  F   UNL A   1      38.343  32.624  38.151  1.00  0.00    -0.206 F 
ATOM     94  C   UNL A   1      39.389  35.968  39.030  1.00  0.00     0.060 A 
BRANCH  94  95
ATOM     95  S   UNL A   1      39.095  37.212  40.305  1.00  0.00     0.124 S 
ATOM     96  O   UNL A   1      38.170  38.114  39.629  1.00  0.00    -0.237 OA
ATOM     97  O   UNL A   1      38.526  36.418  41.391  1.00  0.00    -0.237 OA
ATOM     98  O   UNL A   1      40.425  37.755  40.564  1.00  0.00    -0.744 OA
ENDBRANCH  94  95
ENDBRANCH  62  87
ENDBRANCH  36  37
ENDBRANCH  28  31
ENDBRANCH  26  27
ENDBRANCH   1  26
TORSDOF 16
ENDMDL
MODEL 3
REMARK VINA RESULT:     -12.0      6.601     12.190
REMARK SMILES C[C@@H]1[NH2+]CC[C@H]1C(=O)NCc1cccc(C(=O)NCCCNC(=O)c2ccc(-c3c4nc(c(-c5c(F)cc(S(=O)(=O)[O-])cc5F)c5ccc([nH]5)c(-c5c(F)cc(S(=O)(=O)[O-])cc5F)c5nc(c(-c6c(F)cc(S(=O)(=O)[O-])cc6F)c6ccc3[nH]6)C=C5)C=C4)cc2)c1
REMARK SMILES IDX 20 1 19 2 18 3 16 4 17 5 15 7 11 8 12 9 91 10 13 11 14 12
REMARK SMILES IDX 10 13 9 14 7 15 8 16 6 18 1 19 2 20 3 21 4 22 5 25 21 26
REMARK SMILES IDX 22 27 23 28 24 30 25 31 26 32 90 33 27 34 89 35 28 36 29 37
REMARK SMILES IDX 30 38 83 39 31 40 88 41 82 42 84 43 32 44 87 45 81 46 80 47
REMARK SMILES IDX 33 49 67 50 46 51 66 52 47 53 50 54 65 55 85 56 48 57 49 58
REMARK SMILES IDX 64 60 86 61 51 62 34 63 35 64 44 65 36 66 37 67 43 68 45 69
REMARK SMILES IDX 38 70 39 71 40 72 41 73 42 74 68 75 69 76 78 77 70 78 71 79
REMARK SMILES IDX 77 80 79 81 72 82 73 83 74 84 75 85 76 86 52 87 53 88 62 89
REMARK SMILES IDX 54 90 55 91 61 92 63 93 56 94 57 95 58 96 59 97 60 98
REMARK H PARENT 18 6 9 17 3 23 3 24 22 29 84 48 50 59
REMARK Flexibility Score: inf
ROOT
ATOM      1  C   UNL A   1      33.984  31.097  27.564  1.00  0.00     0.042 C 
ENDROOT
BRANCH   1   2
ATOM      2  C   UNL A   1      33.139  30.094  26.798  1.00  0.00     0.118 C 
BRANCH   2   3
ATOM      3  N   UNL A   1      33.741  29.599  25.565  1.00  0.00    -0.352 N 
ATOM      4  C   UNL A   1      33.274  28.886  24.481  1.00  0.00     0.251 C 
ATOM      5  O   UNL A   1      34.060  28.677  23.555  1.00  0.00    -0.269 OA
ATOM      6  H   UNL A   1      34.697  29.824  25.489  1.00  0.00     0.163 HD
BRANCH   4   7
ATOM      7  C   UNL A   1      31.914  28.279  24.412  1.00  0.00     0.040 A 
ATOM      8  C   UNL A   1      30.495  26.310  24.454  1.00  0.00    -0.028 A 
ATOM      9  C   UNL A   1      29.488  27.022  23.797  1.00  0.00     0.005 A 
ATOM     10  C   UNL A   1      31.618  27.014  24.902  1.00  0.00     0.019 A 
ATOM     11  C   UNL A   1      29.666  28.373  23.499  1.00  0.00     0.001 A 
ATOM     12  C   UNL A   1      30.898  28.982  23.753  1.00  0.00     0.014 A 
BRANCH   8  13
ATOM     13  C   UNL A   1      30.439  24.800  24.518  1.00  0.00     0.151 C 
BRANCH  13  14
ATOM     14  N   UNL A   1      30.245  24.281  25.860  1.00  0.00    -0.352 N 
ATOM     15  C   UNL A   1      30.895  23.309  26.552  1.00  0.00     0.229 C 
ATOM     16  O   UNL A   1      30.406  22.953  27.625  1.00  0.00    -0.275 OA
ATOM     17  H   UNL A   1      29.513  24.710  26.358  1.00  0.00     0.163 HD
BRANCH  15  18
ATOM     18  C   UNL A   1      32.177  22.678  26.040  1.00  0.00     0.142 C 
ATOM     19  C   UNL A   1      34.401  22.942  27.221  1.00  0.00     0.076 C 
ATOM     20  C   UNL A   1      33.086  22.169  27.156  1.00  0.00     0.192 C 
ATOM     21  N   UNL A   1      33.377  20.751  26.882  1.00  0.00    -0.343 N 
ATOM     22  C   UNL A   1      32.945  20.457  25.515  1.00  0.00     0.261 C 
ATOM     23  H   UNL A   1      32.868  20.161  27.540  1.00  0.00     0.346 HD
ATOM     24  H   UNL A   1      34.374  20.568  26.986  1.00  0.00     0.346 HD
ATOM     25  C   UNL A   1      31.928  21.505  25.108  1.00  0.00     0.081 C 
ENDBRANCH  15  18
ENDBRANCH  13  14
ENDBRANCH   8  13
ENDBRANCH   4   7
ENDBRANCH   2   3
ENDBRANCH   1   2
BRANCH   1  26
ATOM     26  C   UNL A   1      35.238  30.513  28.187  1.00  0.00     0.118 C 
BRANCH  26  27
ATOM     27  N   UNL A   1      35.370  30.837  29.603  1.00  0.00    -0.352 N 
ATOM     28  C   UNL A   1      36.375  30.582  30.504  1.00  0.00     0.251 C 
ATOM     29  H   UNL A   1      34.602  31.325  29.979  1.00  0.00     0.163 HD
ATOM     30  O   UNL A   1      36.168  30.783  31.698  1.00  0.00    -0.269 OA
BRANCH  28  31
ATOM     31  C   UNL A   1      37.688  30.062  30.061  1.00  0.00     0.039 A 
ATOM     32  C   UNL A   1      38.021  30.129  28.704  1.00  0.00     0.014 A 
ATOM     33  C   UNL A   1      38.577  29.476  30.962  1.00  0.00     0.014 A 
ATOM     34  C   UNL A   1      39.270  29.675  28.272  1.00  0.00     0.010 A 
ATOM     35  C   UNL A   1      39.860  29.132  30.551  1.00  0.00     0.010 A 
ATOM     36  C   UNL A   1      40.217  29.212  29.200  1.00  0.00    -0.014 A 
BRANCH  36  37
ATOM     37  C   UNL A   1      41.584  28.807  28.779  1.00  0.00     0.031 A 
ATOM     38  C   UNL A   1      42.688  29.828  28.693  1.00  0.00     0.074 A 
ATOM     39  C   UNL A   1      41.809  27.534  28.398  1.00  0.00     0.049 A 
ATOM     40  N   UNL A   1      43.923  29.678  28.290  1.00  0.00    -0.248 NA
ATOM     41  C   UNL A   1      42.349  31.208  29.079  1.00  0.00     0.031 C 
ATOM     42  C   UNL A   1      40.803  26.469  28.370  1.00  0.00     0.029 A 
ATOM     43  N   UNL A   1      42.952  26.920  27.951  1.00  0.00    -0.354 N 
ATOM     44  C   UNL A   1      44.499  30.942  28.350  1.00  0.00     0.074 A 
ATOM     45  C   UNL A   1      43.462  31.857  28.770  1.00  0.00     0.031 C 
ATOM     46  C   UNL A   1      41.378  25.330  27.956  1.00  0.00     0.029 A 
ATOM     47  C   UNL A   1      42.781  25.589  27.650  1.00  0.00     0.049 A 
ATOM     48  H   UNL A   1      43.813  27.388  27.856  1.00  0.00     0.167 HD
ATOM     49  C   UNL A   1      45.781  31.303  28.102  1.00  0.00     0.037 A 
ATOM     50  C   UNL A   1      43.654  24.680  27.173  1.00  0.00     0.037 A 
ATOM     51  C   UNL A   1      46.812  30.376  27.710  1.00  0.00     0.049 A 
ATOM     52  C   UNL A   1      45.078  25.094  26.926  1.00  0.00     0.074 A 
ATOM     53  C   UNL A   1      48.158  30.622  27.513  1.00  0.00     0.029 A 
ATOM     54  N   UNL A   1      46.607  29.029  27.444  1.00  0.00    -0.354 N 
ATOM     55  N   UNL A   1      45.628  26.277  27.073  1.00  0.00    -0.248 NA
ATOM     56  C   UNL A   1      46.001  24.053  26.461  1.00  0.00     0.031 C 
ATOM     57  C   UNL A   1      48.759  29.436  27.075  1.00  0.00     0.029 A 
ATOM     58  C   UNL A   1      47.798  28.436  27.055  1.00  0.00     0.049 A 
ATOM     59  H   UNL A   1      45.744  28.564  27.520  1.00  0.00     0.167 HD
ATOM     60  C   UNL A   1      46.966  26.118  26.734  1.00  0.00     0.074 A 
ATOM     61  C   UNL A   1      47.145  24.720  26.394  1.00  0.00     0.031 C 
ATOM     62  C   UNL A   1      47.957  27.045  26.708  1.00  0.00     0.037 A 
BRANCH  49  63
ATOM     63  C   UNL A   1      46.134  32.761  28.243  1.00  0.00     0.058 A 
ATOM     64  C   UNL A   1      46.027  33.658  27.167  1.00  0.00     0.135 A 
ATOM     65  C   UNL A   1      46.579  33.270  29.474  1.00  0.00     0.135 A 
ATOM     66  F   UNL A   1      45.619  33.226  25.963  1.00  0.00    -0.206 F 
ATOM     67  C   UNL A   1      46.392  34.995  27.293  1.00  0.00     0.059 A 
ATOM     68  C   UNL A   1      46.917  34.611  29.632  1.00  0.00     0.059 A 
ATOM     69  F   UNL A   1      46.698  32.462  30.538  1.00  0.00    -0.206 F 
ATOM     70  C   UNL A   1      46.840  35.462  28.530  1.00  0.00     0.060 A 
BRANCH  70  71
ATOM     71  S   UNL A   1      47.329  37.193  28.673  1.00  0.00     0.124 S 
ATOM     72  O   UNL A   1      48.252  37.328  27.550  1.00  0.00    -0.237 OA
ATOM     73  O   UNL A   1      46.054  37.890  28.531  1.00  0.00    -0.237 OA
ATOM     74  O   UNL A   1      47.936  37.269  29.997  1.00  0.00    -0.744 OA
ENDBRANCH  70  71
ENDBRANCH  49  63
BRANCH  50  75
ATOM     75  C   UNL A   1      43.198  23.285  26.930  1.00  0.00     0.058 A 
ATOM     76  C   UNL A   1      43.003  22.805  25.628  1.00  0.00     0.135 A 
ATOM     77  C   UNL A   1      43.001  22.390  27.993  1.00  0.00     0.135 A 
ATOM     78  F   UNL A   1      43.171  23.624  24.578  1.00  0.00    -0.206 F 
ATOM     79  C   UNL A   1      42.630  21.486  25.385  1.00  0.00     0.059 A 
ATOM     80  C   UNL A   1      42.653  21.061  27.776  1.00  0.00     0.059 A 
ATOM     81  F   UNL A   1      43.191  22.796  29.259  1.00  0.00    -0.206 F 
ATOM     82  C   UNL A   1      42.467  20.619  26.466  1.00  0.00     0.060 A 
BRANCH  82  83
ATOM     83  S   UNL A   1      42.067  18.889  26.136  1.00  0.00     0.124 S 
ATOM     84  O   UNL A   1      43.004  18.567  25.066  1.00  0.00    -0.237 OA
ATOM     85  O   UNL A   1      42.332  18.261  27.427  1.00  0.00    -0.237 OA
ATOM     86  O   UNL A   1      40.660  18.937  25.751  1.00  0.00    -0.744 OA
ENDBRANCH  82  83
ENDBRANCH  50  75
BRANCH  62  87
ATOM     87  C   UNL A   1      49.332  26.574  26.314  1.00  0.00     0.058 A 
ATOM     88  C   UNL A   1      49.827  26.751  25.012  1.00  0.00     0.135 A 
ATOM     89  C   UNL A   1      50.179  25.981  27.263  1.00  0.00     0.135 A 
ATOM     90  F   UNL A   1      49.056  27.308  24.065  1.00  0.00    -0.206 F 
ATOM     91  C   UNL A   1      51.104  26.328  24.658  1.00  0.00     0.059 A 
ATOM     92  C   UNL A   1      51.471  25.578  26.939  1.00  0.00     0.059 A 
ATOM     93  F   UNL A   1      49.760  25.798  28.524  1.00  0.00    -0.206 F 
ATOM     94  C   UNL A   1      51.919  25.744  25.629  1.00  0.00     0.060 A 
BRANCH  94  95
ATOM     95  S   UNL A   1      53.582  25.222  25.161  1.00  0.00     0.124 S 
ATOM     96  O   UNL A   1      53.644  25.648  23.768  1.00  0.00    -0.237 OA
ATOM     97  O   UNL A   1      54.419  25.975  26.092  1.00  0.00    -0.237 OA
ATOM     98  O   UNL A   1      53.560  23.779  25.376  1.00  0.00    -0.744 OA
ENDBRANCH  94  95
ENDBRANCH  62  87
ENDBRANCH  36  37
ENDBRANCH  28  31
ENDBRANCH  26  27
ENDBRANCH   1  26
TORSDOF 16
ENDMDL
