MODEL 1
REMARK VINA RESULT:     -13.1      0.000      0.000
REMARK SMILES Cc1ccc2c(=O)c3cccc(CC(=O)NCCCNC(=O)c4ccc(-c5c6nc(c(-c7c(F)cc(S(=O)(=O)[O-])cc7F)c7ccc([nH]7)c(-c7c(F)cc(S(=O)(=O)[O-])cc7F)c7nc(c(-c8c(F)cc(S(=O)(=O)[O-])cc8F)c8ccc5[nH]8)C=C7)C=C6)cc4)c3oc2c1C
REMARK SMILES IDX 19 1 18 2 17 3 16 4 14 5 15 6 13 8 12 9 1 10 2 11 3 12 92 13
REMARK SMILES IDX 4 14 91 15 93 16 5 17 90 18 6 19 89 20 7 21 8 22 9 23 11 24
REMARK SMILES IDX 10 25 20 26 21 27 22 29 23 30 24 31 88 32 25 33 87 34 26 35
REMARK SMILES IDX 27 36 28 37 81 38 29 39 86 40 80 41 82 42 30 43 85 44 79 45
REMARK SMILES IDX 78 46 31 48 65 49 44 50 64 51 45 52 48 53 63 54 83 55 46 56
REMARK SMILES IDX 47 57 62 59 84 60 49 61 32 62 33 63 42 64 34 65 35 66 41 67
REMARK SMILES IDX 43 68 36 69 37 70 38 71 39 72 40 73 66 74 67 75 76 76 68 77
REMARK SMILES IDX 69 78 75 79 77 80 70 81 71 82 72 83 73 84 74 85 50 86 51 87
REMARK SMILES IDX 60 88 52 89 53 90 59 91 61 92 54 93 55 94 56 95 57 96 58 97
REMARK H PARENT 16 7 20 28 82 47 48 58
REMARK Flexibility Score: inf
ROOT
ATOM      1  C   UNL A   1      35.793  32.078  29.058  1.00  0.00     0.118 C 
ENDROOT
BRANCH   1   2
ATOM      2  C   UNL A   1      34.680  31.802  28.054  1.00  0.00     0.042 C 
BRANCH   2   3
ATOM      3  C   UNL A   1      34.575  30.340  27.637  1.00  0.00     0.117 C 
BRANCH   3   4
ATOM      4  N   UNL A   1      33.205  29.861  27.647  1.00  0.00    -0.356 N 
ATOM      5  C   UNL A   1      32.690  28.692  27.166  1.00  0.00     0.224 C 
ATOM      6  O   UNL A   1      31.485  28.482  27.328  1.00  0.00    -0.275 OA
ATOM      7  H   UNL A   1      32.551  30.469  28.062  1.00  0.00     0.163 HD
BRANCH   5   8
ATOM      8  C   UNL A   1      33.596  27.648  26.537  1.00  0.00     0.139 C 
BRANCH   8   9
ATOM      9  C   UNL A   1      33.613  27.633  25.025  1.00  0.00     0.005 A 
ATOM     10  C   UNL A   1      32.512  20.382  25.137  1.00  0.00     0.045 C 
ATOM     11  C   UNL A   1      32.723  21.686  24.414  1.00  0.00    -0.044 A 
ATOM     12  C   UNL A   1      32.702  21.653  23.007  1.00  0.00     0.005 A 
ATOM     13  C   UNL A   1      32.873  22.928  25.076  1.00  0.00    -0.005 A 
ATOM     14  C   UNL A   1      32.862  22.815  22.260  1.00  0.00     0.016 A 
ATOM     15  C   UNL A   1      33.048  24.102  24.307  1.00  0.00     0.141 A 
ATOM     16  C   UNL A   1      32.847  23.055  26.578  1.00  0.00     0.049 C 
ATOM     17  C   UNL A   1      33.041  24.032  22.915  1.00  0.00     0.066 A 
ATOM     18  O   UNL A   1      33.220  25.286  24.992  1.00  0.00    -0.455 OA
ATOM     19  C   UNL A   1      33.228  25.260  22.138  1.00  0.00     0.200 A 
ATOM     20  C   UNL A   1      33.411  26.451  24.288  1.00  0.00     0.142 A 
ATOM     21  O   UNL A   1      33.243  25.249  20.913  1.00  0.00    -0.288 OA
ATOM     22  C   UNL A   1      33.418  26.503  22.893  1.00  0.00     0.066 A 
ATOM     23  C   UNL A   1      33.617  27.709  22.215  1.00  0.00     0.016 A 
ATOM     24  C   UNL A   1      33.858  28.834  24.330  1.00  0.00     0.008 A 
ATOM     25  C   UNL A   1      33.843  28.875  22.937  1.00  0.00     0.001 A 
ENDBRANCH   8   9
ENDBRANCH   5   8
ENDBRANCH   3   4
ENDBRANCH   2   3
ENDBRANCH   1   2
BRANCH   1  26
ATOM     26  N   UNL A   1      35.683  31.275  30.272  1.00  0.00    -0.352 N 
ATOM     27  C   UNL A   1      36.577  30.394  30.834  1.00  0.00     0.251 C 
ATOM     28  H   UNL A   1      34.836  31.380  30.764  1.00  0.00     0.163 HD
ATOM     29  O   UNL A   1      36.228  29.701  31.785  1.00  0.00    -0.269 OA
BRANCH  27  30
ATOM     30  C   UNL A   1      37.940  30.258  30.274  1.00  0.00     0.039 A 
ATOM     31  C   UNL A   1      38.132  30.067  28.906  1.00  0.00     0.014 A 
ATOM     32  C   UNL A   1      39.040  30.299  31.135  1.00  0.00     0.014 A 
ATOM     33  C   UNL A   1      39.391  29.717  28.430  1.00  0.00     0.010 A 
ATOM     34  C   UNL A   1      40.322  30.046  30.636  1.00  0.00     0.010 A 
ATOM     35  C   UNL A   1      40.501  29.693  29.289  1.00  0.00    -0.014 A 
BRANCH  35  36
ATOM     36  C   UNL A   1      41.827  29.274  28.760  1.00  0.00     0.031 A 
ATOM     37  C   UNL A   1      42.985  30.241  28.736  1.00  0.00     0.074 A 
ATOM     38  C   UNL A   1      42.008  27.998  28.365  1.00  0.00     0.049 A 
ATOM     39  N   UNL A   1      44.213  30.047  28.324  1.00  0.00    -0.248 NA
ATOM     40  C   UNL A   1      42.734  31.603  29.236  1.00  0.00     0.031 C 
ATOM     41  C   UNL A   1      40.972  26.962  28.364  1.00  0.00     0.029 A 
ATOM     42  N   UNL A   1      43.129  27.344  27.919  1.00  0.00    -0.354 N 
ATOM     43  C   UNL A   1      44.874  31.257  28.506  1.00  0.00     0.074 A 
ATOM     44  C   UNL A   1      43.903  32.193  29.026  1.00  0.00     0.031 C 
ATOM     45  C   UNL A   1      41.517  25.794  27.992  1.00  0.00     0.029 A 
ATOM     46  C   UNL A   1      42.922  26.009  27.660  1.00  0.00     0.049 A 
ATOM     47  H   UNL A   1      43.998  27.788  27.795  1.00  0.00     0.167 HD
ATOM     48  C   UNL A   1      46.177  31.554  28.279  1.00  0.00     0.037 A 
ATOM     49  C   UNL A   1      43.761  25.064  27.194  1.00  0.00     0.037 A 
ATOM     50  C   UNL A   1      47.145  30.610  27.782  1.00  0.00     0.049 A 
ATOM     51  C   UNL A   1      45.184  25.437  26.887  1.00  0.00     0.074 A 
ATOM     52  C   UNL A   1      48.490  30.814  27.526  1.00  0.00     0.029 A 
ATOM     53  N   UNL A   1      46.878  29.285  27.470  1.00  0.00    -0.354 N 
ATOM     54  N   UNL A   1      45.788  26.589  27.059  1.00  0.00    -0.248 NA
ATOM     55  C   UNL A   1      46.037  24.390  26.311  1.00  0.00     0.031 C 
ATOM     56  C   UNL A   1      49.024  29.629  27.014  1.00  0.00     0.029 A 
ATOM     57  C   UNL A   1      48.027  28.668  27.003  1.00  0.00     0.049 A 
ATOM     58  H   UNL A   1      46.001  28.848  27.567  1.00  0.00     0.167 HD
ATOM     59  C   UNL A   1      47.097  26.398  26.633  1.00  0.00     0.074 A 
ATOM     60  C   UNL A   1      47.201  25.016  26.210  1.00  0.00     0.031 C 
ATOM     61  C   UNL A   1      48.118  27.289  26.590  1.00  0.00     0.037 A 
BRANCH  48  62
ATOM     62  C   UNL A   1      46.644  32.957  28.567  1.00  0.00     0.058 A 
ATOM     63  C   UNL A   1      46.587  33.967  27.594  1.00  0.00     0.135 A 
ATOM     64  C   UNL A   1      47.085  33.314  29.853  1.00  0.00     0.135 A 
ATOM     65  F   UNL A   1      46.189  33.680  26.345  1.00  0.00    -0.206 F 
ATOM     66  C   UNL A   1      46.963  35.277  27.880  1.00  0.00     0.059 A 
ATOM     67  C   UNL A   1      47.440  34.623  30.168  1.00  0.00     0.059 A 
ATOM     68  F   UNL A   1      47.161  32.388  30.822  1.00  0.00    -0.206 F 
ATOM     69  C   UNL A   1      47.384  35.595  29.172  1.00  0.00     0.060 A 
BRANCH  69  70
ATOM     70  S   UNL A   1      47.850  37.303  29.527  1.00  0.00     0.124 S 
ATOM     71  O   UNL A   1      47.763  37.911  28.202  1.00  0.00    -0.237 OA
ATOM     72  O   UNL A   1      46.823  37.714  30.480  1.00  0.00    -0.237 OA
ATOM     73  O   UNL A   1      49.198  37.184  30.073  1.00  0.00    -0.744 OA
ENDBRANCH  69  70
ENDBRANCH  48  62
BRANCH  49  74
ATOM     74  C   UNL A   1      43.270  23.674  26.988  1.00  0.00     0.058 A 
ATOM     75  C   UNL A   1      42.940  23.208  25.708  1.00  0.00     0.135 A 
ATOM     76  C   UNL A   1      43.141  22.779  28.063  1.00  0.00     0.135 A 
ATOM     77  F   UNL A   1      43.039  24.027  24.649  1.00  0.00    -0.206 F 
ATOM     78  C   UNL A   1      42.491  21.908  25.500  1.00  0.00     0.059 A 
ATOM     79  C   UNL A   1      42.725  21.466  27.877  1.00  0.00     0.059 A 
ATOM     80  F   UNL A   1      43.457  23.172  29.307  1.00  0.00    -0.206 F 
ATOM     81  C   UNL A   1      42.392  21.042  26.591  1.00  0.00     0.060 A 
BRANCH  81  82
ATOM     82  S   UNL A   1      41.854  19.344  26.299  1.00  0.00     0.124 S 
ATOM     83  O   UNL A   1      42.313  18.678  27.513  1.00  0.00    -0.237 OA
ATOM     84  O   UNL A   1      40.410  19.500  26.162  1.00  0.00    -0.237 OA
ATOM     85  O   UNL A   1      42.557  18.974  25.074  1.00  0.00    -0.744 OA
ENDBRANCH  81  82
ENDBRANCH  49  74
BRANCH  61  86
ATOM     86  C   UNL A   1      49.449  26.799  26.089  1.00  0.00     0.058 A 
ATOM     87  C   UNL A   1      49.878  27.053  24.777  1.00  0.00     0.135 A 
ATOM     88  C   UNL A   1      50.333  26.131  26.951  1.00  0.00     0.135 A 
ATOM     89  F   UNL A   1      49.069  27.682  23.910  1.00  0.00    -0.206 F 
ATOM     90  C   UNL A   1      51.133  26.648  24.333  1.00  0.00     0.059 A 
ATOM     91  C   UNL A   1      51.604  25.743  26.537  1.00  0.00     0.059 A 
ATOM     92  F   UNL A   1      49.975  25.870  28.218  1.00  0.00    -0.206 F 
ATOM     93  C   UNL A   1      51.992  25.999  25.223  1.00  0.00     0.060 A 
BRANCH  93  94
ATOM     94  S   UNL A   1      53.633  25.523  24.642  1.00  0.00     0.124 S 
ATOM     95  O   UNL A   1      53.608  25.998  23.263  1.00  0.00    -0.237 OA
ATOM     96  O   UNL A   1      54.508  26.258  25.550  1.00  0.00    -0.237 OA
ATOM     97  O   UNL A   1      53.646  24.072  24.805  1.00  0.00    -0.744 OA
ENDBRANCH  93  94
ENDBRANCH  61  86
ENDBRANCH  35  36
ENDBRANCH  27  30
ENDBRANCH   1  26
TORSDOF 14
ENDMDL
MODEL 2
REMARK VINA RESULT:     -13.1      1.415      2.320
REMARK SMILES Cc1ccc2c(=O)c3cccc(CC(=O)NCCCNC(=O)c4ccc(-c5c6nc(c(-c7c(F)cc(S(=O)(=O)[O-])cc7F)c7ccc([nH]7)c(-c7c(F)cc(S(=O)(=O)[O-])cc7F)c7nc(c(-c8c(F)cc(S(=O)(=O)[O-])cc8F)c8ccc5[nH]8)C=C7)C=C6)cc4)c3oc2c1C
REMARK SMILES IDX 19 1 18 2 17 3 16 4 14 5 15 6 13 8 12 9 1 10 2 11 3 12 92 13
REMARK SMILES IDX 4 14 91 15 93 16 5 17 90 18 6 19 89 20 7 21 8 22 9 23 11 24
REMARK SMILES IDX 10 25 20 26 21 27 22 29 23 30 24 31 88 32 25 33 87 34 26 35
REMARK SMILES IDX 27 36 28 37 81 38 29 39 86 40 80 41 82 42 30 43 85 44 79 45
REMARK SMILES IDX 78 46 31 48 65 49 44 50 64 51 45 52 48 53 63 54 83 55 46 56
REMARK SMILES IDX 47 57 62 59 84 60 49 61 32 62 33 63 42 64 34 65 35 66 41 67
REMARK SMILES IDX 43 68 36 69 37 70 38 71 39 72 40 73 66 74 67 75 76 76 68 77
REMARK SMILES IDX 69 78 75 79 77 80 70 81 71 82 72 83 73 84 74 85 50 86 51 87
REMARK SMILES IDX 60 88 52 89 53 90 59 91 61 92 54 93 55 94 56 95 57 96 58 97
REMARK H PARENT 16 7 20 28 82 47 48 58
REMARK Flexibility Score: inf
ROOT
ATOM      1  C   UNL A   1      35.134  30.184  28.031  1.00  0.00     0.118 C 
ENDROOT
BRANCH   1   2
ATOM      2  C   UNL A   1      34.061  30.967  27.283  1.00  0.00     0.042 C 
BRANCH   2   3
ATOM      3  C   UNL A   1      32.983  30.090  26.656  1.00  0.00     0.117 C 
BRANCH   3   4
ATOM      4  N   UNL A   1      33.394  29.540  25.377  1.00  0.00    -0.356 N 
ATOM      5  C   UNL A   1      33.787  28.271  25.064  1.00  0.00     0.224 C 
ATOM      6  O   UNL A   1      34.053  28.023  23.886  1.00  0.00    -0.275 OA
ATOM      7  H   UNL A   1      33.389  30.176  24.626  1.00  0.00     0.163 HD
BRANCH   5   8
ATOM      8  C   UNL A   1      33.801  27.182  26.123  1.00  0.00     0.139 C 
BRANCH   8   9
ATOM      9  C   UNL A   1      32.671  26.180  26.037  1.00  0.00     0.005 A 
ATOM     10  C   UNL A   1      37.560  20.839  24.870  1.00  0.00     0.045 C 
ATOM     11  C   UNL A   1      36.150  21.341  25.038  1.00  0.00    -0.044 A 
ATOM     12  C   UNL A   1      35.117  20.386  24.987  1.00  0.00     0.005 A 
ATOM     13  C   UNL A   1      35.831  22.694  25.304  1.00  0.00    -0.005 A 
ATOM     14  C   UNL A   1      33.788  20.758  25.158  1.00  0.00     0.016 A 
ATOM     15  C   UNL A   1      34.476  23.063  25.463  1.00  0.00     0.141 A 
ATOM     16  C   UNL A   1      36.885  23.765  25.432  1.00  0.00     0.049 C 
ATOM     17  C   UNL A   1      33.475  22.097  25.388  1.00  0.00     0.066 A 
ATOM     18  O   UNL A   1      34.208  24.397  25.691  1.00  0.00    -0.455 OA
ATOM     19  C   UNL A   1      32.077  22.503  25.554  1.00  0.00     0.200 A 
ATOM     20  C   UNL A   1      32.904  24.808  25.836  1.00  0.00     0.142 A 
ATOM     21  O   UNL A   1      31.160  21.693  25.483  1.00  0.00    -0.288 OA
ATOM     22  C   UNL A   1      31.821  23.928  25.786  1.00  0.00     0.066 A 
ATOM     23  C   UNL A   1      30.509  24.387  25.936  1.00  0.00     0.016 A 
ATOM     24  C   UNL A   1      31.342  26.637  26.142  1.00  0.00     0.008 A 
ATOM     25  C   UNL A   1      30.270  25.746  26.109  1.00  0.00     0.001 A 
ENDBRANCH   8   9
ENDBRANCH   5   8
ENDBRANCH   3   4
ENDBRANCH   2   3
ENDBRANCH   1   2
BRANCH   1  26
ATOM     26  N   UNL A   1      35.305  30.623  29.412  1.00  0.00    -0.352 N 
ATOM     27  C   UNL A   1      36.369  30.455  30.268  1.00  0.00     0.251 C 
ATOM     28  H   UNL A   1      34.540  31.115  29.790  1.00  0.00     0.163 HD
ATOM     29  O   UNL A   1      36.253  30.773  31.448  1.00  0.00    -0.269 OA
BRANCH  27  30
ATOM     30  C   UNL A   1      37.633  29.863  29.777  1.00  0.00     0.039 A 
ATOM     31  C   UNL A   1      38.470  29.154  30.637  1.00  0.00     0.014 A 
ATOM     32  C   UNL A   1      37.997  30.042  28.439  1.00  0.00     0.014 A 
ATOM     33  C   UNL A   1      39.749  28.803  30.220  1.00  0.00     0.010 A 
ATOM     34  C   UNL A   1      39.246  29.598  27.993  1.00  0.00     0.010 A 
ATOM     35  C   UNL A   1      40.158  29.028  28.895  1.00  0.00    -0.014 A 
BRANCH  35  36
ATOM     36  C   UNL A   1      41.546  28.681  28.488  1.00  0.00     0.031 A 
ATOM     37  C   UNL A   1      42.649  29.708  28.564  1.00  0.00     0.074 A 
ATOM     38  C   UNL A   1      41.829  27.416  28.116  1.00  0.00     0.049 A 
ATOM     39  N   UNL A   1      43.917  29.579  28.264  1.00  0.00    -0.248 NA
ATOM     40  C   UNL A   1      42.283  31.054  29.035  1.00  0.00     0.031 C 
ATOM     41  C   UNL A   1      40.854  26.327  28.026  1.00  0.00     0.029 A 
ATOM     42  N   UNL A   1      43.018  26.823  27.775  1.00  0.00    -0.354 N 
ATOM     43  C   UNL A   1      44.495  30.822  28.500  1.00  0.00     0.074 A 
ATOM     44  C   UNL A   1      43.433  31.706  28.928  1.00  0.00     0.031 C 
ATOM     45  C   UNL A   1      41.490  25.190  27.709  1.00  0.00     0.029 A 
ATOM     46  C   UNL A   1      42.906  25.479  27.504  1.00  0.00     0.049 A 
ATOM     47  H   UNL A   1      43.871  27.312  27.727  1.00  0.00     0.167 HD
ATOM     48  C   UNL A   1      45.795  31.188  28.390  1.00  0.00     0.037 A 
ATOM     49  C   UNL A   1      43.832  24.580  27.119  1.00  0.00     0.037 A 
ATOM     50  C   UNL A   1      46.853  30.297  27.985  1.00  0.00     0.049 A 
ATOM     51  C   UNL A   1      45.255  25.028  26.939  1.00  0.00     0.074 A 
ATOM     52  C   UNL A   1      48.203  30.572  27.850  1.00  0.00     0.029 A 
ATOM     53  N   UNL A   1      46.685  28.960  27.656  1.00  0.00    -0.354 N 
ATOM     54  N   UNL A   1      45.780  26.211  27.160  1.00  0.00    -0.248 NA
ATOM     55  C   UNL A   1      46.210  24.028  26.446  1.00  0.00     0.031 C 
ATOM     56  C   UNL A   1      48.842  29.417  27.393  1.00  0.00     0.029 A 
ATOM     57  C   UNL A   1      47.902  28.405  27.296  1.00  0.00     0.049 A 
ATOM     58  H   UNL A   1      45.827  28.477  27.676  1.00  0.00     0.167 HD
ATOM     59  C   UNL A   1      47.130  26.089  26.853  1.00  0.00     0.074 A 
ATOM     60  C   UNL A   1      47.344  24.715  26.447  1.00  0.00     0.031 C 
ATOM     61  C   UNL A   1      48.103  27.033  26.899  1.00  0.00     0.037 A 
BRANCH  48  62
ATOM     62  C   UNL A   1      46.160  32.613  28.713  1.00  0.00     0.058 A 
ATOM     63  C   UNL A   1      46.146  33.618  27.733  1.00  0.00     0.135 A 
ATOM     64  C   UNL A   1      46.456  32.994  30.033  1.00  0.00     0.135 A 
ATOM     65  F   UNL A   1      45.887  33.309  26.452  1.00  0.00    -0.206 F 
ATOM     66  C   UNL A   1      46.425  34.946  28.046  1.00  0.00     0.059 A 
ATOM     67  C   UNL A   1      46.711  34.320  30.373  1.00  0.00     0.059 A 
ATOM     68  F   UNL A   1      46.484  32.075  31.011  1.00  0.00    -0.206 F 
ATOM     69  C   UNL A   1      46.702  35.287  29.371  1.00  0.00     0.060 A 
BRANCH  69  70
ATOM     70  S   UNL A   1      47.044  37.017  29.758  1.00  0.00     0.124 S 
ATOM     71  O   UNL A   1      47.040  36.996  31.218  1.00  0.00    -0.237 OA
ATOM     72  O   UNL A   1      48.345  37.224  29.131  1.00  0.00    -0.237 OA
ATOM     73  O   UNL A   1      45.932  37.733  29.141  1.00  0.00    -0.744 OA
ENDBRANCH  69  70
ENDBRANCH  48  62
BRANCH  49  74
ATOM     74  C   UNL A   1      43.436  23.166  26.875  1.00  0.00     0.058 A 
ATOM     75  C   UNL A   1      43.365  22.651  25.573  1.00  0.00     0.135 A 
ATOM     76  C   UNL A   1      43.141  22.298  27.938  1.00  0.00     0.135 A 
ATOM     77  F   UNL A   1      43.630  23.443  24.523  1.00  0.00    -0.206 F 
ATOM     78  C   UNL A   1      43.007  21.329  25.332  1.00  0.00     0.059 A 
ATOM     79  C   UNL A   1      42.811  20.965  27.725  1.00  0.00     0.059 A 
ATOM     80  F   UNL A   1      43.206  22.738  29.205  1.00  0.00    -0.206 F 
ATOM     81  C   UNL A   1      42.737  20.491  26.416  1.00  0.00     0.060 A 
BRANCH  81  82
ATOM     82  S   UNL A   1      42.321  18.765  26.091  1.00  0.00     0.124 S 
ATOM     83  O   UNL A   1      40.920  18.869  25.698  1.00  0.00    -0.237 OA
ATOM     84  O   UNL A   1      43.259  18.421  25.028  1.00  0.00    -0.237 OA
ATOM     85  O   UNL A   1      42.569  18.111  27.372  1.00  0.00    -0.744 OA
ENDBRANCH  81  82
ENDBRANCH  49  74
BRANCH  61  86
ATOM     86  C   UNL A   1      49.497  26.614  26.521  1.00  0.00     0.058 A 
ATOM     87  C   UNL A   1      50.331  25.938  27.424  1.00  0.00     0.135 A 
ATOM     88  C   UNL A   1      49.976  26.827  25.219  1.00  0.00     0.135 A 
ATOM     89  F   UNL A   1      49.924  25.715  28.684  1.00  0.00    -0.206 F 
ATOM     90  C   UNL A   1      51.600  25.502  27.054  1.00  0.00     0.059 A 
ATOM     91  C   UNL A   1      51.230  26.374  24.818  1.00  0.00     0.059 A 
ATOM     92  F   UNL A   1      49.215  27.461  24.313  1.00  0.00    -0.206 F 
ATOM     93  C   UNL A   1      52.037  25.719  25.746  1.00  0.00     0.060 A 
BRANCH  93  94
ATOM     94  S   UNL A   1      53.666  25.105  25.271  1.00  0.00     0.124 S 
ATOM     95  O   UNL A   1      54.505  25.636  26.341  1.00  0.00    -0.237 OA
ATOM     96  O   UNL A   1      53.467  23.659  25.280  1.00  0.00    -0.237 OA
ATOM     97  O   UNL A   1      53.883  25.694  23.954  1.00  0.00    -0.744 OA
ENDBRANCH  93  94
ENDBRANCH  61  86
ENDBRANCH  35  36
ENDBRANCH  27  30
ENDBRANCH   1  26
TORSDOF 14
ENDMDL
MODEL 3
REMARK VINA RESULT:     -13.0      2.627      8.776
REMARK SMILES Cc1ccc2c(=O)c3cccc(CC(=O)NCCCNC(=O)c4ccc(-c5c6nc(c(-c7c(F)cc(S(=O)(=O)[O-])cc7F)c7ccc([nH]7)c(-c7c(F)cc(S(=O)(=O)[O-])cc7F)c7nc(c(-c8c(F)cc(S(=O)(=O)[O-])cc8F)c8ccc5[nH]8)C=C7)C=C6)cc4)c3oc2c1C
REMARK SMILES IDX 19 1 18 2 17 3 16 4 14 5 15 6 13 8 12 9 1 10 2 11 3 12 92 13
REMARK SMILES IDX 4 14 91 15 93 16 5 17 90 18 6 19 89 20 7 21 8 22 9 23 11 24
REMARK SMILES IDX 10 25 20 26 21 27 22 29 23 30 24 31 88 32 25 33 87 34 26 35
REMARK SMILES IDX 27 36 28 37 81 38 29 39 86 40 80 41 82 42 30 43 85 44 79 45
REMARK SMILES IDX 78 46 31 48 65 49 44 50 64 51 45 52 48 53 63 54 83 55 46 56
REMARK SMILES IDX 47 57 62 59 84 60 49 61 32 62 33 63 42 64 34 65 35 66 41 67
REMARK SMILES IDX 43 68 36 69 37 70 38 71 39 72 40 73 66 74 67 75 76 76 68 77
REMARK SMILES IDX 69 78 75 79 77 80 70 81 71 82 72 83 73 84 74 85 50 86 51 87
REMARK SMILES IDX 60 88 52 89 53 90 59 91 61 92 54 93 55 94 56 95 57 96 58 97
REMARK H PARENT 16 7 20 28 82 47 48 58
REMARK Flexibility Score: inf
ROOT
ATOM      1  C   UNL A   1      39.457  20.289  25.961  1.00  0.00     0.118 C 
ENDROOT
BRANCH   1   2
ATOM      2  C   UNL A   1      38.298  20.049  25.001  1.00  0.00     0.042 C 
BRANCH   2   3
ATOM      3  C   UNL A   1      37.525  21.313  24.640  1.00  0.00     0.117 C 
BRANCH   3   4
ATOM      4  N   UNL A   1      37.946  22.459  25.426  1.00  0.00    -0.356 N 
ATOM      5  C   UNL A   1      37.311  23.648  25.635  1.00  0.00     0.224 C 
ATOM      6  O   UNL A   1      37.848  24.467  26.385  1.00  0.00    -0.275 OA
ATOM      7  H   UNL A   1      38.818  22.363  25.874  1.00  0.00     0.163 HD
BRANCH   5   8
ATOM      8  C   UNL A   1      35.940  23.909  25.035  1.00  0.00     0.139 C 
BRANCH   8   9
ATOM      9  C   UNL A   1      34.766  23.523  25.908  1.00  0.00     0.005 A 
ATOM     10  C   UNL A   1      30.584  28.386  22.350  1.00  0.00     0.045 C 
ATOM     11  C   UNL A   1      30.796  27.329  23.402  1.00  0.00    -0.044 A 
ATOM     12  C   UNL A   1      29.683  26.962  24.180  1.00  0.00     0.005 A 
ATOM     13  C   UNL A   1      32.027  26.657  23.593  1.00  0.00    -0.005 A 
ATOM     14  C   UNL A   1      29.783  25.976  25.156  1.00  0.00     0.016 A 
ATOM     15  C   UNL A   1      32.122  25.665  24.596  1.00  0.00     0.141 A 
ATOM     16  C   UNL A   1      33.249  26.951  22.760  1.00  0.00     0.049 C 
ATOM     17  C   UNL A   1      31.005  25.339  25.363  1.00  0.00     0.066 A 
ATOM     18  O   UNL A   1      33.347  25.057  24.769  1.00  0.00    -0.455 OA
ATOM     19  C   UNL A   1      31.127  24.310  26.399  1.00  0.00     0.200 A 
ATOM     20  C   UNL A   1      33.493  24.098  25.744  1.00  0.00     0.142 A 
ATOM     21  O   UNL A   1      30.178  23.998  27.109  1.00  0.00    -0.288 OA
ATOM     22  C   UNL A   1      32.444  23.687  26.567  1.00  0.00     0.066 A 
ATOM     23  C   UNL A   1      32.634  22.709  27.548  1.00  0.00     0.016 A 
ATOM     24  C   UNL A   1      34.957  22.573  26.929  1.00  0.00     0.008 A 
ATOM     25  C   UNL A   1      33.896  22.156  27.732  1.00  0.00     0.001 A 
ENDBRANCH   8   9
ENDBRANCH   5   8
ENDBRANCH   3   4
ENDBRANCH   2   3
ENDBRANCH   1   2
BRANCH   1  26
ATOM     26  N   UNL A   1      40.415  19.188  25.989  1.00  0.00    -0.352 N 
ATOM     27  C   UNL A   1      41.784  19.209  26.121  1.00  0.00     0.251 C 
ATOM     28  H   UNL A   1      40.020  18.290  25.899  1.00  0.00     0.163 HD
ATOM     29  O   UNL A   1      42.424  18.173  25.968  1.00  0.00    -0.269 OA
BRANCH  27  30
ATOM     30  C   UNL A   1      42.483  20.481  26.411  1.00  0.00     0.039 A 
ATOM     31  C   UNL A   1      42.548  20.978  27.712  1.00  0.00     0.014 A 
ATOM     32  C   UNL A   1      43.063  21.198  25.360  1.00  0.00     0.014 A 
ATOM     33  C   UNL A   1      43.005  22.273  27.932  1.00  0.00     0.010 A 
ATOM     34  C   UNL A   1      43.615  22.460  25.601  1.00  0.00     0.010 A 
ATOM     35  C   UNL A   1      43.537  23.035  26.879  1.00  0.00    -0.014 A 
BRANCH  35  36
ATOM     36  C   UNL A   1      43.979  24.432  27.137  1.00  0.00     0.031 A 
ATOM     37  C   UNL A   1      45.412  24.840  26.898  1.00  0.00     0.074 A 
ATOM     38  C   UNL A   1      43.073  25.352  27.520  1.00  0.00     0.049 A 
ATOM     39  N   UNL A   1      45.972  26.013  27.056  1.00  0.00    -0.248 NA
ATOM     40  C   UNL A   1      46.338  23.798  26.423  1.00  0.00     0.031 C 
ATOM     41  C   UNL A   1      41.652  25.086  27.762  1.00  0.00     0.029 A 
ATOM     42  N   UNL A   1      43.198  26.700  27.746  1.00  0.00    -0.354 N 
ATOM     43  C   UNL A   1      47.309  25.849  26.710  1.00  0.00     0.074 A 
ATOM     44  C   UNL A   1      47.489  24.454  26.374  1.00  0.00     0.031 C 
ATOM     45  C   UNL A   1      41.029  26.239  28.045  1.00  0.00     0.029 A 
ATOM     46  C   UNL A   1      42.013  27.316  28.077  1.00  0.00     0.049 A 
ATOM     47  H   UNL A   1      44.054  27.180  27.678  1.00  0.00     0.167 HD
ATOM     48  C   UNL A   1      48.292  26.781  26.657  1.00  0.00     0.037 A 
ATOM     49  C   UNL A   1      41.747  28.600  28.387  1.00  0.00     0.037 A 
ATOM     50  C   UNL A   1      48.102  28.174  26.971  1.00  0.00     0.049 A 
ATOM     51  C   UNL A   1      42.870  29.599  28.387  1.00  0.00     0.074 A 
ATOM     52  C   UNL A   1      49.034  29.196  26.941  1.00  0.00     0.029 A 
ATOM     53  N   UNL A   1      46.900  28.744  27.367  1.00  0.00    -0.354 N 
ATOM     54  N   UNL A   1      44.129  29.422  28.063  1.00  0.00    -0.248 NA
ATOM     55  C   UNL A   1      42.541  30.968  28.804  1.00  0.00     0.031 C 
ATOM     56  C   UNL A   1      48.410  30.373  27.365  1.00  0.00     0.029 A 
ATOM     57  C   UNL A   1      47.074  30.097  27.605  1.00  0.00     0.049 A 
ATOM     58  H   UNL A   1      46.049  28.257  27.463  1.00  0.00     0.167 HD
ATOM     59  C   UNL A   1      44.738  30.662  28.219  1.00  0.00     0.074 A 
ATOM     60  C   UNL A   1      43.705  31.583  28.648  1.00  0.00     0.031 C 
ATOM     61  C   UNL A   1      46.035  31.005  28.027  1.00  0.00     0.037 A 
BRANCH  48  62
ATOM     62  C   UNL A   1      49.670  26.335  26.243  1.00  0.00     0.058 A 
ATOM     63  C   UNL A   1      50.173  26.594  24.959  1.00  0.00     0.135 A 
ATOM     64  C   UNL A   1      50.525  25.706  27.164  1.00  0.00     0.135 A 
ATOM     65  F   UNL A   1      49.396  27.176  24.032  1.00  0.00    -0.206 F 
ATOM     66  C   UNL A   1      51.470  26.234  24.597  1.00  0.00     0.059 A 
ATOM     67  C   UNL A   1      51.834  25.363  26.833  1.00  0.00     0.059 A 
ATOM     68  F   UNL A   1      50.096  25.434  28.407  1.00  0.00    -0.206 F 
ATOM     69  C   UNL A   1      52.293  25.623  25.544  1.00  0.00     0.060 A 
BRANCH  69  70
ATOM     70  S   UNL A   1      53.976  25.181  25.061  1.00  0.00     0.124 S 
ATOM     71  O   UNL A   1      54.748  25.698  26.186  1.00  0.00    -0.237 OA
ATOM     72  O   UNL A   1      53.898  23.726  24.961  1.00  0.00    -0.237 OA
ATOM     73  O   UNL A   1      54.165  25.884  23.797  1.00  0.00    -0.744 OA
ENDBRANCH  69  70
ENDBRANCH  48  62
BRANCH  49  74
ATOM     74  C   UNL A   1      40.357  29.007  28.726  1.00  0.00     0.058 A 
ATOM     75  C   UNL A   1      39.930  29.074  30.060  1.00  0.00     0.135 A 
ATOM     76  C   UNL A   1      39.435  29.355  27.726  1.00  0.00     0.135 A 
ATOM     77  F   UNL A   1      40.771  28.744  31.051  1.00  0.00    -0.206 F 
ATOM     78  C   UNL A   1      38.636  29.464  30.391  1.00  0.00     0.059 A 
ATOM     79  C   UNL A   1      38.146  29.778  28.033  1.00  0.00     0.059 A 
ATOM     80  F   UNL A   1      39.797  29.320  26.434  1.00  0.00    -0.206 F 
ATOM     81  C   UNL A   1      37.753  29.820  29.370  1.00  0.00     0.060 A 
BRANCH  81  82
ATOM     82  S   UNL A   1      36.093  30.370  29.817  1.00  0.00     0.124 S 
ATOM     83  O   UNL A   1      35.289  29.770  28.759  1.00  0.00    -0.237 OA
ATOM     84  O   UNL A   1      35.930  29.795  31.148  1.00  0.00    -0.237 OA
ATOM     85  O   UNL A   1      36.199  31.825  29.779  1.00  0.00    -0.744 OA
ENDBRANCH  81  82
ENDBRANCH  49  74
BRANCH  61  86
ATOM     86  C   UNL A   1      46.418  32.441  28.259  1.00  0.00     0.058 A 
ATOM     87  C   UNL A   1      46.945  32.871  29.486  1.00  0.00     0.135 A 
ATOM     88  C   UNL A   1      46.323  33.380  27.220  1.00  0.00     0.135 A 
ATOM     89  F   UNL A   1      47.051  32.015  30.515  1.00  0.00    -0.206 F 
ATOM     90  C   UNL A   1      47.351  34.188  29.680  1.00  0.00     0.059 A 
ATOM     91  C   UNL A   1      46.750  34.695  27.382  1.00  0.00     0.059 A 
ATOM     92  F   UNL A   1      45.833  33.018  26.024  1.00  0.00    -0.206 F 
ATOM     93  C   UNL A   1      47.256  35.091  28.619  1.00  0.00     0.060 A 
BRANCH  93  94
ATOM     94  S   UNL A   1      47.830  36.783  28.874  1.00  0.00     0.124 S 
ATOM     95  O   UNL A   1      46.628  37.551  28.571  1.00  0.00    -0.237 OA
ATOM     96  O   UNL A   1      48.233  36.764  30.277  1.00  0.00    -0.237 OA
ATOM     97  O   UNL A   1      48.922  36.922  27.916  1.00  0.00    -0.744 OA
ENDBRANCH  93  94
ENDBRANCH  61  86
ENDBRANCH  35  36
ENDBRANCH  27  30
ENDBRANCH   1  26
TORSDOF 14
ENDMDL
