MODEL 1
REMARK VINA RESULT:      -9.8      0.000      0.000
REMARK SMILES COc1ccc(-c2ncn(CC(=O)NCCCNC(=O)c3ccc(-c4c5nc(c(-c6c(F)cc(S(=O)(=O)[O-])cc6F)c6ccc([nH]6)c(-c6c(F)cc(S(=O)(=O)[O-])cc6F)c6nc(c(-c7c(F)cc(S(=O)(=O)[O-])cc7F)c7ccc4[nH]7)C=C6)C=C5)cc3)c2-c2ccc(OC)cc2)cc1
REMARK SMILES IDX 16 1 15 2 14 3 12 4 13 5 11 7 10 8 7 9 8 10 87 11 9 12 6 13
REMARK SMILES IDX 3 14 4 15 97 16 5 17 96 18 2 19 1 20 88 21 89 22 95 23 90 24
REMARK SMILES IDX 94 25 91 26 92 27 93 28 17 29 18 30 19 31 20 33 21 34 22 35
REMARK SMILES IDX 86 36 23 37 85 38 24 39 25 40 26 41 79 42 27 43 84 44 78 45
REMARK SMILES IDX 80 46 28 47 83 48 77 49 76 50 29 52 63 53 42 54 62 55 43 56
REMARK SMILES IDX 46 57 61 58 81 59 44 60 45 61 60 63 82 64 47 65 30 66 31 67
REMARK SMILES IDX 40 68 32 69 33 70 39 71 41 72 34 73 35 74 36 75 37 76 38 77
REMARK SMILES IDX 64 78 65 79 74 80 66 81 67 82 73 83 75 84 68 85 69 86 70 87
REMARK SMILES IDX 71 88 72 89 48 90 49 91 58 92 50 93 51 94 57 95 59 96 52 97
REMARK SMILES IDX 53 98 54 99 55 100 56 101
REMARK H PARENT 14 6 18 32 80 51 46 62
REMARK Flexibility Score: inf
ROOT
ATOM      1  C   UNL A   1      43.324  23.632  24.999  1.00  0.00     0.042 C 
ENDROOT
BRANCH   1   2
ATOM      2  C   UNL A   1      44.541  24.240  25.703  1.00  0.00     0.117 C 
BRANCH   2   3
ATOM      3  N   UNL A   1      44.945  23.554  26.920  1.00  0.00    -0.354 N 
ATOM      4  C   UNL A   1      45.173  24.059  28.168  1.00  0.00     0.239 C 
ATOM      5  O   UNL A   1      45.235  23.262  29.107  1.00  0.00    -0.273 OA
ATOM      6  H   UNL A   1      45.072  22.581  26.831  1.00  0.00     0.163 HD
BRANCH   4   7
ATOM      7  C   UNL A   1      45.269  25.551  28.407  1.00  0.00     0.223 C 
BRANCH   7   8
ATOM      8  N   UNL A   1      46.580  25.998  28.842  1.00  0.00    -0.321 N 
ATOM      9  C   UNL A   1      48.570  26.867  29.014  1.00  0.00     0.096 A 
ATOM     10  N   UNL A   1      48.333  26.201  30.193  1.00  0.00    -0.236 NA
ATOM     11  C   UNL A   1      47.517  26.710  28.123  1.00  0.00     0.076 A 
ATOM     12  C   UNL A   1      47.142  25.672  30.049  1.00  0.00     0.201 A 
BRANCH   9  13
ATOM     13  C   UNL A   1      49.814  27.546  28.707  1.00  0.00     0.003 A 
ATOM     14  C   UNL A   1      52.265  28.858  28.370  1.00  0.00     0.118 A 
ATOM     15  C   UNL A   1      52.181  27.478  28.187  1.00  0.00     0.047 A 
ATOM     16  C   UNL A   1      51.115  29.591  28.664  1.00  0.00     0.047 A 
ATOM     17  C   UNL A   1      50.961  26.821  28.362  1.00  0.00     0.014 A 
ATOM     18  C   UNL A   1      49.890  28.937  28.827  1.00  0.00     0.014 A 
BRANCH  14  19
ATOM     19  O   UNL A   1      53.501  29.413  28.182  1.00  0.00    -0.497 OA
ATOM     20  C   UNL A   1      54.167  29.773  29.388  1.00  0.00     0.278 C 
ENDBRANCH  14  19
ENDBRANCH   9  13
BRANCH  11  21
ATOM     21  C   UNL A   1      47.426  27.062  26.709  1.00  0.00     0.001 A 
ATOM     22  C   UNL A   1      48.038  26.297  25.717  1.00  0.00     0.014 A 
ATOM     23  C   UNL A   1      46.650  28.168  26.333  1.00  0.00     0.014 A 
ATOM     24  C   UNL A   1      47.917  26.665  24.374  1.00  0.00     0.047 A 
ATOM     25  C   UNL A   1      46.511  28.520  24.988  1.00  0.00     0.047 A 
ATOM     26  C   UNL A   1      47.153  27.772  24.003  1.00  0.00     0.118 A 
BRANCH  26  27
ATOM     27  O   UNL A   1      47.126  28.027  22.663  1.00  0.00    -0.497 OA
ATOM     28  C   UNL A   1      48.325  27.784  21.938  1.00  0.00     0.278 C 
ENDBRANCH  26  27
ENDBRANCH  11  21
ENDBRANCH   7   8
ENDBRANCH   4   7
ENDBRANCH   2   3
ENDBRANCH   1   2
BRANCH   1  29
ATOM     29  C   UNL A   1      42.757  22.426  25.722  1.00  0.00     0.118 C 
BRANCH  29  30
ATOM     30  N   UNL A   1      41.332  22.195  25.469  1.00  0.00    -0.352 N 
ATOM     31  C   UNL A   1      40.236  22.698  26.162  1.00  0.00     0.251 C 
ATOM     32  H   UNL A   1      41.124  21.607  24.709  1.00  0.00     0.163 HD
ATOM     33  O   UNL A   1      39.140  22.180  26.039  1.00  0.00    -0.269 OA
BRANCH  31  34
ATOM     34  C   UNL A   1      40.432  23.860  27.055  1.00  0.00     0.039 A 
ATOM     35  C   UNL A   1      41.443  23.909  28.017  1.00  0.00     0.014 A 
ATOM     36  C   UNL A   1      39.580  24.942  26.887  1.00  0.00     0.014 A 
ATOM     37  C   UNL A   1      41.613  25.087  28.746  1.00  0.00     0.010 A 
ATOM     38  C   UNL A   1      39.916  26.162  27.390  1.00  0.00     0.010 A 
ATOM     39  C   UNL A   1      40.847  26.215  28.409  1.00  0.00    -0.014 A 
BRANCH  39  40
ATOM     40  C   UNL A   1      40.998  27.496  29.077  1.00  0.00     0.031 A 
ATOM     41  C   UNL A   1      42.007  28.389  28.464  1.00  0.00     0.074 A 
ATOM     42  C   UNL A   1      40.136  27.935  30.021  1.00  0.00     0.049 A 
ATOM     43  N   UNL A   1      43.191  28.642  28.909  1.00  0.00    -0.248 NA
ATOM     44  C   UNL A   1      41.747  28.928  27.120  1.00  0.00     0.031 C 
ATOM     45  C   UNL A   1      38.880  27.329  30.487  1.00  0.00     0.029 A 
ATOM     46  N   UNL A   1      40.162  29.106  30.706  1.00  0.00    -0.354 N 
ATOM     47  C   UNL A   1      43.736  29.570  28.029  1.00  0.00     0.074 A 
ATOM     48  C   UNL A   1      42.907  29.533  26.851  1.00  0.00     0.031 C 
ATOM     49  C   UNL A   1      38.165  28.241  31.183  1.00  0.00     0.029 A 
ATOM     50  C   UNL A   1      38.982  29.425  31.370  1.00  0.00     0.049 A 
ATOM     51  H   UNL A   1      40.956  29.686  30.731  1.00  0.00     0.167 HD
ATOM     52  C   UNL A   1      44.675  30.463  28.446  1.00  0.00     0.037 A 
ATOM     53  C   UNL A   1      38.705  30.596  31.996  1.00  0.00     0.037 A 
ATOM     54  C   UNL A   1      45.154  30.127  29.767  1.00  0.00     0.049 A 
ATOM     55  C   UNL A   1      40.017  31.244  32.281  1.00  0.00     0.074 A 
ATOM     56  C   UNL A   1      45.773  29.023  30.322  1.00  0.00     0.029 A 
ATOM     57  N   UNL A   1      44.635  30.838  30.825  1.00  0.00    -0.354 N 
ATOM     58  N   UNL A   1      40.900  30.758  33.111  1.00  0.00    -0.248 NA
ATOM     59  C   UNL A   1      40.544  32.164  31.284  1.00  0.00     0.031 C 
ATOM     60  C   UNL A   1      45.173  28.872  31.607  1.00  0.00     0.029 A 
ATOM     61  C   UNL A   1      44.288  29.935  31.799  1.00  0.00     0.049 A 
ATOM     62  H   UNL A   1      44.532  31.815  30.874  1.00  0.00     0.167 HD
ATOM     63  C   UNL A   1      42.124  30.955  32.486  1.00  0.00     0.074 A 
ATOM     64  C   UNL A   1      41.848  31.900  31.405  1.00  0.00     0.031 C 
ATOM     65  C   UNL A   1      43.180  30.118  32.713  1.00  0.00     0.037 A 
BRANCH  52  66
ATOM     66  C   UNL A   1      44.906  31.829  27.850  1.00  0.00     0.058 A 
ATOM     67  C   UNL A   1      46.177  32.135  27.320  1.00  0.00     0.135 A 
ATOM     68  C   UNL A   1      44.034  32.926  28.018  1.00  0.00     0.135 A 
ATOM     69  F   UNL A   1      47.087  31.168  27.121  1.00  0.00    -0.206 F 
ATOM     70  C   UNL A   1      46.578  33.441  27.050  1.00  0.00     0.059 A 
ATOM     71  C   UNL A   1      44.394  34.231  27.701  1.00  0.00     0.059 A 
ATOM     72  F   UNL A   1      42.831  32.802  28.590  1.00  0.00    -0.206 F 
ATOM     73  C   UNL A   1      45.681  34.485  27.259  1.00  0.00     0.060 A 
BRANCH  73  74
ATOM     74  S   UNL A   1      46.231  36.180  27.005  1.00  0.00     0.124 S 
ATOM     75  O   UNL A   1      44.959  36.880  26.865  1.00  0.00    -0.237 OA
ATOM     76  O   UNL A   1      46.975  36.444  28.232  1.00  0.00    -0.237 OA
ATOM     77  O   UNL A   1      47.041  36.092  25.794  1.00  0.00    -0.744 OA
ENDBRANCH  73  74
ENDBRANCH  52  66
BRANCH  53  78
ATOM     78  C   UNL A   1      37.419  31.348  32.023  1.00  0.00     0.058 A 
ATOM     79  C   UNL A   1      36.873  31.791  33.242  1.00  0.00     0.135 A 
ATOM     80  C   UNL A   1      36.867  31.913  30.855  1.00  0.00     0.135 A 
ATOM     81  F   UNL A   1      37.339  31.309  34.404  1.00  0.00    -0.206 F 
ATOM     82  C   UNL A   1      35.898  32.794  33.304  1.00  0.00     0.059 A 
ATOM     83  C   UNL A   1      35.888  32.908  30.893  1.00  0.00     0.059 A 
ATOM     84  F   UNL A   1      37.333  31.588  29.641  1.00  0.00    -0.206 F 
ATOM     85  C   UNL A   1      35.434  33.370  32.123  1.00  0.00     0.060 A 
BRANCH  85  86
ATOM     86  S   UNL A   1      34.350  34.817  32.205  1.00  0.00     0.124 S 
ATOM     87  O   UNL A   1      35.157  35.756  32.977  1.00  0.00    -0.237 OA
ATOM     88  O   UNL A   1      34.165  35.145  30.796  1.00  0.00    -0.237 OA
ATOM     89  O   UNL A   1      33.158  34.313  32.883  1.00  0.00    -0.744 OA
ENDBRANCH  85  86
ENDBRANCH  53  78
BRANCH  65  90
ATOM     90  C   UNL A   1      43.108  29.169  33.884  1.00  0.00     0.058 A 
ATOM     91  C   UNL A   1      43.337  29.523  35.226  1.00  0.00     0.135 A 
ATOM     92  C   UNL A   1      42.640  27.869  33.639  1.00  0.00     0.135 A 
ATOM     93  F   UNL A   1      43.682  30.772  35.563  1.00  0.00    -0.206 F 
ATOM     94  C   UNL A   1      43.157  28.609  36.269  1.00  0.00     0.059 A 
ATOM     95  C   UNL A   1      42.421  26.954  34.664  1.00  0.00     0.059 A 
ATOM     96  F   UNL A   1      42.340  27.487  32.386  1.00  0.00    -0.206 F 
ATOM     97  C   UNL A   1      42.699  27.325  35.976  1.00  0.00     0.060 A 
BRANCH  97  98
ATOM     98  S   UNL A   1      42.419  26.157  37.325  1.00  0.00     0.124 S 
ATOM     99  O   UNL A   1      42.712  24.877  36.688  1.00  0.00    -0.237 OA
ATOM    100  O   UNL A   1      43.379  26.597  38.333  1.00  0.00    -0.237 OA
ATOM    101  O   UNL A   1      41.018  26.370  37.676  1.00  0.00    -0.744 OA
ENDBRANCH  97  98
ENDBRANCH  65  90
ENDBRANCH  39  40
ENDBRANCH  31  34
ENDBRANCH  29  30
ENDBRANCH   1  29
TORSDOF 18
ENDMDL
MODEL 2
REMARK VINA RESULT:      -9.8      4.821     12.168
REMARK SMILES COc1ccc(-c2ncn(CC(=O)NCCCNC(=O)c3ccc(-c4c5nc(c(-c6c(F)cc(S(=O)(=O)[O-])cc6F)c6ccc([nH]6)c(-c6c(F)cc(S(=O)(=O)[O-])cc6F)c6nc(c(-c7c(F)cc(S(=O)(=O)[O-])cc7F)c7ccc4[nH]7)C=C6)C=C5)cc3)c2-c2ccc(OC)cc2)cc1
REMARK SMILES IDX 16 1 15 2 14 3 12 4 13 5 11 7 10 8 7 9 8 10 87 11 9 12 6 13
REMARK SMILES IDX 3 14 4 15 97 16 5 17 96 18 2 19 1 20 88 21 89 22 95 23 90 24
REMARK SMILES IDX 94 25 91 26 92 27 93 28 17 29 18 30 19 31 20 33 21 34 22 35
REMARK SMILES IDX 86 36 23 37 85 38 24 39 25 40 26 41 79 42 27 43 84 44 78 45
REMARK SMILES IDX 80 46 28 47 83 48 77 49 76 50 29 52 63 53 42 54 62 55 43 56
REMARK SMILES IDX 46 57 61 58 81 59 44 60 45 61 60 63 82 64 47 65 30 66 31 67
REMARK SMILES IDX 40 68 32 69 33 70 39 71 41 72 34 73 35 74 36 75 37 76 38 77
REMARK SMILES IDX 64 78 65 79 74 80 66 81 67 82 73 83 75 84 68 85 69 86 70 87
REMARK SMILES IDX 71 88 72 89 48 90 49 91 58 92 50 93 51 94 57 95 59 96 52 97
REMARK SMILES IDX 53 98 54 99 55 100 56 101
REMARK H PARENT 14 6 18 32 80 51 46 62
REMARK Flexibility Score: inf
ROOT
ATOM      1  C   UNL A   1      32.882  31.392  26.809  1.00  0.00     0.042 C 
ENDROOT
BRANCH   1   2
ATOM      2  C   UNL A   1      32.239  30.082  26.347  1.00  0.00     0.117 C 
BRANCH   2   3
ATOM      3  N   UNL A   1      32.091  29.953  24.906  1.00  0.00    -0.354 N 
ATOM      4  C   UNL A   1      31.228  29.176  24.186  1.00  0.00     0.239 C 
ATOM      5  O   UNL A   1      31.091  29.431  22.987  1.00  0.00    -0.273 OA
ATOM      6  H   UNL A   1      32.703  30.507  24.369  1.00  0.00     0.163 HD
BRANCH   4   7
ATOM      7  C   UNL A   1      30.408  28.090  24.849  1.00  0.00     0.223 C 
BRANCH   7   8
ATOM      8  N   UNL A   1      31.200  27.097  25.553  1.00  0.00    -0.321 N 
ATOM      9  C   UNL A   1      32.570  25.505  26.132  1.00  0.00     0.096 A 
ATOM     10  N   UNL A   1      31.907  25.883  27.276  1.00  0.00    -0.236 NA
ATOM     11  C   UNL A   1      32.109  26.204  25.025  1.00  0.00     0.076 A 
ATOM     12  C   UNL A   1      31.077  26.823  26.891  1.00  0.00     0.201 A 
BRANCH   9  13
ATOM     13  C   UNL A   1      33.542  24.431  26.082  1.00  0.00     0.003 A 
ATOM     14  C   UNL A   1      35.328  22.299  25.750  1.00  0.00     0.118 A 
ATOM     15  C   UNL A   1      35.743  23.605  25.487  1.00  0.00     0.047 A 
ATOM     16  C   UNL A   1      34.042  22.063  26.234  1.00  0.00     0.047 A 
ATOM     17  C   UNL A   1      34.852  24.668  25.645  1.00  0.00     0.014 A 
ATOM     18  C   UNL A   1      33.152  23.128  26.405  1.00  0.00     0.014 A 
BRANCH  14  19
ATOM     19  O   UNL A   1      36.268  21.323  25.562  1.00  0.00    -0.497 OA
ATOM     20  C   UNL A   1      37.267  21.652  24.603  1.00  0.00     0.278 C 
ENDBRANCH  14  19
ENDBRANCH   9  13
BRANCH  11  21
ATOM     21  C   UNL A   1      32.375  25.991  23.605  1.00  0.00     0.001 A 
ATOM     22  C   UNL A   1      31.697  25.024  22.865  1.00  0.00     0.014 A 
ATOM     23  C   UNL A   1      33.296  26.823  22.954  1.00  0.00     0.014 A 
ATOM     24  C   UNL A   1      31.975  24.859  21.506  1.00  0.00     0.047 A 
ATOM     25  C   UNL A   1      33.556  26.673  21.590  1.00  0.00     0.047 A 
ATOM     26  C   UNL A   1      32.900  25.683  20.861  1.00  0.00     0.118 A 
BRANCH  26  27
ATOM     27  O   UNL A   1      33.085  25.410  19.537  1.00  0.00    -0.497 OA
ATOM     28  C   UNL A   1      31.926  25.406  18.713  1.00  0.00     0.278 C 
ENDBRANCH  26  27
ENDBRANCH  11  21
ENDBRANCH   7   8
ENDBRANCH   4   7
ENDBRANCH   2   3
ENDBRANCH   1   2
BRANCH   1  29
ATOM     29  C   UNL A   1      34.048  31.184  27.755  1.00  0.00     0.118 C 
BRANCH  29  30
ATOM     30  N   UNL A   1      33.963  31.970  28.989  1.00  0.00    -0.352 N 
ATOM     31  C   UNL A   1      34.844  31.992  30.065  1.00  0.00     0.251 C 
ATOM     32  H   UNL A   1      33.180  32.560  29.066  1.00  0.00     0.163 HD
ATOM     33  O   UNL A   1      34.491  32.447  31.139  1.00  0.00    -0.269 OA
BRANCH  31  34
ATOM     34  C   UNL A   1      36.205  31.446  29.881  1.00  0.00     0.039 A 
ATOM     35  C   UNL A   1      37.265  32.214  29.394  1.00  0.00     0.014 A 
ATOM     36  C   UNL A   1      36.414  30.122  30.241  1.00  0.00     0.014 A 
ATOM     37  C   UNL A   1      38.537  31.640  29.347  1.00  0.00     0.010 A 
ATOM     38  C   UNL A   1      37.678  29.663  30.453  1.00  0.00     0.010 A 
ATOM     39  C   UNL A   1      38.730  30.362  29.896  1.00  0.00    -0.014 A 
BRANCH  39  40
ATOM     40  C   UNL A   1      40.029  29.714  29.940  1.00  0.00     0.031 A 
ATOM     41  C   UNL A   1      40.496  29.373  31.303  1.00  0.00     0.074 A 
ATOM     42  C   UNL A   1      40.652  29.246  28.835  1.00  0.00     0.049 A 
ATOM     43  N   UNL A   1      41.396  29.989  31.991  1.00  0.00    -0.248 NA
ATOM     44  C   UNL A   1      39.767  28.344  32.059  1.00  0.00     0.031 C 
ATOM     45  C   UNL A   1      40.162  29.182  27.450  1.00  0.00     0.029 A 
ATOM     46  N   UNL A   1      41.851  28.618  28.745  1.00  0.00    -0.354 N 
ATOM     47  C   UNL A   1      41.524  29.273  33.175  1.00  0.00     0.074 A 
ATOM     48  C   UNL A   1      40.362  28.426  33.253  1.00  0.00     0.031 C 
ATOM     49  C   UNL A   1      40.945  28.349  26.728  1.00  0.00     0.029 A 
ATOM     50  C   UNL A   1      42.086  27.968  27.539  1.00  0.00     0.049 A 
ATOM     51  H   UNL A   1      42.506  28.624  29.479  1.00  0.00     0.167 HD
ATOM     52  C   UNL A   1      42.700  29.260  33.862  1.00  0.00     0.037 A 
ATOM     53  C   UNL A   1      43.133  27.153  27.257  1.00  0.00     0.037 A 
ATOM     54  C   UNL A   1      43.614  30.248  33.337  1.00  0.00     0.049 A 
ATOM     55  C   UNL A   1      44.202  27.483  28.241  1.00  0.00     0.074 A 
ATOM     56  C   UNL A   1      43.573  31.620  33.180  1.00  0.00     0.029 A 
ATOM     57  N   UNL A   1      44.605  29.803  32.492  1.00  0.00    -0.354 N 
ATOM     58  N   UNL A   1      44.825  28.631  28.278  1.00  0.00    -0.248 NA
ATOM     59  C   UNL A   1      44.236  26.720  29.480  1.00  0.00     0.031 C 
ATOM     60  C   UNL A   1      44.179  31.864  31.912  1.00  0.00     0.029 A 
ATOM     61  C   UNL A   1      44.630  30.643  31.407  1.00  0.00     0.049 A 
ATOM     62  H   UNL A   1      45.188  29.025  32.639  1.00  0.00     0.167 HD
ATOM     63  C   UNL A   1      44.943  28.930  29.628  1.00  0.00     0.074 A 
ATOM     64  C   UNL A   1      44.639  27.678  30.320  1.00  0.00     0.031 C 
ATOM     65  C   UNL A   1      44.988  30.223  30.068  1.00  0.00     0.037 A 
BRANCH  52  66
ATOM     66  C   UNL A   1      43.178  28.141  34.752  1.00  0.00     0.058 A 
ATOM     67  C   UNL A   1      43.534  28.435  36.085  1.00  0.00     0.135 A 
ATOM     68  C   UNL A   1      43.556  26.863  34.287  1.00  0.00     0.135 A 
ATOM     69  F   UNL A   1      43.227  29.624  36.630  1.00  0.00    -0.206 F 
ATOM     70  C   UNL A   1      44.278  27.557  36.871  1.00  0.00     0.059 A 
ATOM     71  C   UNL A   1      44.248  25.949  35.073  1.00  0.00     0.059 A 
ATOM     72  F   UNL A   1      43.364  26.478  33.020  1.00  0.00    -0.206 F 
ATOM     73  C   UNL A   1      44.642  26.319  36.347  1.00  0.00     0.060 A 
BRANCH  73  74
ATOM     74  S   UNL A   1      45.686  25.226  37.324  1.00  0.00     0.124 S 
ATOM     75  O   UNL A   1      46.836  25.057  36.442  1.00  0.00    -0.237 OA
ATOM     76  O   UNL A   1      45.915  26.020  38.527  1.00  0.00    -0.237 OA
ATOM     77  O   UNL A   1      44.852  24.043  37.510  1.00  0.00    -0.744 OA
ENDBRANCH  73  74
ENDBRANCH  52  66
BRANCH  53  78
ATOM     78  C   UNL A   1      43.135  25.889  26.468  1.00  0.00     0.058 A 
ATOM     79  C   UNL A   1      44.034  25.711  25.402  1.00  0.00     0.135 A 
ATOM     80  C   UNL A   1      42.485  24.726  26.931  1.00  0.00     0.135 A 
ATOM     81  F   UNL A   1      44.699  26.761  24.898  1.00  0.00    -0.206 F 
ATOM     82  C   UNL A   1      44.336  24.447  24.881  1.00  0.00     0.059 A 
ATOM     83  C   UNL A   1      42.763  23.457  26.421  1.00  0.00     0.059 A 
ATOM     84  F   UNL A   1      41.632  24.774  27.964  1.00  0.00    -0.206 F 
ATOM     85  C   UNL A   1      43.717  23.320  25.419  1.00  0.00     0.060 A 
BRANCH  85  86
ATOM     86  S   UNL A   1      44.269  21.673  24.910  1.00  0.00     0.124 S 
ATOM     87  O   UNL A   1      43.160  20.833  25.350  1.00  0.00    -0.237 OA
ATOM     88  O   UNL A   1      44.417  21.829  23.467  1.00  0.00    -0.237 OA
ATOM     89  O   UNL A   1      45.520  21.490  25.642  1.00  0.00    -0.744 OA
ENDBRANCH  85  86
ENDBRANCH  53  78
BRANCH  65  90
ATOM     90  C   UNL A   1      45.226  31.319  29.059  1.00  0.00     0.058 A 
ATOM     91  C   UNL A   1      46.491  31.785  28.655  1.00  0.00     0.135 A 
ATOM     92  C   UNL A   1      44.113  31.817  28.364  1.00  0.00     0.135 A 
ATOM     93  F   UNL A   1      47.614  31.286  29.187  1.00  0.00    -0.206 F 
ATOM     94  C   UNL A   1      46.635  32.737  27.642  1.00  0.00     0.059 A 
ATOM     95  C   UNL A   1      44.235  32.740  27.331  1.00  0.00     0.059 A 
ATOM     96  F   UNL A   1      42.881  31.367  28.657  1.00  0.00    -0.206 F 
ATOM     97  C   UNL A   1      45.499  33.211  26.987  1.00  0.00     0.060 A 
BRANCH  97  98
ATOM     98  S   UNL A   1      45.685  34.406  25.645  1.00  0.00     0.124 S 
ATOM     99  O   UNL A   1      47.109  34.308  25.343  1.00  0.00    -0.237 OA
ATOM    100  O   UNL A   1      44.782  33.881  24.624  1.00  0.00    -0.237 OA
ATOM    101  O   UNL A   1      45.262  35.666  26.249  1.00  0.00    -0.744 OA
ENDBRANCH  97  98
ENDBRANCH  65  90
ENDBRANCH  39  40
ENDBRANCH  31  34
ENDBRANCH  29  30
ENDBRANCH   1  29
TORSDOF 18
ENDMDL
MODEL 3
REMARK VINA RESULT:      -9.6      3.524     11.309
REMARK SMILES COc1ccc(-c2ncn(CC(=O)NCCCNC(=O)c3ccc(-c4c5nc(c(-c6c(F)cc(S(=O)(=O)[O-])cc6F)c6ccc([nH]6)c(-c6c(F)cc(S(=O)(=O)[O-])cc6F)c6nc(c(-c7c(F)cc(S(=O)(=O)[O-])cc7F)c7ccc4[nH]7)C=C6)C=C5)cc3)c2-c2ccc(OC)cc2)cc1
REMARK SMILES IDX 16 1 15 2 14 3 12 4 13 5 11 7 10 8 7 9 8 10 87 11 9 12 6 13
REMARK SMILES IDX 3 14 4 15 97 16 5 17 96 18 2 19 1 20 88 21 89 22 95 23 90 24
REMARK SMILES IDX 94 25 91 26 92 27 93 28 17 29 18 30 19 31 20 33 21 34 22 35
REMARK SMILES IDX 86 36 23 37 85 38 24 39 25 40 26 41 79 42 27 43 84 44 78 45
REMARK SMILES IDX 80 46 28 47 83 48 77 49 76 50 29 52 63 53 42 54 62 55 43 56
REMARK SMILES IDX 46 57 61 58 81 59 44 60 45 61 60 63 82 64 47 65 30 66 31 67
REMARK SMILES IDX 40 68 32 69 33 70 39 71 41 72 34 73 35 74 36 75 37 76 38 77
REMARK SMILES IDX 64 78 65 79 74 80 66 81 67 82 73 83 75 84 68 85 69 86 70 87
REMARK SMILES IDX 71 88 72 89 48 90 49 91 58 92 50 93 51 94 57 95 59 96 52 97
REMARK SMILES IDX 53 98 54 99 55 100 56 101
REMARK H PARENT 14 6 18 32 80 51 46 62
REMARK Flexibility Score: inf
ROOT
ATOM      1  C   UNL A   1      35.848  33.895  31.758  1.00  0.00     0.042 C 
ENDROOT
BRANCH   1   2
ATOM      2  C   UNL A   1      37.376  33.831  31.837  1.00  0.00     0.117 C 
BRANCH   2   3
ATOM      3  N   UNL A   1      38.070  34.634  30.843  1.00  0.00    -0.354 N 
ATOM      4  C   UNL A   1      39.341  34.511  30.359  1.00  0.00     0.239 C 
ATOM      5  O   UNL A   1      39.625  35.125  29.328  1.00  0.00    -0.273 OA
ATOM      6  H   UNL A   1      37.547  35.377  30.463  1.00  0.00     0.163 HD
BRANCH   4   7
ATOM      7  C   UNL A   1      40.347  33.591  31.017  1.00  0.00     0.223 C 
BRANCH   7   8
ATOM      8  N   UNL A   1      41.302  34.273  31.872  1.00  0.00    -0.321 N 
ATOM      9  C   UNL A   1      42.429  35.116  33.535  1.00  0.00     0.096 A 
ATOM     10  N   UNL A   1      43.045  35.553  32.386  1.00  0.00    -0.236 NA
ATOM     11  C   UNL A   1      41.300  34.361  33.248  1.00  0.00     0.076 A 
ATOM     12  C   UNL A   1      42.332  35.050  31.407  1.00  0.00     0.201 A 
BRANCH   9  13
ATOM     13  C   UNL A   1      42.848  35.497  34.869  1.00  0.00     0.003 A 
ATOM     14  C   UNL A   1      43.461  36.093  37.536  1.00  0.00     0.118 A 
ATOM     15  C   UNL A   1      44.143  35.072  36.875  1.00  0.00     0.047 A 
ATOM     16  C   UNL A   1      42.515  36.855  36.850  1.00  0.00     0.047 A 
ATOM     17  C   UNL A   1      43.834  34.768  35.548  1.00  0.00     0.014 A 
ATOM     18  C   UNL A   1      42.213  36.561  35.517  1.00  0.00     0.014 A 
BRANCH  14  19
ATOM     19  O   UNL A   1      43.827  36.314  38.835  1.00  0.00    -0.497 OA
ATOM     20  C   UNL A   1      44.315  35.159  39.509  1.00  0.00     0.278 C 
ENDBRANCH  14  19
ENDBRANCH   9  13
BRANCH  11  21
ATOM     21  C   UNL A   1      40.247  33.876  34.136  1.00  0.00     0.001 A 
ATOM     22  C   UNL A   1      40.280  32.597  34.690  1.00  0.00     0.014 A 
ATOM     23  C   UNL A   1      39.204  34.744  34.490  1.00  0.00     0.014 A 
ATOM     24  C   UNL A   1      39.257  32.177  35.543  1.00  0.00     0.047 A 
ATOM     25  C   UNL A   1      38.194  34.329  35.362  1.00  0.00     0.047 A 
ATOM     26  C   UNL A   1      38.214  33.039  35.886  1.00  0.00     0.118 A 
BRANCH  26  27
ATOM     27  O   UNL A   1      37.276  32.500  36.719  1.00  0.00    -0.497 OA
ATOM     28  C   UNL A   1      37.728  32.050  37.991  1.00  0.00     0.278 C 
ENDBRANCH  26  27
ENDBRANCH  11  21
ENDBRANCH   7   8
ENDBRANCH   4   7
ENDBRANCH   2   3
ENDBRANCH   1   2
BRANCH   1  29
ATOM     29  C   UNL A   1      35.188  32.533  31.842  1.00  0.00     0.118 C 
BRANCH  29  30
ATOM     30  N   UNL A   1      34.392  32.182  30.663  1.00  0.00    -0.352 N 
ATOM     31  C   UNL A   1      34.832  31.721  29.426  1.00  0.00     0.251 C 
ATOM     32  H   UNL A   1      33.418  32.287  30.758  1.00  0.00     0.163 HD
ATOM     33  O   UNL A   1      34.097  31.770  28.455  1.00  0.00    -0.269 OA
BRANCH  31  34
ATOM     34  C   UNL A   1      36.204  31.184  29.315  1.00  0.00     0.039 A 
ATOM     35  C   UNL A   1      37.256  31.913  28.754  1.00  0.00     0.014 A 
ATOM     36  C   UNL A   1      36.434  29.913  29.823  1.00  0.00     0.014 A 
ATOM     37  C   UNL A   1      38.538  31.362  28.782  1.00  0.00     0.010 A 
ATOM     38  C   UNL A   1      37.703  29.505  30.096  1.00  0.00     0.010 A 
ATOM     39  C   UNL A   1      38.749  30.157  29.472  1.00  0.00    -0.014 A 
BRANCH  39  40
ATOM     40  C   UNL A   1      40.059  29.543  29.600  1.00  0.00     0.031 A 
ATOM     41  C   UNL A   1      40.451  29.223  30.991  1.00  0.00     0.074 A 
ATOM     42  C   UNL A   1      40.758  29.084  28.538  1.00  0.00     0.049 A 
ATOM     43  N   UNL A   1      41.292  29.867  31.727  1.00  0.00    -0.248 NA
ATOM     44  C   UNL A   1      39.704  28.180  31.711  1.00  0.00     0.031 C 
ATOM     45  C   UNL A   1      40.354  28.998  27.126  1.00  0.00     0.029 A 
ATOM     46  N   UNL A   1      41.976  28.487  28.525  1.00  0.00    -0.354 N 
ATOM     47  C   UNL A   1      41.367  29.161  32.922  1.00  0.00     0.074 A 
ATOM     48  C   UNL A   1      40.224  28.286  32.937  1.00  0.00     0.031 C 
ATOM     49  C   UNL A   1      41.200  28.181  26.460  1.00  0.00     0.029 A 
ATOM     50  C   UNL A   1      42.299  27.835  27.341  1.00  0.00     0.049 A 
ATOM     51  H   UNL A   1      42.586  28.514  29.297  1.00  0.00     0.167 HD
ATOM     52  C   UNL A   1      42.499  29.184  33.679  1.00  0.00     0.037 A 
ATOM     53  C   UNL A   1      43.382  27.045  27.128  1.00  0.00     0.037 A 
ATOM     54  C   UNL A   1      43.418  30.191  33.201  1.00  0.00     0.049 A 
ATOM     55  C   UNL A   1      44.382  27.410  28.172  1.00  0.00     0.074 A 
ATOM     56  C   UNL A   1      43.351  31.561  33.031  1.00  0.00     0.029 A 
ATOM     57  N   UNL A   1      44.469  29.767  32.421  1.00  0.00    -0.354 N 
ATOM     58  N   UNL A   1      44.971  28.573  28.237  1.00  0.00    -0.248 NA
ATOM     59  C   UNL A   1      44.360  26.656  29.417  1.00  0.00     0.031 C 
ATOM     60  C   UNL A   1      44.026  31.812  31.800  1.00  0.00     0.029 A 
ATOM     61  C   UNL A   1      44.538  30.600  31.332  1.00  0.00     0.049 A 
ATOM     62  H   UNL A   1      45.062  29.005  32.609  1.00  0.00     0.167 HD
ATOM     63  C   UNL A   1      45.000  28.884  29.589  1.00  0.00     0.074 A 
ATOM     64  C   UNL A   1      44.687  27.629  30.272  1.00  0.00     0.031 C 
ATOM     65  C   UNL A   1      44.986  30.181  30.021  1.00  0.00     0.037 A 
BRANCH  52  66
ATOM     66  C   UNL A   1      42.951  28.083  34.605  1.00  0.00     0.058 A 
ATOM     67  C   UNL A   1      43.134  28.376  35.973  1.00  0.00     0.135 A 
ATOM     68  C   UNL A   1      43.467  26.843  34.172  1.00  0.00     0.135 A 
ATOM     69  F   UNL A   1      42.686  29.530  36.492  1.00  0.00    -0.206 F 
ATOM     70  C   UNL A   1      43.844  27.535  36.827  1.00  0.00     0.059 A 
ATOM     71  C   UNL A   1      44.128  25.963  35.021  1.00  0.00     0.059 A 
ATOM     72  F   UNL A   1      43.446  26.469  32.887  1.00  0.00    -0.206 F 
ATOM     73  C   UNL A   1      44.350  26.335  36.335  1.00  0.00     0.060 A 
BRANCH  73  74
ATOM     74  S   UNL A   1      45.351  25.297  37.412  1.00  0.00     0.124 S 
ATOM     75  O   UNL A   1      44.365  24.330  37.881  1.00  0.00    -0.237 OA
ATOM     76  O   UNL A   1      46.360  24.787  36.490  1.00  0.00    -0.237 OA
ATOM     77  O   UNL A   1      45.846  26.234  38.417  1.00  0.00    -0.744 OA
ENDBRANCH  73  74
ENDBRANCH  52  66
BRANCH  53  78
ATOM     78  C   UNL A   1      43.464  25.777  26.351  1.00  0.00     0.058 A 
ATOM     79  C   UNL A   1      44.521  25.554  25.451  1.00  0.00     0.135 A 
ATOM     80  C   UNL A   1      42.697  24.645  26.699  1.00  0.00     0.135 A 
ATOM     81  F   UNL A   1      45.305  26.573  25.066  1.00  0.00    -0.206 F 
ATOM     82  C   UNL A   1      44.852  24.275  24.988  1.00  0.00     0.059 A 
ATOM     83  C   UNL A   1      43.003  23.362  26.243  1.00  0.00     0.059 A 
ATOM     84  F   UNL A   1      41.685  24.736  27.573  1.00  0.00    -0.206 F 
ATOM     85  C   UNL A   1      44.105  23.179  25.415  1.00  0.00     0.060 A 
BRANCH  85  86
ATOM     86  S   UNL A   1      44.666  21.506  25.006  1.00  0.00     0.124 S 
ATOM     87  O   UNL A   1      44.659  21.534  23.548  1.00  0.00    -0.237 OA
ATOM     88  O   UNL A   1      45.981  21.458  25.637  1.00  0.00    -0.237 OA
ATOM     89  O   UNL A   1      43.655  20.648  25.621  1.00  0.00    -0.744 OA
ENDBRANCH  85  86
ENDBRANCH  53  78
BRANCH  65  90
ATOM     90  C   UNL A   1      45.257  31.276  29.019  1.00  0.00     0.058 A 
ATOM     91  C   UNL A   1      46.533  31.676  28.585  1.00  0.00     0.135 A 
ATOM     92  C   UNL A   1      44.154  31.844  28.363  1.00  0.00     0.135 A 
ATOM     93  F   UNL A   1      47.642  31.108  29.078  1.00  0.00    -0.206 F 
ATOM     94  C   UNL A   1      46.703  32.633  27.580  1.00  0.00     0.059 A 
ATOM     95  C   UNL A   1      44.299  32.774  27.338  1.00  0.00     0.059 A 
ATOM     96  F   UNL A   1      42.908  31.459  28.686  1.00  0.00    -0.206 F 
ATOM     97  C   UNL A   1      45.577  33.178  26.964  1.00  0.00     0.060 A 
BRANCH  97  98
ATOM     98  S   UNL A   1      45.791  34.380  25.632  1.00  0.00     0.124 S 
ATOM     99  O   UNL A   1      45.317  35.613  26.253  1.00  0.00    -0.237 OA
ATOM    100  O   UNL A   1      47.226  34.313  25.370  1.00  0.00    -0.237 OA
ATOM    101  O   UNL A   1      44.947  33.858  24.561  1.00  0.00    -0.744 OA
ENDBRANCH  97  98
ENDBRANCH  65  90
ENDBRANCH  39  40
ENDBRANCH  31  34
ENDBRANCH  29  30
ENDBRANCH   1  29
TORSDOF 18
ENDMDL
