MODEL 1
REMARK VINA RESULT:     -12.0      0.000      0.000
REMARK SMILES CC(C)(C[S@@](=O)c1ccc(C(C)(C)C)cc1)C(=O)NCCCNC(=O)c1ccc(-c2c3nc(c(-c4c(F)cc(S(=O)(=O)[O-])cc4F)c4ccc([nH]4)c(-c4c(F)cc(S(=O)(=O)[O-])cc4F)c4nc(c(-c5c(F)cc(S(=O)(=O)[O-])cc5F)c5ccc2[nH]5)C=C4)C=C3)cc1
REMARK SMILES IDX 20 1 19 2 17 3 18 4 2 6 1 7 3 8 4 9 5 10 6 11 7 12 8 13
REMARK SMILES IDX 16 14 9 15 15 16 10 17 11 18 12 19 13 20 14 21 21 22 22 23
REMARK SMILES IDX 23 24 24 25 25 27 26 28 27 29 91 30 28 31 90 32 29 33 30 34
REMARK SMILES IDX 31 35 84 36 32 37 89 38 83 39 85 40 33 41 88 42 82 43 81 44
REMARK SMILES IDX 34 46 68 47 47 48 67 49 48 50 51 51 66 52 86 53 49 54 50 55
REMARK SMILES IDX 65 57 87 58 52 59 35 60 36 61 45 62 37 63 38 64 44 65 46 66
REMARK SMILES IDX 39 67 40 68 41 69 42 70 43 71 69 72 70 73 79 74 71 75 72 76
REMARK SMILES IDX 78 77 80 78 73 79 74 80 75 81 76 82 77 83 53 84 54 85 63 86
REMARK SMILES IDX 55 87 56 88 62 89 64 90 57 91 58 92 59 93 60 94 61 95
REMARK H PARENT 19 5 23 26 85 45 51 56
REMARK Flexibility Score: inf
ROOT
ATOM      1  C   UNL A   1      36.011  23.787  25.525  1.00  0.00     0.117 C 
ENDROOT
BRANCH   1   2
ATOM      2  N   UNL A   1      35.271  23.825  24.277  1.00  0.00    -0.356 N 
ATOM      3  C   UNL A   1      34.226  23.112  23.796  1.00  0.00     0.226 C 
ATOM      4  O   UNL A   1      33.877  23.385  22.643  1.00  0.00    -0.274 OA
ATOM      5  H   UNL A   1      35.596  24.513  23.651  1.00  0.00     0.163 HD
BRANCH   3   6
ATOM      6  C   UNL A   1      33.511  22.018  24.606  1.00  0.00     0.055 C 
ATOM      7  C   UNL A   1      34.538  20.890  24.867  1.00  0.00     0.022 C 
ATOM      8  C   UNL A   1      32.406  21.343  23.764  1.00  0.00     0.022 C 
BRANCH   6   9
ATOM      9  C   UNL A   1      32.909  22.575  25.913  1.00  0.00     0.126 C 
BRANCH   9  10
ATOM     10  S   UNL A   1      31.110  22.844  25.920  1.00  0.00     0.054 S 
ATOM     11  O   UNL A   1      30.669  22.868  27.353  1.00  0.00    -0.254 OA
BRANCH  10  12
ATOM     12  C   UNL A   1      30.913  24.549  25.358  1.00  0.00     0.039 A 
ATOM     13  C   UNL A   1      30.611  24.756  24.009  1.00  0.00     0.018 A 
ATOM     14  C   UNL A   1      31.084  25.668  26.168  1.00  0.00     0.018 A 
ATOM     15  C   UNL A   1      30.593  26.049  23.470  1.00  0.00     0.005 A 
ATOM     16  C   UNL A   1      31.111  26.954  25.622  1.00  0.00     0.005 A 
ATOM     17  C   UNL A   1      30.903  27.173  24.255  1.00  0.00    -0.043 A 
BRANCH  17  18
ATOM     18  C   UNL A   1      30.951  28.583  23.648  1.00  0.00    -0.013 C 
ATOM     19  C   UNL A   1      29.640  28.923  22.903  1.00  0.00     0.016 C 
ATOM     20  C   UNL A   1      31.169  29.590  24.790  1.00  0.00     0.016 C 
ATOM     21  C   UNL A   1      32.092  28.763  22.617  1.00  0.00     0.016 C 
ENDBRANCH  17  18
ENDBRANCH  10  12
ENDBRANCH   9  10
ENDBRANCH   6   9
ENDBRANCH   3   6
ENDBRANCH   1   2
BRANCH   1  22
ATOM     22  C   UNL A   1      37.503  23.602  25.295  1.00  0.00     0.042 C 
BRANCH  22  23
ATOM     23  C   UNL A   1      38.366  24.092  26.447  1.00  0.00     0.118 C 
BRANCH  23  24
ATOM     24  N   UNL A   1      39.791  23.950  26.176  1.00  0.00    -0.352 N 
ATOM     25  C   UNL A   1      40.844  24.745  26.561  1.00  0.00     0.251 C 
ATOM     26  H   UNL A   1      40.037  23.166  25.634  1.00  0.00     0.163 HD
ATOM     27  O   UNL A   1      41.944  24.583  26.046  1.00  0.00    -0.269 OA
BRANCH  25  28
ATOM     28  C   UNL A   1      40.640  25.796  27.580  1.00  0.00     0.039 A 
ATOM     29  C   UNL A   1      39.653  25.620  28.552  1.00  0.00     0.014 A 
ATOM     30  C   UNL A   1      41.419  26.955  27.573  1.00  0.00     0.014 A 
ATOM     31  C   UNL A   1      39.497  26.578  29.557  1.00  0.00     0.010 A 
ATOM     32  C   UNL A   1      41.336  27.851  28.630  1.00  0.00     0.010 A 
ATOM     33  C   UNL A   1      40.364  27.682  29.625  1.00  0.00    -0.014 A 
BRANCH  33  34
ATOM     34  C   UNL A   1      40.263  28.680  30.719  1.00  0.00     0.031 A 
ATOM     35  C   UNL A   1      41.147  28.561  31.931  1.00  0.00     0.074 A 
ATOM     36  C   UNL A   1      39.333  29.652  30.651  1.00  0.00     0.049 A 
ATOM     37  N   UNL A   1      41.171  29.295  33.014  1.00  0.00    -0.248 NA
ATOM     38  C   UNL A   1      42.112  27.449  31.943  1.00  0.00     0.031 C 
ATOM     39  C   UNL A   1      38.385  29.840  29.551  1.00  0.00     0.029 A 
ATOM     40  N   UNL A   1      39.027  30.662  31.528  1.00  0.00    -0.354 N 
ATOM     41  C   UNL A   1      42.138  28.728  33.835  1.00  0.00     0.074 A 
ATOM     42  C   UNL A   1      42.628  27.548  33.157  1.00  0.00     0.031 C 
ATOM     43  C   UNL A   1      37.631  30.922  29.801  1.00  0.00     0.029 A 
ATOM     44  C   UNL A   1      38.008  31.477  31.097  1.00  0.00     0.049 A 
ATOM     45  H   UNL A   1      39.494  30.791  32.384  1.00  0.00     0.167 HD
ATOM     46  C   UNL A   1      42.599  29.165  35.032  1.00  0.00     0.037 A 
ATOM     47  C   UNL A   1      37.440  32.550  31.681  1.00  0.00     0.037 A 
ATOM     48  C   UNL A   1      42.112  30.348  35.693  1.00  0.00     0.049 A 
ATOM     49  C   UNL A   1      37.952  33.008  33.019  1.00  0.00     0.074 A 
ATOM     50  C   UNL A   1      42.541  30.908  36.882  1.00  0.00     0.029 A 
ATOM     51  N   UNL A   1      41.080  31.148  35.222  1.00  0.00    -0.354 N 
ATOM     52  N   UNL A   1      38.912  32.499  33.754  1.00  0.00    -0.248 NA
ATOM     53  C   UNL A   1      37.306  34.191  33.605  1.00  0.00     0.031 C 
ATOM     54  C   UNL A   1      41.732  32.016  37.159  1.00  0.00     0.029 A 
ATOM     55  C   UNL A   1      40.840  32.185  36.112  1.00  0.00     0.049 A 
ATOM     56  H   UNL A   1      40.590  31.003  34.382  1.00  0.00     0.167 HD
ATOM     57  C   UNL A   1      39.008  33.317  34.875  1.00  0.00     0.074 A 
ATOM     58  C   UNL A   1      38.014  34.359  34.715  1.00  0.00     0.031 C 
ATOM     59  C   UNL A   1      39.847  33.217  35.937  1.00  0.00     0.037 A 
BRANCH  46  60
ATOM     60  C   UNL A   1      43.679  28.351  35.697  1.00  0.00     0.058 A 
ATOM     61  C   UNL A   1      45.040  28.549  35.407  1.00  0.00     0.135 A 
ATOM     62  C   UNL A   1      43.351  27.356  36.633  1.00  0.00     0.135 A 
ATOM     63  F   UNL A   1      45.413  29.477  34.510  1.00  0.00    -0.206 F 
ATOM     64  C   UNL A   1      46.030  27.757  35.978  1.00  0.00     0.059 A 
ATOM     65  C   UNL A   1      44.329  26.576  37.243  1.00  0.00     0.059 A 
ATOM     66  F   UNL A   1      42.068  27.124  36.953  1.00  0.00    -0.206 F 
ATOM     67  C   UNL A   1      45.664  26.768  36.892  1.00  0.00     0.060 A 
BRANCH  67  68
ATOM     68  S   UNL A   1      46.959  25.731  37.603  1.00  0.00     0.124 S 
ATOM     69  O   UNL A   1      47.891  26.736  38.106  1.00  0.00    -0.237 OA
ATOM     70  O   UNL A   1      46.233  24.977  38.619  1.00  0.00    -0.237 OA
ATOM     71  O   UNL A   1      47.433  24.951  36.464  1.00  0.00    -0.744 OA
ENDBRANCH  67  68
ENDBRANCH  46  60
BRANCH  47  72
ATOM     72  C   UNL A   1      36.357  33.287  30.977  1.00  0.00     0.058 A 
ATOM     73  C   UNL A   1      35.033  33.226  31.436  1.00  0.00     0.135 A 
ATOM     74  C   UNL A   1      36.624  34.096  29.861  1.00  0.00     0.135 A 
ATOM     75  F   UNL A   1      34.725  32.463  32.495  1.00  0.00    -0.206 F 
ATOM     76  C   UNL A   1      34.011  33.935  30.814  1.00  0.00     0.059 A 
ATOM     77  C   UNL A   1      35.624  34.835  29.237  1.00  0.00     0.059 A 
ATOM     78  F   UNL A   1      37.876  34.200  29.391  1.00  0.00    -0.206 F 
ATOM     79  C   UNL A   1      34.318  34.744  29.718  1.00  0.00     0.060 A 
BRANCH  79  80
ATOM     80  S   UNL A   1      32.994  35.714  28.964  1.00  0.00     0.124 S 
ATOM     81  O   UNL A   1      33.746  36.764  28.286  1.00  0.00    -0.237 OA
ATOM     82  O   UNL A   1      32.350  34.729  28.101  1.00  0.00    -0.237 OA
ATOM     83  O   UNL A   1      32.199  36.146  30.110  1.00  0.00    -0.744 OA
ENDBRANCH  79  80
ENDBRANCH  47  72
BRANCH  59  84
ATOM     84  C   UNL A   1      39.755  34.283  36.995  1.00  0.00     0.058 A 
ATOM     85  C   UNL A   1      40.339  35.548  36.828  1.00  0.00     0.135 A 
ATOM     86  C   UNL A   1      39.026  34.049  38.174  1.00  0.00     0.135 A 
ATOM     87  F   UNL A   1      41.052  35.824  35.724  1.00  0.00    -0.206 F 
ATOM     88  C   UNL A   1      40.227  36.535  37.802  1.00  0.00     0.059 A 
ATOM     89  C   UNL A   1      38.874  35.031  39.146  1.00  0.00     0.059 A 
ATOM     90  F   UNL A   1      38.437  32.860  38.381  1.00  0.00    -0.206 F 
ATOM     91  C   UNL A   1      39.490  36.267  38.958  1.00  0.00     0.060 A 
BRANCH  91  92
ATOM     92  S   UNL A   1      39.326  37.567  40.200  1.00  0.00     0.124 S 
ATOM     93  O   UNL A   1      38.317  38.429  39.593  1.00  0.00    -0.237 OA
ATOM     94  O   UNL A   1      38.895  36.819  41.378  1.00  0.00    -0.237 OA
ATOM     95  O   UNL A   1      40.669  38.132  40.281  1.00  0.00    -0.744 OA
ENDBRANCH  91  92
ENDBRANCH  59  84
ENDBRANCH  33  34
ENDBRANCH  25  28
ENDBRANCH  23  24
ENDBRANCH  22  23
ENDBRANCH   1  22
TORSDOF 17
ENDMDL
MODEL 2
REMARK VINA RESULT:     -11.9      6.713     12.120
REMARK SMILES CC(C)(C[S@@](=O)c1ccc(C(C)(C)C)cc1)C(=O)NCCCNC(=O)c1ccc(-c2c3nc(c(-c4c(F)cc(S(=O)(=O)[O-])cc4F)c4ccc([nH]4)c(-c4c(F)cc(S(=O)(=O)[O-])cc4F)c4nc(c(-c5c(F)cc(S(=O)(=O)[O-])cc5F)c5ccc2[nH]5)C=C4)C=C3)cc1
REMARK SMILES IDX 20 1 19 2 17 3 18 4 2 6 1 7 3 8 4 9 5 10 6 11 7 12 8 13
REMARK SMILES IDX 16 14 9 15 15 16 10 17 11 18 12 19 13 20 14 21 21 22 22 23
REMARK SMILES IDX 23 24 24 25 25 27 26 28 27 29 91 30 28 31 90 32 29 33 30 34
REMARK SMILES IDX 31 35 84 36 32 37 89 38 83 39 85 40 33 41 88 42 82 43 81 44
REMARK SMILES IDX 34 46 68 47 47 48 67 49 48 50 51 51 66 52 86 53 49 54 50 55
REMARK SMILES IDX 65 57 87 58 52 59 35 60 36 61 45 62 37 63 38 64 44 65 46 66
REMARK SMILES IDX 39 67 40 68 41 69 42 70 43 71 69 72 70 73 79 74 71 75 72 76
REMARK SMILES IDX 78 77 80 78 73 79 74 80 75 81 76 82 77 83 53 84 54 85 63 86
REMARK SMILES IDX 55 87 56 88 62 89 64 90 57 91 58 92 59 93 60 94 61 95
REMARK H PARENT 19 5 23 26 85 45 51 56
REMARK Flexibility Score: inf
ROOT
ATOM      1  C   UNL A   1      33.456  27.927  26.147  1.00  0.00     0.117 C 
ENDROOT
BRANCH   1   2
ATOM      2  N   UNL A   1      32.452  26.975  26.585  1.00  0.00    -0.356 N 
ATOM      3  C   UNL A   1      32.256  25.657  26.344  1.00  0.00     0.226 C 
ATOM      4  O   UNL A   1      31.242  25.165  26.851  1.00  0.00    -0.274 OA
ATOM      5  H   UNL A   1      31.773  27.368  27.180  1.00  0.00     0.163 HD
BRANCH   3   6
ATOM      6  C   UNL A   1      33.209  24.808  25.487  1.00  0.00     0.055 C 
ATOM      7  C   UNL A   1      33.241  23.388  26.100  1.00  0.00     0.022 C 
ATOM      8  C   UNL A   1      34.663  25.313  25.614  1.00  0.00     0.022 C 
BRANCH   6   9
ATOM      9  C   UNL A   1      32.786  24.795  24.002  1.00  0.00     0.126 C 
BRANCH   9  10
ATOM     10  S   UNL A   1      33.308  26.224  23.004  1.00  0.00     0.054 S 
ATOM     11  O   UNL A   1      33.619  25.715  21.628  1.00  0.00    -0.254 OA
BRANCH  10  12
ATOM     12  C   UNL A   1      31.801  27.196  22.797  1.00  0.00     0.039 A 
ATOM     13  C   UNL A   1      31.929  28.489  22.283  1.00  0.00     0.018 A 
ATOM     14  C   UNL A   1      30.528  26.759  23.155  1.00  0.00     0.018 A 
ATOM     15  C   UNL A   1      30.828  29.354  22.235  1.00  0.00     0.005 A 
ATOM     16  C   UNL A   1      29.439  27.635  23.151  1.00  0.00     0.005 A 
ATOM     17  C   UNL A   1      29.570  28.963  22.726  1.00  0.00    -0.043 A 
BRANCH  17  18
ATOM     18  C   UNL A   1      28.380  29.934  22.739  1.00  0.00    -0.013 C 
ATOM     19  C   UNL A   1      28.117  30.525  21.335  1.00  0.00     0.016 C 
ATOM     20  C   UNL A   1      27.136  29.163  23.211  1.00  0.00     0.016 C 
ATOM     21  C   UNL A   1      28.590  31.143  23.684  1.00  0.00     0.016 C 
ENDBRANCH  17  18
ENDBRANCH  10  12
ENDBRANCH   9  10
ENDBRANCH   6   9
ENDBRANCH   3   6
ENDBRANCH   1   2
BRANCH   1  22
ATOM     22  C   UNL A   1      33.657  29.044  27.159  1.00  0.00     0.042 C 
BRANCH  22  23
ATOM     23  C   UNL A   1      35.082  29.148  27.681  1.00  0.00     0.118 C 
BRANCH  23  24
ATOM     24  N   UNL A   1      35.196  30.062  28.811  1.00  0.00    -0.352 N 
ATOM     25  C   UNL A   1      36.266  30.314  29.636  1.00  0.00     0.251 C 
ATOM     26  H   UNL A   1      34.383  30.578  29.014  1.00  0.00     0.163 HD
ATOM     27  O   UNL A   1      36.098  30.952  30.668  1.00  0.00    -0.269 OA
BRANCH  25  28
ATOM     28  C   UNL A   1      37.606  29.801  29.281  1.00  0.00     0.039 A 
ATOM     29  C   UNL A   1      38.021  29.844  27.948  1.00  0.00     0.014 A 
ATOM     30  C   UNL A   1      38.450  29.275  30.262  1.00  0.00     0.014 A 
ATOM     31  C   UNL A   1      39.310  29.422  27.614  1.00  0.00     0.010 A 
ATOM     32  C   UNL A   1      39.764  28.957  29.946  1.00  0.00     0.010 A 
ATOM     33  C   UNL A   1      40.205  29.012  28.617  1.00  0.00    -0.014 A 
BRANCH  33  34
ATOM     34  C   UNL A   1      41.601  28.620  28.297  1.00  0.00     0.031 A 
ATOM     35  C   UNL A   1      42.691  29.658  28.294  1.00  0.00     0.074 A 
ATOM     36  C   UNL A   1      41.873  27.349  27.948  1.00  0.00     0.049 A 
ATOM     37  N   UNL A   1      43.956  29.528  27.987  1.00  0.00    -0.248 NA
ATOM     38  C   UNL A   1      42.302  31.032  28.652  1.00  0.00     0.031 C 
ATOM     39  C   UNL A   1      40.892  26.265  27.867  1.00  0.00     0.029 A 
ATOM     40  N   UNL A   1      43.056  26.752  27.591  1.00  0.00    -0.354 N 
ATOM     41  C   UNL A   1      44.507  30.799  28.101  1.00  0.00     0.074 A 
ATOM     42  C   UNL A   1      43.425  31.698  28.437  1.00  0.00     0.031 C 
ATOM     43  C   UNL A   1      41.519  25.129  27.522  1.00  0.00     0.029 A 
ATOM     44  C   UNL A   1      42.935  25.410  27.313  1.00  0.00     0.049 A 
ATOM     45  H   UNL A   1      43.910  27.238  27.539  1.00  0.00     0.167 HD
ATOM     46  C   UNL A   1      45.800  31.179  27.970  1.00  0.00     0.037 A 
ATOM     47  C   UNL A   1      43.862  24.511  26.931  1.00  0.00     0.037 A 
ATOM     48  C   UNL A   1      46.872  30.272  27.646  1.00  0.00     0.049 A 
ATOM     49  C   UNL A   1      45.289  24.957  26.769  1.00  0.00     0.074 A 
ATOM     50  C   UNL A   1      48.224  30.542  27.535  1.00  0.00     0.029 A 
ATOM     51  N   UNL A   1      46.709  28.921  27.374  1.00  0.00    -0.354 N 
ATOM     52  N   UNL A   1      45.806  26.149  26.945  1.00  0.00    -0.248 NA
ATOM     53  C   UNL A   1      46.261  23.932  26.363  1.00  0.00     0.031 C 
ATOM     54  C   UNL A   1      48.872  29.366  27.143  1.00  0.00     0.029 A 
ATOM     55  C   UNL A   1      47.934  28.348  27.070  1.00  0.00     0.049 A 
ATOM     56  H   UNL A   1      45.851  28.440  27.393  1.00  0.00     0.167 HD
ATOM     57  C   UNL A   1      47.169  26.014  26.701  1.00  0.00     0.074 A 
ATOM     58  C   UNL A   1      47.395  24.620  26.376  1.00  0.00     0.031 C 
ATOM     59  C   UNL A   1      48.143  26.956  26.749  1.00  0.00     0.037 A 
BRANCH  46  60
ATOM     60  C   UNL A   1      46.116  32.639  28.170  1.00  0.00     0.058 A 
ATOM     61  C   UNL A   1      46.058  33.560  27.110  1.00  0.00     0.135 A 
ATOM     62  C   UNL A   1      46.485  33.125  29.435  1.00  0.00     0.135 A 
ATOM     63  F   UNL A   1      45.724  33.151  25.875  1.00  0.00    -0.206 F 
ATOM     64  C   UNL A   1      46.405  34.896  27.284  1.00  0.00     0.059 A 
ATOM     65  C   UNL A   1      46.802  34.465  29.639  1.00  0.00     0.059 A 
ATOM     66  F   UNL A   1      46.554  32.293  30.486  1.00  0.00    -0.206 F 
ATOM     67  C   UNL A   1      46.783  35.338  28.553  1.00  0.00     0.060 A 
BRANCH  67  68
ATOM     68  S   UNL A   1      47.258  37.067  28.756  1.00  0.00     0.124 S 
ATOM     69  O   UNL A   1      48.530  37.103  28.041  1.00  0.00    -0.237 OA
ATOM     70  O   UNL A   1      46.153  37.772  28.116  1.00  0.00    -0.237 OA
ATOM     71  O   UNL A   1      47.347  37.227  30.203  1.00  0.00    -0.744 OA
ENDBRANCH  67  68
ENDBRANCH  46  60
BRANCH  47  72
ATOM     72  C   UNL A   1      43.469  23.091  26.721  1.00  0.00     0.058 A 
ATOM     73  C   UNL A   1      43.447  22.536  25.434  1.00  0.00     0.135 A 
ATOM     74  C   UNL A   1      43.150  22.252  27.800  1.00  0.00     0.135 A 
ATOM     75  F   UNL A   1      43.739  23.299  24.370  1.00  0.00    -0.206 F 
ATOM     76  C   UNL A   1      43.118  21.202  25.219  1.00  0.00     0.059 A 
ATOM     77  C   UNL A   1      42.842  20.907  27.614  1.00  0.00     0.059 A 
ATOM     78  F   UNL A   1      43.171  22.730  29.054  1.00  0.00    -0.206 F 
ATOM     79  C   UNL A   1      42.824  20.393  26.318  1.00  0.00     0.060 A 
BRANCH  79  80
ATOM     80  S   UNL A   1      42.467  18.645  26.031  1.00  0.00     0.124 S 
ATOM     81  O   UNL A   1      41.037  18.678  25.749  1.00  0.00    -0.237 OA
ATOM     82  O   UNL A   1      43.336  18.340  24.898  1.00  0.00    -0.237 OA
ATOM     83  O   UNL A   1      42.848  18.012  27.291  1.00  0.00    -0.744 OA
ENDBRANCH  79  80
ENDBRANCH  47  72
BRANCH  59  84
ATOM     84  C   UNL A   1      49.555  26.507  26.480  1.00  0.00     0.058 A 
ATOM     85  C   UNL A   1      50.368  25.967  27.488  1.00  0.00     0.135 A 
ATOM     86  C   UNL A   1      50.082  26.573  25.178  1.00  0.00     0.135 A 
ATOM     87  F   UNL A   1      49.917  25.887  28.750  1.00  0.00    -0.206 F 
ATOM     88  C   UNL A   1      51.663  25.533  27.222  1.00  0.00     0.059 A 
ATOM     89  C   UNL A   1      51.361  26.115  24.884  1.00  0.00     0.059 A 
ATOM     90  F   UNL A   1      49.343  27.071  24.174  1.00  0.00    -0.206 F 
ATOM     91  C   UNL A   1      52.150  25.608  25.915  1.00  0.00     0.060 A 
BRANCH  91  92
ATOM     92  S   UNL A   1      53.820  25.012  25.578  1.00  0.00     0.124 S 
ATOM     93  O   UNL A   1      53.588  23.586  25.372  1.00  0.00    -0.237 OA
ATOM     94  O   UNL A   1      54.188  25.773  24.387  1.00  0.00    -0.237 OA
ATOM     95  O   UNL A   1      54.557  25.360  26.789  1.00  0.00    -0.744 OA
ENDBRANCH  91  92
ENDBRANCH  59  84
ENDBRANCH  33  34
ENDBRANCH  25  28
ENDBRANCH  23  24
ENDBRANCH  22  23
ENDBRANCH   1  22
TORSDOF 17
ENDMDL
MODEL 3
REMARK VINA RESULT:     -11.8      6.676     12.280
REMARK SMILES CC(C)(C[S@@](=O)c1ccc(C(C)(C)C)cc1)C(=O)NCCCNC(=O)c1ccc(-c2c3nc(c(-c4c(F)cc(S(=O)(=O)[O-])cc4F)c4ccc([nH]4)c(-c4c(F)cc(S(=O)(=O)[O-])cc4F)c4nc(c(-c5c(F)cc(S(=O)(=O)[O-])cc5F)c5ccc2[nH]5)C=C4)C=C3)cc1
REMARK SMILES IDX 20 1 19 2 17 3 18 4 2 6 1 7 3 8 4 9 5 10 6 11 7 12 8 13
REMARK SMILES IDX 16 14 9 15 15 16 10 17 11 18 12 19 13 20 14 21 21 22 22 23
REMARK SMILES IDX 23 24 24 25 25 27 26 28 27 29 91 30 28 31 90 32 29 33 30 34
REMARK SMILES IDX 31 35 84 36 32 37 89 38 83 39 85 40 33 41 88 42 82 43 81 44
REMARK SMILES IDX 34 46 68 47 47 48 67 49 48 50 51 51 66 52 86 53 49 54 50 55
REMARK SMILES IDX 65 57 87 58 52 59 35 60 36 61 45 62 37 63 38 64 44 65 46 66
REMARK SMILES IDX 39 67 40 68 41 69 42 70 43 71 69 72 70 73 79 74 71 75 72 76
REMARK SMILES IDX 78 77 80 78 73 79 74 80 75 81 76 82 77 83 53 84 54 85 63 86
REMARK SMILES IDX 55 87 56 88 62 89 64 90 57 91 58 92 59 93 60 94 61 95
REMARK H PARENT 19 5 23 26 85 45 51 56
REMARK Flexibility Score: inf
ROOT
ATOM      1  C   UNL A   1      33.977  28.059  26.436  1.00  0.00     0.117 C 
ENDROOT
BRANCH   1   2
ATOM      2  N   UNL A   1      32.722  27.353  26.625  1.00  0.00    -0.356 N 
ATOM      3  C   UNL A   1      31.615  27.211  25.860  1.00  0.00     0.226 C 
ATOM      4  O   UNL A   1      30.691  26.568  26.371  1.00  0.00    -0.274 OA
ATOM      5  H   UNL A   1      32.666  26.880  27.486  1.00  0.00     0.163 HD
BRANCH   3   6
ATOM      6  C   UNL A   1      31.482  27.812  24.452  1.00  0.00     0.055 C 
ATOM      7  C   UNL A   1      31.196  29.323  24.618  1.00  0.00     0.022 C 
ATOM      8  C   UNL A   1      30.229  27.262  23.733  1.00  0.00     0.022 C 
BRANCH   6   9
ATOM      9  C   UNL A   1      32.737  27.545  23.594  1.00  0.00     0.126 C 
BRANCH   9  10
ATOM     10  S   UNL A   1      32.617  26.186  22.391  1.00  0.00     0.054 S 
ATOM     11  O   UNL A   1      33.582  26.486  21.283  1.00  0.00    -0.254 OA
BRANCH  10  12
ATOM     12  C   UNL A   1      33.338  24.769  23.247  1.00  0.00     0.039 A 
ATOM     13  C   UNL A   1      33.126  23.502  22.697  1.00  0.00     0.018 A 
ATOM     14  C   UNL A   1      34.053  24.852  24.439  1.00  0.00     0.018 A 
ATOM     15  C   UNL A   1      33.524  22.348  23.382  1.00  0.00     0.005 A 
ATOM     16  C   UNL A   1      34.409  23.699  25.146  1.00  0.00     0.005 A 
ATOM     17  C   UNL A   1      34.121  22.421  24.653  1.00  0.00    -0.043 A 
BRANCH  17  18
ATOM     18  C   UNL A   1      34.494  21.153  25.435  1.00  0.00    -0.013 C 
ATOM     19  C   UNL A   1      35.916  20.665  25.077  1.00  0.00     0.016 C 
ATOM     20  C   UNL A   1      34.426  21.477  26.937  1.00  0.00     0.016 C 
ATOM     21  C   UNL A   1      33.545  19.962  25.152  1.00  0.00     0.016 C 
ENDBRANCH  17  18
ENDBRANCH  10  12
ENDBRANCH   9  10
ENDBRANCH   6   9
ENDBRANCH   3   6
ENDBRANCH   1   2
BRANCH   1  22
ATOM     22  C   UNL A   1      34.034  29.344  27.245  1.00  0.00     0.042 C 
BRANCH  22  23
ATOM     23  C   UNL A   1      35.421  29.676  27.771  1.00  0.00     0.118 C 
BRANCH  23  24
ATOM     24  N   UNL A   1      35.385  30.299  29.088  1.00  0.00    -0.352 N 
ATOM     25  C   UNL A   1      36.381  30.442  30.024  1.00  0.00     0.251 C 
ATOM     26  H   UNL A   1      34.512  30.675  29.348  1.00  0.00     0.163 HD
ATOM     27  O   UNL A   1      36.098  30.796  31.162  1.00  0.00    -0.269 OA
BRANCH  25  28
ATOM     28  C   UNL A   1      37.783  30.154  29.655  1.00  0.00     0.039 A 
ATOM     29  C   UNL A   1      38.718  29.914  30.666  1.00  0.00     0.014 A 
ATOM     30  C   UNL A   1      38.175  30.123  28.315  1.00  0.00     0.014 A 
ATOM     31  C   UNL A   1      40.029  29.577  30.325  1.00  0.00     0.010 A 
ATOM     32  C   UNL A   1      39.448  29.684  27.977  1.00  0.00     0.010 A 
ATOM     33  C   UNL A   1      40.394  29.421  28.976  1.00  0.00    -0.014 A 
BRANCH  33  34
ATOM     34  C   UNL A   1      41.764  28.999  28.588  1.00  0.00     0.031 A 
ATOM     35  C   UNL A   1      42.879  30.009  28.548  1.00  0.00     0.074 A 
ATOM     36  C   UNL A   1      41.988  27.726  28.210  1.00  0.00     0.049 A 
ATOM     37  N   UNL A   1      44.125  29.853  28.181  1.00  0.00    -0.248 NA
ATOM     38  C   UNL A   1      42.542  31.387  28.942  1.00  0.00     0.031 C 
ATOM     39  C   UNL A   1      40.976  26.668  28.159  1.00  0.00     0.029 A 
ATOM     40  N   UNL A   1      43.137  27.105  27.790  1.00  0.00    -0.354 N 
ATOM     41  C   UNL A   1      44.712  31.107  28.287  1.00  0.00     0.074 A 
ATOM     42  C   UNL A   1      43.670  32.028  28.684  1.00  0.00     0.031 C 
ATOM     43  C   UNL A   1      41.558  25.522  27.771  1.00  0.00     0.029 A 
ATOM     44  C   UNL A   1      42.970  25.772  27.500  1.00  0.00     0.049 A 
ATOM     45  H   UNL A   1      44.000  27.571  27.706  1.00  0.00     0.167 HD
ATOM     46  C   UNL A   1      46.008  31.457  28.101  1.00  0.00     0.037 A 
ATOM     47  C   UNL A   1      43.855  24.855  27.064  1.00  0.00     0.037 A 
ATOM     48  C   UNL A   1      47.040  30.529  27.716  1.00  0.00     0.049 A 
ATOM     49  C   UNL A   1      45.284  25.268  26.843  1.00  0.00     0.074 A 
ATOM     50  C   UNL A   1      48.392  30.767  27.547  1.00  0.00     0.029 A 
ATOM     51  N   UNL A   1      46.830  29.186  27.434  1.00  0.00    -0.354 N 
ATOM     52  N   UNL A   1      45.838  26.445  27.010  1.00  0.00    -0.248 NA
ATOM     53  C   UNL A   1      46.210  24.225  26.379  1.00  0.00     0.031 C 
ATOM     54  C   UNL A   1      48.991  29.580  27.109  1.00  0.00     0.029 A 
ATOM     55  C   UNL A   1      48.025  28.588  27.066  1.00  0.00     0.049 A 
ATOM     56  H   UNL A   1      45.962  28.726  27.486  1.00  0.00     0.167 HD
ATOM     57  C   UNL A   1      47.185  26.278  26.703  1.00  0.00     0.074 A 
ATOM     58  C   UNL A   1      47.361  24.885  26.349  1.00  0.00     0.031 C 
ATOM     59  C   UNL A   1      48.184  27.196  26.718  1.00  0.00     0.037 A 
BRANCH  46  60
ATOM     60  C   UNL A   1      46.369  32.906  28.305  1.00  0.00     0.058 A 
ATOM     61  C   UNL A   1      46.187  33.864  27.293  1.00  0.00     0.135 A 
ATOM     62  C   UNL A   1      46.907  33.344  29.526  1.00  0.00     0.135 A 
ATOM     63  F   UNL A   1      45.689  33.501  26.099  1.00  0.00    -0.206 F 
ATOM     64  C   UNL A   1      46.576  35.189  27.464  1.00  0.00     0.059 A 
ATOM     65  C   UNL A   1      47.269  34.672  29.732  1.00  0.00     0.059 A 
ATOM     66  F   UNL A   1      47.099  32.476  30.532  1.00  0.00    -0.206 F 
ATOM     67  C   UNL A   1      47.122  35.582  28.686  1.00  0.00     0.060 A 
BRANCH  67  68
ATOM     68  S   UNL A   1      47.646  37.298  28.882  1.00  0.00     0.124 S 
ATOM     69  O   UNL A   1      46.698  37.778  29.883  1.00  0.00    -0.237 OA
ATOM     70  O   UNL A   1      49.025  37.154  29.335  1.00  0.00    -0.237 OA
ATOM     71  O   UNL A   1      47.482  37.859  27.545  1.00  0.00    -0.744 OA
ENDBRANCH  67  68
ENDBRANCH  46  60
BRANCH  47  72
ATOM     72  C   UNL A   1      43.417  23.449  26.854  1.00  0.00     0.058 A 
ATOM     73  C   UNL A   1      43.281  22.926  25.560  1.00  0.00     0.135 A 
ATOM     74  C   UNL A   1      43.166  22.589  27.935  1.00  0.00     0.135 A 
ATOM     75  F   UNL A   1      43.505  23.709  24.494  1.00  0.00    -0.206 F 
ATOM     76  C   UNL A   1      42.908  21.604  25.342  1.00  0.00     0.059 A 
ATOM     77  C   UNL A   1      42.816  21.256  27.744  1.00  0.00     0.059 A 
ATOM     78  F   UNL A   1      43.296  23.036  29.194  1.00  0.00    -0.206 F 
ATOM     79  C   UNL A   1      42.685  20.774  26.442  1.00  0.00     0.060 A 
BRANCH  79  80
ATOM     80  S   UNL A   1      42.270  19.041  26.145  1.00  0.00     0.124 S 
ATOM     81  O   UNL A   1      40.867  19.135  25.759  1.00  0.00    -0.237 OA
ATOM     82  O   UNL A   1      43.203  18.684  25.080  1.00  0.00    -0.237 OA
ATOM     83  O   UNL A   1      42.530  18.406  27.434  1.00  0.00    -0.744 OA
ENDBRANCH  79  80
ENDBRANCH  47  72
BRANCH  59  84
ATOM     84  C   UNL A   1      49.570  26.716  26.378  1.00  0.00     0.058 A 
ATOM     85  C   UNL A   1      50.363  26.020  27.303  1.00  0.00     0.135 A 
ATOM     86  C   UNL A   1      50.090  26.913  25.087  1.00  0.00     0.135 A 
ATOM     87  F   UNL A   1      49.919  25.809  28.552  1.00  0.00    -0.206 F 
ATOM     88  C   UNL A   1      51.634  25.560  26.970  1.00  0.00     0.059 A 
ATOM     89  C   UNL A   1      51.343  26.434  24.723  1.00  0.00     0.059 A 
ATOM     90  F   UNL A   1      49.369  27.563  24.159  1.00  0.00    -0.206 F 
ATOM     91  C   UNL A   1      52.114  25.769  25.675  1.00  0.00     0.060 A 
BRANCH  91  92
ATOM     92  S   UNL A   1      53.750  25.139  25.247  1.00  0.00     0.124 S 
ATOM     93  O   UNL A   1      54.591  25.809  26.233  1.00  0.00    -0.237 OA
ATOM     94  O   UNL A   1      53.586  23.699  25.427  1.00  0.00    -0.237 OA
ATOM     95  O   UNL A   1      53.932  25.574  23.866  1.00  0.00    -0.744 OA
ENDBRANCH  91  92
ENDBRANCH  59  84
ENDBRANCH  33  34
ENDBRANCH  25  28
ENDBRANCH  23  24
ENDBRANCH  22  23
ENDBRANCH   1  22
TORSDOF 17
ENDMDL
