MODEL 1
REMARK VINA RESULT:     -13.5      0.000      0.000
REMARK SMILES O=C(NCCCNC(=O)[C@@H]1[C@H](C(=O)Nc2ccc(Cn3cncn3)cc2)[C@@H]2C=C[C@H]1CC2)c1ccc(-c2c3nc(c(-c4c(F)cc(S(=O)(=O)[O-])cc4F)c4ccc([nH]4)c(-c4c(F)cc(S(=O)(=O)[O-])cc4F)c4nc(c(-c5c(F)cc(S(=O)(=O)[O-])cc5F)c5ccc2[nH]5)C=C4)C=C3)cc1
REMARK SMILES IDX 5 1 4 2 3 3 1 4 2 5 33 7 34 8 98 9 35 10 97 11 36 12 37 13
REMARK SMILES IDX 38 14 91 15 39 16 96 17 90 18 92 19 40 20 95 21 89 22 88 23
REMARK SMILES IDX 41 25 75 26 54 27 74 28 55 29 58 30 73 31 93 32 56 33 57 34
REMARK SMILES IDX 72 36 94 37 59 38 42 39 43 40 52 41 44 42 45 43 51 44 53 45
REMARK SMILES IDX 46 46 47 47 48 48 49 49 50 50 76 51 77 52 86 53 78 54 79 55
REMARK SMILES IDX 85 56 87 57 80 58 81 59 82 60 83 61 84 62 60 63 61 64 70 65
REMARK SMILES IDX 62 66 63 67 69 68 71 69 64 70 65 71 66 72 67 73 68 74 6 75
REMARK SMILES IDX 7 76 8 77 9 79 10 80 11 81 30 82 27 83 29 84 31 85 28 86
REMARK SMILES IDX 32 87 12 88 13 89 14 90 15 92 16 93 26 94 17 95 25 96 18 97
REMARK SMILES IDX 19 98 20 99 21 100 24 101 22 102 23 103
REMARK H PARENT 3 6 92 24 58 35 7 78 14 91
REMARK Flexibility Score: inf
ROOT
ATOM      1  C   UNL A   1      35.891  23.223  24.394  1.00  0.00     0.042 C 
ENDROOT
BRANCH   1   2
ATOM      2  C   UNL A   1      36.444  22.824  25.766  1.00  0.00     0.118 C 
BRANCH   2   3
ATOM      3  N   UNL A   1      37.616  21.973  25.728  1.00  0.00    -0.352 N 
ATOM      4  O   UNL A   1      39.653  21.159  26.055  1.00  0.00    -0.269 OA
ATOM      5  C   UNL A   1      38.898  22.125  26.188  1.00  0.00     0.251 C 
ATOM      6  H   UNL A   1      37.459  21.110  25.280  1.00  0.00     0.163 HD
BRANCH   5   7
ATOM      7  C   UNL A   1      39.436  23.384  26.768  1.00  0.00     0.039 A 
ATOM      8  C   UNL A   1      38.823  24.637  26.683  1.00  0.00     0.014 A 
ATOM      9  C   UNL A   1      40.629  23.261  27.501  1.00  0.00     0.014 A 
ATOM     10  C   UNL A   1      39.425  25.757  27.262  1.00  0.00     0.010 A 
ATOM     11  C   UNL A   1      41.215  24.371  28.101  1.00  0.00     0.010 A 
ATOM     12  C   UNL A   1      40.628  25.630  27.964  1.00  0.00    -0.014 A 
BRANCH  12  13
ATOM     13  C   UNL A   1      41.169  26.798  28.671  1.00  0.00     0.031 A 
ATOM     14  C   UNL A   1      42.415  27.403  28.095  1.00  0.00     0.074 A 
ATOM     15  C   UNL A   1      40.484  27.459  29.627  1.00  0.00     0.049 A 
ATOM     16  N   UNL A   1      43.531  27.700  28.685  1.00  0.00    -0.248 NA
ATOM     17  C   UNL A   1      42.424  27.673  26.648  1.00  0.00     0.031 C 
ATOM     18  C   UNL A   1      39.108  27.213  30.067  1.00  0.00     0.029 A 
ATOM     19  N   UNL A   1      40.830  28.588  30.315  1.00  0.00    -0.354 N 
ATOM     20  C   UNL A   1      44.314  28.360  27.732  1.00  0.00     0.074 A 
ATOM     21  C   UNL A   1      43.633  28.204  26.474  1.00  0.00     0.031 C 
ATOM     22  C   UNL A   1      38.665  28.284  30.761  1.00  0.00     0.029 A 
ATOM     23  C   UNL A   1      39.757  29.229  30.922  1.00  0.00     0.049 A 
ATOM     24  H   UNL A   1      41.756  28.917  30.375  1.00  0.00     0.167 HD
ATOM     25  C   UNL A   1      45.376  29.148  28.067  1.00  0.00     0.037 A 
ATOM     26  C   UNL A   1      39.740  30.481  31.447  1.00  0.00     0.037 A 
ATOM     27  C   UNL A   1      45.860  28.853  29.390  1.00  0.00     0.049 A 
ATOM     28  C   UNL A   1      41.143  30.885  31.706  1.00  0.00     0.074 A 
ATOM     29  C   UNL A   1      46.359  27.730  30.020  1.00  0.00     0.029 A 
ATOM     30  N   UNL A   1      45.602  29.750  30.396  1.00  0.00    -0.354 N 
ATOM     31  N   UNL A   1      41.917  30.340  32.603  1.00  0.00    -0.248 NA
ATOM     32  C   UNL A   1      41.826  31.670  30.689  1.00  0.00     0.031 C 
ATOM     33  C   UNL A   1      45.905  27.828  31.368  1.00  0.00     0.029 A 
ATOM     34  C   UNL A   1      45.186  29.019  31.477  1.00  0.00     0.049 A 
ATOM     35  H   UNL A   1      45.697  30.729  30.350  1.00  0.00     0.167 HD
ATOM     36  C   UNL A   1      43.184  30.364  32.042  1.00  0.00     0.074 A 
ATOM     37  C   UNL A   1      43.084  31.290  30.920  1.00  0.00     0.031 C 
ATOM     38  C   UNL A   1      44.124  29.427  32.367  1.00  0.00     0.037 A 
BRANCH  25  39
ATOM     39  C   UNL A   1      45.780  30.413  27.330  1.00  0.00     0.058 A 
ATOM     40  C   UNL A   1      47.148  30.661  27.074  1.00  0.00     0.135 A 
ATOM     41  C   UNL A   1      44.922  31.519  27.143  1.00  0.00     0.135 A 
ATOM     42  F   UNL A   1      48.059  29.683  27.203  1.00  0.00    -0.206 F 
ATOM     43  C   UNL A   1      47.636  31.934  26.769  1.00  0.00     0.059 A 
ATOM     44  C   UNL A   1      45.382  32.783  26.786  1.00  0.00     0.059 A 
ATOM     45  F   UNL A   1      43.610  31.456  27.394  1.00  0.00    -0.206 F 
ATOM     46  C   UNL A   1      46.745  32.995  26.658  1.00  0.00     0.060 A 
BRANCH  46  47
ATOM     47  S   UNL A   1      47.380  34.667  26.438  1.00  0.00     0.124 S 
ATOM     48  O   UNL A   1      46.235  35.466  26.860  1.00  0.00    -0.237 OA
ATOM     49  O   UNL A   1      48.532  34.678  27.333  1.00  0.00    -0.237 OA
ATOM     50  O   UNL A   1      47.698  34.719  25.014  1.00  0.00    -0.744 OA
ENDBRANCH  46  47
ENDBRANCH  25  39
BRANCH  26  51
ATOM     51  C   UNL A   1      38.616  31.455  31.441  1.00  0.00     0.058 A 
ATOM     52  C   UNL A   1      38.006  31.866  30.243  1.00  0.00     0.135 A 
ATOM     53  C   UNL A   1      37.942  31.802  32.631  1.00  0.00     0.135 A 
ATOM     54  F   UNL A   1      38.559  31.554  29.061  1.00  0.00    -0.206 F 
ATOM     55  C   UNL A   1      36.784  32.551  30.225  1.00  0.00     0.059 A 
ATOM     56  C   UNL A   1      36.735  32.496  32.637  1.00  0.00     0.059 A 
ATOM     57  F   UNL A   1      38.395  31.395  33.827  1.00  0.00    -0.206 F 
ATOM     58  C   UNL A   1      36.148  32.848  31.430  1.00  0.00     0.060 A 
BRANCH  58  59
ATOM     59  S   UNL A   1      34.500  33.590  31.411  1.00  0.00     0.124 S 
ATOM     60  O   UNL A   1      33.797  32.788  32.405  1.00  0.00    -0.237 OA
ATOM     61  O   UNL A   1      34.778  34.972  31.786  1.00  0.00    -0.237 OA
ATOM     62  O   UNL A   1      34.058  33.399  30.031  1.00  0.00    -0.744 OA
ENDBRANCH  58  59
ENDBRANCH  26  51
BRANCH  38  63
ATOM     63  C   UNL A   1      43.892  28.565  33.580  1.00  0.00     0.058 A 
ATOM     64  C   UNL A   1      44.266  28.927  34.884  1.00  0.00     0.135 A 
ATOM     65  C   UNL A   1      43.107  27.411  33.434  1.00  0.00     0.135 A 
ATOM     66  F   UNL A   1      44.925  30.070  35.123  1.00  0.00    -0.206 F 
ATOM     67  C   UNL A   1      43.906  28.157  35.992  1.00  0.00     0.059 A 
ATOM     68  C   UNL A   1      42.710  26.645  34.528  1.00  0.00     0.059 A 
ATOM     69  F   UNL A   1      42.663  27.047  32.219  1.00  0.00    -0.206 F 
ATOM     70  C   UNL A   1      43.122  27.020  35.805  1.00  0.00     0.060 A 
BRANCH  70  71
ATOM     71  S   UNL A   1      42.565  26.086  37.247  1.00  0.00     0.124 S 
ATOM     72  O   UNL A   1      43.294  26.740  38.334  1.00  0.00    -0.237 OA
ATOM     73  O   UNL A   1      41.118  26.315  37.236  1.00  0.00    -0.237 OA
ATOM     74  O   UNL A   1      42.972  24.723  36.953  1.00  0.00    -0.744 OA
ENDBRANCH  70  71
ENDBRANCH  38  63
ENDBRANCH  12  13
ENDBRANCH   5   7
ENDBRANCH   2   3
ENDBRANCH   1   2
BRANCH   1  75
ATOM     75  C   UNL A   1      34.674  24.167  24.385  1.00  0.00     0.117 C 
BRANCH  75  76
ATOM     76  N   UNL A   1      34.187  24.596  23.072  1.00  0.00    -0.356 N 
ATOM     77  C   UNL A   1      33.542  25.721  22.641  1.00  0.00     0.224 C 
ATOM     78  H   UNL A   1      34.358  23.943  22.357  1.00  0.00     0.163 HD
ATOM     79  O   UNL A   1      33.609  25.940  21.429  1.00  0.00    -0.275 OA
BRANCH  77  80
ATOM     80  C   UNL A   1      32.784  26.648  23.585  1.00  0.00     0.098 C 
ATOM     81  C   UNL A   1      31.680  26.106  24.546  1.00  0.00     0.098 C 
ATOM     82  C   UNL A   1      32.208  27.916  22.831  1.00  0.00     0.025 C 
ATOM     83  C   UNL A   1      30.698  27.301  24.847  1.00  0.00     0.025 C 
ATOM     84  C   UNL A   1      30.726  27.782  22.504  1.00  0.00    -0.027 C 
ATOM     85  C   UNL A   1      32.235  29.075  23.852  1.00  0.00     0.009 C 
ATOM     86  C   UNL A   1      29.935  27.541  23.562  1.00  0.00    -0.027 C 
ATOM     87  C   UNL A   1      31.482  28.615  25.127  1.00  0.00     0.009 C 
BRANCH  81  88
ATOM     88  C   UNL A   1      30.806  24.889  24.132  1.00  0.00     0.228 C 
ATOM     89  O   UNL A   1      30.350  24.795  22.994  1.00  0.00    -0.274 OA
ATOM     90  N   UNL A   1      30.609  23.912  25.084  1.00  0.00    -0.326 N 
ATOM     91  H   UNL A   1      29.995  24.079  25.836  1.00  0.00     0.169 HD
BRANCH  90  92
ATOM     92  C   UNL A   1      31.275  22.680  24.993  1.00  0.00     0.041 A 
ATOM     93  C   UNL A   1      31.558  22.091  23.765  1.00  0.00     0.026 A 
ATOM     94  C   UNL A   1      31.839  22.177  26.169  1.00  0.00     0.026 A 
ATOM     95  C   UNL A   1      32.526  21.097  23.691  1.00  0.00     0.008 A 
ATOM     96  C   UNL A   1      32.842  21.220  26.090  1.00  0.00     0.008 A 
ATOM     97  C   UNL A   1      33.226  20.710  24.843  1.00  0.00    -0.026 A 
BRANCH  97  98
ATOM     98  C   UNL A   1      34.402  19.779  24.741  1.00  0.00     0.181 C 
BRANCH  98  99
ATOM     99  N   UNL A   1      33.971  18.399  24.749  1.00  0.00    -0.249 N 
ATOM    100  C   UNL A   1      32.790  17.904  25.206  1.00  0.00     0.220 A 
ATOM    101  N   UNL A   1      34.760  17.416  24.271  1.00  0.00    -0.160 NA
ATOM    102  N   UNL A   1      32.772  16.601  25.046  1.00  0.00    -0.224 NA
ATOM    103  C   UNL A   1      33.991  16.346  24.487  1.00  0.00     0.246 A 
ENDBRANCH  98  99
ENDBRANCH  97  98
ENDBRANCH  90  92
ENDBRANCH  81  88
ENDBRANCH  77  80
ENDBRANCH  75  76
ENDBRANCH   1  75
TORSDOF 17
ENDMDL
MODEL 2
REMARK VINA RESULT:     -13.4      3.003      9.285
REMARK SMILES O=C(NCCCNC(=O)[C@@H]1[C@H](C(=O)Nc2ccc(Cn3cncn3)cc2)[C@@H]2C=C[C@H]1CC2)c1ccc(-c2c3nc(c(-c4c(F)cc(S(=O)(=O)[O-])cc4F)c4ccc([nH]4)c(-c4c(F)cc(S(=O)(=O)[O-])cc4F)c4nc(c(-c5c(F)cc(S(=O)(=O)[O-])cc5F)c5ccc2[nH]5)C=C4)C=C3)cc1
REMARK SMILES IDX 5 1 4 2 3 3 1 4 2 5 33 7 34 8 98 9 35 10 97 11 36 12 37 13
REMARK SMILES IDX 38 14 91 15 39 16 96 17 90 18 92 19 40 20 95 21 89 22 88 23
REMARK SMILES IDX 41 25 75 26 54 27 74 28 55 29 58 30 73 31 93 32 56 33 57 34
REMARK SMILES IDX 72 36 94 37 59 38 42 39 43 40 52 41 44 42 45 43 51 44 53 45
REMARK SMILES IDX 46 46 47 47 48 48 49 49 50 50 76 51 77 52 86 53 78 54 79 55
REMARK SMILES IDX 85 56 87 57 80 58 81 59 82 60 83 61 84 62 60 63 61 64 70 65
REMARK SMILES IDX 62 66 63 67 69 68 71 69 64 70 65 71 66 72 67 73 68 74 6 75
REMARK SMILES IDX 7 76 8 77 9 79 10 80 11 81 30 82 27 83 29 84 31 85 28 86
REMARK SMILES IDX 32 87 12 88 13 89 14 90 15 92 16 93 26 94 17 95 25 96 18 97
REMARK SMILES IDX 19 98 20 99 21 100 24 101 22 102 23 103
REMARK H PARENT 3 6 92 24 58 35 7 78 14 91
REMARK Flexibility Score: inf
ROOT
ATOM      1  C   UNL A   1      32.759  28.381  26.988  1.00  0.00     0.042 C 
ENDROOT
BRANCH   1   2
ATOM      2  C   UNL A   1      33.499  29.581  26.388  1.00  0.00     0.118 C 
BRANCH   2   3
ATOM      3  N   UNL A   1      33.428  30.796  27.172  1.00  0.00    -0.352 N 
ATOM      4  O   UNL A   1      33.972  32.535  28.436  1.00  0.00    -0.269 OA
ATOM      5  C   UNL A   1      34.338  31.463  27.949  1.00  0.00     0.251 C 
ATOM      6  H   UNL A   1      32.545  31.232  27.140  1.00  0.00     0.163 HD
BRANCH   5   7
ATOM      7  C   UNL A   1      35.692  30.946  28.284  1.00  0.00     0.039 A 
ATOM      8  C   UNL A   1      36.117  29.627  28.109  1.00  0.00     0.014 A 
ATOM      9  C   UNL A   1      36.612  31.897  28.758  1.00  0.00     0.014 A 
ATOM     10  C   UNL A   1      37.415  29.250  28.465  1.00  0.00     0.010 A 
ATOM     11  C   UNL A   1      37.913  31.529  29.088  1.00  0.00     0.010 A 
ATOM     12  C   UNL A   1      38.313  30.198  28.966  1.00  0.00    -0.014 A 
BRANCH  12  13
ATOM     13  C   UNL A   1      39.706  29.801  29.209  1.00  0.00     0.031 A 
ATOM     14  C   UNL A   1      40.102  29.616  30.643  1.00  0.00     0.074 A 
ATOM     15  C   UNL A   1      40.532  29.383  28.227  1.00  0.00     0.049 A 
ATOM     16  N   UNL A   1      41.113  30.112  31.287  1.00  0.00    -0.248 NA
ATOM     17  C   UNL A   1      39.217  28.793  31.483  1.00  0.00     0.031 C 
ATOM     18  C   UNL A   1      40.200  29.168  26.815  1.00  0.00     0.029 A 
ATOM     19  N   UNL A   1      41.817  28.925  28.314  1.00  0.00    -0.354 N 
ATOM     20  C   UNL A   1      41.098  29.523  32.555  1.00  0.00     0.074 A 
ATOM     21  C   UNL A   1      39.847  28.820  32.657  1.00  0.00     0.031 C 
ATOM     22  C   UNL A   1      41.165  28.418  26.241  1.00  0.00     0.029 A 
ATOM     23  C   UNL A   1      42.235  28.207  27.201  1.00  0.00     0.049 A 
ATOM     24  H   UNL A   1      42.393  29.089  29.095  1.00  0.00     0.167 HD
ATOM     25  C   UNL A   1      42.192  29.498  33.370  1.00  0.00     0.037 A 
ATOM     26  C   UNL A   1      43.340  27.426  27.097  1.00  0.00     0.037 A 
ATOM     27  C   UNL A   1      43.154  30.502  32.999  1.00  0.00     0.049 A 
ATOM     28  C   UNL A   1      44.281  27.821  28.174  1.00  0.00     0.074 A 
ATOM     29  C   UNL A   1      43.136  31.879  32.889  1.00  0.00     0.029 A 
ATOM     30  N   UNL A   1      44.311  30.102  32.379  1.00  0.00    -0.354 N 
ATOM     31  N   UNL A   1      44.895  28.970  28.235  1.00  0.00    -0.248 NA
ATOM     32  C   UNL A   1      44.256  27.062  29.414  1.00  0.00     0.031 C 
ATOM     33  C   UNL A   1      44.001  32.174  31.795  1.00  0.00     0.029 A 
ATOM     34  C   UNL A   1      44.511  30.961  31.331  1.00  0.00     0.049 A 
ATOM     35  H   UNL A   1      44.884  29.344  32.636  1.00  0.00     0.167 HD
ATOM     36  C   UNL A   1      44.970  29.263  29.587  1.00  0.00     0.074 A 
ATOM     37  C   UNL A   1      44.664  28.007  30.264  1.00  0.00     0.031 C 
ATOM     38  C   UNL A   1      45.003  30.553  30.035  1.00  0.00     0.037 A 
BRANCH  25  39
ATOM     39  C   UNL A   1      42.547  28.355  34.304  1.00  0.00     0.058 A 
ATOM     40  C   UNL A   1      42.688  28.606  35.689  1.00  0.00     0.135 A 
ATOM     41  C   UNL A   1      43.050  27.110  33.864  1.00  0.00     0.135 A 
ATOM     42  F   UNL A   1      42.235  29.749  36.227  1.00  0.00    -0.206 F 
ATOM     43  C   UNL A   1      43.375  27.741  36.543  1.00  0.00     0.059 A 
ATOM     44  C   UNL A   1      43.690  26.210  34.710  1.00  0.00     0.059 A 
ATOM     45  F   UNL A   1      43.036  26.749  32.576  1.00  0.00    -0.206 F 
ATOM     46  C   UNL A   1      43.899  26.558  36.034  1.00  0.00     0.060 A 
BRANCH  46  47
ATOM     47  S   UNL A   1      44.933  25.522  37.085  1.00  0.00     0.124 S 
ATOM     48  O   UNL A   1      43.933  24.882  37.932  1.00  0.00    -0.237 OA
ATOM     49  O   UNL A   1      45.594  24.659  36.112  1.00  0.00    -0.237 OA
ATOM     50  O   UNL A   1      45.804  26.486  37.752  1.00  0.00    -0.744 OA
ENDBRANCH  46  47
ENDBRANCH  25  39
BRANCH  26  51
ATOM     51  C   UNL A   1      43.492  26.162  26.329  1.00  0.00     0.058 A 
ATOM     52  C   UNL A   1      44.553  25.974  25.425  1.00  0.00     0.135 A 
ATOM     53  C   UNL A   1      42.750  25.008  26.661  1.00  0.00     0.135 A 
ATOM     54  F   UNL A   1      45.332  27.008  25.074  1.00  0.00    -0.206 F 
ATOM     55  C   UNL A   1      44.879  24.714  24.908  1.00  0.00     0.059 A 
ATOM     56  C   UNL A   1      43.047  23.749  26.148  1.00  0.00     0.059 A 
ATOM     57  F   UNL A   1      41.766  25.057  27.572  1.00  0.00    -0.206 F 
ATOM     58  C   UNL A   1      44.127  23.603  25.288  1.00  0.00     0.060 A 
BRANCH  58  59
ATOM     59  S   UNL A   1      44.636  21.953  24.752  1.00  0.00     0.124 S 
ATOM     60  O   UNL A   1      44.636  22.095  23.300  1.00  0.00    -0.237 OA
ATOM     61  O   UNL A   1      45.945  21.814  25.379  1.00  0.00    -0.237 OA
ATOM     62  O   UNL A   1      43.594  21.084  25.292  1.00  0.00    -0.744 OA
ENDBRANCH  58  59
ENDBRANCH  26  51
BRANCH  38  63
ATOM     63  C   UNL A   1      45.291  31.651  29.047  1.00  0.00     0.058 A 
ATOM     64  C   UNL A   1      46.584  32.065  28.685  1.00  0.00     0.135 A 
ATOM     65  C   UNL A   1      44.219  32.181  28.312  1.00  0.00     0.135 A 
ATOM     66  F   UNL A   1      47.668  31.528  29.263  1.00  0.00    -0.206 F 
ATOM     67  C   UNL A   1      46.800  32.991  27.663  1.00  0.00     0.059 A 
ATOM     68  C   UNL A   1      44.412  33.083  27.268  1.00  0.00     0.059 A 
ATOM     69  F   UNL A   1      42.963  31.777  28.567  1.00  0.00    -0.206 F 
ATOM     70  C   UNL A   1      45.707  33.491  26.955  1.00  0.00     0.060 A 
BRANCH  70  71
ATOM     71  S   UNL A   1      45.995  34.604  25.563  1.00  0.00     0.124 S 
ATOM     72  O   UNL A   1      45.057  34.092  24.564  1.00  0.00    -0.237 OA
ATOM     73  O   UNL A   1      45.656  35.913  26.126  1.00  0.00    -0.237 OA
ATOM     74  O   UNL A   1      47.401  34.415  25.254  1.00  0.00    -0.744 OA
ENDBRANCH  70  71
ENDBRANCH  38  63
ENDBRANCH  12  13
ENDBRANCH   5   7
ENDBRANCH   2   3
ENDBRANCH   1   2
BRANCH   1  75
ATOM     75  C   UNL A   1      33.036  27.006  26.352  1.00  0.00     0.117 C 
BRANCH  75  76
ATOM     76  N   UNL A   1      31.941  26.034  26.386  1.00  0.00    -0.356 N 
ATOM     77  C   UNL A   1      31.904  24.677  26.539  1.00  0.00     0.224 C 
ATOM     78  H   UNL A   1      31.052  26.442  26.275  1.00  0.00     0.163 HD
ATOM     79  O   UNL A   1      30.819  24.212  26.897  1.00  0.00    -0.275 OA
BRANCH  77  80
ATOM     80  C   UNL A   1      33.116  23.788  26.284  1.00  0.00     0.098 C 
ATOM     81  C   UNL A   1      33.794  23.719  24.880  1.00  0.00     0.098 C 
ATOM     82  C   UNL A   1      32.879  22.307  26.795  1.00  0.00     0.025 C 
ATOM     83  C   UNL A   1      34.506  22.317  24.775  1.00  0.00     0.025 C 
ATOM     84  C   UNL A   1      32.508  21.350  25.669  1.00  0.00    -0.027 C 
ATOM     85  C   UNL A   1      34.257  21.784  27.257  1.00  0.00     0.009 C 
ATOM     86  C   UNL A   1      33.393  21.298  24.659  1.00  0.00    -0.027 C 
ATOM     87  C   UNL A   1      35.262  21.971  26.090  1.00  0.00     0.009 C 
BRANCH  81  88
ATOM     88  C   UNL A   1      32.949  23.900  23.589  1.00  0.00     0.228 C 
ATOM     89  O   UNL A   1      31.996  23.161  23.346  1.00  0.00    -0.274 OA
ATOM     90  N   UNL A   1      33.292  24.949  22.762  1.00  0.00    -0.326 N 
ATOM     91  H   UNL A   1      34.103  24.887  22.206  1.00  0.00     0.169 HD
BRANCH  90  92
ATOM     92  C   UNL A   1      32.497  26.104  22.705  1.00  0.00     0.041 A 
ATOM     93  C   UNL A   1      31.130  26.064  22.951  1.00  0.00     0.026 A 
ATOM     94  C   UNL A   1      33.167  27.328  22.612  1.00  0.00     0.026 A 
ATOM     95  C   UNL A   1      30.455  27.239  23.260  1.00  0.00     0.008 A 
ATOM     96  C   UNL A   1      32.505  28.496  22.969  1.00  0.00     0.008 A 
ATOM     97  C   UNL A   1      31.156  28.450  23.344  1.00  0.00    -0.026 A 
BRANCH  97  98
ATOM     98  C   UNL A   1      30.477  29.687  23.862  1.00  0.00     0.181 C 
BRANCH  98  99
ATOM     99  N   UNL A   1      29.379  30.071  23.005  1.00  0.00    -0.249 N 
ATOM    100  C   UNL A   1      28.134  30.469  23.383  1.00  0.00     0.220 A 
ATOM    101  N   UNL A   1      29.503  30.069  21.662  1.00  0.00    -0.160 NA
ATOM    102  N   UNL A   1      27.416  30.731  22.315  1.00  0.00    -0.224 NA
ATOM    103  C   UNL A   1      28.282  30.464  21.293  1.00  0.00     0.246 A 
ENDBRANCH  98  99
ENDBRANCH  97  98
ENDBRANCH  90  92
ENDBRANCH  81  88
ENDBRANCH  77  80
ENDBRANCH  75  76
ENDBRANCH   1  75
TORSDOF 17
ENDMDL
MODEL 3
REMARK VINA RESULT:     -12.9      3.159      9.525
REMARK SMILES O=C(NCCCNC(=O)[C@@H]1[C@H](C(=O)Nc2ccc(Cn3cncn3)cc2)[C@@H]2C=C[C@H]1CC2)c1ccc(-c2c3nc(c(-c4c(F)cc(S(=O)(=O)[O-])cc4F)c4ccc([nH]4)c(-c4c(F)cc(S(=O)(=O)[O-])cc4F)c4nc(c(-c5c(F)cc(S(=O)(=O)[O-])cc5F)c5ccc2[nH]5)C=C4)C=C3)cc1
REMARK SMILES IDX 5 1 4 2 3 3 1 4 2 5 33 7 34 8 98 9 35 10 97 11 36 12 37 13
REMARK SMILES IDX 38 14 91 15 39 16 96 17 90 18 92 19 40 20 95 21 89 22 88 23
REMARK SMILES IDX 41 25 75 26 54 27 74 28 55 29 58 30 73 31 93 32 56 33 57 34
REMARK SMILES IDX 72 36 94 37 59 38 42 39 43 40 52 41 44 42 45 43 51 44 53 45
REMARK SMILES IDX 46 46 47 47 48 48 49 49 50 50 76 51 77 52 86 53 78 54 79 55
REMARK SMILES IDX 85 56 87 57 80 58 81 59 82 60 83 61 84 62 60 63 61 64 70 65
REMARK SMILES IDX 62 66 63 67 69 68 71 69 64 70 65 71 66 72 67 73 68 74 6 75
REMARK SMILES IDX 7 76 8 77 9 79 10 80 11 81 30 82 27 83 29 84 31 85 28 86
REMARK SMILES IDX 32 87 12 88 13 89 14 90 15 92 16 93 26 94 17 95 25 96 18 97
REMARK SMILES IDX 19 98 20 99 21 100 24 101 22 102 23 103
REMARK H PARENT 3 6 92 24 58 35 7 78 14 91
REMARK Flexibility Score: inf
ROOT
ATOM      1  C   UNL A   1      33.121  28.111  26.737  1.00  0.00     0.042 C 
ENDROOT
BRANCH   1   2
ATOM      2  C   UNL A   1      33.624  29.448  26.182  1.00  0.00     0.118 C 
BRANCH   2   3
ATOM      3  N   UNL A   1      33.399  30.590  27.043  1.00  0.00    -0.352 N 
ATOM      4  O   UNL A   1      33.721  32.321  28.392  1.00  0.00    -0.269 OA
ATOM      5  C   UNL A   1      34.229  31.352  27.823  1.00  0.00     0.251 C 
ATOM      6  H   UNL A   1      32.458  30.878  27.075  1.00  0.00     0.163 HD
BRANCH   5   7
ATOM      7  C   UNL A   1      35.664  31.044  28.069  1.00  0.00     0.039 A 
ATOM      8  C   UNL A   1      36.608  31.945  28.567  1.00  0.00     0.014 A 
ATOM      9  C   UNL A   1      36.056  29.717  27.823  1.00  0.00     0.014 A 
ATOM     10  C   UNL A   1      37.935  31.547  28.752  1.00  0.00     0.010 A 
ATOM     11  C   UNL A   1      37.371  29.311  28.033  1.00  0.00     0.010 A 
ATOM     12  C   UNL A   1      38.322  30.232  28.475  1.00  0.00    -0.014 A 
BRANCH  12  13
ATOM     13  C   UNL A   1      39.689  29.807  28.802  1.00  0.00     0.031 A 
ATOM     14  C   UNL A   1      40.045  29.779  30.258  1.00  0.00     0.074 A 
ATOM     15  C   UNL A   1      40.517  29.238  27.900  1.00  0.00     0.049 A 
ATOM     16  N   UNL A   1      41.064  30.305  30.866  1.00  0.00    -0.248 NA
ATOM     17  C   UNL A   1      39.104  29.102  31.166  1.00  0.00     0.031 C 
ATOM     18  C   UNL A   1      40.206  28.870  26.515  1.00  0.00     0.029 A 
ATOM     19  N   UNL A   1      41.776  28.739  28.076  1.00  0.00    -0.354 N 
ATOM     20  C   UNL A   1      40.994  29.874  32.194  1.00  0.00     0.074 A 
ATOM     21  C   UNL A   1      39.709  29.243  32.345  1.00  0.00     0.031 C 
ATOM     22  C   UNL A   1      41.147  28.014  26.062  1.00  0.00     0.029 A 
ATOM     23  C   UNL A   1      42.185  27.874  27.068  1.00  0.00     0.049 A 
ATOM     24  H   UNL A   1      42.343  28.970  28.847  1.00  0.00     0.167 HD
ATOM     25  C   UNL A   1      42.067  29.900  33.036  1.00  0.00     0.037 A 
ATOM     26  C   UNL A   1      43.255  27.038  27.089  1.00  0.00     0.037 A 
ATOM     27  C   UNL A   1      43.083  30.808  32.574  1.00  0.00     0.049 A 
ATOM     28  C   UNL A   1      44.189  27.519  28.136  1.00  0.00     0.074 A 
ATOM     29  C   UNL A   1      43.132  32.161  32.300  1.00  0.00     0.029 A 
ATOM     30  N   UNL A   1      44.233  30.286  32.038  1.00  0.00    -0.354 N 
ATOM     31  N   UNL A   1      44.855  28.639  28.076  1.00  0.00    -0.248 NA
ATOM     32  C   UNL A   1      44.101  26.917  29.457  1.00  0.00     0.031 C 
ATOM     33  C   UNL A   1      44.033  32.285  31.202  1.00  0.00     0.029 A 
ATOM     34  C   UNL A   1      44.496  31.004  30.901  1.00  0.00     0.049 A 
ATOM     35  H   UNL A   1      44.765  29.541  32.399  1.00  0.00     0.167 HD
ATOM     36  C   UNL A   1      44.914  29.089  29.386  1.00  0.00     0.074 A 
ATOM     37  C   UNL A   1      44.534  27.939  30.198  1.00  0.00     0.031 C 
ATOM     38  C   UNL A   1      44.997  30.421  29.677  1.00  0.00     0.037 A 
BRANCH  25  39
ATOM     39  C   UNL A   1      42.348  28.863  34.109  1.00  0.00     0.058 A 
ATOM     40  C   UNL A   1      42.588  27.521  33.735  1.00  0.00     0.135 A 
ATOM     41  C   UNL A   1      42.090  29.067  35.483  1.00  0.00     0.135 A 
ATOM     42  F   UNL A   1      42.859  27.203  32.459  1.00  0.00    -0.206 F 
ATOM     43  C   UNL A   1      42.466  26.457  34.632  1.00  0.00     0.059 A 
ATOM     44  C   UNL A   1      42.019  28.026  36.404  1.00  0.00     0.059 A 
ATOM     45  F   UNL A   1      41.795  30.272  35.983  1.00  0.00    -0.206 F 
ATOM     46  C   UNL A   1      42.151  26.721  35.959  1.00  0.00     0.060 A 
BRANCH  46  47
ATOM     47  S   UNL A   1      41.822  25.350  37.081  1.00  0.00     0.124 S 
ATOM     48  O   UNL A   1      40.615  25.815  37.756  1.00  0.00    -0.237 OA
ATOM     49  O   UNL A   1      41.648  24.233  36.159  1.00  0.00    -0.237 OA
ATOM     50  O   UNL A   1      43.026  25.294  37.905  1.00  0.00    -0.744 OA
ENDBRANCH  46  47
ENDBRANCH  25  39
BRANCH  26  51
ATOM     51  C   UNL A   1      43.364  25.685  26.482  1.00  0.00     0.058 A 
ATOM     52  C   UNL A   1      44.221  25.435  25.395  1.00  0.00     0.135 A 
ATOM     53  C   UNL A   1      42.829  24.548  27.123  1.00  0.00     0.135 A 
ATOM     54  F   UNL A   1      44.801  26.454  24.743  1.00  0.00    -0.206 F 
ATOM     55  C   UNL A   1      44.553  24.136  24.990  1.00  0.00     0.059 A 
ATOM     56  C   UNL A   1      43.132  23.248  26.728  1.00  0.00     0.059 A 
ATOM     57  F   UNL A   1      42.061  24.668  28.217  1.00  0.00    -0.206 F 
ATOM     58  C   UNL A   1      44.014  23.047  25.675  1.00  0.00     0.060 A 
BRANCH  58  59
ATOM     59  S   UNL A   1      44.558  21.373  25.262  1.00  0.00     0.124 S 
ATOM     60  O   UNL A   1      44.517  21.394  23.804  1.00  0.00    -0.237 OA
ATOM     61  O   UNL A   1      45.887  21.323  25.862  1.00  0.00    -0.237 OA
ATOM     62  O   UNL A   1      43.557  20.523  25.901  1.00  0.00    -0.744 OA
ENDBRANCH  58  59
ENDBRANCH  26  51
BRANCH  38  63
ATOM     63  C   UNL A   1      45.357  31.379  28.572  1.00  0.00     0.058 A 
ATOM     64  C   UNL A   1      44.438  31.880  27.636  1.00  0.00     0.135 A 
ATOM     65  C   UNL A   1      46.642  31.942  28.575  1.00  0.00     0.135 A 
ATOM     66  F   UNL A   1      43.161  31.473  27.635  1.00  0.00    -0.206 F 
ATOM     67  C   UNL A   1      44.791  32.871  26.718  1.00  0.00     0.059 A 
ATOM     68  C   UNL A   1      47.007  32.954  27.689  1.00  0.00     0.059 A 
ATOM     69  F   UNL A   1      47.547  31.551  29.488  1.00  0.00    -0.206 F 
ATOM     70  C   UNL A   1      46.078  33.407  26.756  1.00  0.00     0.060 A 
BRANCH  70  71
ATOM     71  S   UNL A   1      46.499  34.764  25.643  1.00  0.00     0.124 S 
ATOM     72  O   UNL A   1      45.577  34.544  24.529  1.00  0.00    -0.237 OA
ATOM     73  O   UNL A   1      46.221  35.947  26.462  1.00  0.00    -0.237 OA
ATOM     74  O   UNL A   1      47.903  34.542  25.344  1.00  0.00    -0.744 OA
ENDBRANCH  70  71
ENDBRANCH  38  63
ENDBRANCH  12  13
ENDBRANCH   5   7
ENDBRANCH   2   3
ENDBRANCH   1   2
BRANCH   1  75
ATOM     75  C   UNL A   1      33.462  26.849  25.922  1.00  0.00     0.117 C 
BRANCH  75  76
ATOM     76  N   UNL A   1      33.739  27.044  24.497  1.00  0.00    -0.356 N 
ATOM     77  C   UNL A   1      33.474  26.294  23.386  1.00  0.00     0.224 C 
ATOM     78  H   UNL A   1      34.213  27.884  24.301  1.00  0.00     0.163 HD
ATOM     79  O   UNL A   1      33.500  26.905  22.314  1.00  0.00    -0.275 OA
BRANCH  77  80
ATOM     80  C   UNL A   1      33.170  24.801  23.455  1.00  0.00     0.098 C 
ATOM     81  C   UNL A   1      31.732  24.276  23.758  1.00  0.00     0.098 C 
ATOM     82  C   UNL A   1      34.189  24.035  24.396  1.00  0.00     0.025 C 
ATOM     83  C   UNL A   1      31.885  22.843  24.396  1.00  0.00     0.025 C 
ATOM     84  C   UNL A   1      33.612  23.754  25.779  1.00  0.00    -0.027 C 
ATOM     85  C   UNL A   1      34.354  22.622  23.794  1.00  0.00     0.009 C 
ATOM     86  C   UNL A   1      32.458  23.068  25.779  1.00  0.00    -0.027 C 
ATOM     87  C   UNL A   1      32.944  21.998  23.631  1.00  0.00     0.009 C 
BRANCH  81  88
ATOM     88  C   UNL A   1      30.777  25.086  24.677  1.00  0.00     0.228 C 
ATOM     89  O   UNL A   1      31.119  25.418  25.811  1.00  0.00    -0.274 OA
ATOM     90  N   UNL A   1      29.558  25.447  24.144  1.00  0.00    -0.326 N 
ATOM     91  H   UNL A   1      28.853  24.768  24.034  1.00  0.00     0.169 HD
BRANCH  90  92
ATOM     92  C   UNL A   1      29.311  26.773  23.757  1.00  0.00     0.041 A 
ATOM     93  C   UNL A   1      30.284  27.546  23.134  1.00  0.00     0.026 A 
ATOM     94  C   UNL A   1      27.985  27.213  23.819  1.00  0.00     0.026 A 
ATOM     95  C   UNL A   1      29.906  28.687  22.435  1.00  0.00     0.008 A 
ATOM     96  C   UNL A   1      27.600  28.324  23.080  1.00  0.00     0.008 A 
ATOM     97  C   UNL A   1      28.552  29.039  22.342  1.00  0.00    -0.026 A 
BRANCH  97  98
ATOM     98  C   UNL A   1      28.118  30.155  21.435  1.00  0.00     0.181 C 
BRANCH  98  99
ATOM     99  N   UNL A   1      28.325  31.441  22.060  1.00  0.00    -0.249 N 
ATOM    100  C   UNL A   1      28.095  32.670  21.523  1.00  0.00     0.220 A 
ATOM    101  N   UNL A   1      28.796  31.541  23.320  1.00  0.00    -0.160 NA
ATOM    102  N   UNL A   1      28.408  33.595  22.400  1.00  0.00    -0.224 NA
ATOM    103  C   UNL A   1      28.840  32.867  23.471  1.00  0.00     0.246 A 
ENDBRANCH  98  99
ENDBRANCH  97  98
ENDBRANCH  90  92
ENDBRANCH  81  88
ENDBRANCH  77  80
ENDBRANCH  75  76
ENDBRANCH   1  75
TORSDOF 17
ENDMDL
