MODEL 1
REMARK VINA RESULT:     -12.2      0.000      0.000
REMARK SMILES CC[C@@H](C)c1nc2cc(C(=O)NCCCNC(=O)c3ccc(-c4c5nc(c(-c6c(F)cc(S(=O)(=O)[O-])cc6F)c6ccc([nH]6)c(-c6c(F)cc(S(=O)(=O)[O-])cc6F)c6nc(c(-c7c(F)cc(S(=O)(=O)[O-])cc7F)c7ccc4[nH]7)C=C6)C=C5)cc3)ccc2n1[C@@H](C)CC
REMARK SMILES IDX 14 1 13 2 12 3 10 4 11 5 9 7 5 8 6 9 88 10 7 11 87 12 8 13
REMARK SMILES IDX 86 14 85 15 3 16 4 17 2 18 1 19 89 20 90 21 91 22 92 23
REMARK SMILES IDX 15 24 16 25 17 26 18 28 19 29 20 30 84 31 21 32 83 33 22 34
REMARK SMILES IDX 23 35 24 36 77 37 25 38 82 39 76 40 78 41 26 42 81 43 75 44
REMARK SMILES IDX 74 45 27 47 61 48 40 49 60 50 41 51 44 52 59 53 79 54 42 55
REMARK SMILES IDX 43 56 58 58 80 59 45 60 28 61 29 62 38 63 30 64 31 65 37 66
REMARK SMILES IDX 39 67 32 68 33 69 34 70 35 71 36 72 62 73 63 74 72 75 64 76
REMARK SMILES IDX 65 77 71 78 73 79 66 80 67 81 68 82 69 83 70 84 46 85 47 86
REMARK SMILES IDX 56 87 48 88 49 89 55 90 57 91 50 92 51 93 52 94 53 95 54 96
REMARK H PARENT 12 6 16 27 78 46 44 57
REMARK Flexibility Score: inf
ROOT
ATOM      1  C   UNL A   1      37.409  20.728  25.091  1.00  0.00     0.042 C 
ENDROOT
BRANCH   1   2
ATOM      2  C   UNL A   1      35.985  21.092  24.641  1.00  0.00     0.118 C 
BRANCH   2   3
ATOM      3  N   UNL A   1      34.989  20.850  25.680  1.00  0.00    -0.352 N 
ATOM      4  C   UNL A   1      33.929  21.582  26.165  1.00  0.00     0.251 C 
ATOM      5  O   UNL A   1      33.179  21.013  26.960  1.00  0.00    -0.269 OA
ATOM      6  H   UNL A   1      35.100  19.982  26.129  1.00  0.00     0.163 HD
BRANCH   4   7
ATOM      7  C   UNL A   1      33.633  22.996  25.783  1.00  0.00     0.042 A 
ATOM      8  C   UNL A   1      31.047  26.433  24.223  1.00  0.00     0.112 A 
ATOM      9  N   UNL A   1      30.909  25.111  24.279  1.00  0.00    -0.233 NA
ATOM     10  N   UNL A   1      32.329  26.776  24.652  1.00  0.00    -0.325 N 
ATOM     11  C   UNL A   1      32.053  24.595  24.828  1.00  0.00     0.090 A 
ATOM     12  C   UNL A   1      32.956  25.610  25.081  1.00  0.00     0.068 A 
ATOM     13  C   UNL A   1      32.390  23.270  25.169  1.00  0.00     0.044 A 
ATOM     14  C   UNL A   1      34.194  25.368  25.690  1.00  0.00     0.029 A 
ATOM     15  C   UNL A   1      34.490  24.057  26.069  1.00  0.00     0.016 A 
BRANCH   8  16
ATOM     16  C   UNL A   1      29.862  27.352  23.897  1.00  0.00     0.052 C 
ATOM     17  C   UNL A   1      28.560  26.523  23.849  1.00  0.00     0.016 C 
BRANCH  16  18
ATOM     18  C   UNL A   1      29.987  28.170  22.601  1.00  0.00     0.008 C 
ATOM     19  C   UNL A   1      29.838  29.680  22.762  1.00  0.00     0.004 C 
ENDBRANCH  16  18
ENDBRANCH   8  16
BRANCH  10  20
ATOM     20  C   UNL A   1      33.002  28.070  24.765  1.00  0.00     0.085 C 
ATOM     21  C   UNL A   1      33.603  28.552  23.441  1.00  0.00     0.031 C 
BRANCH  20  22
ATOM     22  C   UNL A   1      32.251  29.108  25.615  1.00  0.00     0.022 C 
ATOM     23  C   UNL A   1      32.057  28.618  27.051  1.00  0.00     0.006 C 
ENDBRANCH  20  22
ENDBRANCH  10  20
ENDBRANCH   4   7
ENDBRANCH   2   3
ENDBRANCH   1   2
BRANCH   1  24
ATOM     24  C   UNL A   1      38.177  21.896  25.715  1.00  0.00     0.118 C 
BRANCH  24  25
ATOM     25  N   UNL A   1      39.613  21.691  25.745  1.00  0.00    -0.352 N 
ATOM     26  C   UNL A   1      40.706  22.378  26.196  1.00  0.00     0.251 C 
ATOM     27  H   UNL A   1      39.868  20.834  25.333  1.00  0.00     0.163 HD
ATOM     28  O   UNL A   1      41.786  21.801  26.031  1.00  0.00    -0.269 OA
BRANCH  26  29
ATOM     29  C   UNL A   1      40.711  23.730  26.829  1.00  0.00     0.039 A 
ATOM     30  C   UNL A   1      39.808  24.760  26.578  1.00  0.00     0.014 A 
ATOM     31  C   UNL A   1      41.742  23.966  27.764  1.00  0.00     0.014 A 
ATOM     32  C   UNL A   1      39.956  25.997  27.216  1.00  0.00     0.010 A 
ATOM     33  C   UNL A   1      41.889  25.197  28.406  1.00  0.00     0.010 A 
ATOM     34  C   UNL A   1      41.007  26.230  28.115  1.00  0.00    -0.014 A 
BRANCH  34  35
ATOM     35  C   UNL A   1      41.073  27.534  28.785  1.00  0.00     0.031 A 
ATOM     36  C   UNL A   1      42.151  28.448  28.309  1.00  0.00     0.074 A 
ATOM     37  C   UNL A   1      40.207  27.996  29.714  1.00  0.00     0.049 A 
ATOM     38  N   UNL A   1      43.223  28.804  28.938  1.00  0.00    -0.248 NA
ATOM     39  C   UNL A   1      42.072  28.951  26.932  1.00  0.00     0.031 C 
ATOM     40  C   UNL A   1      38.925  27.424  30.128  1.00  0.00     0.029 A 
ATOM     41  N   UNL A   1      40.280  29.151  30.442  1.00  0.00    -0.354 N 
ATOM     42  C   UNL A   1      43.861  29.739  28.125  1.00  0.00     0.074 A 
ATOM     43  C   UNL A   1      43.188  29.680  26.853  1.00  0.00     0.031 C 
ATOM     44  C   UNL A   1      38.255  28.330  30.877  1.00  0.00     0.029 A 
ATOM     45  C   UNL A   1      39.111  29.481  31.115  1.00  0.00     0.049 A 
ATOM     46  H   UNL A   1      41.094  29.703  30.486  1.00  0.00     0.167 HD
ATOM     47  C   UNL A   1      44.771  30.623  28.628  1.00  0.00     0.037 A 
ATOM     48  C   UNL A   1      38.849  30.632  31.786  1.00  0.00     0.037 A 
ATOM     49  C   UNL A   1      45.235  30.214  29.931  1.00  0.00     0.049 A 
ATOM     50  C   UNL A   1      40.153  31.222  32.184  1.00  0.00     0.074 A 
ATOM     51  C   UNL A   1      45.851  29.086  30.441  1.00  0.00     0.029 A 
ATOM     52  N   UNL A   1      44.791  30.914  31.027  1.00  0.00    -0.354 N 
ATOM     53  N   UNL A   1      40.963  30.691  33.060  1.00  0.00    -0.248 NA
ATOM     54  C   UNL A   1      40.750  32.221  31.311  1.00  0.00     0.031 C 
ATOM     55  C   UNL A   1      45.304  28.926  31.748  1.00  0.00     0.029 A 
ATOM     56  C   UNL A   1      44.427  29.989  31.968  1.00  0.00     0.049 A 
ATOM     57  H   UNL A   1      44.743  31.893  31.116  1.00  0.00     0.167 HD
ATOM     58  C   UNL A   1      42.233  30.962  32.577  1.00  0.00     0.074 A 
ATOM     59  C   UNL A   1      42.040  31.993  31.562  1.00  0.00     0.031 C 
ATOM     60  C   UNL A   1      43.289  30.140  32.848  1.00  0.00     0.037 A 
BRANCH  47  61
ATOM     61  C   UNL A   1      44.985  32.039  28.125  1.00  0.00     0.058 A 
ATOM     62  C   UNL A   1      46.284  32.435  27.733  1.00  0.00     0.135 A 
ATOM     63  C   UNL A   1      44.065  33.092  28.320  1.00  0.00     0.135 A 
ATOM     64  F   UNL A   1      47.237  31.521  27.488  1.00  0.00    -0.206 F 
ATOM     65  C   UNL A   1      46.676  33.773  27.681  1.00  0.00     0.059 A 
ATOM     66  C   UNL A   1      44.422  34.433  28.219  1.00  0.00     0.059 A 
ATOM     67  F   UNL A   1      42.806  32.880  28.713  1.00  0.00    -0.206 F 
ATOM     68  C   UNL A   1      45.742  34.764  27.960  1.00  0.00     0.060 A 
BRANCH  68  69
ATOM     69  S   UNL A   1      46.285  36.478  28.075  1.00  0.00     0.124 S 
ATOM     70  O   UNL A   1      47.732  36.314  28.141  1.00  0.00    -0.237 OA
ATOM     71  O   UNL A   1      45.758  37.046  26.840  1.00  0.00    -0.237 OA
ATOM     72  O   UNL A   1      45.644  36.948  29.301  1.00  0.00    -0.744 OA
ENDBRANCH  68  69
ENDBRANCH  47  61
BRANCH  48  73
ATOM     73  C   UNL A   1      37.572  31.398  31.831  1.00  0.00     0.058 A 
ATOM     74  C   UNL A   1      36.978  31.764  33.055  1.00  0.00     0.135 A 
ATOM     75  C   UNL A   1      37.057  32.032  30.683  1.00  0.00     0.135 A 
ATOM     76  F   UNL A   1      37.415  31.230  34.205  1.00  0.00    -0.206 F 
ATOM     77  C   UNL A   1      35.972  32.735  33.137  1.00  0.00     0.059 A 
ATOM     78  C   UNL A   1      36.047  32.991  30.739  1.00  0.00     0.059 A 
ATOM     79  F   UNL A   1      37.584  31.805  29.471  1.00  0.00    -0.206 F 
ATOM     80  C   UNL A   1      35.528  33.359  31.972  1.00  0.00     0.060 A 
BRANCH  80  81
ATOM     81  S   UNL A   1      34.352  34.729  32.085  1.00  0.00     0.124 S 
ATOM     82  O   UNL A   1      34.115  35.041  30.680  1.00  0.00    -0.237 OA
ATOM     83  O   UNL A   1      33.237  34.118  32.800  1.00  0.00    -0.237 OA
ATOM     84  O   UNL A   1      35.087  35.746  32.834  1.00  0.00    -0.744 OA
ENDBRANCH  80  81
ENDBRANCH  48  73
BRANCH  60  85
ATOM     85  C   UNL A   1      43.170  29.135  33.963  1.00  0.00     0.058 A 
ATOM     86  C   UNL A   1      43.408  29.418  35.319  1.00  0.00     0.135 A 
ATOM     87  C   UNL A   1      42.613  27.881  33.657  1.00  0.00     0.135 A 
ATOM     88  F   UNL A   1      43.845  30.624  35.708  1.00  0.00    -0.206 F 
ATOM     89  C   UNL A   1      43.126  28.487  36.321  1.00  0.00     0.059 A 
ATOM     90  C   UNL A   1      42.292  26.952  34.643  1.00  0.00     0.059 A 
ATOM     91  F   UNL A   1      42.310  27.572  32.385  1.00  0.00    -0.206 F 
ATOM     92  C   UNL A   1      42.555  27.261  35.976  1.00  0.00     0.060 A 
BRANCH  92  93
ATOM     93  S   UNL A   1      42.071  26.114  37.284  1.00  0.00     0.124 S 
ATOM     94  O   UNL A   1      43.106  26.343  38.292  1.00  0.00    -0.237 OA
ATOM     95  O   UNL A   1      40.732  26.587  37.639  1.00  0.00    -0.237 OA
ATOM     96  O   UNL A   1      42.109  24.812  36.636  1.00  0.00    -0.744 OA
ENDBRANCH  92  93
ENDBRANCH  60  85
ENDBRANCH  34  35
ENDBRANCH  26  29
ENDBRANCH  24  25
ENDBRANCH   1  24
TORSDOF 17
ENDMDL
MODEL 2
REMARK VINA RESULT:     -12.1      0.899      1.875
REMARK SMILES CC[C@@H](C)c1nc2cc(C(=O)NCCCNC(=O)c3ccc(-c4c5nc(c(-c6c(F)cc(S(=O)(=O)[O-])cc6F)c6ccc([nH]6)c(-c6c(F)cc(S(=O)(=O)[O-])cc6F)c6nc(c(-c7c(F)cc(S(=O)(=O)[O-])cc7F)c7ccc4[nH]7)C=C6)C=C5)cc3)ccc2n1[C@@H](C)CC
REMARK SMILES IDX 14 1 13 2 12 3 10 4 11 5 9 7 5 8 6 9 88 10 7 11 87 12 8 13
REMARK SMILES IDX 86 14 85 15 3 16 4 17 2 18 1 19 89 20 90 21 91 22 92 23
REMARK SMILES IDX 15 24 16 25 17 26 18 28 19 29 20 30 84 31 21 32 83 33 22 34
REMARK SMILES IDX 23 35 24 36 77 37 25 38 82 39 76 40 78 41 26 42 81 43 75 44
REMARK SMILES IDX 74 45 27 47 61 48 40 49 60 50 41 51 44 52 59 53 79 54 42 55
REMARK SMILES IDX 43 56 58 58 80 59 45 60 28 61 29 62 38 63 30 64 31 65 37 66
REMARK SMILES IDX 39 67 32 68 33 69 34 70 35 71 36 72 62 73 63 74 72 75 64 76
REMARK SMILES IDX 65 77 71 78 73 79 66 80 67 81 68 82 69 83 70 84 46 85 47 86
REMARK SMILES IDX 56 87 48 88 49 89 55 90 57 91 50 92 51 93 52 94 53 95 54 96
REMARK H PARENT 12 6 16 27 78 46 44 57
REMARK Flexibility Score: inf
ROOT
ATOM      1  C   UNL A   1      36.947  20.832  24.870  1.00  0.00     0.042 C 
ENDROOT
BRANCH   1   2
ATOM      2  C   UNL A   1      35.648  20.723  25.683  1.00  0.00     0.118 C 
BRANCH   2   3
ATOM      3  N   UNL A   1      34.651  19.875  25.037  1.00  0.00    -0.352 N 
ATOM      4  C   UNL A   1      33.492  20.137  24.343  1.00  0.00     0.251 C 
ATOM      5  O   UNL A   1      32.950  19.180  23.786  1.00  0.00    -0.269 OA
ATOM      6  H   UNL A   1      34.849  18.915  25.116  1.00  0.00     0.163 HD
BRANCH   4   7
ATOM      7  C   UNL A   1      32.869  21.490  24.216  1.00  0.00     0.042 A 
ATOM      8  C   UNL A   1      32.240  25.898  25.266  1.00  0.00     0.112 A 
ATOM      9  N   UNL A   1      32.921  24.896  25.814  1.00  0.00    -0.233 NA
ATOM     10  N   UNL A   1      31.487  25.408  24.199  1.00  0.00    -0.325 N 
ATOM     11  C   UNL A   1      32.694  23.775  25.060  1.00  0.00     0.090 A 
ATOM     12  C   UNL A   1      31.810  24.064  24.037  1.00  0.00     0.068 A 
ATOM     13  C   UNL A   1      33.226  22.475  25.165  1.00  0.00     0.044 A 
ATOM     14  C   UNL A   1      31.441  23.109  23.082  1.00  0.00     0.029 A 
ATOM     15  C   UNL A   1      32.018  21.841  23.171  1.00  0.00     0.016 A 
BRANCH   8  16
ATOM     16  C   UNL A   1      32.462  27.353  25.701  1.00  0.00     0.052 C 
ATOM     17  C   UNL A   1      33.924  27.540  26.163  1.00  0.00     0.016 C 
BRANCH  16  18
ATOM     18  C   UNL A   1      31.517  27.874  26.797  1.00  0.00     0.008 C 
ATOM     19  C   UNL A   1      31.808  29.287  27.295  1.00  0.00     0.004 C 
ENDBRANCH  16  18
ENDBRANCH   8  16
BRANCH  10  20
ATOM     20  C   UNL A   1      30.558  26.068  23.282  1.00  0.00     0.085 C 
ATOM     21  C   UNL A   1      29.222  26.430  23.938  1.00  0.00     0.031 C 
BRANCH  20  22
ATOM     22  C   UNL A   1      31.202  27.126  22.371  1.00  0.00     0.022 C 
ATOM     23  C   UNL A   1      30.618  28.516  22.633  1.00  0.00     0.006 C 
ENDBRANCH  20  22
ENDBRANCH  10  20
ENDBRANCH   4   7
ENDBRANCH   2   3
ENDBRANCH   1   2
BRANCH   1  24
ATOM     24  C   UNL A   1      37.837  22.008  25.281  1.00  0.00     0.118 C 
BRANCH  24  25
ATOM     25  N   UNL A   1      39.185  21.611  25.646  1.00  0.00    -0.352 N 
ATOM     26  C   UNL A   1      40.240  22.172  26.310  1.00  0.00     0.251 C 
ATOM     27  H   UNL A   1      39.394  20.702  25.332  1.00  0.00     0.163 HD
ATOM     28  O   UNL A   1      41.231  21.443  26.417  1.00  0.00    -0.269 OA
BRANCH  26  29
ATOM     29  C   UNL A   1      40.305  23.549  26.881  1.00  0.00     0.039 A 
ATOM     30  C   UNL A   1      39.504  24.630  26.519  1.00  0.00     0.014 A 
ATOM     31  C   UNL A   1      41.283  23.756  27.878  1.00  0.00     0.014 A 
ATOM     32  C   UNL A   1      39.701  25.882  27.110  1.00  0.00     0.010 A 
ATOM     33  C   UNL A   1      41.479  25.003  28.474  1.00  0.00     0.010 A 
ATOM     34  C   UNL A   1      40.702  26.082  28.073  1.00  0.00    -0.014 A 
BRANCH  34  35
ATOM     35  C   UNL A   1      40.820  27.409  28.688  1.00  0.00     0.031 A 
ATOM     36  C   UNL A   1      41.894  28.282  28.130  1.00  0.00     0.074 A 
ATOM     37  C   UNL A   1      40.005  27.924  29.633  1.00  0.00     0.049 A 
ATOM     38  N   UNL A   1      42.998  28.641  28.698  1.00  0.00    -0.248 NA
ATOM     39  C   UNL A   1      41.764  28.733  26.739  1.00  0.00     0.031 C 
ATOM     40  C   UNL A   1      38.732  27.395  30.125  1.00  0.00     0.029 A 
ATOM     41  N   UNL A   1      40.131  29.105  30.312  1.00  0.00    -0.354 N 
ATOM     42  C   UNL A   1      43.618  29.530  27.822  1.00  0.00     0.074 A 
ATOM     43  C   UNL A   1      42.889  29.436  26.583  1.00  0.00     0.031 C 
ATOM     44  C   UNL A   1      38.111  28.343  30.865  1.00  0.00     0.029 A 
ATOM     45  C   UNL A   1      38.998  29.485  31.021  1.00  0.00     0.049 A 
ATOM     46  H   UNL A   1      40.956  29.642  30.299  1.00  0.00     0.167 HD
ATOM     47  C   UNL A   1      44.565  30.415  28.250  1.00  0.00     0.037 A 
ATOM     48  C   UNL A   1      38.787  30.665  31.656  1.00  0.00     0.037 A 
ATOM     49  C   UNL A   1      45.077  30.047  29.547  1.00  0.00     0.049 A 
ATOM     50  C   UNL A   1      40.118  31.244  31.974  1.00  0.00     0.074 A 
ATOM     51  C   UNL A   1      45.694  28.928  30.075  1.00  0.00     0.029 A 
ATOM     52  N   UNL A   1      44.694  30.798  30.633  1.00  0.00    -0.354 N 
ATOM     53  N   UNL A   1      40.955  30.731  32.835  1.00  0.00    -0.248 NA
ATOM     54  C   UNL A   1      40.694  32.196  31.037  1.00  0.00     0.031 C 
ATOM     55  C   UNL A   1      45.202  28.830  31.410  1.00  0.00     0.029 A 
ATOM     56  C   UNL A   1      44.355  29.918  31.625  1.00  0.00     0.049 A 
ATOM     57  H   UNL A   1      44.668  31.781  30.685  1.00  0.00     0.167 HD
ATOM     58  C   UNL A   1      42.208  30.958  32.287  1.00  0.00     0.074 A 
ATOM     59  C   UNL A   1      41.990  31.952  31.242  1.00  0.00     0.031 C 
ATOM     60  C   UNL A   1      43.259  30.126  32.546  1.00  0.00     0.037 A 
BRANCH  47  61
ATOM     61  C   UNL A   1      44.782  31.805  27.683  1.00  0.00     0.058 A 
ATOM     62  C   UNL A   1      45.969  32.070  26.961  1.00  0.00     0.135 A 
ATOM     63  C   UNL A   1      44.056  32.945  28.089  1.00  0.00     0.135 A 
ATOM     64  F   UNL A   1      46.727  31.065  26.494  1.00  0.00    -0.206 F 
ATOM     65  C   UNL A   1      46.467  33.361  26.784  1.00  0.00     0.059 A 
ATOM     66  C   UNL A   1      44.508  34.244  27.874  1.00  0.00     0.059 A 
ATOM     67  F   UNL A   1      42.927  32.860  28.799  1.00  0.00    -0.206 F 
ATOM     68  C   UNL A   1      45.742  34.440  27.277  1.00  0.00     0.060 A 
BRANCH  68  69
ATOM     69  S   UNL A   1      46.466  36.088  27.215  1.00  0.00     0.124 S 
ATOM     70  O   UNL A   1      45.286  36.909  26.966  1.00  0.00    -0.237 OA
ATOM     71  O   UNL A   1      47.062  36.208  28.541  1.00  0.00    -0.237 OA
ATOM     72  O   UNL A   1      47.416  35.994  26.111  1.00  0.00    -0.744 OA
ENDBRANCH  68  69
ENDBRANCH  47  61
BRANCH  48  73
ATOM     73  C   UNL A   1      37.528  31.458  31.726  1.00  0.00     0.058 A 
ATOM     74  C   UNL A   1      36.884  31.708  32.953  1.00  0.00     0.135 A 
ATOM     75  C   UNL A   1      37.084  32.225  30.629  1.00  0.00     0.135 A 
ATOM     76  F   UNL A   1      37.253  31.043  34.058  1.00  0.00    -0.206 F 
ATOM     77  C   UNL A   1      35.899  32.694  33.093  1.00  0.00     0.059 A 
ATOM     78  C   UNL A   1      36.095  33.201  30.743  1.00  0.00     0.059 A 
ATOM     79  F   UNL A   1      37.663  32.114  29.425  1.00  0.00    -0.206 F 
ATOM     80  C   UNL A   1      35.525  33.451  31.984  1.00  0.00     0.060 A 
BRANCH  80  81
ATOM     81  S   UNL A   1      34.378  34.833  32.190  1.00  0.00     0.124 S 
ATOM     82  O   UNL A   1      35.190  35.792  32.930  1.00  0.00    -0.237 OA
ATOM     83  O   UNL A   1      34.072  35.188  30.809  1.00  0.00    -0.237 OA
ATOM     84  O   UNL A   1      33.270  34.246  32.940  1.00  0.00    -0.744 OA
ENDBRANCH  80  81
ENDBRANCH  48  73
BRANCH  60  85
ATOM     85  C   UNL A   1      43.171  29.168  33.703  1.00  0.00     0.058 A 
ATOM     86  C   UNL A   1      43.495  29.491  35.032  1.00  0.00     0.135 A 
ATOM     87  C   UNL A   1      42.556  27.924  33.478  1.00  0.00     0.135 A 
ATOM     88  F   UNL A   1      43.992  30.695  35.349  1.00  0.00    -0.206 F 
ATOM     89  C   UNL A   1      43.239  28.609  36.084  1.00  0.00     0.059 A 
ATOM     90  C   UNL A   1      42.260  27.044  34.515  1.00  0.00     0.059 A 
ATOM     91  F   UNL A   1      42.171  27.579  32.238  1.00  0.00    -0.206 F 
ATOM     92  C   UNL A   1      42.609  27.392  35.818  1.00  0.00     0.060 A 
BRANCH  92  93
ATOM     93  S   UNL A   1      42.162  26.312  37.195  1.00  0.00     0.124 S 
ATOM     94  O   UNL A   1      42.266  24.984  36.590  1.00  0.00    -0.237 OA
ATOM     95  O   UNL A   1      43.186  26.630  38.191  1.00  0.00    -0.237 OA
ATOM     96  O   UNL A   1      40.815  26.734  37.545  1.00  0.00    -0.744 OA
ENDBRANCH  92  93
ENDBRANCH  60  85
ENDBRANCH  34  35
ENDBRANCH  26  29
ENDBRANCH  24  25
ENDBRANCH   1  24
TORSDOF 17
ENDMDL
MODEL 3
REMARK VINA RESULT:     -12.0      2.973      9.538
REMARK SMILES CC[C@@H](C)c1nc2cc(C(=O)NCCCNC(=O)c3ccc(-c4c5nc(c(-c6c(F)cc(S(=O)(=O)[O-])cc6F)c6ccc([nH]6)c(-c6c(F)cc(S(=O)(=O)[O-])cc6F)c6nc(c(-c7c(F)cc(S(=O)(=O)[O-])cc7F)c7ccc4[nH]7)C=C6)C=C5)cc3)ccc2n1[C@@H](C)CC
REMARK SMILES IDX 14 1 13 2 12 3 10 4 11 5 9 7 5 8 6 9 88 10 7 11 87 12 8 13
REMARK SMILES IDX 86 14 85 15 3 16 4 17 2 18 1 19 89 20 90 21 91 22 92 23
REMARK SMILES IDX 15 24 16 25 17 26 18 28 19 29 20 30 84 31 21 32 83 33 22 34
REMARK SMILES IDX 23 35 24 36 77 37 25 38 82 39 76 40 78 41 26 42 81 43 75 44
REMARK SMILES IDX 74 45 27 47 61 48 40 49 60 50 41 51 44 52 59 53 79 54 42 55
REMARK SMILES IDX 43 56 58 58 80 59 45 60 28 61 29 62 38 63 30 64 31 65 37 66
REMARK SMILES IDX 39 67 32 68 33 69 34 70 35 71 36 72 62 73 63 74 72 75 64 76
REMARK SMILES IDX 65 77 71 78 73 79 66 80 67 81 68 82 69 83 70 84 46 85 47 86
REMARK SMILES IDX 56 87 48 88 49 89 55 90 57 91 50 92 51 93 52 94 53 95 54 96
REMARK H PARENT 12 6 16 27 78 46 44 57
REMARK Flexibility Score: inf
ROOT
ATOM      1  C   UNL A   1      32.977  29.975  25.765  1.00  0.00     0.042 C 
ENDROOT
BRANCH   1   2
ATOM      2  C   UNL A   1      31.481  29.764  25.478  1.00  0.00     0.118 C 
BRANCH   2   3
ATOM      3  N   UNL A   1      31.172  29.811  24.053  1.00  0.00    -0.352 N 
ATOM      4  C   UNL A   1      31.030  28.845  23.082  1.00  0.00     0.251 C 
ATOM      5  O   UNL A   1      30.608  29.217  21.986  1.00  0.00    -0.269 OA
ATOM      6  H   UNL A   1      31.036  30.724  23.714  1.00  0.00     0.163 HD
BRANCH   4   7
ATOM      7  C   UNL A   1      31.341  27.396  23.280  1.00  0.00     0.042 A 
ATOM      8  C   UNL A   1      34.023  23.796  24.160  1.00  0.00     0.112 A 
ATOM      9  N   UNL A   1      34.240  25.088  23.931  1.00  0.00    -0.233 NA
ATOM     10  N   UNL A   1      32.668  23.521  23.971  1.00  0.00    -0.325 N 
ATOM     11  C   UNL A   1      33.028  25.677  23.686  1.00  0.00     0.090 A 
ATOM     12  C   UNL A   1      32.025  24.726  23.713  1.00  0.00     0.068 A 
ATOM     13  C   UNL A   1      32.694  27.027  23.457  1.00  0.00     0.044 A 
ATOM     14  C   UNL A   1      30.677  25.064  23.544  1.00  0.00     0.029 A 
ATOM     15  C   UNL A   1      30.358  26.412  23.370  1.00  0.00     0.016 A 
BRANCH   8  16
ATOM     16  C   UNL A   1      35.124  22.882  24.715  1.00  0.00     0.052 C 
ATOM     17  C   UNL A   1      34.982  22.772  26.249  1.00  0.00     0.016 C 
BRANCH  16  18
ATOM     18  C   UNL A   1      36.567  23.289  24.371  1.00  0.00     0.008 C 
ATOM     19  C   UNL A   1      37.426  23.719  25.556  1.00  0.00     0.004 C 
ENDBRANCH  16  18
ENDBRANCH   8  16
BRANCH  10  20
ATOM     20  C   UNL A   1      31.908  22.275  24.069  1.00  0.00     0.085 C 
ATOM     21  C   UNL A   1      32.312  21.240  23.015  1.00  0.00     0.031 C 
BRANCH  20  22
ATOM     22  C   UNL A   1      31.695  21.768  25.505  1.00  0.00     0.022 C 
ATOM     23  C   UNL A   1      30.608  22.569  26.224  1.00  0.00     0.006 C 
ENDBRANCH  20  22
ENDBRANCH  10  20
ENDBRANCH   4   7
ENDBRANCH   2   3
ENDBRANCH   1   2
BRANCH   1  24
ATOM     24  C   UNL A   1      33.300  30.170  27.249  1.00  0.00     0.118 C 
BRANCH  24  25
ATOM     25  N   UNL A   1      33.723  31.519  27.574  1.00  0.00    -0.352 N 
ATOM     26  C   UNL A   1      34.879  32.127  27.978  1.00  0.00     0.251 C 
ATOM     27  H   UNL A   1      32.986  32.164  27.481  1.00  0.00     0.163 HD
ATOM     28  O   UNL A   1      34.797  33.351  28.123  1.00  0.00    -0.269 OA
BRANCH  26  29
ATOM     29  C   UNL A   1      36.183  31.461  28.269  1.00  0.00     0.039 A 
ATOM     30  C   UNL A   1      37.273  32.035  28.919  1.00  0.00     0.014 A 
ATOM     31  C   UNL A   1      36.303  30.125  27.829  1.00  0.00     0.014 A 
ATOM     32  C   UNL A   1      38.455  31.305  29.090  1.00  0.00     0.010 A 
ATOM     33  C   UNL A   1      37.478  29.392  28.002  1.00  0.00     0.010 A 
ATOM     34  C   UNL A   1      38.572  29.990  28.615  1.00  0.00    -0.014 A 
BRANCH  34  35
ATOM     35  C   UNL A   1      39.823  29.267  28.872  1.00  0.00     0.031 A 
ATOM     36  C   UNL A   1      40.177  29.087  30.310  1.00  0.00     0.074 A 
ATOM     37  C   UNL A   1      40.615  28.691  27.943  1.00  0.00     0.049 A 
ATOM     38  N   UNL A   1      41.135  29.655  30.967  1.00  0.00    -0.248 NA
ATOM     39  C   UNL A   1      39.303  28.246  31.137  1.00  0.00     0.031 C 
ATOM     40  C   UNL A   1      40.343  28.476  26.521  1.00  0.00     0.029 A 
ATOM     41  N   UNL A   1      41.837  28.100  28.116  1.00  0.00    -0.354 N 
ATOM     42  C   UNL A   1      41.120  29.095  32.243  1.00  0.00     0.074 A 
ATOM     43  C   UNL A   1      39.891  28.348  32.332  1.00  0.00     0.031 C 
ATOM     44  C   UNL A   1      41.271  27.632  26.012  1.00  0.00     0.029 A 
ATOM     45  C   UNL A   1      42.278  27.363  27.025  1.00  0.00     0.049 A 
ATOM     46  H   UNL A   1      42.360  28.190  28.945  1.00  0.00     0.167 HD
ATOM     47  C   UNL A   1      42.216  29.136  33.057  1.00  0.00     0.037 A 
ATOM     48  C   UNL A   1      43.370  26.558  26.968  1.00  0.00     0.037 A 
ATOM     49  C   UNL A   1      43.171  30.114  32.599  1.00  0.00     0.049 A 
ATOM     50  C   UNL A   1      44.319  27.021  28.014  1.00  0.00     0.074 A 
ATOM     51  C   UNL A   1      43.139  31.474  32.353  1.00  0.00     0.029 A 
ATOM     52  N   UNL A   1      44.327  29.665  32.007  1.00  0.00    -0.354 N 
ATOM     53  N   UNL A   1      44.946  28.166  27.982  1.00  0.00    -0.248 NA
ATOM     54  C   UNL A   1      44.279  26.369  29.314  1.00  0.00     0.031 C 
ATOM     55  C   UNL A   1      43.987  31.666  31.224  1.00  0.00     0.029 A 
ATOM     56  C   UNL A   1      44.518  30.421  30.883  1.00  0.00     0.049 A 
ATOM     57  H   UNL A   1      44.906  28.937  32.331  1.00  0.00     0.167 HD
ATOM     58  C   UNL A   1      45.001  28.576  29.304  1.00  0.00     0.074 A 
ATOM     59  C   UNL A   1      44.673  27.385  30.083  1.00  0.00     0.031 C 
ATOM     60  C   UNL A   1      45.041  29.899  29.639  1.00  0.00     0.037 A 
BRANCH  47  61
ATOM     61  C   UNL A   1      42.606  28.060  34.053  1.00  0.00     0.058 A 
ATOM     62  C   UNL A   1      42.677  28.393  35.425  1.00  0.00     0.135 A 
ATOM     63  C   UNL A   1      43.218  26.840  33.696  1.00  0.00     0.135 A 
ATOM     64  F   UNL A   1      42.102  29.515  35.890  1.00  0.00    -0.206 F 
ATOM     65  C   UNL A   1      43.420  27.648  36.341  1.00  0.00     0.059 A 
ATOM     66  C   UNL A   1      43.919  26.053  34.605  1.00  0.00     0.059 A 
ATOM     67  F   UNL A   1      43.255  26.398  32.434  1.00  0.00    -0.206 F 
ATOM     68  C   UNL A   1      44.066  26.496  35.909  1.00  0.00     0.060 A 
BRANCH  68  69
ATOM     69  S   UNL A   1      45.175  25.633  37.037  1.00  0.00     0.124 S 
ATOM     70  O   UNL A   1      45.970  24.841  36.106  1.00  0.00    -0.237 OA
ATOM     71  O   UNL A   1      45.864  26.740  37.690  1.00  0.00    -0.237 OA
ATOM     72  O   UNL A   1      44.260  24.879  37.890  1.00  0.00    -0.744 OA
ENDBRANCH  68  69
ENDBRANCH  47  61
BRANCH  48  73
ATOM     73  C   UNL A   1      43.506  25.241  26.285  1.00  0.00     0.058 A 
ATOM     74  C   UNL A   1      44.470  25.031  25.280  1.00  0.00     0.135 A 
ATOM     75  C   UNL A   1      42.887  24.083  26.797  1.00  0.00     0.135 A 
ATOM     76  F   UNL A   1      45.128  26.070  24.746  1.00  0.00    -0.206 F 
ATOM     77  C   UNL A   1      44.833  23.748  24.850  1.00  0.00     0.059 A 
ATOM     78  C   UNL A   1      43.223  22.798  26.374  1.00  0.00     0.059 A 
ATOM     79  F   UNL A   1      41.997  24.157  27.797  1.00  0.00    -0.206 F 
ATOM     80  C   UNL A   1      44.217  22.635  25.419  1.00  0.00     0.060 A 
BRANCH  80  81
ATOM     81  S   UNL A   1      44.796  20.977  24.991  1.00  0.00     0.124 S 
ATOM     82  O   UNL A   1      44.704  20.990  23.535  1.00  0.00    -0.237 OA
ATOM     83  O   UNL A   1      46.146  20.969  25.544  1.00  0.00    -0.237 OA
ATOM     84  O   UNL A   1      43.843  20.099  25.667  1.00  0.00    -0.744 OA
ENDBRANCH  80  81
ENDBRANCH  48  73
BRANCH  60  85
ATOM     85  C   UNL A   1      45.389  30.913  28.583  1.00  0.00     0.058 A 
ATOM     86  C   UNL A   1      44.496  31.383  27.605  1.00  0.00     0.135 A 
ATOM     87  C   UNL A   1      46.628  31.568  28.688  1.00  0.00     0.135 A 
ATOM     88  F   UNL A   1      43.257  30.883  27.501  1.00  0.00    -0.206 F 
ATOM     89  C   UNL A   1      44.831  32.441  26.757  1.00  0.00     0.059 A 
ATOM     90  C   UNL A   1      46.969  32.646  27.876  1.00  0.00     0.059 A 
ATOM     91  F   UNL A   1      47.503  31.203  29.640  1.00  0.00    -0.206 F 
ATOM     92  C   UNL A   1      46.064  33.076  26.907  1.00  0.00     0.060 A 
BRANCH  92  93
ATOM     93  S   UNL A   1      46.440  34.524  25.897  1.00  0.00     0.124 S 
ATOM     94  O   UNL A   1      45.468  34.402  24.810  1.00  0.00    -0.237 OA
ATOM     95  O   UNL A   1      46.206  35.629  26.829  1.00  0.00    -0.237 OA
ATOM     96  O   UNL A   1      47.830  34.330  25.515  1.00  0.00    -0.744 OA
ENDBRANCH  92  93
ENDBRANCH  60  85
ENDBRANCH  34  35
ENDBRANCH  26  29
ENDBRANCH  24  25
ENDBRANCH   1  24
TORSDOF 17
ENDMDL
