MODEL 1
REMARK VINA RESULT:     -11.8      0.000      0.000
REMARK SMILES CC(C)Cn1ncnc1C[N@H+]1CC[C@H](C(=O)NCCCNC(=O)c2ccc(-c3c4nc(c(-c5c(F)cc(S(=O)(=O)[O-])cc5F)c5ccc([nH]5)c(-c5c(F)cc(S(=O)(=O)[O-])cc5F)c5nc(c(-c6c(F)cc(S(=O)(=O)[O-])cc6F)c6ccc3[nH]6)C=C5)C=C4)cc2)[C@@H]1C
REMARK SMILES IDX 18 1 17 2 15 3 16 4 14 6 11 7 12 8 90 9 13 11 91 12 10 13
REMARK SMILES IDX 9 14 5 15 6 16 7 17 8 18 4 19 2 20 1 21 3 22 19 23 20 24
REMARK SMILES IDX 21 25 22 26 23 28 24 29 25 30 89 31 26 32 88 33 27 34 28 35
REMARK SMILES IDX 29 36 82 37 30 38 87 39 81 40 83 41 31 42 86 43 80 44 79 45
REMARK SMILES IDX 32 47 66 48 45 49 65 50 46 51 49 52 64 53 84 54 47 55 48 56
REMARK SMILES IDX 63 58 85 59 50 60 33 61 34 62 43 63 35 64 36 65 42 66 44 67
REMARK SMILES IDX 37 68 38 69 39 70 40 71 41 72 67 73 68 74 77 75 69 76 70 77
REMARK SMILES IDX 76 78 78 79 71 80 72 81 73 82 74 83 75 84 51 85 52 86 61 87
REMARK SMILES IDX 53 88 54 89 60 90 62 91 55 92 56 93 57 94 58 95 59 96
REMARK H PARENT 17 5 11 10 21 27 83 46 49 57
REMARK Flexibility Score: inf
ROOT
ATOM      1  C   UNL A   1      37.111  22.119  25.744  1.00  0.00     0.117 C 
ENDROOT
BRANCH   1   2
ATOM      2  N   UNL A   1      35.946  21.253  25.600  1.00  0.00    -0.356 N 
ATOM      3  C   UNL A   1      34.784  21.437  24.889  1.00  0.00     0.229 C 
ATOM      4  O   UNL A   1      33.993  20.500  24.859  1.00  0.00    -0.275 OA
ATOM      5  H   UNL A   1      36.001  20.401  26.089  1.00  0.00     0.163 HD
BRANCH   3   6
ATOM      6  C   UNL A   1      34.558  22.777  24.195  1.00  0.00     0.142 C 
ATOM      7  N   UNL A   1      32.938  24.591  24.204  1.00  0.00    -0.326 N 
ATOM      8  C   UNL A   1      32.361  23.485  23.457  1.00  0.00     0.263 C 
ATOM      9  C   UNL A   1      34.065  24.015  24.989  1.00  0.00     0.194 C 
ATOM     10  H   UNL A   1      32.244  24.995  24.832  1.00  0.00     0.348 HD
ATOM     11  C   UNL A   1      33.533  22.619  23.072  1.00  0.00     0.081 C 
ATOM     12  C   UNL A   1      33.559  23.795  26.413  1.00  0.00     0.076 C 
BRANCH   7  13
ATOM     13  C   UNL A   1      33.274  25.780  23.400  1.00  0.00     0.340 C 
BRANCH  13  14
ATOM     14  C   UNL A   1      32.206  26.816  23.215  1.00  0.00     0.182 A 
ATOM     15  N   UNL A   1      31.970  27.898  24.033  1.00  0.00    -0.245 N 
ATOM     16  N   UNL A   1      30.979  28.668  23.532  1.00  0.00    -0.159 NA
ATOM     17  C   UNL A   1      30.636  27.994  22.436  1.00  0.00     0.246 A 
ATOM     18  N   UNL A   1      31.358  26.867  22.204  1.00  0.00    -0.214 NA
BRANCH  15  19
ATOM     19  C   UNL A   1      32.664  28.338  25.228  1.00  0.00     0.149 C 
BRANCH  19  20
ATOM     20  C   UNL A   1      31.778  28.987  26.314  1.00  0.00     0.004 C 
ATOM     21  C   UNL A   1      31.778  28.203  27.626  1.00  0.00     0.009 C 
ATOM     22  C   UNL A   1      32.249  30.416  26.584  1.00  0.00     0.009 C 
ENDBRANCH  19  20
ENDBRANCH  15  19
ENDBRANCH  13  14
ENDBRANCH   7  13
ENDBRANCH   3   6
ENDBRANCH   1   2
BRANCH   1  23
ATOM     23  C   UNL A   1      38.438  21.459  25.378  1.00  0.00     0.042 C 
BRANCH  23  24
ATOM     24  C   UNL A   1      39.540  21.667  26.400  1.00  0.00     0.118 C 
BRANCH  24  25
ATOM     25  N   UNL A   1      40.884  21.732  25.825  1.00  0.00    -0.352 N 
ATOM     26  C   UNL A   1      41.723  22.840  25.782  1.00  0.00     0.251 C 
ATOM     27  H   UNL A   1      41.231  20.903  25.424  1.00  0.00     0.163 HD
ATOM     28  O   UNL A   1      42.653  22.896  25.003  1.00  0.00    -0.269 OA
BRANCH  26  29
ATOM     29  C   UNL A   1      41.427  23.955  26.707  1.00  0.00     0.039 A 
ATOM     30  C   UNL A   1      42.014  24.026  27.970  1.00  0.00     0.014 A 
ATOM     31  C   UNL A   1      40.642  24.995  26.225  1.00  0.00     0.014 A 
ATOM     32  C   UNL A   1      41.898  25.212  28.694  1.00  0.00     0.010 A 
ATOM     33  C   UNL A   1      40.679  26.214  26.860  1.00  0.00     0.010 A 
ATOM     34  C   UNL A   1      41.265  26.328  28.116  1.00  0.00    -0.014 A 
BRANCH  34  35
ATOM     35  C   UNL A   1      41.305  27.633  28.781  1.00  0.00     0.031 A 
ATOM     36  C   UNL A   1      42.364  28.571  28.302  1.00  0.00     0.074 A 
ATOM     37  C   UNL A   1      40.365  28.078  29.644  1.00  0.00     0.049 A 
ATOM     38  N   UNL A   1      43.427  28.945  28.936  1.00  0.00    -0.248 NA
ATOM     39  C   UNL A   1      42.301  29.056  26.915  1.00  0.00     0.031 C 
ATOM     40  C   UNL A   1      39.095  27.453  30.033  1.00  0.00     0.029 A 
ATOM     41  N   UNL A   1      40.316  29.272  30.301  1.00  0.00    -0.354 N 
ATOM     42  C   UNL A   1      44.054  29.886  28.123  1.00  0.00     0.074 A 
ATOM     43  C   UNL A   1      43.419  29.782  26.835  1.00  0.00     0.031 C 
ATOM     44  C   UNL A   1      38.308  28.360  30.650  1.00  0.00     0.029 A 
ATOM     45  C   UNL A   1      39.086  29.562  30.879  1.00  0.00     0.049 A 
ATOM     46  H   UNL A   1      41.089  29.877  30.362  1.00  0.00     0.167 HD
ATOM     47  C   UNL A   1      44.895  30.827  28.643  1.00  0.00     0.037 A 
ATOM     48  C   UNL A   1      38.724  30.705  31.508  1.00  0.00     0.037 A 
ATOM     49  C   UNL A   1      45.296  30.484  29.987  1.00  0.00     0.049 A 
ATOM     50  C   UNL A   1      39.974  31.369  31.952  1.00  0.00     0.074 A 
ATOM     51  C   UNL A   1      45.922  29.396  30.567  1.00  0.00     0.029 A 
ATOM     52  N   UNL A   1      44.708  31.162  31.028  1.00  0.00    -0.354 N 
ATOM     53  N   UNL A   1      40.766  30.885  32.871  1.00  0.00    -0.248 NA
ATOM     54  C   UNL A   1      40.581  32.345  31.062  1.00  0.00     0.031 C 
ATOM     55  C   UNL A   1      45.249  29.204  31.811  1.00  0.00     0.029 A 
ATOM     56  C   UNL A   1      44.305  30.223  31.945  1.00  0.00     0.049 A 
ATOM     57  H   UNL A   1      44.597  32.137  31.103  1.00  0.00     0.167 HD
ATOM     58  C   UNL A   1      42.047  31.143  32.407  1.00  0.00     0.074 A 
ATOM     59  C   UNL A   1      41.870  32.133  31.346  1.00  0.00     0.031 C 
ATOM     60  C   UNL A   1      43.098  30.333  32.735  1.00  0.00     0.037 A 
BRANCH  47  61
ATOM     61  C   UNL A   1      45.078  32.224  28.090  1.00  0.00     0.058 A 
ATOM     62  C   UNL A   1      46.365  32.654  27.701  1.00  0.00     0.135 A 
ATOM     63  C   UNL A   1      44.106  33.244  28.196  1.00  0.00     0.135 A 
ATOM     64  F   UNL A   1      47.369  31.772  27.567  1.00  0.00    -0.206 F 
ATOM     65  C   UNL A   1      46.684  34.000  27.520  1.00  0.00     0.059 A 
ATOM     66  C   UNL A   1      44.389  34.586  27.967  1.00  0.00     0.059 A 
ATOM     67  F   UNL A   1      42.862  33.005  28.624  1.00  0.00    -0.206 F 
ATOM     68  C   UNL A   1      45.691  34.962  27.676  1.00  0.00     0.060 A 
BRANCH  68  69
ATOM     69  S   UNL A   1      46.122  36.708  27.571  1.00  0.00     0.124 S 
ATOM     70  O   UNL A   1      46.304  37.045  28.978  1.00  0.00    -0.237 OA
ATOM     71  O   UNL A   1      47.334  36.672  26.759  1.00  0.00    -0.237 OA
ATOM     72  O   UNL A   1      44.958  37.302  26.922  1.00  0.00    -0.744 OA
ENDBRANCH  68  69
ENDBRANCH  47  61
BRANCH  48  73
ATOM     73  C   UNL A   1      37.404  31.384  31.496  1.00  0.00     0.058 A 
ATOM     74  C   UNL A   1      36.662  31.553  32.678  1.00  0.00     0.135 A 
ATOM     75  C   UNL A   1      36.979  32.134  30.381  1.00  0.00     0.135 A 
ATOM     76  F   UNL A   1      37.005  30.886  33.790  1.00  0.00    -0.206 F 
ATOM     77  C   UNL A   1      35.604  32.462  32.768  1.00  0.00     0.059 A 
ATOM     78  C   UNL A   1      35.920  33.038  30.443  1.00  0.00     0.059 A 
ATOM     79  F   UNL A   1      37.646  32.083  29.217  1.00  0.00    -0.206 F 
ATOM     80  C   UNL A   1      35.256  33.220  31.650  1.00  0.00     0.060 A 
BRANCH  80  81
ATOM     81  S   UNL A   1      34.029  34.537  31.820  1.00  0.00     0.124 S 
ATOM     82  O   UNL A   1      34.860  35.680  32.181  1.00  0.00    -0.237 OA
ATOM     83  O   UNL A   1      33.433  34.578  30.488  1.00  0.00    -0.237 OA
ATOM     84  O   UNL A   1      33.147  34.046  32.876  1.00  0.00    -0.744 OA
ENDBRANCH  80  81
ENDBRANCH  48  73
BRANCH  60  85
ATOM     85  C   UNL A   1      42.908  29.331  33.848  1.00  0.00     0.058 A 
ATOM     86  C   UNL A   1      43.040  29.620  35.219  1.00  0.00     0.135 A 
ATOM     87  C   UNL A   1      42.460  28.044  33.513  1.00  0.00     0.135 A 
ATOM     88  F   UNL A   1      43.348  30.854  35.638  1.00  0.00    -0.206 F 
ATOM     89  C   UNL A   1      42.806  28.657  36.204  1.00  0.00     0.059 A 
ATOM     90  C   UNL A   1      42.187  27.078  34.479  1.00  0.00     0.059 A 
ATOM     91  F   UNL A   1      42.246  27.719  32.228  1.00  0.00    -0.206 F 
ATOM     92  C   UNL A   1      42.384  27.385  35.824  1.00  0.00     0.060 A 
BRANCH  92  93
ATOM     93  S   UNL A   1      42.046  26.150  37.097  1.00  0.00     0.124 S 
ATOM     94  O   UNL A   1      43.028  26.489  38.122  1.00  0.00    -0.237 OA
ATOM     95  O   UNL A   1      40.652  26.420  37.441  1.00  0.00    -0.237 OA
ATOM     96  O   UNL A   1      42.274  24.880  36.412  1.00  0.00    -0.744 OA
ENDBRANCH  92  93
ENDBRANCH  60  85
ENDBRANCH  34  35
ENDBRANCH  26  29
ENDBRANCH  24  25
ENDBRANCH  23  24
ENDBRANCH   1  23
TORSDOF 17
ENDMDL
MODEL 2
REMARK VINA RESULT:     -11.6      2.846      9.604
REMARK SMILES CC(C)Cn1ncnc1C[N@H+]1CC[C@H](C(=O)NCCCNC(=O)c2ccc(-c3c4nc(c(-c5c(F)cc(S(=O)(=O)[O-])cc5F)c5ccc([nH]5)c(-c5c(F)cc(S(=O)(=O)[O-])cc5F)c5nc(c(-c6c(F)cc(S(=O)(=O)[O-])cc6F)c6ccc3[nH]6)C=C5)C=C4)cc2)[C@@H]1C
REMARK SMILES IDX 18 1 17 2 15 3 16 4 14 6 11 7 12 8 90 9 13 11 91 12 10 13
REMARK SMILES IDX 9 14 5 15 6 16 7 17 8 18 4 19 2 20 1 21 3 22 19 23 20 24
REMARK SMILES IDX 21 25 22 26 23 28 24 29 25 30 89 31 26 32 88 33 27 34 28 35
REMARK SMILES IDX 29 36 82 37 30 38 87 39 81 40 83 41 31 42 86 43 80 44 79 45
REMARK SMILES IDX 32 47 66 48 45 49 65 50 46 51 49 52 64 53 84 54 47 55 48 56
REMARK SMILES IDX 63 58 85 59 50 60 33 61 34 62 43 63 35 64 36 65 42 66 44 67
REMARK SMILES IDX 37 68 38 69 39 70 40 71 41 72 67 73 68 74 77 75 69 76 70 77
REMARK SMILES IDX 76 78 78 79 71 80 72 81 73 82 74 83 75 84 51 85 52 86 61 87
REMARK SMILES IDX 53 88 54 89 60 90 62 91 55 92 56 93 57 94 58 95 59 96
REMARK H PARENT 17 5 11 10 21 27 83 46 49 57
REMARK Flexibility Score: inf
ROOT
ATOM      1  C   UNL A   1      33.187  29.214  26.379  1.00  0.00     0.117 C 
ENDROOT
BRANCH   1   2
ATOM      2  N   UNL A   1      32.508  29.169  25.089  1.00  0.00    -0.356 N 
ATOM      3  C   UNL A   1      31.820  28.146  24.483  1.00  0.00     0.229 C 
ATOM      4  O   UNL A   1      31.256  28.403  23.423  1.00  0.00    -0.275 OA
ATOM      5  H   UNL A   1      32.548  30.005  24.571  1.00  0.00     0.163 HD
BRANCH   3   6
ATOM      6  C   UNL A   1      31.804  26.777  25.156  1.00  0.00     0.142 C 
ATOM      7  N   UNL A   1      32.029  24.434  24.543  1.00  0.00    -0.326 N 
ATOM      8  C   UNL A   1      30.696  24.867  24.156  1.00  0.00     0.263 C 
ATOM      9  C   UNL A   1      32.821  25.677  24.755  1.00  0.00     0.194 C 
ATOM     10  H   UNL A   1      32.449  23.873  23.802  1.00  0.00     0.348 HD
ATOM     11  C   UNL A   1      30.439  26.114  24.964  1.00  0.00     0.081 C 
ATOM     12  C   UNL A   1      33.657  25.902  23.496  1.00  0.00     0.076 C 
BRANCH   7  13
ATOM     13  C   UNL A   1      32.073  23.463  25.651  1.00  0.00     0.340 C 
BRANCH  13  14
ATOM     14  C   UNL A   1      32.552  22.077  25.340  1.00  0.00     0.182 A 
ATOM     15  N   UNL A   1      33.859  21.691  25.142  1.00  0.00    -0.245 N 
ATOM     16  N   UNL A   1      33.939  20.356  24.955  1.00  0.00    -0.159 NA
ATOM     17  C   UNL A   1      32.659  19.993  25.020  1.00  0.00     0.246 A 
ATOM     18  N   UNL A   1      31.785  21.005  25.256  1.00  0.00    -0.214 NA
BRANCH  15  19
ATOM     19  C   UNL A   1      35.082  22.467  25.200  1.00  0.00     0.149 C 
BRANCH  19  20
ATOM     20  C   UNL A   1      36.253  21.931  24.345  1.00  0.00     0.004 C 
ATOM     21  C   UNL A   1      36.591  22.842  23.165  1.00  0.00     0.009 C 
ATOM     22  C   UNL A   1      37.497  21.759  25.218  1.00  0.00     0.009 C 
ENDBRANCH  19  20
ENDBRANCH  15  19
ENDBRANCH  13  14
ENDBRANCH   7  13
ENDBRANCH   3   6
ENDBRANCH   1   2
BRANCH   1  23
ATOM     23  C   UNL A   1      32.847  30.436  27.230  1.00  0.00     0.042 C 
BRANCH  23  24
ATOM     24  C   UNL A   1      34.018  31.368  27.475  1.00  0.00     0.118 C 
BRANCH  24  25
ATOM     25  N   UNL A   1      33.980  32.048  28.771  1.00  0.00    -0.352 N 
ATOM     26  C   UNL A   1      34.886  31.908  29.816  1.00  0.00     0.251 C 
ATOM     27  H   UNL A   1      33.231  32.669  28.919  1.00  0.00     0.163 HD
ATOM     28  O   UNL A   1      34.596  32.236  30.949  1.00  0.00    -0.269 OA
BRANCH  26  29
ATOM     29  C   UNL A   1      36.207  31.326  29.499  1.00  0.00     0.039 A 
ATOM     30  C   UNL A   1      37.352  32.120  29.429  1.00  0.00     0.014 A 
ATOM     31  C   UNL A   1      36.290  29.942  29.398  1.00  0.00     0.014 A 
ATOM     32  C   UNL A   1      38.597  31.493  29.376  1.00  0.00     0.010 A 
ATOM     33  C   UNL A   1      37.516  29.333  29.523  1.00  0.00     0.010 A 
ATOM     34  C   UNL A   1      38.681  30.092  29.469  1.00  0.00    -0.014 A 
BRANCH  34  35
ATOM     35  C   UNL A   1      39.982  29.431  29.610  1.00  0.00     0.031 A 
ATOM     36  C   UNL A   1      40.430  29.179  31.011  1.00  0.00     0.074 A 
ATOM     37  C   UNL A   1      40.686  28.905  28.582  1.00  0.00     0.049 A 
ATOM     38  N   UNL A   1      41.391  29.766  31.647  1.00  0.00    -0.248 NA
ATOM     39  C   UNL A   1      39.648  28.254  31.846  1.00  0.00     0.031 C 
ATOM     40  C   UNL A   1      40.306  28.777  27.171  1.00  0.00     0.029 A 
ATOM     41  N   UNL A   1      41.892  28.272  28.619  1.00  0.00    -0.354 N 
ATOM     42  C   UNL A   1      41.484  29.133  32.884  1.00  0.00     0.074 A 
ATOM     43  C   UNL A   1      40.287  28.343  33.016  1.00  0.00     0.031 C 
ATOM     44  C   UNL A   1      41.135  27.910  26.550  1.00  0.00     0.029 A 
ATOM     45  C   UNL A   1      42.216  27.581  27.459  1.00  0.00     0.049 A 
ATOM     46  H   UNL A   1      42.486  28.304  29.403  1.00  0.00     0.167 HD
ATOM     47  C   UNL A   1      42.646  29.140  33.601  1.00  0.00     0.037 A 
ATOM     48  C   UNL A   1      43.297  26.793  27.247  1.00  0.00     0.037 A 
ATOM     49  C   UNL A   1      43.561  30.139  33.102  1.00  0.00     0.049 A 
ATOM     50  C   UNL A   1      44.331  27.205  28.227  1.00  0.00     0.074 A 
ATOM     51  C   UNL A   1      43.500  31.508  32.917  1.00  0.00     0.029 A 
ATOM     52  N   UNL A   1      44.624  29.716  32.340  1.00  0.00    -0.354 N 
ATOM     53  N   UNL A   1      44.930  28.365  28.205  1.00  0.00    -0.248 NA
ATOM     54  C   UNL A   1      44.381  26.505  29.501  1.00  0.00     0.031 C 
ATOM     55  C   UNL A   1      44.174  31.742  31.681  1.00  0.00     0.029 A 
ATOM     56  C   UNL A   1      44.665  30.518  31.226  1.00  0.00     0.049 A 
ATOM     57  H   UNL A   1      45.240  28.979  32.553  1.00  0.00     0.167 HD
ATOM     58  C   UNL A   1      45.035  28.736  29.537  1.00  0.00     0.074 A 
ATOM     59  C   UNL A   1      44.777  27.509  30.290  1.00  0.00     0.031 C 
ATOM     60  C   UNL A   1      45.047  30.051  29.911  1.00  0.00     0.037 A 
BRANCH  47  61
ATOM     61  C   UNL A   1      43.106  28.024  34.514  1.00  0.00     0.058 A 
ATOM     62  C   UNL A   1      43.436  28.316  35.855  1.00  0.00     0.135 A 
ATOM     63  C   UNL A   1      43.508  26.749  34.056  1.00  0.00     0.135 A 
ATOM     64  F   UNL A   1      43.103  29.497  36.400  1.00  0.00    -0.206 F 
ATOM     65  C   UNL A   1      44.186  27.447  36.649  1.00  0.00     0.059 A 
ATOM     66  C   UNL A   1      44.208  25.846  34.848  1.00  0.00     0.059 A 
ATOM     67  F   UNL A   1      43.331  26.356  32.790  1.00  0.00    -0.206 F 
ATOM     68  C   UNL A   1      44.585  26.221  36.128  1.00  0.00     0.060 A 
BRANCH  68  69
ATOM     69  S   UNL A   1      45.660  25.151  37.099  1.00  0.00     0.124 S 
ATOM     70  O   UNL A   1      46.228  24.294  36.064  1.00  0.00    -0.237 OA
ATOM     71  O   UNL A   1      46.575  26.112  37.707  1.00  0.00    -0.237 OA
ATOM     72  O   UNL A   1      44.738  24.501  38.025  1.00  0.00    -0.744 OA
ENDBRANCH  68  69
ENDBRANCH  47  61
BRANCH  48  73
ATOM     73  C   UNL A   1      43.382  25.540  26.455  1.00  0.00     0.058 A 
ATOM     74  C   UNL A   1      44.288  25.414  25.388  1.00  0.00     0.135 A 
ATOM     75  C   UNL A   1      42.786  24.347  26.910  1.00  0.00     0.135 A 
ATOM     76  F   UNL A   1      44.911  26.499  24.901  1.00  0.00    -0.206 F 
ATOM     77  C   UNL A   1      44.634  24.172  24.849  1.00  0.00     0.059 A 
ATOM     78  C   UNL A   1      43.106  23.098  26.380  1.00  0.00     0.059 A 
ATOM     79  F   UNL A   1      41.942  24.348  27.954  1.00  0.00    -0.206 F 
ATOM     80  C   UNL A   1      44.056  23.015  25.370  1.00  0.00     0.060 A 
BRANCH  80  81
ATOM     81  S   UNL A   1      44.652  21.400  24.816  1.00  0.00     0.124 S 
ATOM     82  O   UNL A   1      43.601  20.509  25.296  1.00  0.00    -0.237 OA
ATOM     83  O   UNL A   1      44.726  21.577  23.370  1.00  0.00    -0.237 OA
ATOM     84  O   UNL A   1      45.941  21.265  25.490  1.00  0.00    -0.744 OA
ENDBRANCH  80  81
ENDBRANCH  48  73
BRANCH  60  85
ATOM     85  C   UNL A   1      45.252  31.095  28.840  1.00  0.00     0.058 A 
ATOM     86  C   UNL A   1      44.246  31.566  27.975  1.00  0.00     0.135 A 
ATOM     87  C   UNL A   1      46.500  31.731  28.764  1.00  0.00     0.135 A 
ATOM     88  F   UNL A   1      42.992  31.102  28.056  1.00  0.00    -0.206 F 
ATOM     89  C   UNL A   1      44.490  32.569  27.034  1.00  0.00     0.059 A 
ATOM     90  C   UNL A   1      46.757  32.758  27.858  1.00  0.00     0.059 A 
ATOM     91  F   UNL A   1      47.486  31.381  29.605  1.00  0.00    -0.206 F 
ATOM     92  C   UNL A   1      45.752  33.157  26.979  1.00  0.00     0.060 A 
BRANCH  92  93
ATOM     93  S   UNL A   1      46.058  34.479  25.788  1.00  0.00     0.124 S 
ATOM     94  O   UNL A   1      45.113  34.159  24.723  1.00  0.00    -0.237 OA
ATOM     95  O   UNL A   1      45.758  35.681  26.561  1.00  0.00    -0.237 OA
ATOM     96  O   UNL A   1      47.467  34.309  25.442  1.00  0.00    -0.744 OA
ENDBRANCH  92  93
ENDBRANCH  60  85
ENDBRANCH  34  35
ENDBRANCH  26  29
ENDBRANCH  24  25
ENDBRANCH  23  24
ENDBRANCH   1  23
TORSDOF 17
ENDMDL
MODEL 3
REMARK VINA RESULT:     -11.5      2.815      4.317
REMARK SMILES CC(C)Cn1ncnc1C[N@H+]1CC[C@H](C(=O)NCCCNC(=O)c2ccc(-c3c4nc(c(-c5c(F)cc(S(=O)(=O)[O-])cc5F)c5ccc([nH]5)c(-c5c(F)cc(S(=O)(=O)[O-])cc5F)c5nc(c(-c6c(F)cc(S(=O)(=O)[O-])cc6F)c6ccc3[nH]6)C=C5)C=C4)cc2)[C@@H]1C
REMARK SMILES IDX 18 1 17 2 15 3 16 4 14 6 11 7 12 8 90 9 13 11 91 12 10 13
REMARK SMILES IDX 9 14 5 15 6 16 7 17 8 18 4 19 2 20 1 21 3 22 19 23 20 24
REMARK SMILES IDX 21 25 22 26 23 28 24 29 25 30 89 31 26 32 88 33 27 34 28 35
REMARK SMILES IDX 29 36 82 37 30 38 87 39 81 40 83 41 31 42 86 43 80 44 79 45
REMARK SMILES IDX 32 47 66 48 45 49 65 50 46 51 49 52 64 53 84 54 47 55 48 56
REMARK SMILES IDX 63 58 85 59 50 60 33 61 34 62 43 63 35 64 36 65 42 66 44 67
REMARK SMILES IDX 37 68 38 69 39 70 40 71 41 72 67 73 68 74 77 75 69 76 70 77
REMARK SMILES IDX 76 78 78 79 71 80 72 81 73 82 74 83 75 84 51 85 52 86 61 87
REMARK SMILES IDX 53 88 54 89 60 90 62 91 55 92 56 93 57 94 58 95 59 96
REMARK H PARENT 17 5 11 10 21 27 83 46 49 57
REMARK Flexibility Score: inf
ROOT
ATOM      1  C   UNL A   1      38.939  20.404  25.361  1.00  0.00     0.117 C 
ENDROOT
BRANCH   1   2
ATOM      2  N   UNL A   1      39.045  21.842  25.580  1.00  0.00    -0.356 N 
ATOM      3  C   UNL A   1      38.071  22.775  25.843  1.00  0.00     0.229 C 
ATOM      4  O   UNL A   1      38.444  23.920  26.082  1.00  0.00    -0.275 OA
ATOM      5  H   UNL A   1      39.960  22.201  25.532  1.00  0.00     0.163 HD
BRANCH   3   6
ATOM      6  C   UNL A   1      36.611  22.333  25.820  1.00  0.00     0.142 C 
ATOM      7  N   UNL A   1      34.533  22.942  24.713  1.00  0.00    -0.326 N 
ATOM      8  C   UNL A   1      34.788  23.927  25.751  1.00  0.00     0.263 C 
ATOM      9  C   UNL A   1      35.826  22.238  24.486  1.00  0.00     0.194 C 
ATOM     10  H   UNL A   1      34.228  23.401  23.855  1.00  0.00     0.348 HD
ATOM     11  C   UNL A   1      35.767  23.266  26.688  1.00  0.00     0.081 C 
ATOM     12  C   UNL A   1      36.460  22.851  23.239  1.00  0.00     0.076 C 
BRANCH   7  13
ATOM     13  C   UNL A   1      33.374  22.065  24.957  1.00  0.00     0.340 C 
BRANCH  13  14
ATOM     14  C   UNL A   1      32.822  21.304  23.789  1.00  0.00     0.182 A 
ATOM     15  N   UNL A   1      32.509  19.963  23.763  1.00  0.00    -0.245 N 
ATOM     16  N   UNL A   1      31.965  19.623  22.574  1.00  0.00    -0.159 NA
ATOM     17  C   UNL A   1      32.001  20.780  21.915  1.00  0.00     0.246 A 
ATOM     18  N   UNL A   1      32.509  21.826  22.616  1.00  0.00    -0.214 NA
BRANCH  15  19
ATOM     19  C   UNL A   1      32.594  18.962  24.809  1.00  0.00     0.149 C 
BRANCH  19  20
ATOM     20  C   UNL A   1      33.475  17.735  24.487  1.00  0.00     0.004 C 
ATOM     21  C   UNL A   1      34.959  18.084  24.373  1.00  0.00     0.009 C 
ATOM     22  C   UNL A   1      33.294  16.667  25.567  1.00  0.00     0.009 C 
ENDBRANCH  19  20
ENDBRANCH  15  19
ENDBRANCH  13  14
ENDBRANCH   7  13
ENDBRANCH   3   6
ENDBRANCH   1   2
BRANCH   1  23
ATOM     23  C   UNL A   1      40.066  19.585  25.986  1.00  0.00     0.042 C 
BRANCH  23  24
ATOM     24  C   UNL A   1      41.324  20.382  26.280  1.00  0.00     0.118 C 
BRANCH  24  25
ATOM     25  N   UNL A   1      42.544  19.800  25.719  1.00  0.00    -0.352 N 
ATOM     26  C   UNL A   1      43.632  20.487  25.192  1.00  0.00     0.251 C 
ATOM     27  H   UNL A   1      42.600  18.818  25.714  1.00  0.00     0.163 HD
ATOM     28  O   UNL A   1      44.427  19.936  24.456  1.00  0.00    -0.269 OA
BRANCH  26  29
ATOM     29  C   UNL A   1      43.773  21.915  25.544  1.00  0.00     0.039 A 
ATOM     30  C   UNL A   1      43.180  22.915  24.773  1.00  0.00     0.014 A 
ATOM     31  C   UNL A   1      44.408  22.220  26.742  1.00  0.00     0.014 A 
ATOM     32  C   UNL A   1      43.132  24.212  25.283  1.00  0.00     0.010 A 
ATOM     33  C   UNL A   1      44.204  23.453  27.315  1.00  0.00     0.010 A 
ATOM     34  C   UNL A   1      43.607  24.473  26.581  1.00  0.00    -0.014 A 
BRANCH  34  35
ATOM     35  C   UNL A   1      43.389  25.781  27.205  1.00  0.00     0.031 A 
ATOM     36  C   UNL A   1      44.397  26.831  26.872  1.00  0.00     0.074 A 
ATOM     37  C   UNL A   1      42.278  26.121  27.896  1.00  0.00     0.049 A 
ATOM     38  N   UNL A   1      45.294  27.335  27.653  1.00  0.00    -0.248 NA
ATOM     39  C   UNL A   1      44.501  27.292  25.478  1.00  0.00     0.031 C 
ATOM     40  C   UNL A   1      41.043  25.355  28.097  1.00  0.00     0.029 A 
ATOM     41  N   UNL A   1      41.988  27.307  28.502  1.00  0.00    -0.354 N 
ATOM     42  C   UNL A   1      45.932  28.335  26.923  1.00  0.00     0.074 A 
ATOM     43  C   UNL A   1      45.528  28.143  25.554  1.00  0.00     0.031 C 
ATOM     44  C   UNL A   1      40.069  26.169  28.556  1.00  0.00     0.029 A 
ATOM     45  C   UNL A   1      40.657  27.456  28.870  1.00  0.00     0.049 A 
ATOM     46  H   UNL A   1      42.667  28.001  28.666  1.00  0.00     0.167 HD
ATOM     47  C   UNL A   1      46.565  29.374  27.541  1.00  0.00     0.037 A 
ATOM     48  C   UNL A   1      40.070  28.556  29.400  1.00  0.00     0.037 A 
ATOM     49  C   UNL A   1      46.782  29.094  28.941  1.00  0.00     0.049 A 
ATOM     50  C   UNL A   1      41.149  29.367  30.016  1.00  0.00     0.074 A 
ATOM     51  C   UNL A   1      47.429  28.095  29.644  1.00  0.00     0.029 A 
ATOM     52  N   UNL A   1      45.962  29.710  29.856  1.00  0.00    -0.354 N 
ATOM     53  N   UNL A   1      41.834  28.990  31.062  1.00  0.00    -0.248 NA
ATOM     54  C   UNL A   1      41.775  30.398  29.204  1.00  0.00     0.031 C 
ATOM     55  C   UNL A   1      46.592  27.838  30.771  1.00  0.00     0.029 A 
ATOM     56  C   UNL A   1      45.528  28.739  30.725  1.00  0.00     0.049 A 
ATOM     57  H   UNL A   1      45.729  30.666  29.884  1.00  0.00     0.167 HD
ATOM     58  C   UNL A   1      43.134  29.392  30.799  1.00  0.00     0.074 A 
ATOM     59  C   UNL A   1      43.017  30.343  29.694  1.00  0.00     0.031 C 
ATOM     60  C   UNL A   1      44.205  28.715  31.311  1.00  0.00     0.037 A 
BRANCH  47  61
ATOM     61  C   UNL A   1      46.673  30.777  26.983  1.00  0.00     0.058 A 
ATOM     62  C   UNL A   1      47.928  31.421  26.962  1.00  0.00     0.135 A 
ATOM     63  C   UNL A   1      45.560  31.613  26.740  1.00  0.00     0.135 A 
ATOM     64  F   UNL A   1      49.057  30.726  27.179  1.00  0.00    -0.206 F 
ATOM     65  C   UNL A   1      48.061  32.801  26.802  1.00  0.00     0.059 A 
ATOM     66  C   UNL A   1      45.674  32.982  26.523  1.00  0.00     0.059 A 
ATOM     67  F   UNL A   1      44.302  31.164  26.799  1.00  0.00    -0.206 F 
ATOM     68  C   UNL A   1      46.923  33.576  26.603  1.00  0.00     0.060 A 
BRANCH  68  69
ATOM     69  S   UNL A   1      47.074  35.369  26.525  1.00  0.00     0.124 S 
ATOM     70  O   UNL A   1      47.412  35.692  27.907  1.00  0.00    -0.237 OA
ATOM     71  O   UNL A   1      48.143  35.541  25.546  1.00  0.00    -0.237 OA
ATOM     72  O   UNL A   1      45.751  35.797  26.080  1.00  0.00    -0.744 OA
ENDBRANCH  68  69
ENDBRANCH  47  61
BRANCH  48  73
ATOM     73  C   UNL A   1      38.700  29.074  29.160  1.00  0.00     0.058 A 
ATOM     74  C   UNL A   1      37.844  29.388  30.229  1.00  0.00     0.135 A 
ATOM     75  C   UNL A   1      38.310  29.545  27.890  1.00  0.00     0.135 A 
ATOM     76  F   UNL A   1      38.146  28.989  31.474  1.00  0.00    -0.206 F 
ATOM     77  C   UNL A   1      36.703  30.178  30.061  1.00  0.00     0.059 A 
ATOM     78  C   UNL A   1      37.172  30.325  27.696  1.00  0.00     0.059 A 
ATOM     79  F   UNL A   1      39.080  29.342  26.810  1.00  0.00    -0.206 F 
ATOM     80  C   UNL A   1      36.389  30.665  28.792  1.00  0.00     0.060 A 
BRANCH  80  81
ATOM     81  S   UNL A   1      35.037  31.851  28.608  1.00  0.00     0.124 S 
ATOM     82  O   UNL A   1      33.982  31.021  28.037  1.00  0.00    -0.237 OA
ATOM     83  O   UNL A   1      34.825  32.294  29.983  1.00  0.00    -0.237 OA
ATOM     84  O   UNL A   1      35.592  32.862  27.712  1.00  0.00    -0.744 OA
ENDBRANCH  80  81
ENDBRANCH  48  73
BRANCH  60  85
ATOM     85  C   UNL A   1      43.956  27.710  32.410  1.00  0.00     0.058 A 
ATOM     86  C   UNL A   1      43.831  26.321  32.215  1.00  0.00     0.135 A 
ATOM     87  C   UNL A   1      43.957  28.165  33.737  1.00  0.00     0.135 A 
ATOM     88  F   UNL A   1      43.938  25.783  30.993  1.00  0.00    -0.206 F 
ATOM     89  C   UNL A   1      43.646  25.439  33.282  1.00  0.00     0.059 A 
ATOM     90  C   UNL A   1      43.809  27.300  34.819  1.00  0.00     0.059 A 
ATOM     91  F   UNL A   1      44.140  29.468  34.001  1.00  0.00    -0.206 F 
ATOM     92  C   UNL A   1      43.631  25.938  34.582  1.00  0.00     0.060 A 
BRANCH  92  93
ATOM     93  S   UNL A   1      43.429  24.794  35.964  1.00  0.00     0.124 S 
ATOM     94  O   UNL A   1      43.134  23.538  35.283  1.00  0.00    -0.237 OA
ATOM     95  O   UNL A   1      44.727  24.864  36.630  1.00  0.00    -0.237 OA
ATOM     96  O   UNL A   1      42.320  25.366  36.723  1.00  0.00    -0.744 OA
ENDBRANCH  92  93
ENDBRANCH  60  85
ENDBRANCH  34  35
ENDBRANCH  26  29
ENDBRANCH  24  25
ENDBRANCH  23  24
ENDBRANCH   1  23
TORSDOF 17
ENDMDL
