MODEL 1
REMARK VINA RESULT:     -10.5      0.000      0.000
REMARK SMILES CC(C)[C@H](C[NH+](C)C)NC(=O)c1csc(/C=C/C(=O)NCCCNC(=O)c2ccc(-c3c4nc(c(-c5c(F)cc(S(=O)(=O)[O-])cc5F)c5ccc([nH]5)c(-c5c(F)cc(S(=O)(=O)[O-])cc5F)c5nc(c(-c6c(F)cc(S(=O)(=O)[O-])cc6F)c6ccc3[nH]6)C=C5)C=C4)cc2)c1
REMARK SMILES IDX 21 1 20 2 18 3 19 4 17 6 16 7 15 8 12 9 13 10 93 11 14 12
REMARK SMILES IDX 10 13 9 14 11 16 4 17 2 18 1 19 3 20 5 21 6 22 7 23 8 24
REMARK SMILES IDX 22 26 23 27 24 28 25 29 26 31 27 32 28 33 92 34 29 35 91 36
REMARK SMILES IDX 30 37 31 38 32 39 85 40 33 41 90 42 84 43 86 44 34 45 89 46
REMARK SMILES IDX 83 47 82 48 35 50 69 51 48 52 68 53 49 54 52 55 67 56 87 57
REMARK SMILES IDX 50 58 51 59 66 61 88 62 53 63 36 64 37 65 46 66 38 67 39 68
REMARK SMILES IDX 45 69 47 70 40 71 41 72 42 73 43 74 44 75 70 76 71 77 80 78
REMARK SMILES IDX 72 79 73 80 79 81 81 82 74 83 75 84 76 85 77 86 78 87 54 88
REMARK SMILES IDX 55 89 64 90 56 91 57 92 63 93 65 94 58 95 59 96 60 97 61 98
REMARK SMILES IDX 62 99
REMARK H PARENT 20 5 9 15 6 25 24 30 86 49 52 60
REMARK Flexibility Score: inf
ROOT
ATOM      1  C   UNL A   1      31.965  30.953  26.889  1.00  0.00     0.118 C 
ENDROOT
BRANCH   1   2
ATOM      2  N   UNL A   1      33.265  30.591  27.431  1.00  0.00    -0.352 N 
ATOM      3  C   UNL A   1      33.958  29.423  27.358  1.00  0.00     0.244 C 
ATOM      4  O   UNL A   1      35.113  29.368  27.773  1.00  0.00    -0.270 OA
ATOM      5  H   UNL A   1      33.717  31.309  27.931  1.00  0.00     0.163 HD
BRANCH   3   6
ATOM      6  C   UNL A   1      33.368  28.243  26.693  1.00  0.00     0.072 C 
ATOM      7  C   UNL A   1      33.810  27.769  25.520  1.00  0.00     0.024 C 
BRANCH   7   8
ATOM      8  C   UNL A   1      33.271  26.613  24.880  1.00  0.00     0.028 A 
ATOM      9  C   UNL A   1      33.114  24.717  23.480  1.00  0.00     0.051 A 
ATOM     10  C   UNL A   1      31.858  24.752  24.048  1.00  0.00     0.079 A 
ATOM     11  C   UNL A   1      33.932  25.771  24.000  1.00  0.00     0.033 A 
ATOM     12  S   UNL A   1      31.646  26.083  25.092  1.00  0.00    -0.144 S 
BRANCH   9  13
ATOM     13  C   UNL A   1      33.551  23.700  22.537  1.00  0.00     0.252 C 
ATOM     14  N   UNL A   1      34.309  22.657  23.004  1.00  0.00    -0.343 N 
ATOM     15  H   UNL A   1      34.706  22.082  22.311  1.00  0.00     0.164 HD
ATOM     16  O   UNL A   1      33.248  23.748  21.349  1.00  0.00    -0.269 OA
BRANCH  14  17
ATOM     17  C   UNL A   1      34.615  22.272  24.388  1.00  0.00     0.139 C 
BRANCH  17  18
ATOM     18  C   UNL A   1      36.078  22.597  24.823  1.00  0.00     0.011 C 
ATOM     19  C   UNL A   1      36.942  23.232  23.730  1.00  0.00     0.010 C 
ATOM     20  C   UNL A   1      36.089  23.506  26.059  1.00  0.00     0.010 C 
ENDBRANCH  17  18
BRANCH  17  21
ATOM     21  C   UNL A   1      34.190  20.795  24.679  1.00  0.00     0.287 C 
BRANCH  21  22
ATOM     22  N   UNL A   1      32.762  20.445  24.530  1.00  0.00    -0.338 N 
ATOM     23  C   UNL A   1      32.552  19.050  24.935  1.00  0.00     0.332 C 
ATOM     24  C   UNL A   1      31.874  21.308  25.307  1.00  0.00     0.332 C 
ATOM     25  H   UNL A   1      32.527  20.580  23.545  1.00  0.00     0.347 HD
ENDBRANCH  21  22
ENDBRANCH  17  21
ENDBRANCH  14  17
ENDBRANCH   9  13
ENDBRANCH   7   8
ENDBRANCH   3   6
ENDBRANCH   1   2
BRANCH   1  26
ATOM     26  C   UNL A   1      31.704  32.454  27.001  1.00  0.00     0.042 C 
BRANCH  26  27
ATOM     27  C   UNL A   1      32.970  33.278  27.225  1.00  0.00     0.118 C 
BRANCH  27  28
ATOM     28  N   UNL A   1      32.686  34.550  27.875  1.00  0.00    -0.352 N 
ATOM     29  C   UNL A   1      33.162  35.064  29.055  1.00  0.00     0.251 C 
ATOM     30  H   UNL A   1      32.057  35.132  27.392  1.00  0.00     0.163 HD
ATOM     31  O   UNL A   1      32.630  36.066  29.528  1.00  0.00    -0.269 OA
BRANCH  29  32
ATOM     32  C   UNL A   1      34.294  34.425  29.764  1.00  0.00     0.039 A 
ATOM     33  C   UNL A   1      34.032  33.704  30.934  1.00  0.00     0.014 A 
ATOM     34  C   UNL A   1      35.610  34.574  29.318  1.00  0.00     0.014 A 
ATOM     35  C   UNL A   1      35.080  33.094  31.627  1.00  0.00     0.010 A 
ATOM     36  C   UNL A   1      36.647  33.913  29.976  1.00  0.00     0.010 A 
ATOM     37  C   UNL A   1      36.394  33.172  31.140  1.00  0.00    -0.014 A 
BRANCH  37  38
ATOM     38  C   UNL A   1      37.516  32.490  31.835  1.00  0.00     0.031 A 
ATOM     39  C   UNL A   1      38.023  33.015  33.150  1.00  0.00     0.074 A 
ATOM     40  C   UNL A   1      38.119  31.437  31.249  1.00  0.00     0.049 A 
ATOM     41  N   UNL A   1      39.041  32.610  33.865  1.00  0.00    -0.248 NA
ATOM     42  C   UNL A   1      37.305  34.163  33.727  1.00  0.00     0.031 C 
ATOM     43  C   UNL A   1      37.747  30.862  29.955  1.00  0.00     0.029 A 
ATOM     44  N   UNL A   1      39.182  30.671  31.658  1.00  0.00    -0.354 N 
ATOM     45  C   UNL A   1      39.101  33.462  34.961  1.00  0.00     0.074 A 
ATOM     46  C   UNL A   1      38.040  34.433  34.797  1.00  0.00     0.031 C 
ATOM     47  C   UNL A   1      38.558  29.827  29.684  1.00  0.00     0.029 A 
ATOM     48  C   UNL A   1      39.528  29.686  30.765  1.00  0.00     0.049 A 
ATOM     49  H   UNL A   1      39.652  30.816  32.511  1.00  0.00     0.167 HD
ATOM     50  C   UNL A   1      39.950  33.428  36.016  1.00  0.00     0.037 A 
ATOM     51  C   UNL A   1      40.520  28.775  30.808  1.00  0.00     0.037 A 
ATOM     52  C   UNL A   1      40.983  32.440  36.189  1.00  0.00     0.049 A 
ATOM     53  C   UNL A   1      41.439  28.745  31.997  1.00  0.00     0.074 A 
ATOM     54  C   UNL A   1      41.857  32.284  37.252  1.00  0.00     0.029 A 
ATOM     55  N   UNL A   1      41.282  31.438  35.278  1.00  0.00    -0.354 N 
ATOM     56  N   UNL A   1      41.448  29.528  33.050  1.00  0.00    -0.248 NA
ATOM     57  C   UNL A   1      42.479  27.707  32.009  1.00  0.00     0.031 C 
ATOM     58  C   UNL A   1      42.705  31.207  36.968  1.00  0.00     0.029 A 
ATOM     59  C   UNL A   1      42.334  30.668  35.747  1.00  0.00     0.049 A 
ATOM     60  H   UNL A   1      40.814  31.295  34.423  1.00  0.00     0.167 HD
ATOM     61  C   UNL A   1      42.478  29.062  33.860  1.00  0.00     0.074 A 
ATOM     62  C   UNL A   1      43.062  27.925  33.179  1.00  0.00     0.031 C 
ATOM     63  C   UNL A   1      42.900  29.535  35.059  1.00  0.00     0.037 A 
BRANCH  50  64
ATOM     64  C   UNL A   1      39.793  34.490  37.070  1.00  0.00     0.058 A 
ATOM     65  C   UNL A   1      39.004  34.282  38.213  1.00  0.00     0.135 A 
ATOM     66  C   UNL A   1      40.456  35.722  36.948  1.00  0.00     0.135 A 
ATOM     67  F   UNL A   1      38.337  33.128  38.373  1.00  0.00    -0.206 F 
ATOM     68  C   UNL A   1      38.853  35.269  39.181  1.00  0.00     0.059 A 
ATOM     69  C   UNL A   1      40.340  36.713  37.918  1.00  0.00     0.059 A 
ATOM     70  F   UNL A   1      41.224  35.973  35.876  1.00  0.00    -0.206 F 
ATOM     71  C   UNL A   1      39.521  36.483  39.023  1.00  0.00     0.060 A 
BRANCH  71  72
ATOM     72  S   UNL A   1      39.310  37.757  40.285  1.00  0.00     0.124 S 
ATOM     73  O   UNL A   1      38.239  38.563  39.707  1.00  0.00    -0.237 OA
ATOM     74  O   UNL A   1      38.949  36.975  41.463  1.00  0.00    -0.237 OA
ATOM     75  O   UNL A   1      40.619  38.400  40.341  1.00  0.00    -0.744 OA
ENDBRANCH  71  72
ENDBRANCH  50  64
BRANCH  51  76
ATOM     76  C   UNL A   1      40.677  27.801  29.696  1.00  0.00     0.058 A 
ATOM     77  C   UNL A   1      41.716  27.933  28.765  1.00  0.00     0.135 A 
ATOM     78  C   UNL A   1      39.810  26.705  29.560  1.00  0.00     0.135 A 
ATOM     79  F   UNL A   1      42.566  28.968  28.851  1.00  0.00    -0.206 F 
ATOM     80  C   UNL A   1      41.887  27.020  27.729  1.00  0.00     0.059 A 
ATOM     81  C   UNL A   1      39.973  25.766  28.547  1.00  0.00     0.059 A 
ATOM     82  F   UNL A   1      38.810  26.526  30.438  1.00  0.00    -0.206 F 
ATOM     83  C   UNL A   1      41.012  25.936  27.631  1.00  0.00     0.060 A 
BRANCH  83  84
ATOM     84  S   UNL A   1      41.279  24.720  26.324  1.00  0.00     0.124 S 
ATOM     85  O   UNL A   1      39.998  24.024  26.304  1.00  0.00    -0.237 OA
ATOM     86  O   UNL A   1      41.565  25.567  25.169  1.00  0.00    -0.237 OA
ATOM     87  O   UNL A   1      42.413  23.944  26.816  1.00  0.00    -0.744 OA
ENDBRANCH  83  84
ENDBRANCH  51  76
BRANCH  63  88
ATOM     88  C   UNL A   1      44.030  28.806  35.728  1.00  0.00     0.058 A 
ATOM     89  C   UNL A   1      45.368  29.166  35.510  1.00  0.00     0.135 A 
ATOM     90  C   UNL A   1      43.768  27.766  36.635  1.00  0.00     0.135 A 
ATOM     91  F   UNL A   1      45.672  30.149  34.648  1.00  0.00    -0.206 F 
ATOM     92  C   UNL A   1      46.412  28.509  36.155  1.00  0.00     0.059 A 
ATOM     93  C   UNL A   1      44.792  27.110  37.307  1.00  0.00     0.059 A 
ATOM     94  F   UNL A   1      42.504  27.390  36.883  1.00  0.00    -0.206 F 
ATOM     95  C   UNL A   1      46.113  27.481  37.052  1.00  0.00     0.060 A 
BRANCH  95  96
ATOM     96  S   UNL A   1      47.471  26.658  37.911  1.00  0.00     0.124 S 
ATOM     97  O   UNL A   1      48.566  26.833  36.964  1.00  0.00    -0.237 OA
ATOM     98  O   UNL A   1      47.574  27.426  39.148  1.00  0.00    -0.237 OA
ATOM     99  O   UNL A   1      46.990  25.288  38.070  1.00  0.00    -0.744 OA
ENDBRANCH  95  96
ENDBRANCH  63  88
ENDBRANCH  37  38
ENDBRANCH  29  32
ENDBRANCH  27  28
ENDBRANCH  26  27
ENDBRANCH   1  26
TORSDOF 19
ENDMDL
MODEL 2
REMARK VINA RESULT:     -10.5      6.098      8.378
REMARK SMILES CC(C)[C@H](C[NH+](C)C)NC(=O)c1csc(/C=C/C(=O)NCCCNC(=O)c2ccc(-c3c4nc(c(-c5c(F)cc(S(=O)(=O)[O-])cc5F)c5ccc([nH]5)c(-c5c(F)cc(S(=O)(=O)[O-])cc5F)c5nc(c(-c6c(F)cc(S(=O)(=O)[O-])cc6F)c6ccc3[nH]6)C=C5)C=C4)cc2)c1
REMARK SMILES IDX 21 1 20 2 18 3 19 4 17 6 16 7 15 8 12 9 13 10 93 11 14 12
REMARK SMILES IDX 10 13 9 14 11 16 4 17 2 18 1 19 3 20 5 21 6 22 7 23 8 24
REMARK SMILES IDX 22 26 23 27 24 28 25 29 26 31 27 32 28 33 92 34 29 35 91 36
REMARK SMILES IDX 30 37 31 38 32 39 85 40 33 41 90 42 84 43 86 44 34 45 89 46
REMARK SMILES IDX 83 47 82 48 35 50 69 51 48 52 68 53 49 54 52 55 67 56 87 57
REMARK SMILES IDX 50 58 51 59 66 61 88 62 53 63 36 64 37 65 46 66 38 67 39 68
REMARK SMILES IDX 45 69 47 70 40 71 41 72 42 73 43 74 44 75 70 76 71 77 80 78
REMARK SMILES IDX 72 79 73 80 79 81 81 82 74 83 75 84 76 85 77 86 78 87 54 88
REMARK SMILES IDX 55 89 64 90 56 91 57 92 63 93 65 94 58 95 59 96 60 97 61 98
REMARK SMILES IDX 62 99
REMARK H PARENT 20 5 9 15 6 25 24 30 86 49 52 60
REMARK Flexibility Score: inf
ROOT
ATOM      1  C   UNL A   1      33.287  29.883  27.116  1.00  0.00     0.118 C 
ENDROOT
BRANCH   1   2
ATOM      2  N   UNL A   1      32.355  30.200  26.045  1.00  0.00    -0.352 N 
ATOM      3  C   UNL A   1      31.527  29.393  25.329  1.00  0.00     0.244 C 
ATOM      4  O   UNL A   1      30.711  29.884  24.553  1.00  0.00    -0.270 OA
ATOM      5  H   UNL A   1      32.316  31.152  25.799  1.00  0.00     0.163 HD
BRANCH   3   6
ATOM      6  C   UNL A   1      31.531  27.932  25.549  1.00  0.00     0.072 C 
ATOM      7  C   UNL A   1      31.360  27.043  24.559  1.00  0.00     0.024 C 
BRANCH   7   8
ATOM      8  C   UNL A   1      31.391  25.630  24.751  1.00  0.00     0.028 A 
ATOM      9  C   UNL A   1      31.847  23.530  25.733  1.00  0.00     0.051 A 
ATOM     10  C   UNL A   1      31.198  23.164  24.572  1.00  0.00     0.079 A 
ATOM     11  C   UNL A   1      31.914  24.956  25.844  1.00  0.00     0.033 A 
ATOM     12  S   UNL A   1      30.784  24.502  23.601  1.00  0.00    -0.144 S 
BRANCH   9  13
ATOM     13  C   UNL A   1      32.327  22.585  26.728  1.00  0.00     0.252 C 
ATOM     14  N   UNL A   1      33.022  21.483  26.303  1.00  0.00    -0.343 N 
ATOM     15  H   UNL A   1      33.193  20.800  26.991  1.00  0.00     0.164 HD
ATOM     16  O   UNL A   1      32.138  22.760  27.928  1.00  0.00    -0.269 OA
BRANCH  14  17
ATOM     17  C   UNL A   1      33.550  21.170  24.968  1.00  0.00     0.139 C 
BRANCH  17  18
ATOM     18  C   UNL A   1      33.300  19.696  24.521  1.00  0.00     0.011 C 
ATOM     19  C   UNL A   1      32.799  18.770  25.632  1.00  0.00     0.010 C 
ATOM     20  C   UNL A   1      32.315  19.644  23.346  1.00  0.00     0.010 C 
ENDBRANCH  17  18
BRANCH  17  21
ATOM     21  C   UNL A   1      35.040  21.623  24.821  1.00  0.00     0.287 C 
BRANCH  21  22
ATOM     22  N   UNL A   1      35.301  22.982  24.303  1.00  0.00    -0.338 N 
ATOM     23  C   UNL A   1      35.599  23.886  25.422  1.00  0.00     0.332 C 
ATOM     24  C   UNL A   1      36.402  23.031  23.343  1.00  0.00     0.332 C 
ATOM     25  H   UNL A   1      34.457  23.276  23.810  1.00  0.00     0.347 HD
ENDBRANCH  21  22
ENDBRANCH  17  21
ENDBRANCH  14  17
ENDBRANCH   9  13
ENDBRANCH   7   8
ENDBRANCH   3   6
ENDBRANCH   1   2
BRANCH   1  26
ATOM     26  C   UNL A   1      34.008  31.131  27.623  1.00  0.00     0.042 C 
BRANCH  26  27
ATOM     27  C   UNL A   1      35.372  30.839  28.244  1.00  0.00     0.118 C 
BRANCH  27  28
ATOM     28  N   UNL A   1      35.388  31.097  29.677  1.00  0.00    -0.352 N 
ATOM     29  C   UNL A   1      36.343  30.803  30.617  1.00  0.00     0.251 C 
ATOM     30  H   UNL A   1      34.589  31.554  30.025  1.00  0.00     0.163 HD
ATOM     31  O   UNL A   1      36.064  30.916  31.808  1.00  0.00    -0.269 OA
BRANCH  29  32
ATOM     32  C   UNL A   1      37.693  30.345  30.214  1.00  0.00     0.039 A 
ATOM     33  C   UNL A   1      38.017  30.327  28.854  1.00  0.00     0.014 A 
ATOM     34  C   UNL A   1      38.617  29.886  31.157  1.00  0.00     0.014 A 
ATOM     35  C   UNL A   1      39.281  29.895  28.444  1.00  0.00     0.010 A 
ATOM     36  C   UNL A   1      39.899  29.515  30.752  1.00  0.00     0.010 A 
ATOM     37  C   UNL A   1      40.242  29.509  29.391  1.00  0.00    -0.014 A 
BRANCH  37  38
ATOM     38  C   UNL A   1      41.607  29.094  28.980  1.00  0.00     0.031 A 
ATOM     39  C   UNL A   1      42.723  30.103  28.931  1.00  0.00     0.074 A 
ATOM     40  C   UNL A   1      41.827  27.824  28.588  1.00  0.00     0.049 A 
ATOM     41  N   UNL A   1      43.956  29.952  28.519  1.00  0.00    -0.248 NA
ATOM     42  C   UNL A   1      42.404  31.467  29.382  1.00  0.00     0.031 C 
ATOM     43  C   UNL A   1      40.816  26.764  28.550  1.00  0.00     0.029 A 
ATOM     44  N   UNL A   1      42.967  27.210  28.134  1.00  0.00    -0.354 N 
ATOM     45  C   UNL A   1      44.553  31.201  28.640  1.00  0.00     0.074 A 
ATOM     46  C   UNL A   1      43.535  32.109  29.126  1.00  0.00     0.031 C 
ATOM     47  C   UNL A   1      41.385  25.630  28.111  1.00  0.00     0.029 A 
ATOM     48  C   UNL A   1      42.788  25.888  27.805  1.00  0.00     0.049 A 
ATOM     49  H   UNL A   1      43.831  27.674  28.051  1.00  0.00     0.167 HD
ATOM     50  C   UNL A   1      45.836  31.556  28.386  1.00  0.00     0.037 A 
ATOM     51  C   UNL A   1      43.654  24.985  27.304  1.00  0.00     0.037 A 
ATOM     52  C   UNL A   1      46.852  30.641  27.934  1.00  0.00     0.049 A 
ATOM     53  C   UNL A   1      45.078  25.397  27.048  1.00  0.00     0.074 A 
ATOM     54  C   UNL A   1      48.194  30.889  27.705  1.00  0.00     0.029 A 
ATOM     55  N   UNL A   1      46.639  29.302  27.642  1.00  0.00    -0.354 N 
ATOM     56  N   UNL A   1      45.638  26.571  27.217  1.00  0.00    -0.248 NA
ATOM     57  C   UNL A   1      45.988  24.363  26.538  1.00  0.00     0.031 C 
ATOM     58  C   UNL A   1      48.786  29.707  27.244  1.00  0.00     0.029 A 
ATOM     59  C   UNL A   1      47.821  28.714  27.224  1.00  0.00     0.049 A 
ATOM     60  H   UNL A   1      45.774  28.838  27.721  1.00  0.00     0.167 HD
ATOM     61  C   UNL A   1      46.971  26.411  26.856  1.00  0.00     0.074 A 
ATOM     62  C   UNL A   1      47.135  25.025  26.470  1.00  0.00     0.031 C 
ATOM     63  C   UNL A   1      47.968  27.330  26.847  1.00  0.00     0.037 A 
BRANCH  50  64
ATOM     64  C   UNL A   1      46.214  32.996  28.599  1.00  0.00     0.058 A 
ATOM     65  C   UNL A   1      46.193  33.926  27.547  1.00  0.00     0.135 A 
ATOM     66  C   UNL A   1      46.578  33.459  29.873  1.00  0.00     0.135 A 
ATOM     67  F   UNL A   1      45.866  33.534  26.305  1.00  0.00    -0.206 F 
ATOM     68  C   UNL A   1      46.552  35.255  27.743  1.00  0.00     0.059 A 
ATOM     69  C   UNL A   1      46.915  34.791  30.098  1.00  0.00     0.059 A 
ATOM     70  F   UNL A   1      46.614  32.614  30.915  1.00  0.00    -0.206 F 
ATOM     71  C   UNL A   1      46.915  35.678  29.022  1.00  0.00     0.060 A 
BRANCH  71  72
ATOM     72  S   UNL A   1      47.384  37.405  29.261  1.00  0.00     0.124 S 
ATOM     73  O   UNL A   1      47.990  37.360  30.588  1.00  0.00    -0.237 OA
ATOM     74  O   UNL A   1      48.304  37.637  28.152  1.00  0.00    -0.237 OA
ATOM     75  O   UNL A   1      46.113  38.117  29.175  1.00  0.00    -0.744 OA
ENDBRANCH  71  72
ENDBRANCH  50  64
BRANCH  51  76
ATOM     76  C   UNL A   1      43.201  23.595  27.038  1.00  0.00     0.058 A 
ATOM     77  C   UNL A   1      42.948  23.160  25.730  1.00  0.00     0.135 A 
ATOM     78  C   UNL A   1      43.040  22.669  28.080  1.00  0.00     0.135 A 
ATOM     79  F   UNL A   1      43.082  24.011  24.702  1.00  0.00    -0.206 F 
ATOM     80  C   UNL A   1      42.540  21.857  25.461  1.00  0.00     0.059 A 
ATOM     81  C   UNL A   1      42.656  21.354  27.836  1.00  0.00     0.059 A 
ATOM     82  F   UNL A   1      43.288  23.033  29.348  1.00  0.00    -0.206 F 
ATOM     83  C   UNL A   1      42.401  20.959  26.522  1.00  0.00     0.060 A 
BRANCH  83  84
ATOM     84  S   UNL A   1      41.934  19.253  26.161  1.00  0.00     0.124 S 
ATOM     85  O   UNL A   1      42.745  18.969  24.983  1.00  0.00    -0.237 OA
ATOM     86  O   UNL A   1      42.322  18.561  27.387  1.00  0.00    -0.237 OA
ATOM     87  O   UNL A   1      40.495  19.342  25.930  1.00  0.00    -0.744 OA
ENDBRANCH  83  84
ENDBRANCH  51  76
BRANCH  63  88
ATOM     88  C   UNL A   1      49.334  26.860  26.434  1.00  0.00     0.058 A 
ATOM     89  C   UNL A   1      50.191  26.212  27.336  1.00  0.00     0.135 A 
ATOM     90  C   UNL A   1      49.769  27.015  25.109  1.00  0.00     0.135 A 
ATOM     91  F   UNL A   1      49.825  26.045  28.617  1.00  0.00    -0.206 F 
ATOM     92  C   UNL A   1      51.444  25.750  26.943  1.00  0.00     0.059 A 
ATOM     93  C   UNL A   1      51.007  26.543  24.687  1.00  0.00     0.059 A 
ATOM     94  F   UNL A   1      48.982  27.621  24.206  1.00  0.00    -0.206 F 
ATOM     95  C   UNL A   1      51.842  25.920  25.615  1.00  0.00     0.060 A 
BRANCH  95  96
ATOM     96  S   UNL A   1      53.454  25.287  25.106  1.00  0.00     0.124 S 
ATOM     97  O   UNL A   1      54.349  26.005  26.006  1.00  0.00    -0.237 OA
ATOM     98  O   UNL A   1      53.322  23.854  25.353  1.00  0.00    -0.237 OA
ATOM     99  O   UNL A   1      53.539  25.668  23.699  1.00  0.00    -0.744 OA
ENDBRANCH  95  96
ENDBRANCH  63  88
ENDBRANCH  37  38
ENDBRANCH  29  32
ENDBRANCH  27  28
ENDBRANCH  26  27
ENDBRANCH   1  26
TORSDOF 19
ENDMDL
MODEL 3
REMARK VINA RESULT:     -10.5      6.254     11.943
REMARK SMILES CC(C)[C@H](C[NH+](C)C)NC(=O)c1csc(/C=C/C(=O)NCCCNC(=O)c2ccc(-c3c4nc(c(-c5c(F)cc(S(=O)(=O)[O-])cc5F)c5ccc([nH]5)c(-c5c(F)cc(S(=O)(=O)[O-])cc5F)c5nc(c(-c6c(F)cc(S(=O)(=O)[O-])cc6F)c6ccc3[nH]6)C=C5)C=C4)cc2)c1
REMARK SMILES IDX 21 1 20 2 18 3 19 4 17 6 16 7 15 8 12 9 13 10 93 11 14 12
REMARK SMILES IDX 10 13 9 14 11 16 4 17 2 18 1 19 3 20 5 21 6 22 7 23 8 24
REMARK SMILES IDX 22 26 23 27 24 28 25 29 26 31 27 32 28 33 92 34 29 35 91 36
REMARK SMILES IDX 30 37 31 38 32 39 85 40 33 41 90 42 84 43 86 44 34 45 89 46
REMARK SMILES IDX 83 47 82 48 35 50 69 51 48 52 68 53 49 54 52 55 67 56 87 57
REMARK SMILES IDX 50 58 51 59 66 61 88 62 53 63 36 64 37 65 46 66 38 67 39 68
REMARK SMILES IDX 45 69 47 70 40 71 41 72 42 73 43 74 44 75 70 76 71 77 80 78
REMARK SMILES IDX 72 79 73 80 79 81 81 82 74 83 75 84 76 85 77 86 78 87 54 88
REMARK SMILES IDX 55 89 64 90 56 91 57 92 63 93 65 94 58 95 59 96 60 97 61 98
REMARK SMILES IDX 62 99
REMARK H PARENT 20 5 9 15 6 25 24 30 86 49 52 60
REMARK Flexibility Score: inf
ROOT
ATOM      1  C   UNL A   1      37.775  20.913  24.645  1.00  0.00     0.118 C 
ENDROOT
BRANCH   1   2
ATOM      2  N   UNL A   1      38.246  22.119  25.308  1.00  0.00    -0.352 N 
ATOM      3  C   UNL A   1      37.559  23.197  25.771  1.00  0.00     0.244 C 
ATOM      4  O   UNL A   1      38.138  24.057  26.430  1.00  0.00    -0.270 OA
ATOM      5  H   UNL A   1      39.220  22.161  25.445  1.00  0.00     0.163 HD
BRANCH   3   6
ATOM      6  C   UNL A   1      36.098  23.295  25.572  1.00  0.00     0.072 C 
ATOM      7  C   UNL A   1      35.220  22.496  26.197  1.00  0.00     0.024 C 
BRANCH   7   8
ATOM      8  C   UNL A   1      33.806  22.598  26.038  1.00  0.00     0.028 A 
ATOM      9  C   UNL A   1      31.592  23.380  26.295  1.00  0.00     0.051 A 
ATOM     10  C   UNL A   1      31.415  22.303  25.450  1.00  0.00     0.079 A 
ATOM     11  C   UNL A   1      32.980  23.564  26.591  1.00  0.00     0.033 A 
ATOM     12  S   UNL A   1      32.870  21.481  25.121  1.00  0.00    -0.144 S 
BRANCH   9  13
ATOM     13  C   UNL A   1      30.512  24.240  26.753  1.00  0.00     0.252 C 
ATOM     14  N   UNL A   1      30.603  25.587  26.515  1.00  0.00    -0.343 N 
ATOM     15  H   UNL A   1      29.931  26.142  26.972  1.00  0.00     0.164 HD
ATOM     16  O   UNL A   1      29.527  23.788  27.328  1.00  0.00    -0.269 OA
BRANCH  14  17
ATOM     17  C   UNL A   1      31.557  26.324  25.676  1.00  0.00     0.139 C 
BRANCH  17  18
ATOM     18  C   UNL A   1      32.029  27.676  26.298  1.00  0.00     0.011 C 
ATOM     19  C   UNL A   1      31.476  27.960  27.697  1.00  0.00     0.010 C 
ATOM     20  C   UNL A   1      33.560  27.749  26.341  1.00  0.00     0.010 C 
ENDBRANCH  17  18
BRANCH  17  21
ATOM     21  C   UNL A   1      31.041  26.460  24.205  1.00  0.00     0.287 C 
BRANCH  21  22
ATOM     22  N   UNL A   1      32.034  26.369  23.114  1.00  0.00    -0.338 N 
ATOM     23  C   UNL A   1      32.601  25.015  23.077  1.00  0.00     0.332 C 
ATOM     24  C   UNL A   1      31.478  26.690  21.801  1.00  0.00     0.332 C 
ATOM     25  H   UNL A   1      32.755  27.063  23.315  1.00  0.00     0.347 HD
ENDBRANCH  21  22
ENDBRANCH  17  21
ENDBRANCH  14  17
ENDBRANCH   9  13
ENDBRANCH   7   8
ENDBRANCH   3   6
ENDBRANCH   1   2
BRANCH   1  26
ATOM     26  C   UNL A   1      38.573  19.684  25.076  1.00  0.00     0.042 C 
BRANCH  26  27
ATOM     27  C   UNL A   1      39.565  19.964  26.202  1.00  0.00     0.118 C 
BRANCH  27  28
ATOM     28  N   UNL A   1      40.755  19.130  26.105  1.00  0.00    -0.352 N 
ATOM     29  C   UNL A   1      42.078  19.484  26.015  1.00  0.00     0.251 C 
ATOM     30  H   UNL A   1      40.583  18.161  26.104  1.00  0.00     0.163 HD
ATOM     31  O   UNL A   1      42.908  18.626  25.726  1.00  0.00    -0.269 OA
BRANCH  29  32
ATOM     32  C   UNL A   1      42.511  20.880  26.252  1.00  0.00     0.039 A 
ATOM     33  C   UNL A   1      42.664  21.320  27.571  1.00  0.00     0.014 A 
ATOM     34  C   UNL A   1      42.713  21.770  25.193  1.00  0.00     0.014 A 
ATOM     35  C   UNL A   1      43.067  22.634  27.825  1.00  0.00     0.010 A 
ATOM     36  C   UNL A   1      43.174  23.061  25.446  1.00  0.00     0.010 A 
ATOM     37  C   UNL A   1      43.349  23.508  26.764  1.00  0.00    -0.014 A 
BRANCH  37  38
ATOM     38  C   UNL A   1      43.825  24.893  27.013  1.00  0.00     0.031 A 
ATOM     39  C   UNL A   1      45.275  25.243  26.814  1.00  0.00     0.074 A 
ATOM     40  C   UNL A   1      42.965  25.819  27.480  1.00  0.00     0.049 A 
ATOM     41  N   UNL A   1      45.895  26.369  27.059  1.00  0.00    -0.248 NA
ATOM     42  C   UNL A   1      46.149  24.178  26.295  1.00  0.00     0.031 C 
ATOM     43  C   UNL A   1      41.544  25.591  27.754  1.00  0.00     0.029 A 
ATOM     44  N   UNL A   1      43.160  27.134  27.820  1.00  0.00    -0.354 N 
ATOM     45  C   UNL A   1      47.230  26.145  26.745  1.00  0.00     0.074 A 
ATOM     46  C   UNL A   1      47.339  24.761  26.330  1.00  0.00     0.031 C 
ATOM     47  C   UNL A   1      40.995  26.729  28.206  1.00  0.00     0.029 A 
ATOM     48  C   UNL A   1      42.028  27.757  28.286  1.00  0.00     0.049 A 
ATOM     49  H   UNL A   1      44.031  27.587  27.739  1.00  0.00     0.167 HD
ATOM     50  C   UNL A   1      48.268  27.015  26.781  1.00  0.00     0.037 A 
ATOM     51  C   UNL A   1      41.842  29.014  28.736  1.00  0.00     0.037 A 
ATOM     52  C   UNL A   1      48.148  28.398  27.164  1.00  0.00     0.049 A 
ATOM     53  C   UNL A   1      43.005  29.968  28.751  1.00  0.00     0.074 A 
ATOM     54  C   UNL A   1      49.127  29.377  27.177  1.00  0.00     0.029 A 
ATOM     55  N   UNL A   1      46.977  29.001  27.599  1.00  0.00    -0.354 N 
ATOM     56  N   UNL A   1      44.251  29.752  28.401  1.00  0.00    -0.248 NA
ATOM     57  C   UNL A   1      42.737  31.336  29.215  1.00  0.00     0.031 C 
ATOM     58  C   UNL A   1      48.555  30.562  27.652  1.00  0.00     0.029 A 
ATOM     59  C   UNL A   1      47.211  30.333  27.896  1.00  0.00     0.049 A 
ATOM     60  H   UNL A   1      46.107  28.547  27.685  1.00  0.00     0.167 HD
ATOM     61  C   UNL A   1      44.910  30.963  28.582  1.00  0.00     0.074 A 
ATOM     62  C   UNL A   1      43.923  31.908  29.061  1.00  0.00     0.031 C 
ATOM     63  C   UNL A   1      46.215  31.263  28.368  1.00  0.00     0.037 A 
BRANCH  50  64
ATOM     64  C   UNL A   1      49.625  26.497  26.392  1.00  0.00     0.058 A 
ATOM     65  C   UNL A   1      50.099  26.593  25.073  1.00  0.00     0.135 A 
ATOM     66  C   UNL A   1      50.472  25.917  27.350  1.00  0.00     0.135 A 
ATOM     67  F   UNL A   1      49.325  27.125  24.114  1.00  0.00    -0.206 F 
ATOM     68  C   UNL A   1      51.350  26.105  24.713  1.00  0.00     0.059 A 
ATOM     69  C   UNL A   1      51.738  25.446  27.017  1.00  0.00     0.059 A 
ATOM     70  F   UNL A   1      50.069  25.801  28.625  1.00  0.00    -0.206 F 
ATOM     71  C   UNL A   1      52.162  25.529  25.691  1.00  0.00     0.060 A 
BRANCH  71  72
ATOM     72  S   UNL A   1      53.781  24.893  25.208  1.00  0.00     0.124 S 
ATOM     73  O   UNL A   1      53.516  23.460  25.123  1.00  0.00    -0.237 OA
ATOM     74  O   UNL A   1      54.017  25.570  23.936  1.00  0.00    -0.237 OA
ATOM     75  O   UNL A   1      54.650  25.308  26.304  1.00  0.00    -0.744 OA
ENDBRANCH  71  72
ENDBRANCH  50  64
BRANCH  51  76
ATOM     76  C   UNL A   1      40.493  29.446  29.186  1.00  0.00     0.058 A 
ATOM     77  C   UNL A   1      40.218  29.647  30.545  1.00  0.00     0.135 A 
ATOM     78  C   UNL A   1      39.463  29.694  28.264  1.00  0.00     0.135 A 
ATOM     79  F   UNL A   1      41.170  29.417  31.463  1.00  0.00    -0.206 F 
ATOM     80  C   UNL A   1      38.966  30.069  30.981  1.00  0.00     0.059 A 
ATOM     81  C   UNL A   1      38.209  30.137  28.673  1.00  0.00     0.059 A 
ATOM     82  F   UNL A   1      39.683  29.533  26.950  1.00  0.00    -0.206 F 
ATOM     83  C   UNL A   1      37.968  30.315  30.036  1.00  0.00     0.060 A 
BRANCH  83  84
ATOM     84  S   UNL A   1      36.366  30.924  30.603  1.00  0.00     0.124 S 
ATOM     85  O   UNL A   1      35.570  30.835  29.385  1.00  0.00    -0.237 OA
ATOM     86  O   UNL A   1      36.030  29.972  31.658  1.00  0.00    -0.237 OA
ATOM     87  O   UNL A   1      36.667  32.276  31.064  1.00  0.00    -0.744 OA
ENDBRANCH  83  84
ENDBRANCH  51  76
BRANCH  63  88
ATOM     88  C   UNL A   1      46.647  32.679  28.623  1.00  0.00     0.058 A 
ATOM     89  C   UNL A   1      46.635  33.644  27.605  1.00  0.00     0.135 A 
ATOM     90  C   UNL A   1      47.028  33.086  29.911  1.00  0.00     0.135 A 
ATOM     91  F   UNL A   1      46.285  33.305  26.354  1.00  0.00    -0.206 F 
ATOM     92  C   UNL A   1      47.006  34.963  27.851  1.00  0.00     0.059 A 
ATOM     93  C   UNL A   1      47.381  34.402  30.186  1.00  0.00     0.059 A 
ATOM     94  F   UNL A   1      47.047  32.201  30.920  1.00  0.00    -0.206 F 
ATOM     95  C   UNL A   1      47.378  35.332  29.145  1.00  0.00     0.060 A 
BRANCH  95  96
ATOM     96  S   UNL A   1      47.823  37.052  29.462  1.00  0.00     0.124 S 
ATOM     97  O   UNL A   1      48.932  37.244  28.534  1.00  0.00    -0.237 OA
ATOM     98  O   UNL A   1      46.591  37.763  29.133  1.00  0.00    -0.237 OA
ATOM     99  O   UNL A   1      48.181  37.054  30.878  1.00  0.00    -0.744 OA
ENDBRANCH  95  96
ENDBRANCH  63  88
ENDBRANCH  37  38
ENDBRANCH  29  32
ENDBRANCH  27  28
ENDBRANCH  26  27
ENDBRANCH   1  26
TORSDOF 19
ENDMDL
