MODEL 1
REMARK VINA RESULT:     -14.6      0.000      0.000
REMARK SMILES Cc1cccc(-c2ccccc2C(=O)N2CC[C@H](O)C[C@@H]2C(=O)NCCCNC(=O)c2ccc(-c3c4nc(c(-c5c(F)cc(S(=O)(=O)[O-])cc5F)c5ccc([nH]5)c(-c5c(F)cc(S(=O)(=O)[O-])cc5F)c5nc(c(-c6c(F)cc(S(=O)(=O)[O-])cc6F)c6ccc3[nH]6)C=C5)C=C4)cc2)c1
REMARK SMILES IDX 26 1 25 2 24 3 22 4 23 5 21 7 15 8 16 9 17 10 20 11 18 12
REMARK SMILES IDX 13 13 14 14 12 15 7 16 8 17 9 18 11 19 10 20 6 21 1 22 2 23
REMARK SMILES IDX 3 24 97 25 4 26 5 27 19 28 27 30 28 31 29 32 30 34 31 35
REMARK SMILES IDX 32 36 96 37 33 38 95 39 34 40 35 41 36 42 89 43 37 44 94 45
REMARK SMILES IDX 88 46 90 47 38 48 93 49 87 50 86 51 39 53 73 54 52 55 72 56
REMARK SMILES IDX 53 57 56 58 71 59 91 60 54 61 55 62 70 64 92 65 57 66 40 67
REMARK SMILES IDX 41 68 50 69 42 70 43 71 49 72 51 73 44 74 45 75 46 76 47 77
REMARK SMILES IDX 48 78 74 79 75 80 84 81 76 82 77 83 83 84 85 85 78 86 79 87
REMARK SMILES IDX 80 88 81 89 82 90 58 91 59 92 68 93 60 94 61 95 67 96 69 97
REMARK SMILES IDX 62 98 63 99 64 100 65 101 66 102
REMARK H PARENT 24 6 19 29 28 33 90 52 56 63
REMARK Flexibility Score: inf
ROOT
ATOM      1  C   UNL A   1      32.988  29.657  27.585  1.00  0.00     0.042 C 
ENDROOT
BRANCH   1   2
ATOM      2  C   UNL A   1      32.320  30.471  26.482  1.00  0.00     0.117 C 
BRANCH   2   3
ATOM      3  N   UNL A   1      32.848  30.174  25.154  1.00  0.00    -0.354 N 
ATOM      4  C   UNL A   1      32.578  29.154  24.289  1.00  0.00     0.242 C 
ATOM      5  O   UNL A   1      33.194  29.139  23.216  1.00  0.00    -0.273 OA
ATOM      6  H   UNL A   1      33.515  30.820  24.827  1.00  0.00     0.163 HD
BRANCH   4   7
ATOM      7  C   UNL A   1      31.639  27.986  24.674  1.00  0.00     0.177 C 
ATOM      8  N   UNL A   1      32.312  26.705  24.389  1.00  0.00    -0.326 N 
ATOM      9  C   UNL A   1      32.407  26.305  22.983  1.00  0.00     0.123 C 
ATOM     10  C   UNL A   1      31.030  26.268  22.335  1.00  0.00     0.053 C 
ATOM     11  C   UNL A   1      30.280  28.080  23.960  1.00  0.00     0.067 C 
ATOM     12  C   UNL A   1      30.271  27.577  22.515  1.00  0.00     0.118 C 
BRANCH   8  13
ATOM     13  C   UNL A   1      32.861  26.015  25.471  1.00  0.00     0.255 C 
ATOM     14  O   UNL A   1      33.898  26.403  26.007  1.00  0.00    -0.269 OA
BRANCH  13  15
ATOM     15  C   UNL A   1      32.286  24.702  25.902  1.00  0.00     0.047 A 
ATOM     16  C   UNL A   1      32.920  23.479  25.579  1.00  0.00    -0.006 A 
ATOM     17  C   UNL A   1      32.214  22.280  25.816  1.00  0.00     0.009 A 
ATOM     18  C   UNL A   1      30.926  22.283  26.352  1.00  0.00     0.001 A 
ATOM     19  C   UNL A   1      30.979  24.688  26.431  1.00  0.00     0.014 A 
ATOM     20  C   UNL A   1      30.310  23.487  26.667  1.00  0.00     0.001 A 
BRANCH  16  21
ATOM     21  C   UNL A   1      34.265  23.382  24.987  1.00  0.00    -0.017 A 
ATOM     22  C   UNL A   1      37.926  23.472  26.076  1.00  0.00     0.044 C 
ATOM     23  C   UNL A   1      36.698  23.356  25.223  1.00  0.00    -0.051 A 
ATOM     24  C   UNL A   1      36.825  23.144  23.845  1.00  0.00     0.003 A 
ATOM     25  C   UNL A   1      35.417  23.474  25.784  1.00  0.00     0.012 A 
ATOM     26  C   UNL A   1      35.691  23.052  23.040  1.00  0.00     0.001 A 
ATOM     27  C   UNL A   1      34.421  23.169  23.608  1.00  0.00     0.009 A 
ENDBRANCH  16  21
ENDBRANCH  13  15
ENDBRANCH   8  13
BRANCH  12  28
ATOM     28  O   UNL A   1      30.744  28.554  21.595  1.00  0.00    -0.393 OA
ATOM     29  H   UNL A   1      30.041  28.769  20.961  1.00  0.00     0.210 HD
ENDBRANCH  12  28
ENDBRANCH   4   7
ENDBRANCH   2   3
ENDBRANCH   1   2
BRANCH   1  30
ATOM     30  C   UNL A   1      34.505  29.586  27.467  1.00  0.00     0.118 C 
BRANCH  30  31
ATOM     31  N   UNL A   1      35.169  30.832  27.819  1.00  0.00    -0.352 N 
ATOM     32  C   UNL A   1      36.347  30.989  28.528  1.00  0.00     0.251 C 
ATOM     33  H   UNL A   1      34.729  31.660  27.517  1.00  0.00     0.163 HD
ATOM     34  O   UNL A   1      36.670  32.053  29.031  1.00  0.00    -0.269 OA
BRANCH  32  35
ATOM     35  C   UNL A   1      37.280  29.844  28.524  1.00  0.00     0.039 A 
ATOM     36  C   UNL A   1      37.394  29.115  29.714  1.00  0.00     0.014 A 
ATOM     37  C   UNL A   1      38.188  29.666  27.485  1.00  0.00     0.014 A 
ATOM     38  C   UNL A   1      38.521  28.323  29.930  1.00  0.00     0.010 A 
ATOM     39  C   UNL A   1      39.340  28.944  27.733  1.00  0.00     0.010 A 
ATOM     40  C   UNL A   1      39.532  28.306  28.971  1.00  0.00    -0.014 A 
BRANCH  40  41
ATOM     41  C   UNL A   1      40.865  27.752  29.206  1.00  0.00     0.031 A 
ATOM     42  C   UNL A   1      41.221  26.392  28.728  1.00  0.00     0.074 A 
ATOM     43  C   UNL A   1      41.828  28.527  29.752  1.00  0.00     0.049 A 
ATOM     44  N   UNL A   1      42.280  25.741  29.082  1.00  0.00    -0.248 NA
ATOM     45  C   UNL A   1      40.366  25.634  27.824  1.00  0.00     0.031 C 
ATOM     46  C   UNL A   1      43.270  28.305  29.701  1.00  0.00     0.029 A 
ATOM     47  N   UNL A   1      41.675  29.587  30.646  1.00  0.00    -0.354 N 
ATOM     48  C   UNL A   1      42.388  24.625  28.283  1.00  0.00     0.074 A 
ATOM     49  C   UNL A   1      41.149  24.589  27.539  1.00  0.00     0.031 C 
ATOM     50  C   UNL A   1      43.855  29.010  30.680  1.00  0.00     0.029 A 
ATOM     51  C   UNL A   1      42.803  29.591  31.492  1.00  0.00     0.049 A 
ATOM     52  H   UNL A   1      40.919  30.218  30.679  1.00  0.00     0.167 HD
ATOM     53  C   UNL A   1      43.557  23.916  28.266  1.00  0.00     0.037 A 
ATOM     54  C   UNL A   1      42.662  29.399  32.838  1.00  0.00     0.037 A 
ATOM     55  C   UNL A   1      44.497  24.407  29.273  1.00  0.00     0.049 A 
ATOM     56  C   UNL A   1      43.271  28.115  33.363  1.00  0.00     0.074 A 
ATOM     57  C   UNL A   1      45.593  25.254  29.253  1.00  0.00     0.029 A 
ATOM     58  N   UNL A   1      44.190  24.214  30.608  1.00  0.00    -0.354 N 
ATOM     59  N   UNL A   1      43.934  27.260  32.635  1.00  0.00    -0.248 NA
ATOM     60  C   UNL A   1      43.112  27.654  34.746  1.00  0.00     0.031 C 
ATOM     61  C   UNL A   1      45.904  25.612  30.597  1.00  0.00     0.029 A 
ATOM     62  C   UNL A   1      44.997  24.980  31.428  1.00  0.00     0.049 A 
ATOM     63  H   UNL A   1      43.486  23.609  30.933  1.00  0.00     0.167 HD
ATOM     64  C   UNL A   1      44.189  26.139  33.376  1.00  0.00     0.074 A 
ATOM     65  C   UNL A   1      43.697  26.445  34.704  1.00  0.00     0.031 C 
ATOM     66  C   UNL A   1      44.724  25.003  32.852  1.00  0.00     0.037 A 
BRANCH  53  67
ATOM     67  C   UNL A   1      43.934  22.916  27.189  1.00  0.00     0.058 A 
ATOM     68  C   UNL A   1      43.134  21.774  26.955  1.00  0.00     0.135 A 
ATOM     69  C   UNL A   1      45.093  22.988  26.392  1.00  0.00     0.135 A 
ATOM     70  F   UNL A   1      41.949  21.612  27.557  1.00  0.00    -0.206 F 
ATOM     71  C   UNL A   1      43.519  20.736  26.103  1.00  0.00     0.059 A 
ATOM     72  C   UNL A   1      45.530  21.937  25.580  1.00  0.00     0.059 A 
ATOM     73  F   UNL A   1      45.821  24.110  26.323  1.00  0.00    -0.206 F 
ATOM     74  C   UNL A   1      44.741  20.804  25.452  1.00  0.00     0.060 A 
BRANCH  74  75
ATOM     75  S   UNL A   1      45.277  19.406  24.449  1.00  0.00     0.124 S 
ATOM     76  O   UNL A   1      46.717  19.628  24.355  1.00  0.00    -0.237 OA
ATOM     77  O   UNL A   1      44.862  18.270  25.265  1.00  0.00    -0.237 OA
ATOM     78  O   UNL A   1      44.542  19.583  23.200  1.00  0.00    -0.744 OA
ENDBRANCH  74  75
ENDBRANCH  53  67
BRANCH  54  79
ATOM     79  C   UNL A   1      41.449  30.075  33.376  1.00  0.00     0.058 A 
ATOM     80  C   UNL A   1      41.529  31.467  33.576  1.00  0.00     0.135 A 
ATOM     81  C   UNL A   1      40.177  29.508  33.229  1.00  0.00     0.135 A 
ATOM     82  F   UNL A   1      42.725  32.054  33.747  1.00  0.00    -0.206 F 
ATOM     83  C   UNL A   1      40.416  32.286  33.434  1.00  0.00     0.059 A 
ATOM     84  C   UNL A   1      39.044  30.311  33.099  1.00  0.00     0.059 A 
ATOM     85  F   UNL A   1      40.042  28.185  33.049  1.00  0.00    -0.206 F 
ATOM     86  C   UNL A   1      39.194  31.699  33.116  1.00  0.00     0.060 A 
BRANCH  86  87
ATOM     87  S   UNL A   1      37.868  32.781  32.533  1.00  0.00     0.124 S 
ATOM     88  O   UNL A   1      36.800  31.831  32.244  1.00  0.00    -0.237 OA
ATOM     89  O   UNL A   1      37.652  33.635  33.702  1.00  0.00    -0.237 OA
ATOM     90  O   UNL A   1      38.460  33.438  31.375  1.00  0.00    -0.744 OA
ENDBRANCH  86  87
ENDBRANCH  54  79
BRANCH  66  91
ATOM     91  C   UNL A   1      45.021  23.801  33.686  1.00  0.00     0.058 A 
ATOM     92  C   UNL A   1      46.338  23.474  34.040  1.00  0.00     0.135 A 
ATOM     93  C   UNL A   1      44.016  22.875  34.022  1.00  0.00     0.135 A 
ATOM     94  F   UNL A   1      47.348  24.306  33.743  1.00  0.00    -0.206 F 
ATOM     95  C   UNL A   1      46.647  22.280  34.688  1.00  0.00     0.059 A 
ATOM     96  C   UNL A   1      44.305  21.663  34.640  1.00  0.00     0.059 A 
ATOM     97  F   UNL A   1      42.726  23.137  33.758  1.00  0.00    -0.206 F 
ATOM     98  C   UNL A   1      45.624  21.377  34.976  1.00  0.00     0.060 A 
BRANCH  98  99
ATOM     99  S   UNL A   1      46.022  19.794  35.747  1.00  0.00     0.124 S 
ATOM    100  O   UNL A   1      45.141  18.861  35.051  1.00  0.00    -0.237 OA
ATOM    101  O   UNL A   1      47.443  19.670  35.436  1.00  0.00    -0.237 OA
ATOM    102  O   UNL A   1      45.700  20.020  37.152  1.00  0.00    -0.744 OA
ENDBRANCH  98  99
ENDBRANCH  66  91
ENDBRANCH  40  41
ENDBRANCH  32  35
ENDBRANCH  30  31
ENDBRANCH   1  30
TORSDOF 17
ENDMDL
MODEL 2
REMARK VINA RESULT:     -14.0      1.549      2.813
REMARK SMILES Cc1cccc(-c2ccccc2C(=O)N2CC[C@H](O)C[C@@H]2C(=O)NCCCNC(=O)c2ccc(-c3c4nc(c(-c5c(F)cc(S(=O)(=O)[O-])cc5F)c5ccc([nH]5)c(-c5c(F)cc(S(=O)(=O)[O-])cc5F)c5nc(c(-c6c(F)cc(S(=O)(=O)[O-])cc6F)c6ccc3[nH]6)C=C5)C=C4)cc2)c1
REMARK SMILES IDX 26 1 25 2 24 3 22 4 23 5 21 7 15 8 16 9 17 10 20 11 18 12
REMARK SMILES IDX 13 13 14 14 12 15 7 16 8 17 9 18 11 19 10 20 6 21 1 22 2 23
REMARK SMILES IDX 3 24 97 25 4 26 5 27 19 28 27 30 28 31 29 32 30 34 31 35
REMARK SMILES IDX 32 36 96 37 33 38 95 39 34 40 35 41 36 42 89 43 37 44 94 45
REMARK SMILES IDX 88 46 90 47 38 48 93 49 87 50 86 51 39 53 73 54 52 55 72 56
REMARK SMILES IDX 53 57 56 58 71 59 91 60 54 61 55 62 70 64 92 65 57 66 40 67
REMARK SMILES IDX 41 68 50 69 42 70 43 71 49 72 51 73 44 74 45 75 46 76 47 77
REMARK SMILES IDX 48 78 74 79 75 80 84 81 76 82 77 83 83 84 85 85 78 86 79 87
REMARK SMILES IDX 80 88 81 89 82 90 58 91 59 92 68 93 60 94 61 95 67 96 69 97
REMARK SMILES IDX 62 98 63 99 64 100 65 101 66 102
REMARK H PARENT 24 6 19 29 28 33 90 52 56 63
REMARK Flexibility Score: inf
ROOT
ATOM      1  C   UNL A   1      33.823  28.923  26.155  1.00  0.00     0.042 C 
ENDROOT
BRANCH   1   2
ATOM      2  C   UNL A   1      33.911  27.455  25.750  1.00  0.00     0.117 C 
BRANCH   2   3
ATOM      3  N   UNL A   1      32.828  27.042  24.862  1.00  0.00    -0.354 N 
ATOM      4  C   UNL A   1      32.273  25.817  24.635  1.00  0.00     0.242 C 
ATOM      5  O   UNL A   1      31.360  25.750  23.801  1.00  0.00    -0.273 OA
ATOM      6  H   UNL A   1      32.432  27.773  24.335  1.00  0.00     0.163 HD
BRANCH   4   7
ATOM      7  C   UNL A   1      32.836  24.533  25.289  1.00  0.00     0.177 C 
ATOM      8  N   UNL A   1      32.572  23.381  24.407  1.00  0.00    -0.326 N 
ATOM      9  C   UNL A   1      31.196  22.882  24.362  1.00  0.00     0.123 C 
ATOM     10  C   UNL A   1      30.700  22.529  25.758  1.00  0.00     0.053 C 
ATOM     11  C   UNL A   1      32.263  24.306  26.699  1.00  0.00     0.067 C 
ATOM     12  C   UNL A   1      30.866  23.683  26.739  1.00  0.00     0.118 C 
BRANCH   8  13
ATOM     13  C   UNL A   1      33.637  22.904  23.640  1.00  0.00     0.255 C 
ATOM     14  O   UNL A   1      33.462  22.536  22.479  1.00  0.00    -0.269 OA
BRANCH  13  15
ATOM     15  C   UNL A   1      34.981  22.686  24.260  1.00  0.00     0.047 A 
ATOM     16  C   UNL A   1      35.280  21.499  24.970  1.00  0.00    -0.006 A 
ATOM     17  C   UNL A   1      36.476  21.454  25.718  1.00  0.00     0.009 A 
ATOM     18  C   UNL A   1      37.350  22.541  25.767  1.00  0.00     0.001 A 
ATOM     19  C   UNL A   1      35.867  23.780  24.332  1.00  0.00     0.014 A 
ATOM     20  C   UNL A   1      37.050  23.703  25.068  1.00  0.00     0.001 A 
BRANCH  16  21
ATOM     21  C   UNL A   1      34.405  20.314  24.995  1.00  0.00    -0.017 A 
ATOM     22  C   UNL A   1      34.027  16.952  23.221  1.00  0.00     0.044 C 
ATOM     23  C   UNL A   1      33.803  18.096  24.165  1.00  0.00    -0.051 A 
ATOM     24  C   UNL A   1      32.756  18.038  25.092  1.00  0.00     0.003 A 
ATOM     25  C   UNL A   1      34.621  19.235  24.123  1.00  0.00     0.012 A 
ATOM     26  C   UNL A   1      32.528  19.101  25.963  1.00  0.00     0.001 A 
ATOM     27  C   UNL A   1      33.348  20.230  25.915  1.00  0.00     0.009 A 
ENDBRANCH  16  21
ENDBRANCH  13  15
ENDBRANCH   8  13
BRANCH  12  28
ATOM     28  O   UNL A   1      29.835  24.645  26.550  1.00  0.00    -0.393 OA
ATOM     29  H   UNL A   1      29.011  24.193  26.307  1.00  0.00     0.210 HD
ENDBRANCH  12  28
ENDBRANCH   4   7
ENDBRANCH   2   3
ENDBRANCH   1   2
BRANCH   1  30
ATOM     30  C   UNL A   1      34.101  29.174  27.632  1.00  0.00     0.118 C 
BRANCH  30  31
ATOM     31  N   UNL A   1      34.746  30.453  27.887  1.00  0.00    -0.352 N 
ATOM     32  C   UNL A   1      35.944  30.678  28.540  1.00  0.00     0.251 C 
ATOM     33  H   UNL A   1      34.275  31.251  27.555  1.00  0.00     0.163 HD
ATOM     34  O   UNL A   1      36.259  31.776  28.969  1.00  0.00    -0.269 OA
BRANCH  32  35
ATOM     35  C   UNL A   1      36.905  29.556  28.567  1.00  0.00     0.039 A 
ATOM     36  C   UNL A   1      37.145  28.955  29.808  1.00  0.00     0.014 A 
ATOM     37  C   UNL A   1      37.721  29.289  27.471  1.00  0.00     0.014 A 
ATOM     38  C   UNL A   1      38.308  28.211  29.999  1.00  0.00     0.010 A 
ATOM     39  C   UNL A   1      38.911  28.618  27.685  1.00  0.00     0.010 A 
ATOM     40  C   UNL A   1      39.230  28.114  28.958  1.00  0.00    -0.014 A 
BRANCH  40  41
ATOM     41  C   UNL A   1      40.594  27.612  29.124  1.00  0.00     0.031 A 
ATOM     42  C   UNL A   1      40.974  26.261  28.640  1.00  0.00     0.074 A 
ATOM     43  C   UNL A   1      41.555  28.428  29.609  1.00  0.00     0.049 A 
ATOM     44  N   UNL A   1      42.074  25.653  28.940  1.00  0.00    -0.248 NA
ATOM     45  C   UNL A   1      40.100  25.463  27.790  1.00  0.00     0.031 C 
ATOM     46  C   UNL A   1      42.999  28.259  29.482  1.00  0.00     0.029 A 
ATOM     47  N   UNL A   1      41.412  29.492  30.501  1.00  0.00    -0.354 N 
ATOM     48  C   UNL A   1      42.180  24.533  28.147  1.00  0.00     0.074 A 
ATOM     49  C   UNL A   1      40.904  24.443  27.473  1.00  0.00     0.031 C 
ATOM     50  C   UNL A   1      43.610  28.995  30.421  1.00  0.00     0.029 A 
ATOM     51  C   UNL A   1      42.583  29.547  31.284  1.00  0.00     0.049 A 
ATOM     52  H   UNL A   1      40.635  30.094  30.569  1.00  0.00     0.167 HD
ATOM     53  C   UNL A   1      43.371  23.868  28.072  1.00  0.00     0.037 A 
ATOM     54  C   UNL A   1      42.523  29.365  32.638  1.00  0.00     0.037 A 
ATOM     55  C   UNL A   1      44.346  24.404  29.022  1.00  0.00     0.049 A 
ATOM     56  C   UNL A   1      43.207  28.109  33.140  1.00  0.00     0.074 A 
ATOM     57  C   UNL A   1      45.407  25.290  28.935  1.00  0.00     0.029 A 
ATOM     58  N   UNL A   1      44.120  24.215  30.373  1.00  0.00    -0.354 N 
ATOM     59  N   UNL A   1      43.861  27.272  32.384  1.00  0.00    -0.248 NA
ATOM     60  C   UNL A   1      43.141  27.658  34.533  1.00  0.00     0.031 C 
ATOM     61  C   UNL A   1      45.777  25.674  30.256  1.00  0.00     0.029 A 
ATOM     62  C   UNL A   1      44.941  25.019  31.141  1.00  0.00     0.049 A 
ATOM     63  H   UNL A   1      43.457  23.587  30.742  1.00  0.00     0.167 HD
ATOM     64  C   UNL A   1      44.197  26.169  33.120  1.00  0.00     0.074 A 
ATOM     65  C   UNL A   1      43.768  26.471  34.470  1.00  0.00     0.031 C 
ATOM     66  C   UNL A   1      44.745  25.047  32.578  1.00  0.00     0.037 A 
BRANCH  53  67
ATOM     67  C   UNL A   1      43.726  22.870  26.986  1.00  0.00     0.058 A 
ATOM     68  C   UNL A   1      43.038  21.640  26.884  1.00  0.00     0.135 A 
ATOM     69  C   UNL A   1      44.765  23.034  26.049  1.00  0.00     0.135 A 
ATOM     70  F   UNL A   1      41.959  21.376  27.633  1.00  0.00    -0.206 F 
ATOM     71  C   UNL A   1      43.431  20.615  26.021  1.00  0.00     0.059 A 
ATOM     72  C   UNL A   1      45.217  22.003  25.219  1.00  0.00     0.059 A 
ATOM     73  F   UNL A   1      45.350  24.224  25.859  1.00  0.00    -0.206 F 
ATOM     74  C   UNL A   1      44.551  20.787  25.222  1.00  0.00     0.060 A 
BRANCH  74  75
ATOM     75  S   UNL A   1      45.117  19.415  24.200  1.00  0.00     0.124 S 
ATOM     76  O   UNL A   1      46.568  19.559  24.265  1.00  0.00    -0.237 OA
ATOM     77  O   UNL A   1      44.560  18.264  24.902  1.00  0.00    -0.237 OA
ATOM     78  O   UNL A   1      44.527  19.699  22.895  1.00  0.00    -0.744 OA
ENDBRANCH  74  75
ENDBRANCH  53  67
BRANCH  54  79
ATOM     79  C   UNL A   1      41.317  30.001  33.235  1.00  0.00     0.058 A 
ATOM     80  C   UNL A   1      41.308  31.407  33.313  1.00  0.00     0.135 A 
ATOM     81  C   UNL A   1      40.083  29.338  33.260  1.00  0.00     0.135 A 
ATOM     82  F   UNL A   1      42.467  32.087  33.317  1.00  0.00    -0.206 F 
ATOM     83  C   UNL A   1      40.128  32.133  33.214  1.00  0.00     0.059 A 
ATOM     84  C   UNL A   1      38.885  30.048  33.176  1.00  0.00     0.059 A 
ATOM     85  F   UNL A   1      40.033  27.999  33.202  1.00  0.00    -0.206 F 
ATOM     86  C   UNL A   1      38.930  31.439  33.066  1.00  0.00     0.060 A 
BRANCH  86  87
ATOM     87  S   UNL A   1      37.478  32.373  32.530  1.00  0.00     0.124 S 
ATOM     88  O   UNL A   1      38.020  33.193  31.452  1.00  0.00    -0.237 OA
ATOM     89  O   UNL A   1      36.576  31.299  32.113  1.00  0.00    -0.237 OA
ATOM     90  O   UNL A   1      37.084  33.093  33.734  1.00  0.00    -0.744 OA
ENDBRANCH  86  87
ENDBRANCH  54  79
BRANCH  66  91
ATOM     91  C   UNL A   1      45.132  23.866  33.405  1.00  0.00     0.058 A 
ATOM     92  C   UNL A   1      44.194  22.876  33.736  1.00  0.00     0.135 A 
ATOM     93  C   UNL A   1      46.401  23.777  34.005  1.00  0.00     0.135 A 
ATOM     94  F   UNL A   1      42.961  22.904  33.207  1.00  0.00    -0.206 F 
ATOM     95  C   UNL A   1      44.498  21.849  34.627  1.00  0.00     0.059 A 
ATOM     96  C   UNL A   1      46.716  22.779  34.922  1.00  0.00     0.059 A 
ATOM     97  F   UNL A   1      47.366  24.660  33.704  1.00  0.00    -0.206 F 
ATOM     98  C   UNL A   1      45.759  21.815  35.222  1.00  0.00     0.060 A 
BRANCH  98  99
ATOM     99  S   UNL A   1      46.137  20.534  36.436  1.00  0.00     0.124 S 
ATOM    100  O   UNL A   1      45.708  21.138  37.694  1.00  0.00    -0.237 OA
ATOM    101  O   UNL A   1      45.315  19.428  35.955  1.00  0.00    -0.237 OA
ATOM    102  O   UNL A   1      47.579  20.358  36.293  1.00  0.00    -0.744 OA
ENDBRANCH  98  99
ENDBRANCH  66  91
ENDBRANCH  40  41
ENDBRANCH  32  35
ENDBRANCH  30  31
ENDBRANCH   1  30
TORSDOF 17
ENDMDL
MODEL 3
REMARK VINA RESULT:     -13.8      4.520     11.180
REMARK SMILES Cc1cccc(-c2ccccc2C(=O)N2CC[C@H](O)C[C@@H]2C(=O)NCCCNC(=O)c2ccc(-c3c4nc(c(-c5c(F)cc(S(=O)(=O)[O-])cc5F)c5ccc([nH]5)c(-c5c(F)cc(S(=O)(=O)[O-])cc5F)c5nc(c(-c6c(F)cc(S(=O)(=O)[O-])cc6F)c6ccc3[nH]6)C=C5)C=C4)cc2)c1
REMARK SMILES IDX 26 1 25 2 24 3 22 4 23 5 21 7 15 8 16 9 17 10 20 11 18 12
REMARK SMILES IDX 13 13 14 14 12 15 7 16 8 17 9 18 11 19 10 20 6 21 1 22 2 23
REMARK SMILES IDX 3 24 97 25 4 26 5 27 19 28 27 30 28 31 29 32 30 34 31 35
REMARK SMILES IDX 32 36 96 37 33 38 95 39 34 40 35 41 36 42 89 43 37 44 94 45
REMARK SMILES IDX 88 46 90 47 38 48 93 49 87 50 86 51 39 53 73 54 52 55 72 56
REMARK SMILES IDX 53 57 56 58 71 59 91 60 54 61 55 62 70 64 92 65 57 66 40 67
REMARK SMILES IDX 41 68 50 69 42 70 43 71 49 72 51 73 44 74 45 75 46 76 47 77
REMARK SMILES IDX 48 78 74 79 75 80 84 81 76 82 77 83 83 84 85 85 78 86 79 87
REMARK SMILES IDX 80 88 81 89 82 90 58 91 59 92 68 93 60 94 61 95 67 96 69 97
REMARK SMILES IDX 62 98 63 99 64 100 65 101 66 102
REMARK H PARENT 24 6 19 29 28 33 90 52 56 63
REMARK Flexibility Score: inf
ROOT
ATOM      1  C   UNL A   1      36.881  23.672  26.481  1.00  0.00     0.042 C 
ENDROOT
BRANCH   1   2
ATOM      2  C   UNL A   1      35.689  22.957  25.852  1.00  0.00     0.117 C 
BRANCH   2   3
ATOM      3  N   UNL A   1      34.494  22.994  26.690  1.00  0.00    -0.354 N 
ATOM      4  C   UNL A   1      33.295  23.617  26.514  1.00  0.00     0.242 C 
ATOM      5  O   UNL A   1      32.448  23.489  27.408  1.00  0.00    -0.273 OA
ATOM      6  H   UNL A   1      34.568  22.481  27.527  1.00  0.00     0.163 HD
BRANCH   4   7
ATOM      7  C   UNL A   1      33.033  24.555  25.311  1.00  0.00     0.177 C 
ATOM      8  N   UNL A   1      31.580  24.753  25.155  1.00  0.00    -0.326 N 
ATOM      9  C   UNL A   1      30.816  23.639  24.587  1.00  0.00     0.123 C 
ATOM     10  C   UNL A   1      31.384  23.225  23.237  1.00  0.00     0.053 C 
ATOM     11  C   UNL A   1      33.672  24.025  24.017  1.00  0.00     0.067 C 
ATOM     12  C   UNL A   1      32.877  22.930  23.302  1.00  0.00     0.118 C 
BRANCH   8  13
ATOM     13  C   UNL A   1      31.043  25.955  25.620  1.00  0.00     0.255 C 
ATOM     14  O   UNL A   1      30.811  26.120  26.817  1.00  0.00    -0.269 OA
BRANCH  13  15
ATOM     15  C   UNL A   1      30.592  27.008  24.657  1.00  0.00     0.047 A 
ATOM     16  C   UNL A   1      31.162  28.302  24.662  1.00  0.00    -0.006 A 
ATOM     17  C   UNL A   1      30.540  29.307  23.889  1.00  0.00     0.009 A 
ATOM     18  C   UNL A   1      29.394  29.047  23.137  1.00  0.00     0.001 A 
ATOM     19  C   UNL A   1      29.426  26.765  23.902  1.00  0.00     0.014 A 
ATOM     20  C   UNL A   1      28.840  27.773  23.137  1.00  0.00     0.001 A 
BRANCH  16  21
ATOM     21  C   UNL A   1      32.354  28.672  25.445  1.00  0.00    -0.017 A 
ATOM     22  C   UNL A   1      33.537  31.453  27.782  1.00  0.00     0.044 C 
ATOM     23  C   UNL A   1      33.506  30.187  26.978  1.00  0.00    -0.051 A 
ATOM     24  C   UNL A   1      34.618  29.338  26.974  1.00  0.00     0.003 A 
ATOM     25  C   UNL A   1      32.381  29.848  26.211  1.00  0.00     0.012 A 
ATOM     26  C   UNL A   1      34.607  28.168  26.217  1.00  0.00     0.001 A 
ATOM     27  C   UNL A   1      33.483  27.838  25.459  1.00  0.00     0.009 A 
ENDBRANCH  16  21
ENDBRANCH  13  15
ENDBRANCH   8  13
BRANCH  12  28
ATOM     28  O   UNL A   1      33.103  21.641  23.860  1.00  0.00    -0.393 OA
ATOM     29  H   UNL A   1      32.900  21.659  24.809  1.00  0.00     0.210 HD
ENDBRANCH  12  28
ENDBRANCH   4   7
ENDBRANCH   2   3
ENDBRANCH   1   2
BRANCH   1  30
ATOM     30  C   UNL A   1      38.128  23.680  25.606  1.00  0.00     0.118 C 
BRANCH  30  31
ATOM     31  N   UNL A   1      39.332  23.273  26.315  1.00  0.00    -0.352 N 
ATOM     32  C   UNL A   1      40.295  24.091  26.878  1.00  0.00     0.251 C 
ATOM     33  H   UNL A   1      39.477  22.304  26.405  1.00  0.00     0.163 HD
ATOM     34  O   UNL A   1      41.403  23.681  27.184  1.00  0.00    -0.269 OA
BRANCH  32  35
ATOM     35  C   UNL A   1      39.874  25.460  27.238  1.00  0.00     0.039 A 
ATOM     36  C   UNL A   1      40.423  26.509  26.490  1.00  0.00     0.014 A 
ATOM     37  C   UNL A   1      39.183  25.707  28.420  1.00  0.00     0.014 A 
ATOM     38  C   UNL A   1      40.423  27.801  27.015  1.00  0.00     0.010 A 
ATOM     39  C   UNL A   1      39.254  26.973  28.972  1.00  0.00     0.010 A 
ATOM     40  C   UNL A   1      39.912  28.013  28.293  1.00  0.00    -0.014 A 
BRANCH  40  41
ATOM     41  C   UNL A   1      40.113  29.247  29.054  1.00  0.00     0.031 A 
ATOM     42  C   UNL A   1      39.053  30.285  29.118  1.00  0.00     0.074 A 
ATOM     43  C   UNL A   1      41.221  29.395  29.812  1.00  0.00     0.049 A 
ATOM     44  N   UNL A   1      39.223  31.484  29.568  1.00  0.00    -0.248 NA
ATOM     45  C   UNL A   1      37.700  30.049  28.632  1.00  0.00     0.031 C 
ATOM     46  C   UNL A   1      41.415  30.333  30.913  1.00  0.00     0.029 A 
ATOM     47  N   UNL A   1      42.487  28.847  29.601  1.00  0.00    -0.354 N 
ATOM     48  C   UNL A   1      37.989  32.085  29.677  1.00  0.00     0.074 A 
ATOM     49  C   UNL A   1      37.077  31.157  29.046  1.00  0.00     0.031 C 
ATOM     50  C   UNL A   1      42.729  30.488  31.130  1.00  0.00     0.029 A 
ATOM     51  C   UNL A   1      43.434  29.776  30.081  1.00  0.00     0.049 A 
ATOM     52  H   UNL A   1      42.683  27.972  29.193  1.00  0.00     0.167 HD
ATOM     53  C   UNL A   1      37.864  33.250  30.380  1.00  0.00     0.037 A 
ATOM     54  C   UNL A   1      44.344  30.341  29.232  1.00  0.00     0.037 A 
ATOM     55  C   UNL A   1      39.167  33.771  30.794  1.00  0.00     0.049 A 
ATOM     56  C   UNL A   1      44.176  31.833  29.023  1.00  0.00     0.074 A 
ATOM     57  C   UNL A   1      39.906  33.729  31.964  1.00  0.00     0.029 A 
ATOM     58  N   UNL A   1      40.026  34.242  29.817  1.00  0.00    -0.354 N 
ATOM     59  N   UNL A   1      43.284  32.567  29.628  1.00  0.00    -0.248 NA
ATOM     60  C   UNL A   1      44.958  32.603  28.052  1.00  0.00     0.031 C 
ATOM     61  C   UNL A   1      41.240  34.129  31.662  1.00  0.00     0.029 A 
ATOM     62  C   UNL A   1      41.306  34.413  30.311  1.00  0.00     0.049 A 
ATOM     63  H   UNL A   1      39.761  34.430  28.889  1.00  0.00     0.167 HD
ATOM     64  C   UNL A   1      43.290  33.822  29.084  1.00  0.00     0.074 A 
ATOM     65  C   UNL A   1      44.383  33.815  28.132  1.00  0.00     0.031 C 
ATOM     66  C   UNL A   1      42.366  34.774  29.389  1.00  0.00     0.037 A 
BRANCH  53  67
ATOM     67  C   UNL A   1      36.545  33.808  30.881  1.00  0.00     0.058 A 
ATOM     68  C   UNL A   1      35.536  34.198  29.971  1.00  0.00     0.135 A 
ATOM     69  C   UNL A   1      36.229  34.038  32.234  1.00  0.00     0.135 A 
ATOM     70  F   UNL A   1      35.640  33.950  28.659  1.00  0.00    -0.206 F 
ATOM     71  C   UNL A   1      34.377  34.874  30.361  1.00  0.00     0.059 A 
ATOM     72  C   UNL A   1      35.109  34.767  32.645  1.00  0.00     0.059 A 
ATOM     73  F   UNL A   1      36.967  33.513  33.220  1.00  0.00    -0.206 F 
ATOM     74  C   UNL A   1      34.191  35.195  31.698  1.00  0.00     0.060 A 
BRANCH  74  75
ATOM     75  S   UNL A   1      32.752  36.170  32.171  1.00  0.00     0.124 S 
ATOM     76  O   UNL A   1      33.255  36.931  33.311  1.00  0.00    -0.237 OA
ATOM     77  O   UNL A   1      32.493  36.939  30.958  1.00  0.00    -0.237 OA
ATOM     78  O   UNL A   1      31.750  35.159  32.498  1.00  0.00    -0.744 OA
ENDBRANCH  74  75
ENDBRANCH  53  67
BRANCH  54  79
ATOM     79  C   UNL A   1      44.848  29.369  28.223  1.00  0.00     0.058 A 
ATOM     80  C   UNL A   1      45.847  28.470  28.644  1.00  0.00     0.135 A 
ATOM     81  C   UNL A   1      44.076  29.013  27.110  1.00  0.00     0.135 A 
ATOM     82  F   UNL A   1      46.630  28.779  29.691  1.00  0.00    -0.206 F 
ATOM     83  C   UNL A   1      45.942  27.190  28.116  1.00  0.00     0.059 A 
ATOM     84  C   UNL A   1      44.165  27.737  26.554  1.00  0.00     0.059 A 
ATOM     85  F   UNL A   1      43.119  29.838  26.657  1.00  0.00    -0.206 F 
ATOM     86  C   UNL A   1      45.040  26.810  27.125  1.00  0.00     0.060 A 
BRANCH  86  87
ATOM     87  S   UNL A   1      44.901  25.048  26.745  1.00  0.00     0.124 S 
ATOM     88  O   UNL A   1      44.403  24.501  28.002  1.00  0.00    -0.237 OA
ATOM     89  O   UNL A   1      43.942  25.062  25.640  1.00  0.00    -0.237 OA
ATOM     90  O   UNL A   1      46.264  24.676  26.390  1.00  0.00    -0.744 OA
ENDBRANCH  86  87
ENDBRANCH  54  79
BRANCH  66  91
ATOM     91  C   UNL A   1      42.410  36.147  28.805  1.00  0.00     0.058 A 
ATOM     92  C   UNL A   1      41.878  36.410  27.534  1.00  0.00     0.135 A 
ATOM     93  C   UNL A   1      43.113  37.189  29.436  1.00  0.00     0.135 A 
ATOM     94  F   UNL A   1      41.203  35.459  26.870  1.00  0.00    -0.206 F 
ATOM     95  C   UNL A   1      42.042  37.646  26.914  1.00  0.00     0.059 A 
ATOM     96  C   UNL A   1      43.317  38.420  28.822  1.00  0.00     0.059 A 
ATOM     97  F   UNL A   1      43.613  37.030  30.672  1.00  0.00    -0.206 F 
ATOM     98  C   UNL A   1      42.772  38.643  27.562  1.00  0.00     0.060 A 
BRANCH  98  99
ATOM     99  S   UNL A   1      43.056  40.221  26.735  1.00  0.00     0.124 S 
ATOM    100  O   UNL A   1      43.372  41.118  27.842  1.00  0.00    -0.237 OA
ATOM    101  O   UNL A   1      44.172  39.890  25.855  1.00  0.00    -0.237 OA
ATOM    102  O   UNL A   1      41.783  40.480  26.070  1.00  0.00    -0.744 OA
ENDBRANCH  98  99
ENDBRANCH  66  91
ENDBRANCH  40  41
ENDBRANCH  32  35
ENDBRANCH  30  31
ENDBRANCH   1  30
TORSDOF 17
ENDMDL
