MODEL 1
REMARK VINA RESULT:     -11.8      0.000      0.000
REMARK SMILES CC[C@@H]1CCCN1c1cc(C)c(N)c(C(=O)NCCCNC(=O)c2ccc(-c3c4nc(c(-c5c(F)cc(S(=O)(=O)[O-])cc5F)c5ccc([nH]5)c(-c5c(F)cc(S(=O)(=O)[O-])cc5F)c5nc(c(-c6c(F)cc(S(=O)(=O)[O-])cc6F)c6ccc3[nH]6)C=C5)C=C4)cc2)c1
REMARK SMILES IDX 19 1 18 2 17 3 15 4 16 5 14 7 8 8 9 9 90 10 10 11 11 12
REMARK SMILES IDX 12 13 7 14 3 15 4 16 5 17 6 18 2 19 1 20 13 21 20 24 21 25
REMARK SMILES IDX 22 26 23 28 24 29 25 30 89 31 26 32 88 33 27 34 28 35 29 36
REMARK SMILES IDX 82 37 30 38 87 39 81 40 83 41 31 42 86 43 80 44 79 45 32 47
REMARK SMILES IDX 66 48 45 49 65 50 46 51 49 52 64 53 84 54 47 55 48 56 63 58
REMARK SMILES IDX 85 59 50 60 33 61 34 62 43 63 35 64 36 65 42 66 44 67 37 68
REMARK SMILES IDX 38 69 39 70 40 71 41 72 67 73 68 74 77 75 69 76 70 77 76 78
REMARK SMILES IDX 78 79 71 80 72 81 73 82 74 83 75 84 51 85 52 86 61 87 53 88
REMARK SMILES IDX 54 89 60 90 62 91 55 92 56 93 57 94 58 95 59 96
REMARK H PARENT 17 6 13 22 13 23 21 27 83 46 49 57
REMARK Flexibility Score: inf
ROOT
ATOM      1  C   UNL A   1      37.578  23.103  25.795  1.00  0.00     0.042 C 
ENDROOT
BRANCH   1   2
ATOM      2  C   UNL A   1      36.450  23.705  24.952  1.00  0.00     0.118 C 
BRANCH   2   3
ATOM      3  N   UNL A   1      35.168  23.519  25.605  1.00  0.00    -0.352 N 
ATOM      4  C   UNL A   1      34.079  24.329  25.808  1.00  0.00     0.253 C 
ATOM      5  O   UNL A   1      33.152  23.822  26.449  1.00  0.00    -0.269 OA
ATOM      6  H   UNL A   1      35.054  22.618  25.983  1.00  0.00     0.163 HD
BRANCH   4   7
ATOM      7  C   UNL A   1      33.944  25.726  25.278  1.00  0.00     0.065 A 
ATOM      8  C   UNL A   1      33.964  28.148  25.608  1.00  0.00     0.038 A 
ATOM      9  C   UNL A   1      33.751  28.316  24.239  1.00  0.00     0.031 A 
ATOM     10  C   UNL A   1      34.017  26.850  26.114  1.00  0.00     0.042 A 
ATOM     11  C   UNL A   1      33.565  27.223  23.382  1.00  0.00    -0.025 A 
ATOM     12  C   UNL A   1      33.237  27.490  21.938  1.00  0.00     0.046 C 
ATOM     13  C   UNL A   1      33.652  25.914  23.897  1.00  0.00     0.047 A 
BRANCH   8  14
ATOM     14  N   UNL A   1      34.089  29.257  26.407  1.00  0.00    -0.369 N 
ATOM     15  C   UNL A   1      32.953  29.946  27.025  1.00  0.00     0.082 C 
ATOM     16  C   UNL A   1      33.657  31.198  27.569  1.00  0.00     0.027 C 
ATOM     17  C   UNL A   1      34.977  30.652  28.100  1.00  0.00     0.024 C 
ATOM     18  C   UNL A   1      35.305  29.464  27.191  1.00  0.00     0.117 C 
BRANCH  15  19
ATOM     19  C   UNL A   1      31.814  30.318  26.073  1.00  0.00     0.021 C 
ATOM     20  C   UNL A   1      31.198  31.679  26.382  1.00  0.00     0.006 C 
ENDBRANCH  15  19
ENDBRANCH   8  14
BRANCH  13  21
ATOM     21  N   UNL A   1      33.594  24.830  23.007  1.00  0.00    -0.398 N 
ATOM     22  H   UNL A   1      33.749  24.974  22.046  1.00  0.00     0.156 HD
ATOM     23  H   UNL A   1      33.397  23.927  23.345  1.00  0.00     0.156 HD
ENDBRANCH  13  21
ENDBRANCH   4   7
ENDBRANCH   2   3
ENDBRANCH   1   2
BRANCH   1  24
ATOM     24  C   UNL A   1      38.455  24.160  26.470  1.00  0.00     0.118 C 
BRANCH  24  25
ATOM     25  N   UNL A   1      39.869  23.940  26.198  1.00  0.00    -0.352 N 
ATOM     26  C   UNL A   1      40.965  24.674  26.573  1.00  0.00     0.251 C 
ATOM     27  H   UNL A   1      40.068  23.140  25.660  1.00  0.00     0.163 HD
ATOM     28  O   UNL A   1      42.042  24.462  26.025  1.00  0.00    -0.269 OA
BRANCH  26  29
ATOM     29  C   UNL A   1      40.859  25.710  27.624  1.00  0.00     0.039 A 
ATOM     30  C   UNL A   1      39.809  25.630  28.544  1.00  0.00     0.014 A 
ATOM     31  C   UNL A   1      41.747  26.789  27.671  1.00  0.00     0.014 A 
ATOM     32  C   UNL A   1      39.676  26.604  29.536  1.00  0.00     0.010 A 
ATOM     33  C   UNL A   1      41.649  27.728  28.697  1.00  0.00     0.010 A 
ATOM     34  C   UNL A   1      40.610  27.649  29.635  1.00  0.00    -0.014 A 
BRANCH  34  35
ATOM     35  C   UNL A   1      40.516  28.663  30.717  1.00  0.00     0.031 A 
ATOM     36  C   UNL A   1      41.375  28.544  31.946  1.00  0.00     0.074 A 
ATOM     37  C   UNL A   1      39.607  29.652  30.618  1.00  0.00     0.049 A 
ATOM     38  N   UNL A   1      41.379  29.283  33.026  1.00  0.00    -0.248 NA
ATOM     39  C   UNL A   1      42.339  27.432  31.978  1.00  0.00     0.031 C 
ATOM     40  C   UNL A   1      38.683  29.843  29.498  1.00  0.00     0.029 A 
ATOM     41  N   UNL A   1      39.297  30.675  31.479  1.00  0.00    -0.354 N 
ATOM     42  C   UNL A   1      42.326  28.717  33.871  1.00  0.00     0.074 A 
ATOM     43  C   UNL A   1      42.847  27.547  33.198  1.00  0.00     0.031 C 
ATOM     44  C   UNL A   1      37.919  30.921  29.734  1.00  0.00     0.029 A 
ATOM     45  C   UNL A   1      38.271  31.478  31.036  1.00  0.00     0.049 A 
ATOM     46  H   UNL A   1      39.764  30.821  32.333  1.00  0.00     0.167 HD
ATOM     47  C   UNL A   1      42.734  29.143  35.091  1.00  0.00     0.037 A 
ATOM     48  C   UNL A   1      37.675  32.537  31.618  1.00  0.00     0.037 A 
ATOM     49  C   UNL A   1      42.232  30.326  35.740  1.00  0.00     0.049 A 
ATOM     50  C   UNL A   1      38.161  33.003  32.962  1.00  0.00     0.074 A 
ATOM     51  C   UNL A   1      42.632  30.883  36.943  1.00  0.00     0.029 A 
ATOM     52  N   UNL A   1      41.220  31.134  35.244  1.00  0.00    -0.354 N 
ATOM     53  N   UNL A   1      39.105  32.495  33.718  1.00  0.00    -0.248 NA
ATOM     54  C   UNL A   1      37.506  34.189  33.532  1.00  0.00     0.031 C 
ATOM     55  C   UNL A   1      41.833  32.005  37.193  1.00  0.00     0.029 A 
ATOM     56  C   UNL A   1      40.968  32.174  36.124  1.00  0.00     0.049 A 
ATOM     57  H   UNL A   1      40.750  30.990  34.390  1.00  0.00     0.167 HD
ATOM     58  C   UNL A   1      39.174  33.312  34.840  1.00  0.00     0.074 A 
ATOM     59  C   UNL A   1      38.185  34.355  34.659  1.00  0.00     0.031 C 
ATOM     60  C   UNL A   1      39.983  33.208  35.924  1.00  0.00     0.037 A 
BRANCH  47  61
ATOM     61  C   UNL A   1      43.781  28.329  35.803  1.00  0.00     0.058 A 
ATOM     62  C   UNL A   1      45.152  28.579  35.634  1.00  0.00     0.135 A 
ATOM     63  C   UNL A   1      43.407  27.312  36.698  1.00  0.00     0.135 A 
ATOM     64  F   UNL A   1      45.566  29.530  34.782  1.00  0.00    -0.206 F 
ATOM     65  C   UNL A   1      46.116  27.832  36.304  1.00  0.00     0.059 A 
ATOM     66  C   UNL A   1      44.355  26.570  37.398  1.00  0.00     0.059 A 
ATOM     67  F   UNL A   1      42.110  27.030  36.898  1.00  0.00    -0.206 F 
ATOM     68  C   UNL A   1      45.707  26.829  37.184  1.00  0.00     0.060 A 
BRANCH  68  69
ATOM     69  S   UNL A   1      46.971  25.873  38.049  1.00  0.00     0.124 S 
ATOM     70  O   UNL A   1      46.242  25.432  39.234  1.00  0.00    -0.237 OA
ATOM     71  O   UNL A   1      47.293  24.830  37.080  1.00  0.00    -0.237 OA
ATOM     72  O   UNL A   1      48.029  26.847  38.290  1.00  0.00    -0.744 OA
ENDBRANCH  68  69
ENDBRANCH  47  61
BRANCH  48  73
ATOM     73  C   UNL A   1      36.565  33.236  30.919  1.00  0.00     0.058 A 
ATOM     74  C   UNL A   1      35.235  33.072  31.330  1.00  0.00     0.135 A 
ATOM     75  C   UNL A   1      36.813  34.100  29.840  1.00  0.00     0.135 A 
ATOM     76  F   UNL A   1      34.947  32.253  32.354  1.00  0.00    -0.206 F 
ATOM     77  C   UNL A   1      34.187  33.724  30.690  1.00  0.00     0.059 A 
ATOM     78  C   UNL A   1      35.785  34.782  29.198  1.00  0.00     0.059 A 
ATOM     79  F   UNL A   1      38.071  34.307  29.420  1.00  0.00    -0.206 F 
ATOM     80  C   UNL A   1      34.473  34.581  29.625  1.00  0.00     0.060 A 
BRANCH  80  81
ATOM     81  S   UNL A   1      33.112  35.466  28.834  1.00  0.00     0.124 S 
ATOM     82  O   UNL A   1      32.398  35.999  29.986  1.00  0.00    -0.237 OA
ATOM     83  O   UNL A   1      33.819  36.443  28.011  1.00  0.00    -0.237 OA
ATOM     84  O   UNL A   1      32.420  34.418  28.088  1.00  0.00    -0.744 OA
ENDBRANCH  80  81
ENDBRANCH  48  73
BRANCH  60  85
ATOM     85  C   UNL A   1      39.855  34.264  36.985  1.00  0.00     0.058 A 
ATOM     86  C   UNL A   1      40.474  35.516  36.856  1.00  0.00     0.135 A 
ATOM     87  C   UNL A   1      39.062  34.036  38.121  1.00  0.00     0.135 A 
ATOM     88  F   UNL A   1      41.249  35.781  35.792  1.00  0.00    -0.206 F 
ATOM     89  C   UNL A   1      40.328  36.501  37.828  1.00  0.00     0.059 A 
ATOM     90  C   UNL A   1      38.881  35.015  39.093  1.00  0.00     0.059 A 
ATOM     91  F   UNL A   1      38.441  32.858  38.288  1.00  0.00    -0.206 F 
ATOM     92  C   UNL A   1      39.529  36.242  38.943  1.00  0.00     0.060 A 
BRANCH  92  93
ATOM     93  S   UNL A   1      39.320  37.539  40.181  1.00  0.00     0.124 S 
ATOM     94  O   UNL A   1      38.268  38.352  39.580  1.00  0.00    -0.237 OA
ATOM     95  O   UNL A   1      38.934  36.779  41.367  1.00  0.00    -0.237 OA
ATOM     96  O   UNL A   1      40.638  38.163  40.246  1.00  0.00    -0.744 OA
ENDBRANCH  92  93
ENDBRANCH  60  85
ENDBRANCH  34  35
ENDBRANCH  26  29
ENDBRANCH  24  25
ENDBRANCH   1  24
TORSDOF 16
ENDMDL
MODEL 2
REMARK VINA RESULT:     -11.5      6.705     12.940
REMARK SMILES CC[C@@H]1CCCN1c1cc(C)c(N)c(C(=O)NCCCNC(=O)c2ccc(-c3c4nc(c(-c5c(F)cc(S(=O)(=O)[O-])cc5F)c5ccc([nH]5)c(-c5c(F)cc(S(=O)(=O)[O-])cc5F)c5nc(c(-c6c(F)cc(S(=O)(=O)[O-])cc6F)c6ccc3[nH]6)C=C5)C=C4)cc2)c1
REMARK SMILES IDX 19 1 18 2 17 3 15 4 16 5 14 7 8 8 9 9 90 10 10 11 11 12
REMARK SMILES IDX 12 13 7 14 3 15 4 16 5 17 6 18 2 19 1 20 13 21 20 24 21 25
REMARK SMILES IDX 22 26 23 28 24 29 25 30 89 31 26 32 88 33 27 34 28 35 29 36
REMARK SMILES IDX 82 37 30 38 87 39 81 40 83 41 31 42 86 43 80 44 79 45 32 47
REMARK SMILES IDX 66 48 45 49 65 50 46 51 49 52 64 53 84 54 47 55 48 56 63 58
REMARK SMILES IDX 85 59 50 60 33 61 34 62 43 63 35 64 36 65 42 66 44 67 37 68
REMARK SMILES IDX 38 69 39 70 40 71 41 72 67 73 68 74 77 75 69 76 70 77 76 78
REMARK SMILES IDX 78 79 71 80 72 81 73 82 74 83 75 84 51 85 52 86 61 87 53 88
REMARK SMILES IDX 54 89 60 90 62 91 55 92 56 93 57 94 58 95 59 96
REMARK H PARENT 17 6 13 22 13 23 21 27 83 46 49 57
REMARK Flexibility Score: inf
ROOT
ATOM      1  C   UNL A   1      34.633  31.683  27.641  1.00  0.00     0.042 C 
ENDROOT
BRANCH   1   2
ATOM      2  C   UNL A   1      35.127  33.094  27.973  1.00  0.00     0.118 C 
BRANCH   2   3
ATOM      3  N   UNL A   1      34.010  34.011  28.102  1.00  0.00    -0.352 N 
ATOM      4  C   UNL A   1      33.533  34.789  29.126  1.00  0.00     0.253 C 
ATOM      5  O   UNL A   1      32.514  35.439  28.870  1.00  0.00    -0.269 OA
ATOM      6  H   UNL A   1      33.481  34.093  27.277  1.00  0.00     0.163 HD
BRANCH   4   7
ATOM      7  C   UNL A   1      34.183  34.920  30.472  1.00  0.00     0.065 A 
ATOM      8  C   UNL A   1      35.863  34.234  32.110  1.00  0.00     0.038 A 
ATOM      9  C   UNL A   1      35.412  35.241  32.964  1.00  0.00     0.031 A 
ATOM     10  C   UNL A   1      35.212  34.063  30.889  1.00  0.00     0.042 A 
ATOM     11  C   UNL A   1      34.317  36.052  32.636  1.00  0.00    -0.025 A 
ATOM     12  C   UNL A   1      33.827  37.044  33.654  1.00  0.00     0.046 C 
ATOM     13  C   UNL A   1      33.685  35.893  31.386  1.00  0.00     0.047 A 
BRANCH   8  14
ATOM     14  N   UNL A   1      36.908  33.438  32.507  1.00  0.00    -0.369 N 
ATOM     15  C   UNL A   1      38.316  33.828  32.393  1.00  0.00     0.082 C 
ATOM     16  C   UNL A   1      38.997  32.497  32.746  1.00  0.00     0.027 C 
ATOM     17  C   UNL A   1      38.139  31.959  33.886  1.00  0.00     0.024 C 
ATOM     18  C   UNL A   1      36.727  32.475  33.591  1.00  0.00     0.117 C 
BRANCH  15  19
ATOM     19  C   UNL A   1      38.749  34.324  31.011  1.00  0.00     0.021 C 
ATOM     20  C   UNL A   1      38.802  33.212  29.968  1.00  0.00     0.006 C 
ENDBRANCH  15  19
ENDBRANCH   8  14
BRANCH  13  21
ATOM     21  N   UNL A   1      32.677  36.796  31.016  1.00  0.00    -0.398 N 
ATOM     22  H   UNL A   1      31.776  36.464  30.796  1.00  0.00     0.156 HD
ATOM     23  H   UNL A   1      32.869  37.760  30.976  1.00  0.00     0.156 HD
ENDBRANCH  13  21
ENDBRANCH   4   7
ENDBRANCH   2   3
ENDBRANCH   1   2
BRANCH   1  24
ATOM     24  C   UNL A   1      35.523  30.581  28.219  1.00  0.00     0.118 C 
BRANCH  24  25
ATOM     25  N   UNL A   1      35.494  30.575  29.676  1.00  0.00    -0.352 N 
ATOM     26  C   UNL A   1      36.399  30.070  30.574  1.00  0.00     0.251 C 
ATOM     27  H   UNL A   1      34.701  30.998  30.076  1.00  0.00     0.163 HD
ATOM     28  O   UNL A   1      36.065  29.936  31.747  1.00  0.00    -0.269 OA
BRANCH  26  29
ATOM     29  C   UNL A   1      37.762  29.690  30.145  1.00  0.00     0.039 A 
ATOM     30  C   UNL A   1      38.079  29.746  28.784  1.00  0.00     0.014 A 
ATOM     31  C   UNL A   1      38.708  29.220  31.061  1.00  0.00     0.014 A 
ATOM     32  C   UNL A   1      39.353  29.376  28.349  1.00  0.00     0.010 A 
ATOM     33  C   UNL A   1      39.997  28.908  30.634  1.00  0.00     0.010 A 
ATOM     34  C   UNL A   1      40.331  28.977  29.274  1.00  0.00    -0.014 A 
BRANCH  34  35
ATOM     35  C   UNL A   1      41.708  28.633  28.836  1.00  0.00     0.031 A 
ATOM     36  C   UNL A   1      42.766  29.698  28.748  1.00  0.00     0.074 A 
ATOM     37  C   UNL A   1      41.984  27.370  28.453  1.00  0.00     0.049 A 
ATOM     38  N   UNL A   1      43.998  29.607  28.315  1.00  0.00    -0.248 NA
ATOM     39  C   UNL A   1      42.383  31.052  29.180  1.00  0.00     0.031 C 
ATOM     40  C   UNL A   1      41.027  26.261  28.447  1.00  0.00     0.029 A 
ATOM     41  N   UNL A   1      43.143  26.809  27.980  1.00  0.00    -0.354 N 
ATOM     42  C   UNL A   1      44.528  30.888  28.401  1.00  0.00     0.074 A 
ATOM     43  C   UNL A   1      43.473  31.750  28.890  1.00  0.00     0.031 C 
ATOM     44  C   UNL A   1      41.641  25.153  28.003  1.00  0.00     0.029 A 
ATOM     45  C   UNL A   1      43.022  25.477  27.660  1.00  0.00     0.049 A 
ATOM     46  H   UNL A   1      43.984  27.313  27.879  1.00  0.00     0.167 HD
ATOM     47  C   UNL A   1      45.785  31.305  28.115  1.00  0.00     0.037 A 
ATOM     48  C   UNL A   1      43.918  24.617  27.139  1.00  0.00     0.037 A 
ATOM     49  C   UNL A   1      46.838  30.434  27.659  1.00  0.00     0.049 A 
ATOM     50  C   UNL A   1      45.312  25.099  26.849  1.00  0.00     0.074 A 
ATOM     51  C   UNL A   1      48.165  30.745  27.411  1.00  0.00     0.029 A 
ATOM     52  N   UNL A   1      46.686  29.084  27.382  1.00  0.00    -0.354 N 
ATOM     53  N   UNL A   1      45.816  26.300  27.002  1.00  0.00    -0.248 NA
ATOM     54  C   UNL A   1      46.263  24.109  26.324  1.00  0.00     0.031 C 
ATOM     55  C   UNL A   1      48.804  29.591  26.944  1.00  0.00     0.029 A 
ATOM     56  C   UNL A   1      47.888  28.551  26.946  1.00  0.00     0.049 A 
ATOM     57  H   UNL A   1      45.847  28.578  27.481  1.00  0.00     0.167 HD
ATOM     58  C   UNL A   1      47.148  26.205  26.613  1.00  0.00     0.074 A 
ATOM     59  C   UNL A   1      47.374  24.826  26.232  1.00  0.00     0.031 C 
ATOM     60  C   UNL A   1      48.097  27.173  26.576  1.00  0.00     0.037 A 
BRANCH  47  61
ATOM     61  C   UNL A   1      46.095  32.767  28.292  1.00  0.00     0.058 A 
ATOM     62  C   UNL A   1      46.576  33.278  29.508  1.00  0.00     0.135 A 
ATOM     63  C   UNL A   1      45.949  33.662  27.218  1.00  0.00     0.135 A 
ATOM     64  F   UNL A   1      46.723  32.471  30.570  1.00  0.00    -0.206 F 
ATOM     65  C   UNL A   1      46.874  34.629  29.663  1.00  0.00     0.059 A 
ATOM     66  C   UNL A   1      46.266  35.012  27.344  1.00  0.00     0.059 A 
ATOM     67  F   UNL A   1      45.494  33.228  26.033  1.00  0.00    -0.206 F 
ATOM     68  C   UNL A   1      46.715  35.488  28.575  1.00  0.00     0.060 A 
BRANCH  68  69
ATOM     69  S   UNL A   1      47.111  37.236  28.792  1.00  0.00     0.124 S 
ATOM     70  O   UNL A   1      46.889  37.409  30.224  1.00  0.00    -0.237 OA
ATOM     71  O   UNL A   1      48.502  37.298  28.354  1.00  0.00    -0.237 OA
ATOM     72  O   UNL A   1      46.154  37.912  27.922  1.00  0.00    -0.744 OA
ENDBRANCH  68  69
ENDBRANCH  47  61
BRANCH  48  73
ATOM     73  C   UNL A   1      43.524  23.208  26.875  1.00  0.00     0.058 A 
ATOM     74  C   UNL A   1      43.383  22.730  25.565  1.00  0.00     0.135 A 
ATOM     75  C   UNL A   1      43.300  22.305  27.928  1.00  0.00     0.135 A 
ATOM     76  F   UNL A   1      43.581  23.555  24.526  1.00  0.00    -0.206 F 
ATOM     77  C   UNL A   1      43.020  21.412  25.304  1.00  0.00     0.059 A 
ATOM     78  C   UNL A   1      42.960  20.977  27.693  1.00  0.00     0.059 A 
ATOM     79  F   UNL A   1      43.441  22.708  29.200  1.00  0.00    -0.206 F 
ATOM     80  C   UNL A   1      42.813  20.542  26.376  1.00  0.00     0.060 A 
BRANCH  80  81
ATOM     81  S   UNL A   1      42.396  18.820  26.028  1.00  0.00     0.124 S 
ATOM     82  O   UNL A   1      40.992  18.928  25.654  1.00  0.00    -0.237 OA
ATOM     83  O   UNL A   1      43.322  18.492  24.948  1.00  0.00    -0.237 OA
ATOM     84  O   UNL A   1      42.665  18.147  27.296  1.00  0.00    -0.744 OA
ENDBRANCH  80  81
ENDBRANCH  48  73
BRANCH  60  85
ATOM     85  C   UNL A   1      49.476  26.771  26.135  1.00  0.00     0.058 A 
ATOM     86  C   UNL A   1      50.381  26.157  27.014  1.00  0.00     0.135 A 
ATOM     87  C   UNL A   1      49.878  26.958  24.802  1.00  0.00     0.135 A 
ATOM     88  F   UNL A   1      50.048  25.961  28.299  1.00  0.00    -0.206 F 
ATOM     89  C   UNL A   1      51.646  25.759  26.592  1.00  0.00     0.059 A 
ATOM     90  C   UNL A   1      51.128  26.546  24.353  1.00  0.00     0.059 A 
ATOM     91  F   UNL A   1      49.046  27.534  23.919  1.00  0.00    -0.206 F 
ATOM     92  C   UNL A   1      52.010  25.957  25.259  1.00  0.00     0.060 A 
BRANCH  92  93
ATOM     93  S   UNL A   1      53.642  25.408  24.715  1.00  0.00     0.124 S 
ATOM     94  O   UNL A   1      53.521  23.960  24.842  1.00  0.00    -0.237 OA
ATOM     95  O   UNL A   1      53.704  25.921  23.349  1.00  0.00    -0.237 OA
ATOM     96  O   UNL A   1      54.549  26.049  25.661  1.00  0.00    -0.744 OA
ENDBRANCH  92  93
ENDBRANCH  60  85
ENDBRANCH  34  35
ENDBRANCH  26  29
ENDBRANCH  24  25
ENDBRANCH   1  24
TORSDOF 16
ENDMDL
MODEL 3
REMARK VINA RESULT:     -11.5      1.241      2.549
REMARK SMILES CC[C@@H]1CCCN1c1cc(C)c(N)c(C(=O)NCCCNC(=O)c2ccc(-c3c4nc(c(-c5c(F)cc(S(=O)(=O)[O-])cc5F)c5ccc([nH]5)c(-c5c(F)cc(S(=O)(=O)[O-])cc5F)c5nc(c(-c6c(F)cc(S(=O)(=O)[O-])cc6F)c6ccc3[nH]6)C=C5)C=C4)cc2)c1
REMARK SMILES IDX 19 1 18 2 17 3 15 4 16 5 14 7 8 8 9 9 90 10 10 11 11 12
REMARK SMILES IDX 12 13 7 14 3 15 4 16 5 17 6 18 2 19 1 20 13 21 20 24 21 25
REMARK SMILES IDX 22 26 23 28 24 29 25 30 89 31 26 32 88 33 27 34 28 35 29 36
REMARK SMILES IDX 82 37 30 38 87 39 81 40 83 41 31 42 86 43 80 44 79 45 32 47
REMARK SMILES IDX 66 48 45 49 65 50 46 51 49 52 64 53 84 54 47 55 48 56 63 58
REMARK SMILES IDX 85 59 50 60 33 61 34 62 43 63 35 64 36 65 42 66 44 67 37 68
REMARK SMILES IDX 38 69 39 70 40 71 41 72 67 73 68 74 77 75 69 76 70 77 76 78
REMARK SMILES IDX 78 79 71 80 72 81 73 82 74 83 75 84 51 85 52 86 61 87 53 88
REMARK SMILES IDX 54 89 60 90 62 91 55 92 56 93 57 94 58 95 59 96
REMARK H PARENT 17 6 13 22 13 23 21 27 83 46 49 57
REMARK Flexibility Score: inf
ROOT
ATOM      1  C   UNL A   1      39.213  22.595  26.498  1.00  0.00     0.042 C 
ENDROOT
BRANCH   1   2
ATOM      2  C   UNL A   1      38.212  23.670  26.065  1.00  0.00     0.118 C 
BRANCH   2   3
ATOM      3  N   UNL A   1      37.670  23.368  24.754  1.00  0.00    -0.352 N 
ATOM      4  C   UNL A   1      36.398  23.289  24.247  1.00  0.00     0.253 C 
ATOM      5  O   UNL A   1      36.320  22.970  23.055  1.00  0.00    -0.269 OA
ATOM      6  H   UNL A   1      38.365  23.180  24.083  1.00  0.00     0.163 HD
BRANCH   4   7
ATOM      7  C   UNL A   1      35.150  23.598  25.020  1.00  0.00     0.065 A 
ATOM      8  C   UNL A   1      33.168  24.973  25.416  1.00  0.00     0.038 A 
ATOM      9  C   UNL A   1      32.795  24.103  26.441  1.00  0.00     0.031 A 
ATOM     10  C   UNL A   1      34.365  24.728  24.745  1.00  0.00     0.042 A 
ATOM     11  C   UNL A   1      33.602  23.022  26.823  1.00  0.00    -0.025 A 
ATOM     12  C   UNL A   1      33.181  22.193  28.005  1.00  0.00     0.046 C 
ATOM     13  C   UNL A   1      34.794  22.764  26.118  1.00  0.00     0.047 A 
BRANCH   8  14
ATOM     14  N   UNL A   1      32.362  26.044  25.121  1.00  0.00    -0.369 N 
ATOM     15  C   UNL A   1      32.855  27.417  24.978  1.00  0.00     0.082 C 
ATOM     16  C   UNL A   1      31.523  28.178  24.899  1.00  0.00     0.027 C 
ATOM     17  C   UNL A   1      30.656  27.271  24.033  1.00  0.00     0.024 C 
ATOM     18  C   UNL A   1      31.141  25.852  24.341  1.00  0.00     0.117 C 
BRANCH  15  19
ATOM     19  C   UNL A   1      33.719  27.927  26.134  1.00  0.00     0.021 C 
ATOM     20  C   UNL A   1      32.899  28.509  27.280  1.00  0.00     0.006 C 
ENDBRANCH  15  19
ENDBRANCH   8  14
BRANCH  13  21
ATOM     21  N   UNL A   1      35.525  21.605  26.423  1.00  0.00    -0.398 N 
ATOM     22  H   UNL A   1      35.109  20.719  26.319  1.00  0.00     0.156 HD
ATOM     23  H   UNL A   1      36.453  21.678  26.741  1.00  0.00     0.156 HD
ENDBRANCH  13  21
ENDBRANCH   4   7
ENDBRANCH   2   3
ENDBRANCH   1   2
BRANCH   1  24
ATOM     24  C   UNL A   1      40.489  23.172  27.111  1.00  0.00     0.118 C 
BRANCH  24  25
ATOM     25  N   UNL A   1      41.292  23.876  26.121  1.00  0.00    -0.352 N 
ATOM     26  C   UNL A   1      41.636  25.202  26.043  1.00  0.00     0.251 C 
ATOM     27  H   UNL A   1      41.641  23.312  25.393  1.00  0.00     0.163 HD
ATOM     28  O   UNL A   1      42.100  25.638  24.994  1.00  0.00    -0.269 OA
BRANCH  26  29
ATOM     29  C   UNL A   1      41.453  26.102  27.203  1.00  0.00     0.039 A 
ATOM     30  C   UNL A   1      42.384  27.124  27.413  1.00  0.00     0.014 A 
ATOM     31  C   UNL A   1      40.412  25.908  28.115  1.00  0.00     0.014 A 
ATOM     32  C   UNL A   1      42.245  27.977  28.510  1.00  0.00     0.010 A 
ATOM     33  C   UNL A   1      40.240  26.797  29.175  1.00  0.00     0.010 A 
ATOM     34  C   UNL A   1      41.157  27.836  29.387  1.00  0.00    -0.014 A 
BRANCH  34  35
ATOM     35  C   UNL A   1      40.963  28.769  30.526  1.00  0.00     0.031 A 
ATOM     36  C   UNL A   1      41.782  28.619  31.779  1.00  0.00     0.074 A 
ATOM     37  C   UNL A   1      39.999  29.708  30.455  1.00  0.00     0.049 A 
ATOM     38  N   UNL A   1      41.703  29.283  32.903  1.00  0.00    -0.248 NA
ATOM     39  C   UNL A   1      42.811  27.565  31.778  1.00  0.00     0.031 C 
ATOM     40  C   UNL A   1      39.107  29.918  29.313  1.00  0.00     0.029 A 
ATOM     41  N   UNL A   1      39.597  30.651  31.367  1.00  0.00    -0.354 N 
ATOM     42  C   UNL A   1      42.651  28.718  33.748  1.00  0.00     0.074 A 
ATOM     43  C   UNL A   1      43.267  27.629  33.022  1.00  0.00     0.031 C 
ATOM     44  C   UNL A   1      38.270  30.931  29.588  1.00  0.00     0.029 A 
ATOM     45  C   UNL A   1      38.541  31.421  30.936  1.00  0.00     0.049 A 
ATOM     46  H   UNL A   1      40.023  30.767  32.247  1.00  0.00     0.167 HD
ATOM     47  C   UNL A   1      42.989  29.086  35.007  1.00  0.00     0.037 A 
ATOM     48  C   UNL A   1      37.861  32.401  31.560  1.00  0.00     0.037 A 
ATOM     49  C   UNL A   1      42.392  30.192  35.711  1.00  0.00     0.049 A 
ATOM     50  C   UNL A   1      38.268  32.804  32.951  1.00  0.00     0.074 A 
ATOM     51  C   UNL A   1      42.713  30.690  36.962  1.00  0.00     0.029 A 
ATOM     52  N   UNL A   1      41.351  30.970  35.227  1.00  0.00    -0.354 N 
ATOM     53  N   UNL A   1      39.214  32.303  33.709  1.00  0.00    -0.248 NA
ATOM     54  C   UNL A   1      37.522  33.910  33.568  1.00  0.00     0.031 C 
ATOM     55  C   UNL A   1      41.840  31.744  37.252  1.00  0.00     0.029 A 
ATOM     56  C   UNL A   1      41.004  31.932  36.162  1.00  0.00     0.049 A 
ATOM     57  H   UNL A   1      40.922  30.856  34.348  1.00  0.00     0.167 HD
ATOM     58  C   UNL A   1      39.192  33.046  34.883  1.00  0.00     0.074 A 
ATOM     59  C   UNL A   1      38.148  34.040  34.730  1.00  0.00     0.031 C 
ATOM     60  C   UNL A   1      39.966  32.918  35.990  1.00  0.00     0.037 A 
BRANCH  47  61
ATOM     61  C   UNL A   1      44.057  28.289  35.707  1.00  0.00     0.058 A 
ATOM     62  C   UNL A   1      43.743  27.197  36.531  1.00  0.00     0.135 A 
ATOM     63  C   UNL A   1      45.415  28.595  35.516  1.00  0.00     0.135 A 
ATOM     64  F   UNL A   1      42.461  26.868  36.758  1.00  0.00    -0.206 F 
ATOM     65  C   UNL A   1      44.734  26.454  37.166  1.00  0.00     0.059 A 
ATOM     66  C   UNL A   1      46.424  27.849  36.120  1.00  0.00     0.059 A 
ATOM     67  F   UNL A   1      45.773  29.627  34.737  1.00  0.00    -0.206 F 
ATOM     68  C   UNL A   1      46.073  26.789  36.954  1.00  0.00     0.060 A 
BRANCH  68  69
ATOM     69  S   UNL A   1      47.347  25.812  37.780  1.00  0.00     0.124 S 
ATOM     70  O   UNL A   1      48.158  26.855  38.398  1.00  0.00    -0.237 OA
ATOM     71  O   UNL A   1      46.564  24.990  38.698  1.00  0.00    -0.237 OA
ATOM     72  O   UNL A   1      47.983  25.088  36.685  1.00  0.00    -0.744 OA
ENDBRANCH  68  69
ENDBRANCH  47  61
BRANCH  48  73
ATOM     73  C   UNL A   1      36.736  33.080  30.864  1.00  0.00     0.058 A 
ATOM     74  C   UNL A   1      35.405  32.732  31.133  1.00  0.00     0.135 A 
ATOM     75  C   UNL A   1      36.967  34.104  29.932  1.00  0.00     0.135 A 
ATOM     76  F   UNL A   1      35.132  31.756  32.013  1.00  0.00    -0.206 F 
ATOM     77  C   UNL A   1      34.342  33.361  30.494  1.00  0.00     0.059 A 
ATOM     78  C   UNL A   1      35.922  34.766  29.297  1.00  0.00     0.059 A 
ATOM     79  F   UNL A   1      38.223  34.488  29.653  1.00  0.00    -0.206 F 
ATOM     80  C   UNL A   1      34.611  34.381  29.578  1.00  0.00     0.060 A 
BRANCH  80  81
ATOM     81  S   UNL A   1      33.225  35.230  28.793  1.00  0.00     0.124 S 
ATOM     82  O   UNL A   1      32.506  35.750  29.949  1.00  0.00    -0.237 OA
ATOM     83  O   UNL A   1      33.903  36.221  27.962  1.00  0.00    -0.237 OA
ATOM     84  O   UNL A   1      32.553  34.164  28.055  1.00  0.00    -0.744 OA
ENDBRANCH  80  81
ENDBRANCH  48  73
BRANCH  60  85
ATOM     85  C   UNL A   1      39.736  33.892  37.110  1.00  0.00     0.058 A 
ATOM     86  C   UNL A   1      38.928  33.570  38.211  1.00  0.00     0.135 A 
ATOM     87  C   UNL A   1      40.371  35.144  37.105  1.00  0.00     0.135 A 
ATOM     88  F   UNL A   1      38.292  32.388  38.262  1.00  0.00    -0.206 F 
ATOM     89  C   UNL A   1      38.741  34.465  39.261  1.00  0.00     0.059 A 
ATOM     90  C   UNL A   1      40.219  36.044  38.155  1.00  0.00     0.059 A 
ATOM     91  F   UNL A   1      41.161  35.497  36.078  1.00  0.00    -0.206 F 
ATOM     92  C   UNL A   1      39.392  35.699  39.224  1.00  0.00     0.060 A 
BRANCH  92  93
ATOM     93  S   UNL A   1      39.169  36.839  40.606  1.00  0.00     0.124 S 
ATOM     94  O   UNL A   1      38.422  37.922  39.976  1.00  0.00    -0.237 OA
ATOM     95  O   UNL A   1      38.422  36.027  41.563  1.00  0.00    -0.237 OA
ATOM     96  O   UNL A   1      40.535  37.165  41.002  1.00  0.00    -0.744 OA
ENDBRANCH  92  93
ENDBRANCH  60  85
ENDBRANCH  34  35
ENDBRANCH  26  29
ENDBRANCH  24  25
ENDBRANCH   1  24
TORSDOF 16
ENDMDL
