MODEL 1
REMARK VINA RESULT:     -13.3      0.000      0.000
REMARK SMILES Cn1c(=O)c(=O)n(C)c2cc(S(=O)(=O)N3CCC[C@H]3C(=O)NCCCNC(=O)c3ccc(-c4c5nc(c(-c6c(F)cc(S(=O)(=O)[O-])cc6F)c6ccc([nH]6)c(-c6c(F)cc(S(=O)(=O)[O-])cc6F)c6nc(c(-c7c(F)cc(S(=O)(=O)[O-])cc7F)c7ccc4[nH]7)C=C6)C=C5)cc3)ccc21
REMARK SMILES IDX 24 1 23 2 22 3 20 4 21 5 19 7 15 8 16 9 17 10 18 11 12 12
REMARK SMILES IDX 13 13 14 14 11 15 1 16 2 17 3 18 97 19 4 20 5 21 9 22 96 23
REMARK SMILES IDX 6 24 7 25 10 26 95 27 8 28 25 29 26 30 27 31 28 33 29 34
REMARK SMILES IDX 30 35 94 36 31 37 93 38 32 39 33 40 34 41 87 42 35 43 92 44
REMARK SMILES IDX 86 45 88 46 36 47 91 48 85 49 84 50 37 52 71 53 50 54 70 55
REMARK SMILES IDX 51 56 54 57 69 58 89 59 52 60 53 61 68 63 90 64 55 65 38 66
REMARK SMILES IDX 39 67 48 68 40 69 41 70 47 71 49 72 42 73 43 74 44 75 45 76
REMARK SMILES IDX 46 77 72 78 73 79 82 80 74 81 75 82 81 83 83 84 76 85 77 86
REMARK SMILES IDX 78 87 79 88 80 89 56 90 57 91 66 92 58 93 59 94 65 95 67 96
REMARK SMILES IDX 60 97 61 98 62 99 63 100 64 101
REMARK H PARENT 22 6 26 32 88 51 54 62
REMARK Flexibility Score: inf
ROOT
ATOM      1  C   UNL A   1      34.248  31.632  27.655  1.00  0.00     0.042 C 
ENDROOT
BRANCH   1   2
ATOM      2  C   UNL A   1      33.650  30.300  27.246  1.00  0.00     0.117 C 
BRANCH   2   3
ATOM      3  N   UNL A   1      32.558  30.406  26.298  1.00  0.00    -0.355 N 
ATOM      4  C   UNL A   1      32.121  29.502  25.374  1.00  0.00     0.238 C 
ATOM      5  O   UNL A   1      31.050  29.742  24.808  1.00  0.00    -0.273 OA
ATOM      6  H   UNL A   1      32.059  31.254  26.326  1.00  0.00     0.163 HD
BRANCH   4   7
ATOM      7  C   UNL A   1      32.956  28.255  25.044  1.00  0.00     0.162 C 
ATOM      8  N   UNL A   1      32.099  27.165  24.515  1.00  0.00    -0.185 NA
ATOM      9  C   UNL A   1      32.189  27.127  23.051  1.00  0.00     0.103 C 
ATOM     10  C   UNL A   1      33.586  27.618  22.744  1.00  0.00     0.019 C 
ATOM     11  C   UNL A   1      33.927  28.577  23.879  1.00  0.00     0.032 C 
BRANCH   8  12
ATOM     12  S   UNL A   1      31.671  25.800  25.383  1.00  0.00     0.243 S 
ATOM     13  O   UNL A   1      30.642  25.109  24.639  1.00  0.00    -0.207 OA
ATOM     14  O   UNL A   1      31.448  26.179  26.763  1.00  0.00    -0.207 OA
BRANCH  12  15
ATOM     15  C   UNL A   1      33.072  24.695  25.414  1.00  0.00     0.084 A 
ATOM     16  C   UNL A   1      37.639  22.366  25.609  1.00  0.00     0.154 C 
ATOM     17  N   UNL A   1      36.275  21.917  25.370  1.00  0.00    -0.305 N 
ATOM     18  C   UNL A   1      36.087  20.576  25.046  1.00  0.00     0.316 A 
ATOM     19  C   UNL A   1      35.191  22.833  25.403  1.00  0.00     0.068 A 
ATOM     20  O   UNL A   1      37.012  19.782  24.885  1.00  0.00    -0.263 OA
ATOM     21  C   UNL A   1      34.648  20.079  24.859  1.00  0.00     0.316 A 
ATOM     22  C   UNL A   1      33.873  22.391  25.187  1.00  0.00     0.069 A 
ATOM     23  C   UNL A   1      35.419  24.197  25.638  1.00  0.00     0.030 A 
ATOM     24  O   UNL A   1      34.466  18.888  24.618  1.00  0.00    -0.263 OA
ATOM     25  N   UNL A   1      33.617  21.013  24.954  1.00  0.00    -0.305 N 
ATOM     26  C   UNL A   1      32.823  23.333  25.198  1.00  0.00     0.050 A 
ATOM     27  C   UNL A   1      34.371  25.116  25.644  1.00  0.00     0.024 A 
ATOM     28  C   UNL A   1      32.252  20.531  24.807  1.00  0.00     0.154 C 
ENDBRANCH  12  15
ENDBRANCH   8  12
ENDBRANCH   4   7
ENDBRANCH   2   3
ENDBRANCH   1   2
BRANCH   1  29
ATOM     29  C   UNL A   1      35.577  31.548  28.388  1.00  0.00     0.118 C 
BRANCH  29  30
ATOM     30  N   UNL A   1      35.492  30.912  29.695  1.00  0.00    -0.352 N 
ATOM     31  C   UNL A   1      36.438  30.226  30.422  1.00  0.00     0.251 C 
ATOM     32  H   UNL A   1      34.612  30.986  30.131  1.00  0.00     0.163 HD
ATOM     33  O   UNL A   1      36.112  29.689  31.477  1.00  0.00    -0.269 OA
BRANCH  31  34
ATOM     34  C   UNL A   1      37.827  30.091  29.922  1.00  0.00     0.039 A 
ATOM     35  C   UNL A   1      38.108  30.066  28.558  1.00  0.00     0.014 A 
ATOM     36  C   UNL A   1      38.870  29.972  30.846  1.00  0.00     0.014 A 
ATOM     37  C   UNL A   1      39.380  29.712  28.121  1.00  0.00     0.010 A 
ATOM     38  C   UNL A   1      40.174  29.725  30.401  1.00  0.00     0.010 A 
ATOM     39  C   UNL A   1      40.431  29.531  29.036  1.00  0.00    -0.014 A 
BRANCH  39  40
ATOM     40  C   UNL A   1      41.775  29.130  28.537  1.00  0.00     0.031 A 
ATOM     41  C   UNL A   1      42.927  30.102  28.559  1.00  0.00     0.074 A 
ATOM     42  C   UNL A   1      41.976  27.860  28.130  1.00  0.00     0.049 A 
ATOM     43  N   UNL A   1      44.171  29.914  28.194  1.00  0.00    -0.248 NA
ATOM     44  C   UNL A   1      42.652  31.463  29.049  1.00  0.00     0.031 C 
ATOM     45  C   UNL A   1      40.945  26.821  28.076  1.00  0.00     0.029 A 
ATOM     46  N   UNL A   1      43.115  27.217  27.719  1.00  0.00    -0.354 N 
ATOM     47  C   UNL A   1      44.819  31.127  28.396  1.00  0.00     0.074 A 
ATOM     48  C   UNL A   1      43.825  32.057  28.883  1.00  0.00     0.031 C 
ATOM     49  C   UNL A   1      41.511  25.658  27.721  1.00  0.00     0.029 A 
ATOM     50  C   UNL A   1      42.928  25.880  27.457  1.00  0.00     0.049 A 
ATOM     51  H   UNL A   1      43.984  27.669  27.621  1.00  0.00     0.167 HD
ATOM     52  C   UNL A   1      46.126  31.432  28.211  1.00  0.00     0.037 A 
ATOM     53  C   UNL A   1      43.795  24.937  27.040  1.00  0.00     0.037 A 
ATOM     54  C   UNL A   1      47.119  30.499  27.746  1.00  0.00     0.049 A 
ATOM     55  C   UNL A   1      45.227  25.315  26.793  1.00  0.00     0.074 A 
ATOM     56  C   UNL A   1      48.471  30.714  27.535  1.00  0.00     0.029 A 
ATOM     57  N   UNL A   1      46.873  29.172  27.424  1.00  0.00    -0.354 N 
ATOM     58  N   UNL A   1      45.817  26.471  26.983  1.00  0.00    -0.248 NA
ATOM     59  C   UNL A   1      46.107  24.267  26.261  1.00  0.00     0.031 C 
ATOM     60  C   UNL A   1      49.033  29.529  27.051  1.00  0.00     0.029 A 
ATOM     61  C   UNL A   1      48.042  28.562  27.000  1.00  0.00     0.049 A 
ATOM     62  H   UNL A   1      45.995  28.729  27.488  1.00  0.00     0.167 HD
ATOM     63  C   UNL A   1      47.140  26.286  26.601  1.00  0.00     0.074 A 
ATOM     64  C   UNL A   1      47.269  24.903  26.188  1.00  0.00     0.031 C 
ATOM     65  C   UNL A   1      48.155  27.185  26.589  1.00  0.00     0.037 A 
BRANCH  52  66
ATOM     66  C   UNL A   1      46.565  32.840  28.509  1.00  0.00     0.058 A 
ATOM     67  C   UNL A   1      47.032  33.210  29.780  1.00  0.00     0.135 A 
ATOM     68  C   UNL A   1      46.570  33.818  27.500  1.00  0.00     0.135 A 
ATOM     69  F   UNL A   1      47.033  32.320  30.786  1.00  0.00    -0.206 F 
ATOM     70  C   UNL A   1      47.469  34.503  30.047  1.00  0.00     0.059 A 
ATOM     71  C   UNL A   1      47.025  35.112  27.737  1.00  0.00     0.059 A 
ATOM     72  F   UNL A   1      46.135  33.517  26.266  1.00  0.00    -0.206 F 
ATOM     73  C   UNL A   1      47.463  35.447  29.017  1.00  0.00     0.060 A 
BRANCH  73  74
ATOM     74  S   UNL A   1      48.040  37.119  29.381  1.00  0.00     0.124 S 
ATOM     75  O   UNL A   1      46.860  37.700  30.015  1.00  0.00    -0.237 OA
ATOM     76  O   UNL A   1      49.175  36.869  30.265  1.00  0.00    -0.237 OA
ATOM     77  O   UNL A   1      48.377  37.657  28.068  1.00  0.00    -0.744 OA
ENDBRANCH  73  74
ENDBRANCH  52  66
BRANCH  53  78
ATOM     78  C   UNL A   1      43.322  23.542  26.838  1.00  0.00     0.058 A 
ATOM     79  C   UNL A   1      43.076  23.046  25.551  1.00  0.00     0.135 A 
ATOM     80  C   UNL A   1      43.149  22.668  27.923  1.00  0.00     0.135 A 
ATOM     81  F   UNL A   1      43.221  23.847  24.484  1.00  0.00    -0.206 F 
ATOM     82  C   UNL A   1      42.675  21.730  25.343  1.00  0.00     0.059 A 
ATOM     83  C   UNL A   1      42.774  21.342  27.739  1.00  0.00     0.059 A 
ATOM     84  F   UNL A   1      43.386  23.093  29.174  1.00  0.00    -0.206 F 
ATOM     85  C   UNL A   1      42.534  20.884  26.445  1.00  0.00     0.060 A 
BRANCH  85  86
ATOM     86  S   UNL A   1      42.082  19.159  26.157  1.00  0.00     0.124 S 
ATOM     87  O   UNL A   1      40.654  19.271  25.888  1.00  0.00    -0.237 OA
ATOM     88  O   UNL A   1      42.923  18.810  25.016  1.00  0.00    -0.237 OA
ATOM     89  O   UNL A   1      42.440  18.505  27.412  1.00  0.00    -0.744 OA
ENDBRANCH  85  86
ENDBRANCH  53  78
BRANCH  65  90
ATOM     90  C   UNL A   1      49.500  26.706  26.122  1.00  0.00     0.058 A 
ATOM     91  C   UNL A   1      49.930  26.909  24.803  1.00  0.00     0.135 A 
ATOM     92  C   UNL A   1      50.392  26.098  27.019  1.00  0.00     0.135 A 
ATOM     93  F   UNL A   1      49.110  27.478  23.904  1.00  0.00    -0.206 F 
ATOM     94  C   UNL A   1      51.197  26.518  24.384  1.00  0.00     0.059 A 
ATOM     95  C   UNL A   1      51.673  25.719  26.629  1.00  0.00     0.059 A 
ATOM     96  F   UNL A   1      50.029  25.887  28.295  1.00  0.00    -0.206 F 
ATOM     97  C   UNL A   1      52.064  25.927  25.307  1.00  0.00     0.060 A 
BRANCH  97  98
ATOM     98  S   UNL A   1      53.722  25.469  24.761  1.00  0.00     0.124 S 
ATOM     99  O   UNL A   1      53.647  24.011  24.782  1.00  0.00    -0.237 OA
ATOM    100  O   UNL A   1      53.796  26.081  23.439  1.00  0.00    -0.237 OA
ATOM    101  O   UNL A   1      54.589  26.066  25.772  1.00  0.00    -0.744 OA
ENDBRANCH  97  98
ENDBRANCH  65  90
ENDBRANCH  39  40
ENDBRANCH  31  34
ENDBRANCH  29  30
ENDBRANCH   1  29
TORSDOF 15
ENDMDL
MODEL 2
REMARK VINA RESULT:     -13.1      0.366      8.049
REMARK SMILES Cn1c(=O)c(=O)n(C)c2cc(S(=O)(=O)N3CCC[C@H]3C(=O)NCCCNC(=O)c3ccc(-c4c5nc(c(-c6c(F)cc(S(=O)(=O)[O-])cc6F)c6ccc([nH]6)c(-c6c(F)cc(S(=O)(=O)[O-])cc6F)c6nc(c(-c7c(F)cc(S(=O)(=O)[O-])cc7F)c7ccc4[nH]7)C=C6)C=C5)cc3)ccc21
REMARK SMILES IDX 24 1 23 2 22 3 20 4 21 5 19 7 15 8 16 9 17 10 18 11 12 12
REMARK SMILES IDX 13 13 14 14 11 15 1 16 2 17 3 18 97 19 4 20 5 21 9 22 96 23
REMARK SMILES IDX 6 24 7 25 10 26 95 27 8 28 25 29 26 30 27 31 28 33 29 34
REMARK SMILES IDX 30 35 94 36 31 37 93 38 32 39 33 40 34 41 87 42 35 43 92 44
REMARK SMILES IDX 86 45 88 46 36 47 91 48 85 49 84 50 37 52 71 53 50 54 70 55
REMARK SMILES IDX 51 56 54 57 69 58 89 59 52 60 53 61 68 63 90 64 55 65 38 66
REMARK SMILES IDX 39 67 48 68 40 69 41 70 47 71 49 72 42 73 43 74 44 75 45 76
REMARK SMILES IDX 46 77 72 78 73 79 82 80 74 81 75 82 81 83 83 84 76 85 77 86
REMARK SMILES IDX 78 87 79 88 80 89 56 90 57 91 66 92 58 93 59 94 65 95 67 96
REMARK SMILES IDX 60 97 61 98 62 99 63 100 64 101
REMARK H PARENT 22 6 26 32 88 51 54 62
REMARK Flexibility Score: inf
ROOT
ATOM      1  C   UNL A   1      34.322  31.571  27.646  1.00  0.00     0.042 C 
ENDROOT
BRANCH   1   2
ATOM      2  C   UNL A   1      33.676  30.253  27.264  1.00  0.00     0.117 C 
BRANCH   2   3
ATOM      3  N   UNL A   1      32.574  30.381  26.331  1.00  0.00    -0.355 N 
ATOM      4  C   UNL A   1      32.122  29.496  25.396  1.00  0.00     0.238 C 
ATOM      5  O   UNL A   1      31.046  29.751  24.846  1.00  0.00    -0.273 OA
ATOM      6  H   UNL A   1      32.079  31.231  26.378  1.00  0.00     0.163 HD
BRANCH   4   7
ATOM      7  C   UNL A   1      32.946  28.250  25.036  1.00  0.00     0.162 C 
ATOM      8  N   UNL A   1      32.078  27.175  24.495  1.00  0.00    -0.185 NA
ATOM      9  C   UNL A   1      32.154  27.163  23.029  1.00  0.00     0.103 C 
ATOM     10  C   UNL A   1      33.551  27.652  22.718  1.00  0.00     0.019 C 
ATOM     11  C   UNL A   1      33.908  28.588  23.868  1.00  0.00     0.032 C 
BRANCH   8  12
ATOM     12  S   UNL A   1      31.649  25.796  25.341  1.00  0.00     0.243 S 
ATOM     13  O   UNL A   1      30.638  25.105  24.574  1.00  0.00    -0.207 OA
ATOM     14  O   UNL A   1      31.403  26.159  26.721  1.00  0.00    -0.207 OA
BRANCH  12  15
ATOM     15  C   UNL A   1      33.060  24.704  25.382  1.00  0.00     0.084 A 
ATOM     16  C   UNL A   1      37.647  22.417  25.602  1.00  0.00     0.154 C 
ATOM     17  N   UNL A   1      36.288  21.955  25.359  1.00  0.00    -0.305 N 
ATOM     18  C   UNL A   1      36.113  20.611  25.039  1.00  0.00     0.316 A 
ATOM     19  C   UNL A   1      35.195  22.861  25.385  1.00  0.00     0.068 A 
ATOM     20  O   UNL A   1      37.045  19.825  24.885  1.00  0.00    -0.263 OA
ATOM     21  C   UNL A   1      34.680  20.100  24.849  1.00  0.00     0.316 A 
ATOM     22  C   UNL A   1      33.882  22.407  25.165  1.00  0.00     0.069 A 
ATOM     23  C   UNL A   1      35.410  24.228  25.616  1.00  0.00     0.030 A 
ATOM     24  O   UNL A   1      34.509  18.907  24.610  1.00  0.00    -0.263 OA
ATOM     25  N   UNL A   1      33.639  21.026  24.936  1.00  0.00    -0.305 N 
ATOM     26  C   UNL A   1      32.824  23.339  25.169  1.00  0.00     0.050 A 
ATOM     27  C   UNL A   1      34.354  25.138  25.615  1.00  0.00     0.024 A 
ATOM     28  C   UNL A   1      32.280  20.531  24.785  1.00  0.00     0.154 C 
ENDBRANCH  12  15
ENDBRANCH   8  12
ENDBRANCH   4   7
ENDBRANCH   2   3
ENDBRANCH   1   2
BRANCH   1  29
ATOM     29  C   UNL A   1      35.652  31.454  28.373  1.00  0.00     0.118 C 
BRANCH  29  30
ATOM     30  N   UNL A   1      35.544  30.898  29.714  1.00  0.00    -0.352 N 
ATOM     31  C   UNL A   1      36.486  30.281  30.507  1.00  0.00     0.251 C 
ATOM     32  H   UNL A   1      34.651  30.976  30.121  1.00  0.00     0.163 HD
ATOM     33  O   UNL A   1      36.143  29.802  31.585  1.00  0.00    -0.269 OA
BRANCH  31  34
ATOM     34  C   UNL A   1      37.890  30.150  30.054  1.00  0.00     0.039 A 
ATOM     35  C   UNL A   1      38.206  29.983  28.707  1.00  0.00     0.014 A 
ATOM     36  C   UNL A   1      38.915  30.182  31.006  1.00  0.00     0.014 A 
ATOM     37  C   UNL A   1      39.502  29.636  28.339  1.00  0.00     0.010 A 
ATOM     38  C   UNL A   1      40.238  29.942  30.618  1.00  0.00     0.010 A 
ATOM     39  C   UNL A   1      40.536  29.606  29.289  1.00  0.00    -0.014 A 
BRANCH  39  40
ATOM     40  C   UNL A   1      41.906  29.208  28.866  1.00  0.00     0.031 A 
ATOM     41  C   UNL A   1      42.196  27.798  28.416  1.00  0.00     0.074 A 
ATOM     42  C   UNL A   1      42.879  30.141  28.818  1.00  0.00     0.049 A 
ATOM     43  N   UNL A   1      43.321  27.286  27.984  1.00  0.00    -0.248 NA
ATOM     44  C   UNL A   1      41.082  26.836  28.456  1.00  0.00     0.031 C 
ATOM     45  C   UNL A   1      42.721  31.542  29.214  1.00  0.00     0.029 A 
ATOM     46  N   UNL A   1      44.178  30.064  28.387  1.00  0.00    -0.354 N 
ATOM     47  C   UNL A   1      43.058  25.948  27.717  1.00  0.00     0.074 A 
ATOM     48  C   UNL A   1      41.674  25.715  28.067  1.00  0.00     0.031 C 
ATOM     49  C   UNL A   1      43.854  32.206  28.945  1.00  0.00     0.029 A 
ATOM     50  C   UNL A   1      44.842  31.268  28.422  1.00  0.00     0.049 A 
ATOM     51  H   UNL A   1      44.596  29.227  28.081  1.00  0.00     0.167 HD
ATOM     52  C   UNL A   1      43.886  25.004  27.209  1.00  0.00     0.037 A 
ATOM     53  C   UNL A   1      46.106  31.584  28.083  1.00  0.00     0.037 A 
ATOM     54  C   UNL A   1      45.258  25.242  26.841  1.00  0.00     0.049 A 
ATOM     55  C   UNL A   1      47.020  30.507  27.571  1.00  0.00     0.074 A 
ATOM     56  C   UNL A   1      46.174  24.350  26.310  1.00  0.00     0.029 A 
ATOM     57  N   UNL A   1      45.912  26.460  26.959  1.00  0.00    -0.354 N 
ATOM     58  N   UNL A   1      46.752  29.246  27.334  1.00  0.00    -0.248 NA
ATOM     59  C   UNL A   1      48.410  30.893  27.296  1.00  0.00     0.031 C 
ATOM     60  C   UNL A   1      47.391  25.018  26.143  1.00  0.00     0.029 A 
ATOM     61  C   UNL A   1      47.223  26.338  26.529  1.00  0.00     0.049 A 
ATOM     62  H   UNL A   1      45.503  27.290  27.299  1.00  0.00     0.167 HD
ATOM     63  C   UNL A   1      47.938  28.688  26.873  1.00  0.00     0.074 A 
ATOM     64  C   UNL A   1      48.920  29.753  26.847  1.00  0.00     0.031 C 
ATOM     65  C   UNL A   1      48.191  27.407  26.510  1.00  0.00     0.037 A 
BRANCH  52  66
ATOM     66  C   UNL A   1      43.335  23.617  27.020  1.00  0.00     0.058 A 
ATOM     67  C   UNL A   1      42.948  23.146  25.755  1.00  0.00     0.135 A 
ATOM     68  C   UNL A   1      43.243  22.729  28.104  1.00  0.00     0.135 A 
ATOM     69  F   UNL A   1      43.000  23.958  24.687  1.00  0.00    -0.206 F 
ATOM     70  C   UNL A   1      42.470  21.852  25.575  1.00  0.00     0.059 A 
ATOM     71  C   UNL A   1      42.790  21.422  27.945  1.00  0.00     0.059 A 
ATOM     72  F   UNL A   1      43.602  23.127  29.336  1.00  0.00    -0.206 F 
ATOM     73  C   UNL A   1      42.396  20.997  26.677  1.00  0.00     0.060 A 
BRANCH  73  74
ATOM     74  S   UNL A   1      41.779  19.319  26.422  1.00  0.00     0.124 S 
ATOM     75  O   UNL A   1      42.027  18.719  27.729  1.00  0.00    -0.237 OA
ATOM     76  O   UNL A   1      40.377  19.553  26.088  1.00  0.00    -0.237 OA
ATOM     77  O   UNL A   1      42.606  18.814  25.331  1.00  0.00    -0.744 OA
ENDBRANCH  73  74
ENDBRANCH  52  66
BRANCH  53  78
ATOM     78  C   UNL A   1      46.574  32.989  28.216  1.00  0.00     0.058 A 
ATOM     79  C   UNL A   1      46.366  33.916  27.186  1.00  0.00     0.135 A 
ATOM     80  C   UNL A   1      47.198  33.441  29.389  1.00  0.00     0.135 A 
ATOM     81  F   UNL A   1      45.781  33.528  26.042  1.00  0.00    -0.206 F 
ATOM     82  C   UNL A   1      46.759  35.244  27.312  1.00  0.00     0.059 A 
ATOM     83  C   UNL A   1      47.577  34.769  29.550  1.00  0.00     0.059 A 
ATOM     84  F   UNL A   1      47.406  32.594  30.410  1.00  0.00    -0.206 F 
ATOM     85  C   UNL A   1      47.358  35.662  28.503  1.00  0.00     0.060 A 
BRANCH  85  86
ATOM     86  S   UNL A   1      47.799  37.404  28.682  1.00  0.00     0.124 S 
ATOM     87  O   UNL A   1      46.712  38.058  27.963  1.00  0.00    -0.237 OA
ATOM     88  O   UNL A   1      47.799  37.571  30.132  1.00  0.00    -0.237 OA
ATOM     89  O   UNL A   1      49.113  37.484  28.050  1.00  0.00    -0.744 OA
ENDBRANCH  85  86
ENDBRANCH  53  78
BRANCH  65  90
ATOM     90  C   UNL A   1      49.580  27.079  26.045  1.00  0.00     0.058 A 
ATOM     91  C   UNL A   1      50.550  26.586  26.930  1.00  0.00     0.135 A 
ATOM     92  C   UNL A   1      49.925  27.196  24.689  1.00  0.00     0.135 A 
ATOM     93  F   UNL A   1      50.272  26.465  28.239  1.00  0.00    -0.206 F 
ATOM     94  C   UNL A   1      51.820  26.228  26.490  1.00  0.00     0.059 A 
ATOM     95  C   UNL A   1      51.182  26.822  24.222  1.00  0.00     0.059 A 
ATOM     96  F   UNL A   1      49.029  27.656  23.801  1.00  0.00    -0.206 F 
ATOM     97  C   UNL A   1      52.125  26.346  25.132  1.00  0.00     0.060 A 
BRANCH  97  98
ATOM     98  S   UNL A   1      53.761  25.831  24.568  1.00  0.00     0.124 S 
ATOM     99  O   UNL A   1      54.632  26.642  25.412  1.00  0.00    -0.237 OA
ATOM    100  O   UNL A   1      53.753  24.400  24.854  1.00  0.00    -0.237 OA
ATOM    101  O   UNL A   1      53.757  26.182  23.151  1.00  0.00    -0.744 OA
ENDBRANCH  97  98
ENDBRANCH  65  90
ENDBRANCH  39  40
ENDBRANCH  31  34
ENDBRANCH  29  30
ENDBRANCH   1  29
TORSDOF 15
ENDMDL
MODEL 3
REMARK VINA RESULT:     -13.0      6.052     10.702
REMARK SMILES Cn1c(=O)c(=O)n(C)c2cc(S(=O)(=O)N3CCC[C@H]3C(=O)NCCCNC(=O)c3ccc(-c4c5nc(c(-c6c(F)cc(S(=O)(=O)[O-])cc6F)c6ccc([nH]6)c(-c6c(F)cc(S(=O)(=O)[O-])cc6F)c6nc(c(-c7c(F)cc(S(=O)(=O)[O-])cc7F)c7ccc4[nH]7)C=C6)C=C5)cc3)ccc21
REMARK SMILES IDX 24 1 23 2 22 3 20 4 21 5 19 7 15 8 16 9 17 10 18 11 12 12
REMARK SMILES IDX 13 13 14 14 11 15 1 16 2 17 3 18 97 19 4 20 5 21 9 22 96 23
REMARK SMILES IDX 6 24 7 25 10 26 95 27 8 28 25 29 26 30 27 31 28 33 29 34
REMARK SMILES IDX 30 35 94 36 31 37 93 38 32 39 33 40 34 41 87 42 35 43 92 44
REMARK SMILES IDX 86 45 88 46 36 47 91 48 85 49 84 50 37 52 71 53 50 54 70 55
REMARK SMILES IDX 51 56 54 57 69 58 89 59 52 60 53 61 68 63 90 64 55 65 38 66
REMARK SMILES IDX 39 67 48 68 40 69 41 70 47 71 49 72 42 73 43 74 44 75 45 76
REMARK SMILES IDX 46 77 72 78 73 79 82 80 74 81 75 82 81 83 83 84 76 85 77 86
REMARK SMILES IDX 78 87 79 88 80 89 56 90 57 91 66 92 58 93 59 94 65 95 67 96
REMARK SMILES IDX 60 97 61 98 62 99 63 100 64 101
REMARK H PARENT 22 6 26 32 88 51 54 62
REMARK Flexibility Score: inf
ROOT
ATOM      1  C   UNL A   1      31.667  32.047  26.853  1.00  0.00     0.042 C 
ENDROOT
BRANCH   1   2
ATOM      2  C   UNL A   1      32.020  30.707  26.237  1.00  0.00     0.117 C 
BRANCH   2   3
ATOM      3  N   UNL A   1      31.187  30.335  25.110  1.00  0.00    -0.355 N 
ATOM      4  C   UNL A   1      31.182  29.184  24.378  1.00  0.00     0.238 C 
ATOM      5  O   UNL A   1      30.250  29.019  23.584  1.00  0.00    -0.273 OA
ATOM      6  H   UNL A   1      30.528  31.012  24.833  1.00  0.00     0.163 HD
BRANCH   4   7
ATOM      7  C   UNL A   1      32.315  28.157  24.529  1.00  0.00     0.162 C 
ATOM      8  N   UNL A   1      31.855  26.798  24.149  1.00  0.00    -0.185 NA
ATOM      9  C   UNL A   1      32.292  26.488  22.782  1.00  0.00     0.103 C 
ATOM     10  C   UNL A   1      33.586  27.253  22.615  1.00  0.00     0.019 C 
ATOM     11  C   UNL A   1      33.441  28.477  23.513  1.00  0.00     0.032 C 
BRANCH   8  12
ATOM     12  S   UNL A   1      31.534  25.573  25.243  1.00  0.00     0.243 S 
ATOM     13  O   UNL A   1      30.464  24.766  24.700  1.00  0.00    -0.207 OA
ATOM     14  O   UNL A   1      31.417  26.152  26.565  1.00  0.00    -0.207 OA
BRANCH  12  15
ATOM     15  C   UNL A   1      32.959  24.502  25.318  1.00  0.00     0.084 A 
ATOM     16  C   UNL A   1      37.573  22.283  25.653  1.00  0.00     0.154 C 
ATOM     17  N   UNL A   1      36.228  21.801  25.375  1.00  0.00    -0.305 N 
ATOM     18  C   UNL A   1      36.082  20.455  25.050  1.00  0.00     0.316 A 
ATOM     19  C   UNL A   1      35.121  22.691  25.374  1.00  0.00     0.068 A 
ATOM     20  O   UNL A   1      37.029  19.684  24.919  1.00  0.00    -0.263 OA
ATOM     21  C   UNL A   1      34.661  19.923  24.823  1.00  0.00     0.316 A 
ATOM     22  C   UNL A   1      33.821  22.218  25.121  1.00  0.00     0.069 A 
ATOM     23  C   UNL A   1      35.310  24.061  25.612  1.00  0.00     0.030 A 
ATOM     24  O   UNL A   1      34.515  18.728  24.579  1.00  0.00    -0.263 OA
ATOM     25  N   UNL A   1      33.605  20.833  24.884  1.00  0.00    -0.305 N 
ATOM     26  C   UNL A   1      32.749  23.133  25.099  1.00  0.00     0.050 A 
ATOM     27  C   UNL A   1      34.240  24.955  25.585  1.00  0.00     0.024 A 
ATOM     28  C   UNL A   1      32.258  20.318  24.699  1.00  0.00     0.154 C 
ENDBRANCH  12  15
ENDBRANCH   8  12
ENDBRANCH   4   7
ENDBRANCH   2   3
ENDBRANCH   1   2
BRANCH   1  29
ATOM     29  C   UNL A   1      32.818  32.769  27.536  1.00  0.00     0.118 C 
BRANCH  29  30
ATOM     30  N   UNL A   1      32.540  34.165  27.841  1.00  0.00    -0.352 N 
ATOM     31  C   UNL A   1      33.109  35.011  28.767  1.00  0.00     0.251 C 
ATOM     32  H   UNL A   1      31.828  34.572  27.295  1.00  0.00     0.163 HD
ATOM     33  O   UNL A   1      32.646  36.139  28.914  1.00  0.00    -0.269 OA
BRANCH  31  34
ATOM     34  C   UNL A   1      34.236  34.558  29.616  1.00  0.00     0.039 A 
ATOM     35  C   UNL A   1      35.549  34.583  29.151  1.00  0.00     0.014 A 
ATOM     36  C   UNL A   1      33.966  34.087  30.905  1.00  0.00     0.014 A 
ATOM     37  C   UNL A   1      36.550  33.945  29.877  1.00  0.00     0.010 A 
ATOM     38  C   UNL A   1      34.997  33.545  31.681  1.00  0.00     0.010 A 
ATOM     39  C   UNL A   1      36.289  33.413  31.150  1.00  0.00    -0.014 A 
BRANCH  39  40
ATOM     40  C   UNL A   1      37.377  32.717  31.890  1.00  0.00     0.031 A 
ATOM     41  C   UNL A   1      38.138  31.581  31.253  1.00  0.00     0.074 A 
ATOM     42  C   UNL A   1      37.730  33.159  33.114  1.00  0.00     0.049 A 
ATOM     43  N   UNL A   1      39.135  30.884  31.738  1.00  0.00    -0.248 NA
ATOM     44  C   UNL A   1      37.729  31.171  29.900  1.00  0.00     0.031 C 
ATOM     45  C   UNL A   1      37.080  34.258  33.831  1.00  0.00     0.029 A 
ATOM     46  N   UNL A   1      38.737  32.764  33.956  1.00  0.00    -0.354 N 
ATOM     47  C   UNL A   1      39.461  29.949  30.762  1.00  0.00     0.074 A 
ATOM     48  C   UNL A   1      38.535  30.143  29.669  1.00  0.00     0.031 C 
ATOM     49  C   UNL A   1      37.745  34.493  34.971  1.00  0.00     0.029 A 
ATOM     50  C   UNL A   1      38.825  33.521  35.101  1.00  0.00     0.049 A 
ATOM     51  H   UNL A   1      39.341  32.012  33.760  1.00  0.00     0.167 HD
ATOM     52  C   UNL A   1      40.453  29.027  30.768  1.00  0.00     0.037 A 
ATOM     53  C   UNL A   1      39.671  33.439  36.146  1.00  0.00     0.037 A 
ATOM     54  C   UNL A   1      41.389  28.849  31.848  1.00  0.00     0.049 A 
ATOM     55  C   UNL A   1      40.730  32.373  36.150  1.00  0.00     0.074 A 
ATOM     56  C   UNL A   1      42.434  27.945  31.942  1.00  0.00     0.029 A 
ATOM     57  N   UNL A   1      41.398  29.590  33.021  1.00  0.00    -0.354 N 
ATOM     58  N   UNL A   1      41.015  31.494  35.220  1.00  0.00    -0.248 NA
ATOM     59  C   UNL A   1      41.569  32.278  37.351  1.00  0.00     0.031 C 
ATOM     60  C   UNL A   1      43.051  28.115  33.186  1.00  0.00     0.029 A 
ATOM     61  C   UNL A   1      42.418  29.153  33.850  1.00  0.00     0.049 A 
ATOM     62  H   UNL A   1      40.771  30.320  33.233  1.00  0.00     0.167 HD
ATOM     63  C   UNL A   1      42.073  30.746  35.720  1.00  0.00     0.074 A 
ATOM     64  C   UNL A   1      42.391  31.288  37.026  1.00  0.00     0.031 C 
ATOM     65  C   UNL A   1      42.721  29.700  35.150  1.00  0.00     0.037 A 
BRANCH  52  66
ATOM     66  C   UNL A   1      40.583  28.130  29.568  1.00  0.00     0.058 A 
ATOM     67  C   UNL A   1      41.528  28.381  28.561  1.00  0.00     0.135 A 
ATOM     68  C   UNL A   1      39.791  26.976  29.447  1.00  0.00     0.135 A 
ATOM     69  F   UNL A   1      42.301  29.479  28.618  1.00  0.00    -0.206 F 
ATOM     70  C   UNL A   1      41.671  27.533  27.468  1.00  0.00     0.059 A 
ATOM     71  C   UNL A   1      39.931  26.100  28.374  1.00  0.00     0.059 A 
ATOM     72  F   UNL A   1      38.871  26.687  30.382  1.00  0.00    -0.206 F 
ATOM     73  C   UNL A   1      40.867  26.394  27.384  1.00  0.00     0.060 A 
BRANCH  73  74
ATOM     74  S   UNL A   1      41.071  25.302  25.960  1.00  0.00     0.124 S 
ATOM     75  O   UNL A   1      41.578  26.231  24.955  1.00  0.00    -0.237 OA
ATOM     76  O   UNL A   1      42.030  24.321  26.458  1.00  0.00    -0.237 OA
ATOM     77  O   UNL A   1      39.724  24.795  25.724  1.00  0.00    -0.744 OA
ENDBRANCH  73  74
ENDBRANCH  52  66
BRANCH  53  78
ATOM     78  C   UNL A   1      39.547  34.404  37.270  1.00  0.00     0.058 A 
ATOM     79  C   UNL A   1      38.968  34.020  38.486  1.00  0.00     0.135 A 
ATOM     80  C   UNL A   1      40.043  35.713  37.163  1.00  0.00     0.135 A 
ATOM     81  F   UNL A   1      38.473  32.781  38.633  1.00  0.00    -0.206 F 
ATOM     82  C   UNL A   1      38.885  34.899  39.562  1.00  0.00     0.059 A 
ATOM     83  C   UNL A   1      39.994  36.602  38.231  1.00  0.00     0.059 A 
ATOM     84  F   UNL A   1      40.619  36.123  36.023  1.00  0.00    -0.206 F 
ATOM     85  C   UNL A   1      39.408  36.186  39.425  1.00  0.00     0.060 A 
BRANCH  85  86
ATOM     86  S   UNL A   1      39.357  37.294  40.851  1.00  0.00     0.124 S 
ATOM     87  O   UNL A   1      38.523  38.380  40.349  1.00  0.00    -0.237 OA
ATOM     88  O   UNL A   1      38.756  36.446  41.875  1.00  0.00    -0.237 OA
ATOM     89  O   UNL A   1      40.763  37.625  41.067  1.00  0.00    -0.744 OA
ENDBRANCH  85  86
ENDBRANCH  53  78
BRANCH  65  90
ATOM     90  C   UNL A   1      43.843  29.073  35.925  1.00  0.00     0.058 A 
ATOM     91  C   UNL A   1      43.630  27.950  36.739  1.00  0.00     0.135 A 
ATOM     92  C   UNL A   1      45.155  29.557  35.802  1.00  0.00     0.135 A 
ATOM     93  F   UNL A   1      42.392  27.454  36.897  1.00  0.00    -0.206 F 
ATOM     94  C   UNL A   1      44.678  27.333  37.412  1.00  0.00     0.059 A 
ATOM     95  C   UNL A   1      46.222  28.941  36.448  1.00  0.00     0.059 A 
ATOM     96  F   UNL A   1      45.411  30.625  35.030  1.00  0.00    -0.206 F 
ATOM     97  C   UNL A   1      45.973  27.834  37.257  1.00  0.00     0.060 A 
BRANCH  97  98
ATOM     98  S   UNL A   1      47.331  26.992  38.099  1.00  0.00     0.124 S 
ATOM     99  O   UNL A   1      47.823  28.041  38.986  1.00  0.00    -0.237 OA
ATOM    100  O   UNL A   1      46.650  25.878  38.750  1.00  0.00    -0.237 OA
ATOM    101  O   UNL A   1      48.228  26.621  37.008  1.00  0.00    -0.744 OA
ENDBRANCH  97  98
ENDBRANCH  65  90
ENDBRANCH  39  40
ENDBRANCH  31  34
ENDBRANCH  29  30
ENDBRANCH   1  29
TORSDOF 15
ENDMDL
