MODEL 1
REMARK VINA RESULT:     -11.0      0.000      0.000
REMARK SMILES CCCCCCC(=O)N1CCCC[C@H]1C(=O)NCCCNC(=O)c1ccc(-c2c3nc(c(-c4c(F)cc(S(=O)(=O)[O-])cc4F)c4ccc([nH]4)c(-c4c(F)cc(S(=O)(=O)[O-])cc4F)c4nc(c(-c5c(F)cc(S(=O)(=O)[O-])cc5F)c5ccc2[nH]5)C=C4)C=C3)cc1
REMARK SMILES IDX 15 1 16 2 17 3 14 5 9 6 10 7 11 8 13 9 12 10 7 11 8 12 6 13
REMARK SMILES IDX 5 14 4 15 3 16 2 17 1 18 18 19 19 20 20 21 21 22 22 23 23 25
REMARK SMILES IDX 24 26 25 27 89 28 26 29 88 30 27 31 28 32 29 33 82 34 30 35
REMARK SMILES IDX 87 36 81 37 83 38 31 39 86 40 80 41 79 42 32 44 66 45 45 46
REMARK SMILES IDX 65 47 46 48 49 49 64 50 84 51 47 52 48 53 63 55 85 56 50 57
REMARK SMILES IDX 33 58 34 59 43 60 35 61 36 62 42 63 44 64 37 65 38 66 39 67
REMARK SMILES IDX 40 68 41 69 67 70 68 71 77 72 69 73 70 74 76 75 78 76 71 77
REMARK SMILES IDX 72 78 73 79 74 80 75 81 51 82 52 83 61 84 53 85 54 86 60 87
REMARK SMILES IDX 62 88 55 89 56 90 57 91 58 92 59 93
REMARK H PARENT 17 4 21 24 83 43 49 54
REMARK Flexibility Score: inf
ROOT
ATOM      1  C   UNL A   1      33.376  28.669  24.863  1.00  0.00     0.242 C 
ATOM      2  O   UNL A   1      34.239  28.460  24.003  1.00  0.00    -0.273 OA
ATOM      3  N   UNL A   1      33.569  29.786  25.617  1.00  0.00    -0.354 N 
ATOM      4  H   UNL A   1      34.314  30.353  25.315  1.00  0.00     0.163 HD
ENDROOT
BRANCH   1   5
ATOM      5  C   UNL A   1      32.165  27.704  25.081  1.00  0.00     0.174 C 
ATOM      6  N   UNL A   1      31.675  26.979  23.890  1.00  0.00    -0.331 N 
ATOM      7  C   UNL A   1      32.690  26.129  23.275  1.00  0.00     0.120 C 
ATOM      8  C   UNL A   1      33.166  25.040  24.236  1.00  0.00     0.022 C 
ATOM      9  C   UNL A   1      32.542  26.631  26.138  1.00  0.00     0.035 C 
ATOM     10  C   UNL A   1      33.555  25.601  25.603  1.00  0.00     0.004 C 
BRANCH   6  11
ATOM     11  C   UNL A   1      30.362  26.486  23.858  1.00  0.00     0.223 C 
ATOM     12  O   UNL A   1      30.101  25.298  24.056  1.00  0.00    -0.275 OA
BRANCH  11  13
ATOM     13  C   UNL A   1      29.269  27.430  23.389  1.00  0.00     0.100 C 
BRANCH  13  14
ATOM     14  C   UNL A   1      29.737  28.678  22.638  1.00  0.00     0.010 C 
BRANCH  14  15
ATOM     15  C   UNL A   1      28.637  29.635  22.170  1.00  0.00     0.001 C 
BRANCH  15  16
ATOM     16  C   UNL A   1      27.594  29.998  23.226  1.00  0.00    -0.000 C 
BRANCH  16  17
ATOM     17  C   UNL A   1      27.580  31.457  23.678  1.00  0.00    -0.003 C 
ATOM     18  C   UNL A   1      28.667  32.252  22.970  1.00  0.00     0.004 C 
ENDBRANCH  16  17
ENDBRANCH  15  16
ENDBRANCH  14  15
ENDBRANCH  13  14
ENDBRANCH  11  13
ENDBRANCH   6  11
ENDBRANCH   1   5
BRANCH   3  19
ATOM     19  C   UNL A   1      32.873  30.289  26.781  1.00  0.00     0.117 C 
BRANCH  19  20
ATOM     20  C   UNL A   1      33.749  31.223  27.618  1.00  0.00     0.042 C 
BRANCH  20  21
ATOM     21  C   UNL A   1      35.113  30.675  28.029  1.00  0.00     0.118 C 
BRANCH  21  22
ATOM     22  N   UNL A   1      35.347  30.753  29.459  1.00  0.00    -0.352 N 
ATOM     23  C   UNL A   1      36.409  30.375  30.243  1.00  0.00     0.251 C 
ATOM     24  H   UNL A   1      34.603  31.154  29.963  1.00  0.00     0.163 HD
ATOM     25  O   UNL A   1      36.248  30.412  31.463  1.00  0.00    -0.269 OA
BRANCH  23  26
ATOM     26  C   UNL A   1      37.719  29.919  29.698  1.00  0.00     0.039 A 
ATOM     27  C   UNL A   1      38.716  29.563  30.619  1.00  0.00     0.014 A 
ATOM     28  C   UNL A   1      38.041  29.927  28.338  1.00  0.00     0.014 A 
ATOM     29  C   UNL A   1      39.999  29.207  30.184  1.00  0.00     0.010 A 
ATOM     30  C   UNL A   1      39.298  29.486  27.898  1.00  0.00     0.010 A 
ATOM     31  C   UNL A   1      40.303  29.147  28.816  1.00  0.00    -0.014 A 
BRANCH  31  32
ATOM     32  C   UNL A   1      41.671  28.766  28.358  1.00  0.00     0.031 A 
ATOM     33  C   UNL A   1      42.791  29.778  28.331  1.00  0.00     0.074 A 
ATOM     34  C   UNL A   1      41.918  27.501  27.958  1.00  0.00     0.049 A 
ATOM     35  N   UNL A   1      44.049  29.613  28.003  1.00  0.00    -0.248 NA
ATOM     36  C   UNL A   1      42.449  31.160  28.699  1.00  0.00     0.031 C 
ATOM     37  C   UNL A   1      40.920  26.432  27.884  1.00  0.00     0.029 A 
ATOM     38  N   UNL A   1      43.082  26.897  27.549  1.00  0.00    -0.354 N 
ATOM     39  C   UNL A   1      44.641  30.868  28.108  1.00  0.00     0.074 A 
ATOM     40  C   UNL A   1      43.591  31.793  28.479  1.00  0.00     0.031 C 
ATOM     41  C   UNL A   1      41.523  25.295  27.501  1.00  0.00     0.029 A 
ATOM     42  C   UNL A   1      42.943  25.556  27.276  1.00  0.00     0.049 A 
ATOM     43  H   UNL A   1      43.936  27.379  27.460  1.00  0.00     0.167 HD
ATOM     44  C   UNL A   1      45.941  31.219  27.938  1.00  0.00     0.037 A 
ATOM     45  C   UNL A   1      43.852  24.636  26.901  1.00  0.00     0.037 A 
ATOM     46  C   UNL A   1      46.994  30.296  27.597  1.00  0.00     0.049 A 
ATOM     47  C   UNL A   1      45.293  25.035  26.750  1.00  0.00     0.074 A 
ATOM     48  C   UNL A   1      48.348  30.544  27.458  1.00  0.00     0.029 A 
ATOM     49  N   UNL A   1      46.810  28.945  27.343  1.00  0.00    -0.354 N 
ATOM     50  N   UNL A   1      45.843  26.215  26.913  1.00  0.00    -0.248 NA
ATOM     51  C   UNL A   1      46.241  23.976  26.375  1.00  0.00     0.031 C 
ATOM     52  C   UNL A   1      48.979  29.351  27.084  1.00  0.00     0.029 A 
ATOM     53  C   UNL A   1      48.023  28.349  27.034  1.00  0.00     0.049 A 
ATOM     54  H   UNL A   1      45.945  28.476  27.377  1.00  0.00     0.167 HD
ATOM     55  C   UNL A   1      47.204  26.035  26.688  1.00  0.00     0.074 A 
ATOM     56  C   UNL A   1      47.394  24.631  26.385  1.00  0.00     0.031 C 
ATOM     57  C   UNL A   1      48.203  26.950  26.733  1.00  0.00     0.037 A 
BRANCH  44  58
ATOM     58  C   UNL A   1      46.293  32.673  28.119  1.00  0.00     0.058 A 
ATOM     59  C   UNL A   1      46.735  33.178  29.355  1.00  0.00     0.135 A 
ATOM     60  C   UNL A   1      46.187  33.574  27.048  1.00  0.00     0.135 A 
ATOM     61  F   UNL A   1      46.847  32.363  30.416  1.00  0.00    -0.206 F 
ATOM     62  C   UNL A   1      47.007  34.531  29.534  1.00  0.00     0.059 A 
ATOM     63  C   UNL A   1      46.481  34.927  27.198  1.00  0.00     0.059 A 
ATOM     64  F   UNL A   1      45.778  33.148  25.843  1.00  0.00    -0.206 F 
ATOM     65  C   UNL A   1      46.866  35.400  28.451  1.00  0.00     0.060 A 
BRANCH  65  66
ATOM     66  S   UNL A   1      47.183  37.159  28.708  1.00  0.00     0.124 S 
ATOM     67  O   UNL A   1      45.927  37.592  29.314  1.00  0.00    -0.237 OA
ATOM     68  O   UNL A   1      48.342  37.145  29.593  1.00  0.00    -0.237 OA
ATOM     69  O   UNL A   1      47.435  37.657  27.358  1.00  0.00    -0.744 OA
ENDBRANCH  65  66
ENDBRANCH  44  58
BRANCH  45  70
ATOM     70  C   UNL A   1      43.425  23.223  26.710  1.00  0.00     0.058 A 
ATOM     71  C   UNL A   1      43.377  22.657  25.427  1.00  0.00     0.135 A 
ATOM     72  C   UNL A   1      43.108  22.402  27.801  1.00  0.00     0.135 A 
ATOM     73  F   UNL A   1      43.664  23.407  24.352  1.00  0.00    -0.206 F 
ATOM     74  C   UNL A   1      43.034  21.324  25.232  1.00  0.00     0.059 A 
ATOM     75  C   UNL A   1      42.783  21.059  27.633  1.00  0.00     0.059 A 
ATOM     76  F   UNL A   1      43.154  22.894  29.049  1.00  0.00    -0.206 F 
ATOM     77  C   UNL A   1      42.746  20.529  26.344  1.00  0.00     0.060 A 
BRANCH  77  78
ATOM     78  S   UNL A   1      42.390  18.777  26.087  1.00  0.00     0.124 S 
ATOM     79  O   UNL A   1      40.981  18.813  25.717  1.00  0.00    -0.237 OA
ATOM     80  O   UNL A   1      43.324  18.428  25.020  1.00  0.00    -0.237 OA
ATOM     81  O   UNL A   1      42.689  18.183  27.387  1.00  0.00    -0.744 OA
ENDBRANCH  77  78
ENDBRANCH  45  70
BRANCH  57  82
ATOM     82  C   UNL A   1      49.601  26.457  26.480  1.00  0.00     0.058 A 
ATOM     83  C   UNL A   1      50.381  25.888  27.501  1.00  0.00     0.135 A 
ATOM     84  C   UNL A   1      50.159  26.530  25.194  1.00  0.00     0.135 A 
ATOM     85  F   UNL A   1      49.897  25.799  28.750  1.00  0.00    -0.206 F 
ATOM     86  C   UNL A   1      51.676  25.439  27.261  1.00  0.00     0.059 A 
ATOM     87  C   UNL A   1      51.444  26.065  24.926  1.00  0.00     0.059 A 
ATOM     88  F   UNL A   1      49.453  27.054  24.179  1.00  0.00    -0.206 F 
ATOM     89  C   UNL A   1      52.200  25.536  25.971  1.00  0.00     0.060 A 
BRANCH  89  90
ATOM     90  S   UNL A   1      53.878  24.940  25.667  1.00  0.00     0.124 S 
ATOM     91  O   UNL A   1      53.635  23.541  25.332  1.00  0.00    -0.237 OA
ATOM     92  O   UNL A   1      54.319  25.788  24.565  1.00  0.00    -0.237 OA
ATOM     93  O   UNL A   1      54.556  25.174  26.939  1.00  0.00    -0.744 OA
ENDBRANCH  89  90
ENDBRANCH  57  82
ENDBRANCH  31  32
ENDBRANCH  23  26
ENDBRANCH  21  22
ENDBRANCH  20  21
ENDBRANCH  19  20
ENDBRANCH   3  19
TORSDOF 19
ENDMDL
MODEL 2
REMARK VINA RESULT:     -10.8      3.611     10.353
REMARK SMILES CCCCCCC(=O)N1CCCC[C@H]1C(=O)NCCCNC(=O)c1ccc(-c2c3nc(c(-c4c(F)cc(S(=O)(=O)[O-])cc4F)c4ccc([nH]4)c(-c4c(F)cc(S(=O)(=O)[O-])cc4F)c4nc(c(-c5c(F)cc(S(=O)(=O)[O-])cc5F)c5ccc2[nH]5)C=C4)C=C3)cc1
REMARK SMILES IDX 15 1 16 2 17 3 14 5 9 6 10 7 11 8 13 9 12 10 7 11 8 12 6 13
REMARK SMILES IDX 5 14 4 15 3 16 2 17 1 18 18 19 19 20 20 21 21 22 22 23 23 25
REMARK SMILES IDX 24 26 25 27 89 28 26 29 88 30 27 31 28 32 29 33 82 34 30 35
REMARK SMILES IDX 87 36 81 37 83 38 31 39 86 40 80 41 79 42 32 44 66 45 45 46
REMARK SMILES IDX 65 47 46 48 49 49 64 50 84 51 47 52 48 53 63 55 85 56 50 57
REMARK SMILES IDX 33 58 34 59 43 60 35 61 36 62 42 63 44 64 37 65 38 66 39 67
REMARK SMILES IDX 40 68 41 69 67 70 68 71 77 72 69 73 70 74 76 75 78 76 71 77
REMARK SMILES IDX 72 78 73 79 74 80 75 81 51 82 52 83 61 84 53 85 54 86 60 87
REMARK SMILES IDX 62 88 55 89 56 90 57 91 58 92 59 93
REMARK H PARENT 17 4 21 24 83 43 49 54
REMARK Flexibility Score: inf
ROOT
ATOM      1  C   UNL A   1      33.471  36.127  29.844  1.00  0.00     0.242 C 
ATOM      2  O   UNL A   1      32.894  37.218  29.776  1.00  0.00    -0.273 OA
ATOM      3  N   UNL A   1      34.333  35.864  28.824  1.00  0.00    -0.354 N 
ATOM      4  H   UNL A   1      34.475  36.620  28.210  1.00  0.00     0.163 HD
ENDROOT
BRANCH   1   5
ATOM      5  C   UNL A   1      33.208  35.116  31.007  1.00  0.00     0.174 C 
ATOM      6  N   UNL A   1      34.371  34.757  31.846  1.00  0.00    -0.331 N 
ATOM      7  C   UNL A   1      34.976  35.905  32.514  1.00  0.00     0.120 C 
ATOM      8  C   UNL A   1      33.991  36.580  33.468  1.00  0.00     0.022 C 
ATOM      9  C   UNL A   1      32.127  35.693  31.961  1.00  0.00     0.035 C 
ATOM     10  C   UNL A   1      32.646  36.872  32.803  1.00  0.00     0.004 C 
BRANCH   6  11
ATOM     11  C   UNL A   1      34.370  33.556  32.571  1.00  0.00     0.223 C 
ATOM     12  O   UNL A   1      33.334  33.053  33.010  1.00  0.00    -0.275 OA
BRANCH  11  13
ATOM     13  C   UNL A   1      35.715  32.973  32.965  1.00  0.00     0.100 C 
BRANCH  13  14
ATOM     14  C   UNL A   1      36.027  31.577  32.421  1.00  0.00     0.010 C 
BRANCH  14  15
ATOM     15  C   UNL A   1      37.411  31.016  32.757  1.00  0.00     0.001 C 
BRANCH  15  16
ATOM     16  C   UNL A   1      38.211  31.821  33.780  1.00  0.00    -0.000 C 
BRANCH  16  17
ATOM     17  C   UNL A   1      39.331  32.693  33.215  1.00  0.00    -0.003 C 
ATOM     18  C   UNL A   1      40.598  32.551  34.045  1.00  0.00     0.004 C 
ENDBRANCH  16  17
ENDBRANCH  15  16
ENDBRANCH  14  15
ENDBRANCH  13  14
ENDBRANCH  11  13
ENDBRANCH   6  11
ENDBRANCH   1   5
BRANCH   3  19
ATOM     19  C   UNL A   1      35.077  34.673  28.480  1.00  0.00     0.117 C 
BRANCH  19  20
ATOM     20  C   UNL A   1      34.160  33.486  28.179  1.00  0.00     0.042 C 
BRANCH  20  21
ATOM     21  C   UNL A   1      34.363  32.244  29.043  1.00  0.00     0.118 C 
BRANCH  21  22
ATOM     22  N   UNL A   1      34.001  31.015  28.363  1.00  0.00    -0.352 N 
ATOM     23  C   UNL A   1      34.741  29.935  27.949  1.00  0.00     0.251 C 
ATOM     24  H   UNL A   1      33.040  30.941  28.159  1.00  0.00     0.163 HD
ATOM     25  O   UNL A   1      34.175  29.105  27.237  1.00  0.00    -0.269 OA
BRANCH  23  26
ATOM     26  C   UNL A   1      36.173  29.729  28.305  1.00  0.00     0.039 A 
ATOM     27  C   UNL A   1      37.128  29.936  27.299  1.00  0.00     0.014 A 
ATOM     28  C   UNL A   1      36.605  29.243  29.543  1.00  0.00     0.014 A 
ATOM     29  C   UNL A   1      38.485  29.680  27.534  1.00  0.00     0.010 A 
ATOM     30  C   UNL A   1      37.972  29.070  29.806  1.00  0.00     0.010 A 
ATOM     31  C   UNL A   1      38.928  29.260  28.797  1.00  0.00    -0.014 A 
BRANCH  31  32
ATOM     32  C   UNL A   1      40.375  28.989  29.043  1.00  0.00     0.031 A 
ATOM     33  C   UNL A   1      40.990  27.660  28.674  1.00  0.00     0.074 A 
ATOM     34  C   UNL A   1      41.150  29.940  29.604  1.00  0.00     0.049 A 
ATOM     35  N   UNL A   1      42.236  27.267  28.778  1.00  0.00    -0.248 NA
ATOM     36  C   UNL A   1      40.084  26.632  28.142  1.00  0.00     0.031 C 
ATOM     37  C   UNL A   1      40.681  31.251  30.056  1.00  0.00     0.029 A 
ATOM     38  N   UNL A   1      42.496  29.957  29.881  1.00  0.00    -0.354 N 
ATOM     39  C   UNL A   1      42.259  25.945  28.341  1.00  0.00     0.074 A 
ATOM     40  C   UNL A   1      40.892  25.590  28.023  1.00  0.00     0.031 C 
ATOM     41  C   UNL A   1      41.727  31.960  30.509  1.00  0.00     0.029 A 
ATOM     42  C   UNL A   1      42.937  31.148  30.407  1.00  0.00     0.049 A 
ATOM     43  H   UNL A   1      43.089  29.187  29.717  1.00  0.00     0.167 HD
ATOM     44  C   UNL A   1      43.318  25.111  28.193  1.00  0.00     0.037 A 
ATOM     45  C   UNL A   1      44.175  31.551  30.757  1.00  0.00     0.037 A 
ATOM     46  C   UNL A   1      44.683  25.471  28.482  1.00  0.00     0.049 A 
ATOM     47  C   UNL A   1      45.341  30.625  30.554  1.00  0.00     0.074 A 
ATOM     48  C   UNL A   1      45.830  24.716  28.312  1.00  0.00     0.029 A 
ATOM     49  N   UNL A   1      45.086  26.693  29.001  1.00  0.00    -0.354 N 
ATOM     50  N   UNL A   1      45.349  29.400  30.083  1.00  0.00    -0.248 NA
ATOM     51  C   UNL A   1      46.668  31.138  30.920  1.00  0.00     0.031 C 
ATOM     52  C   UNL A   1      46.923  25.467  28.761  1.00  0.00     0.029 A 
ATOM     53  C   UNL A   1      46.461  26.708  29.171  1.00  0.00     0.049 A 
ATOM     54  H   UNL A   1      44.484  27.441  29.218  1.00  0.00     0.167 HD
ATOM     55  C   UNL A   1      46.683  29.007  30.070  1.00  0.00     0.074 A 
ATOM     56  C   UNL A   1      47.453  30.127  30.573  1.00  0.00     0.031 C 
ATOM     57  C   UNL A   1      47.220  27.827  29.673  1.00  0.00     0.037 A 
BRANCH  44  58
ATOM     58  C   UNL A   1      43.034  23.717  27.694  1.00  0.00     0.058 A 
ATOM     59  C   UNL A   1      43.103  23.394  26.328  1.00  0.00     0.135 A 
ATOM     60  C   UNL A   1      42.689  22.693  28.590  1.00  0.00     0.135 A 
ATOM     61  F   UNL A   1      43.420  24.336  25.426  1.00  0.00    -0.206 F 
ATOM     62  C   UNL A   1      42.788  22.120  25.864  1.00  0.00     0.059 A 
ATOM     63  C   UNL A   1      42.397  21.404  28.150  1.00  0.00     0.059 A 
ATOM     64  F   UNL A   1      42.616  22.941  29.907  1.00  0.00    -0.206 F 
ATOM     65  C   UNL A   1      42.425  21.135  26.783  1.00  0.00     0.060 A 
BRANCH  65  66
ATOM     66  S   UNL A   1      41.978  19.498  26.164  1.00  0.00     0.124 S 
ATOM     67  O   UNL A   1      42.455  18.641  27.246  1.00  0.00    -0.237 OA
ATOM     68  O   UNL A   1      40.530  19.597  26.026  1.00  0.00    -0.237 OA
ATOM     69  O   UNL A   1      42.719  19.397  24.910  1.00  0.00    -0.744 OA
ENDBRANCH  65  66
ENDBRANCH  44  58
BRANCH  45  70
ATOM     70  C   UNL A   1      44.374  32.932  31.272  1.00  0.00     0.058 A 
ATOM     71  C   UNL A   1      44.314  33.198  32.649  1.00  0.00     0.135 A 
ATOM     72  C   UNL A   1      44.678  33.996  30.411  1.00  0.00     0.135 A 
ATOM     73  F   UNL A   1      44.019  32.213  33.510  1.00  0.00    -0.206 F 
ATOM     74  C   UNL A   1      44.552  34.471  33.155  1.00  0.00     0.059 A 
ATOM     75  C   UNL A   1      44.941  35.274  30.896  1.00  0.00     0.059 A 
ATOM     76  F   UNL A   1      44.761  33.789  29.088  1.00  0.00    -0.206 F 
ATOM     77  C   UNL A   1      44.874  35.503  32.269  1.00  0.00     0.060 A 
BRANCH  77  78
ATOM     78  S   UNL A   1      45.270  37.131  32.944  1.00  0.00     0.124 S 
ATOM     79  O   UNL A   1      43.942  37.672  33.208  1.00  0.00    -0.237 OA
ATOM     80  O   UNL A   1      46.068  36.789  34.119  1.00  0.00    -0.237 OA
ATOM     81  O   UNL A   1      46.010  37.769  31.860  1.00  0.00    -0.744 OA
ENDBRANCH  77  78
ENDBRANCH  45  70
BRANCH  57  82
ATOM     82  C   UNL A   1      48.717  27.695  29.735  1.00  0.00     0.058 A 
ATOM     83  C   UNL A   1      49.544  28.166  28.702  1.00  0.00     0.135 A 
ATOM     84  C   UNL A   1      49.334  27.112  30.854  1.00  0.00     0.135 A 
ATOM     85  F   UNL A   1      49.005  28.727  27.608  1.00  0.00    -0.206 F 
ATOM     86  C   UNL A   1      50.929  28.036  28.763  1.00  0.00     0.059 A 
ATOM     87  C   UNL A   1      50.717  26.993  30.947  1.00  0.00     0.059 A 
ATOM     88  F   UNL A   1      48.590  26.655  31.875  1.00  0.00    -0.206 F 
ATOM     89  C   UNL A   1      51.506  27.443  29.888  1.00  0.00     0.060 A 
BRANCH  89  90
ATOM     90  S   UNL A   1      53.303  27.288  29.963  1.00  0.00     0.124 S 
ATOM     91  O   UNL A   1      53.690  28.609  30.449  1.00  0.00    -0.237 OA
ATOM     92  O   UNL A   1      53.486  26.189  30.905  1.00  0.00    -0.237 OA
ATOM     93  O   UNL A   1      53.675  26.991  28.583  1.00  0.00    -0.744 OA
ENDBRANCH  89  90
ENDBRANCH  57  82
ENDBRANCH  31  32
ENDBRANCH  23  26
ENDBRANCH  21  22
ENDBRANCH  20  21
ENDBRANCH  19  20
ENDBRANCH   3  19
TORSDOF 19
ENDMDL
MODEL 3
REMARK VINA RESULT:     -10.8      4.030      6.270
REMARK SMILES CCCCCCC(=O)N1CCCC[C@H]1C(=O)NCCCNC(=O)c1ccc(-c2c3nc(c(-c4c(F)cc(S(=O)(=O)[O-])cc4F)c4ccc([nH]4)c(-c4c(F)cc(S(=O)(=O)[O-])cc4F)c4nc(c(-c5c(F)cc(S(=O)(=O)[O-])cc5F)c5ccc2[nH]5)C=C4)C=C3)cc1
REMARK SMILES IDX 15 1 16 2 17 3 14 5 9 6 10 7 11 8 13 9 12 10 7 11 8 12 6 13
REMARK SMILES IDX 5 14 4 15 3 16 2 17 1 18 18 19 19 20 20 21 21 22 22 23 23 25
REMARK SMILES IDX 24 26 25 27 89 28 26 29 88 30 27 31 28 32 29 33 82 34 30 35
REMARK SMILES IDX 87 36 81 37 83 38 31 39 86 40 80 41 79 42 32 44 66 45 45 46
REMARK SMILES IDX 65 47 46 48 49 49 64 50 84 51 47 52 48 53 63 55 85 56 50 57
REMARK SMILES IDX 33 58 34 59 43 60 35 61 36 62 42 63 44 64 37 65 38 66 39 67
REMARK SMILES IDX 40 68 41 69 67 70 68 71 77 72 69 73 70 74 76 75 78 76 71 77
REMARK SMILES IDX 72 78 73 79 74 80 75 81 51 82 52 83 61 84 53 85 54 86 60 87
REMARK SMILES IDX 62 88 55 89 56 90 57 91 58 92 59 93
REMARK H PARENT 17 4 21 24 83 43 49 54
REMARK Flexibility Score: inf
ROOT
ATOM      1  C   UNL A   1      33.072  36.273  30.039  1.00  0.00     0.242 C 
ATOM      2  O   UNL A   1      33.054  37.491  30.252  1.00  0.00    -0.273 OA
ATOM      3  N   UNL A   1      33.268  35.916  28.740  1.00  0.00    -0.354 N 
ATOM      4  H   UNL A   1      33.479  36.668  28.142  1.00  0.00     0.163 HD
ENDROOT
BRANCH   1   5
ATOM      5  C   UNL A   1      32.861  35.225  31.179  1.00  0.00     0.174 C 
ATOM      6  N   UNL A   1      34.082  34.662  31.795  1.00  0.00    -0.331 N 
ATOM      7  C   UNL A   1      34.935  35.675  32.409  1.00  0.00     0.120 C 
ATOM      8  C   UNL A   1      34.215  36.401  33.544  1.00  0.00     0.022 C 
ATOM      9  C   UNL A   1      32.033  35.865  32.326  1.00  0.00     0.035 C 
ATOM     10  C   UNL A   1      32.835  36.907  33.127  1.00  0.00     0.004 C 
BRANCH   6  11
ATOM     11  C   UNL A   1      34.032  33.424  32.451  1.00  0.00     0.223 C 
ATOM     12  O   UNL A   1      33.335  33.236  33.450  1.00  0.00    -0.275 OA
BRANCH  11  13
ATOM     13  C   UNL A   1      35.009  32.352  32.002  1.00  0.00     0.100 C 
BRANCH  13  14
ATOM     14  C   UNL A   1      36.400  32.402  32.639  1.00  0.00     0.010 C 
BRANCH  14  15
ATOM     15  C   UNL A   1      37.578  32.098  31.710  1.00  0.00     0.001 C 
BRANCH  15  16
ATOM     16  C   UNL A   1      38.440  33.303  31.334  1.00  0.00    -0.000 C 
BRANCH  16  17
ATOM     17  C   UNL A   1      38.319  33.785  29.890  1.00  0.00    -0.003 C 
ATOM     18  C   UNL A   1      39.309  34.906  29.609  1.00  0.00     0.004 C 
ENDBRANCH  16  17
ENDBRANCH  15  16
ENDBRANCH  14  15
ENDBRANCH  13  14
ENDBRANCH  11  13
ENDBRANCH   6  11
ENDBRANCH   1   5
BRANCH   3  19
ATOM     19  C   UNL A   1      33.221  34.629  28.083  1.00  0.00     0.117 C 
BRANCH  19  20
ATOM     20  C   UNL A   1      34.611  34.013  27.918  1.00  0.00     0.042 C 
BRANCH  20  21
ATOM     21  C   UNL A   1      34.943  32.848  28.848  1.00  0.00     0.118 C 
BRANCH  21  22
ATOM     22  N   UNL A   1      34.265  31.619  28.480  1.00  0.00    -0.352 N 
ATOM     23  C   UNL A   1      34.732  30.371  28.145  1.00  0.00     0.251 C 
ATOM     24  H   UNL A   1      33.284  31.694  28.469  1.00  0.00     0.163 HD
ATOM     25  O   UNL A   1      33.911  29.563  27.710  1.00  0.00    -0.269 OA
BRANCH  23  26
ATOM     26  C   UNL A   1      36.159  29.961  28.270  1.00  0.00     0.039 A 
ATOM     27  C   UNL A   1      36.570  29.413  29.494  1.00  0.00     0.014 A 
ATOM     28  C   UNL A   1      37.122  30.187  27.284  1.00  0.00     0.014 A 
ATOM     29  C   UNL A   1      37.913  29.082  29.716  1.00  0.00     0.010 A 
ATOM     30  C   UNL A   1      38.450  29.776  27.474  1.00  0.00     0.010 A 
ATOM     31  C   UNL A   1      38.870  29.243  28.702  1.00  0.00    -0.014 A 
BRANCH  31  32
ATOM     32  C   UNL A   1      40.299  28.889  28.943  1.00  0.00     0.031 A 
ATOM     33  C   UNL A   1      41.232  29.852  29.637  1.00  0.00     0.074 A 
ATOM     34  C   UNL A   1      40.773  27.693  28.536  1.00  0.00     0.049 A 
ATOM     35  N   UNL A   1      42.491  29.695  29.966  1.00  0.00    -0.248 NA
ATOM     36  C   UNL A   1      40.686  31.172  29.987  1.00  0.00     0.031 C 
ATOM     37  C   UNL A   1      39.999  26.684  27.809  1.00  0.00     0.029 A 
ATOM     38  N   UNL A   1      42.011  27.118  28.683  1.00  0.00    -0.354 N 
ATOM     39  C   UNL A   1      42.889  30.897  30.543  1.00  0.00     0.074 A 
ATOM     40  C   UNL A   1      41.753  31.791  30.470  1.00  0.00     0.031 C 
ATOM     41  C   UNL A   1      40.765  25.599  27.615  1.00  0.00     0.029 A 
ATOM     42  C   UNL A   1      42.092  25.842  28.177  1.00  0.00     0.049 A 
ATOM     43  H   UNL A   1      42.771  27.577  29.110  1.00  0.00     0.167 HD
ATOM     44  C   UNL A   1      44.080  31.224  31.105  1.00  0.00     0.037 A 
ATOM     45  C   UNL A   1      43.109  24.958  28.177  1.00  0.00     0.037 A 
ATOM     46  C   UNL A   1      45.204  30.327  31.205  1.00  0.00     0.049 A 
ATOM     47  C   UNL A   1      44.410  25.324  28.834  1.00  0.00     0.074 A 
ATOM     48  C   UNL A   1      46.432  30.546  31.806  1.00  0.00     0.029 A 
ATOM     49  N   UNL A   1      45.238  29.039  30.692  1.00  0.00    -0.354 N 
ATOM     50  N   UNL A   1      44.747  26.445  29.427  1.00  0.00    -0.248 NA
ATOM     51  C   UNL A   1      45.467  24.303  28.831  1.00  0.00     0.031 C 
ATOM     52  C   UNL A   1      47.221  29.403  31.625  1.00  0.00     0.029 A 
ATOM     53  C   UNL A   1      46.468  28.455  30.949  1.00  0.00     0.049 A 
ATOM     54  H   UNL A   1      44.495  28.602  30.215  1.00  0.00     0.167 HD
ATOM     55  C   UNL A   1      46.044  26.253  29.894  1.00  0.00     0.074 A 
ATOM     56  C   UNL A   1      46.427  24.906  29.519  1.00  0.00     0.031 C 
ATOM     57  C   UNL A   1      46.841  27.114  30.573  1.00  0.00     0.037 A 
BRANCH  44  58
ATOM     58  C   UNL A   1      44.224  32.619  31.656  1.00  0.00     0.058 A 
ATOM     59  C   UNL A   1      44.045  32.895  33.023  1.00  0.00     0.135 A 
ATOM     60  C   UNL A   1      44.544  33.693  30.810  1.00  0.00     0.135 A 
ATOM     61  F   UNL A   1      43.730  31.908  33.876  1.00  0.00    -0.206 F 
ATOM     62  C   UNL A   1      44.125  34.193  33.520  1.00  0.00     0.059 A 
ATOM     63  C   UNL A   1      44.656  34.995  31.292  1.00  0.00     0.059 A 
ATOM     64  F   UNL A   1      44.734  33.488  29.498  1.00  0.00    -0.206 F 
ATOM     65  C   UNL A   1      44.420  35.238  32.644  1.00  0.00     0.060 A 
BRANCH  65  66
ATOM     66  S   UNL A   1      44.481  36.921  33.295  1.00  0.00     0.124 S 
ATOM     67  O   UNL A   1      45.242  36.727  34.525  1.00  0.00    -0.237 OA
ATOM     68  O   UNL A   1      45.168  37.646  32.232  1.00  0.00    -0.237 OA
ATOM     69  O   UNL A   1      43.073  37.265  33.475  1.00  0.00    -0.744 OA
ENDBRANCH  65  66
ENDBRANCH  44  58
BRANCH  45  70
ATOM     70  C   UNL A   1      42.904  23.608  27.586  1.00  0.00     0.058 A 
ATOM     71  C   UNL A   1      43.173  23.371  26.229  1.00  0.00     0.135 A 
ATOM     72  C   UNL A   1      42.485  22.523  28.370  1.00  0.00     0.135 A 
ATOM     73  F   UNL A   1      43.567  24.381  25.438  1.00  0.00    -0.206 F 
ATOM     74  C   UNL A   1      43.040  22.105  25.671  1.00  0.00     0.059 A 
ATOM     75  C   UNL A   1      42.365  21.243  27.839  1.00  0.00     0.059 A 
ATOM     76  F   UNL A   1      42.229  22.696  29.676  1.00  0.00    -0.206 F 
ATOM     77  C   UNL A   1      42.643  21.043  26.487  1.00  0.00     0.060 A 
BRANCH  77  78
ATOM     78  S   UNL A   1      42.561  19.386  25.773  1.00  0.00     0.124 S 
ATOM     79  O   UNL A   1      42.895  18.553  26.922  1.00  0.00    -0.237 OA
ATOM     80  O   UNL A   1      41.176  19.319  25.314  1.00  0.00    -0.237 OA
ATOM     81  O   UNL A   1      43.562  19.431  24.711  1.00  0.00    -0.744 OA
ENDBRANCH  77  78
ENDBRANCH  45  70
BRANCH  57  82
ATOM     82  C   UNL A   1      48.199  26.616  30.986  1.00  0.00     0.058 A 
ATOM     83  C   UNL A   1      48.374  25.795  32.112  1.00  0.00     0.135 A 
ATOM     84  C   UNL A   1      49.336  26.943  30.232  1.00  0.00     0.135 A 
ATOM     85  F   UNL A   1      47.320  25.457  32.872  1.00  0.00    -0.206 F 
ATOM     86  C   UNL A   1      49.634  25.343  32.493  1.00  0.00     0.059 A 
ATOM     87  C   UNL A   1      50.603  26.482  30.580  1.00  0.00     0.059 A 
ATOM     88  F   UNL A   1      49.224  27.716  29.138  1.00  0.00    -0.206 F 
ATOM     89  C   UNL A   1      50.743  25.695  31.722  1.00  0.00     0.060 A 
BRANCH  89  90
ATOM     90  S   UNL A   1      52.372  25.094  32.217  1.00  0.00     0.124 S 
ATOM     91  O   UNL A   1      53.181  25.450  31.056  1.00  0.00    -0.237 OA
ATOM     92  O   UNL A   1      52.635  25.860  33.431  1.00  0.00    -0.237 OA
ATOM     93  O   UNL A   1      52.158  23.664  32.420  1.00  0.00    -0.744 OA
ENDBRANCH  89  90
ENDBRANCH  57  82
ENDBRANCH  31  32
ENDBRANCH  23  26
ENDBRANCH  21  22
ENDBRANCH  20  21
ENDBRANCH  19  20
ENDBRANCH   3  19
TORSDOF 19
ENDMDL
