MODEL 1
REMARK VINA RESULT:     -10.9      0.000      0.000
REMARK SMILES CC[C@@H](C)[C@H](C(=O)NCCCNC(=O)c1ccc(-c2c3nc(c(-c4c(F)cc(S(=O)(=O)[O-])cc4F)c4ccc([nH]4)c(-c4c(F)cc(S(=O)(=O)[O-])cc4F)c4nc(c(-c5c(F)cc(S(=O)(=O)[O-])cc5F)c5ccc2[nH]5)C=C4)C=C3)cc1)S(=O)(=O)c1cccc(OC)c1
REMARK SMILES IDX 10 1 9 2 8 3 6 4 7 5 5 7 3 8 4 9 2 10 1 11 81 12 82 13 83 14
REMARK SMILES IDX 84 15 85 16 91 17 86 18 88 19 87 20 89 21 90 22 11 23 12 24
REMARK SMILES IDX 13 25 14 27 15 28 16 29 80 30 17 31 79 32 18 33 19 34 20 35
REMARK SMILES IDX 73 36 21 37 78 38 72 39 74 40 22 41 77 42 71 43 70 44 23 46
REMARK SMILES IDX 57 47 36 48 56 49 37 50 40 51 55 52 75 53 38 54 39 55 54 57
REMARK SMILES IDX 76 58 41 59 24 60 25 61 34 62 26 63 27 64 33 65 35 66 28 67
REMARK SMILES IDX 29 68 30 69 31 70 32 71 58 72 59 73 68 74 60 75 61 76 67 77
REMARK SMILES IDX 69 78 62 79 63 80 64 81 65 82 66 83 42 84 43 85 52 86 44 87
REMARK SMILES IDX 45 88 51 89 53 90 46 91 47 92 48 93 49 94 50 95
REMARK H PARENT 8 6 12 26 74 45 40 56
REMARK Flexibility Score: inf
ROOT
ATOM      1  C   UNL A   1      33.258  29.038  25.465  1.00  0.00     0.042 C 
ENDROOT
BRANCH   1   2
ATOM      2  C   UNL A   1      31.850  29.562  25.287  1.00  0.00     0.117 C 
BRANCH   2   3
ATOM      3  N   UNL A   1      31.392  29.552  23.905  1.00  0.00    -0.355 N 
ATOM      4  C   UNL A   1      31.140  28.481  23.084  1.00  0.00     0.239 C 
ATOM      5  O   UNL A   1      30.526  28.709  22.043  1.00  0.00    -0.274 OA
ATOM      6  H   UNL A   1      31.242  30.438  23.503  1.00  0.00     0.163 HD
BRANCH   4   7
ATOM      7  C   UNL A   1      31.517  27.089  23.556  1.00  0.00     0.205 C 
BRANCH   7   8
ATOM      8  C   UNL A   1      30.277  26.370  24.175  1.00  0.00     0.014 C 
ATOM      9  C   UNL A   1      28.925  26.865  23.651  1.00  0.00     0.009 C 
BRANCH   8  10
ATOM     10  C   UNL A   1      30.441  26.098  25.691  1.00  0.00     0.002 C 
ATOM     11  C   UNL A   1      31.837  25.766  26.173  1.00  0.00     0.004 C 
ENDBRANCH   8  10
ENDBRANCH   7   8
BRANCH   7  12
ATOM     12  S   UNL A   1      32.432  26.218  22.273  1.00  0.00     0.190 S 
ATOM     13  O   UNL A   1      31.533  25.856  21.186  1.00  0.00    -0.223 OA
ATOM     14  O   UNL A   1      33.595  27.017  21.935  1.00  0.00    -0.223 OA
BRANCH  12  15
ATOM     15  C   UNL A   1      33.070  24.704  22.967  1.00  0.00     0.071 A 
ATOM     16  C   UNL A   1      34.304  24.692  23.616  1.00  0.00     0.020 A 
ATOM     17  C   UNL A   1      32.305  23.530  22.875  1.00  0.00     0.066 A 
ATOM     18  C   UNL A   1      34.806  23.482  24.095  1.00  0.00     0.005 A 
ATOM     19  C   UNL A   1      32.831  22.313  23.296  1.00  0.00     0.120 A 
ATOM     20  C   UNL A   1      34.084  22.298  23.911  1.00  0.00     0.046 A 
BRANCH  19  21
ATOM     21  O   UNL A   1      32.232  21.091  23.165  1.00  0.00    -0.497 OA
ATOM     22  C   UNL A   1      32.563  20.086  24.117  1.00  0.00     0.278 C 
ENDBRANCH  19  21
ENDBRANCH  12  15
ENDBRANCH   7  12
ENDBRANCH   4   7
ENDBRANCH   2   3
ENDBRANCH   1   2
BRANCH   1  23
ATOM     23  C   UNL A   1      33.712  28.956  26.912  1.00  0.00     0.118 C 
BRANCH  23  24
ATOM     24  N   UNL A   1      33.621  30.223  27.626  1.00  0.00    -0.352 N 
ATOM     25  C   UNL A   1      34.556  30.836  28.431  1.00  0.00     0.251 C 
ATOM     26  H   UNL A   1      32.771  30.709  27.518  1.00  0.00     0.163 HD
ATOM     27  O   UNL A   1      34.256  31.848  29.056  1.00  0.00    -0.269 OA
BRANCH  25  28
ATOM     28  C   UNL A   1      35.906  30.242  28.571  1.00  0.00     0.039 A 
ATOM     29  C   UNL A   1      36.788  30.294  27.491  1.00  0.00     0.014 A 
ATOM     30  C   UNL A   1      36.318  29.686  29.784  1.00  0.00     0.014 A 
ATOM     31  C   UNL A   1      38.111  29.874  27.658  1.00  0.00     0.010 A 
ATOM     32  C   UNL A   1      37.659  29.376  29.981  1.00  0.00     0.010 A 
ATOM     33  C   UNL A   1      38.572  29.462  28.920  1.00  0.00    -0.014 A 
BRANCH  33  34
ATOM     34  C   UNL A   1      39.998  29.112  29.153  1.00  0.00     0.031 A 
ATOM     35  C   UNL A   1      40.953  30.151  29.683  1.00  0.00     0.074 A 
ATOM     36  C   UNL A   1      40.453  27.887  28.817  1.00  0.00     0.049 A 
ATOM     37  N   UNL A   1      42.243  30.064  29.880  1.00  0.00    -0.248 NA
ATOM     38  C   UNL A   1      40.387  31.472  30.004  1.00  0.00     0.031 C 
ATOM     39  C   UNL A   1      39.644  26.812  28.235  1.00  0.00     0.029 A 
ATOM     40  N   UNL A   1      41.709  27.340  28.903  1.00  0.00    -0.354 N 
ATOM     41  C   UNL A   1      42.644  31.318  30.325  1.00  0.00     0.074 A 
ATOM     42  C   UNL A   1      41.473  32.166  30.314  1.00  0.00     0.031 C 
ATOM     43  C   UNL A   1      40.418  25.732  28.042  1.00  0.00     0.029 A 
ATOM     44  C   UNL A   1      41.785  26.046  28.443  1.00  0.00     0.049 A 
ATOM     45  H   UNL A   1      42.485  27.829  29.263  1.00  0.00     0.167 HD
ATOM     46  C   UNL A   1      43.871  31.720  30.731  1.00  0.00     0.037 A 
ATOM     47  C   UNL A   1      42.837  25.210  28.344  1.00  0.00     0.037 A 
ATOM     48  C   UNL A   1      45.025  30.862  30.773  1.00  0.00     0.049 A 
ATOM     49  C   UNL A   1      44.190  25.677  28.812  1.00  0.00     0.074 A 
ATOM     50  C   UNL A   1      46.295  31.153  31.239  1.00  0.00     0.029 A 
ATOM     51  N   UNL A   1      45.054  29.549  30.327  1.00  0.00    -0.354 N 
ATOM     52  N   UNL A   1      44.533  26.842  29.308  1.00  0.00    -0.248 NA
ATOM     53  C   UNL A   1      45.297  24.716  28.717  1.00  0.00     0.031 C 
ATOM     54  C   UNL A   1      47.104  30.033  31.027  1.00  0.00     0.029 A 
ATOM     55  C   UNL A   1      46.325  29.024  30.484  1.00  0.00     0.049 A 
ATOM     56  H   UNL A   1      44.283  29.062  29.955  1.00  0.00     0.167 HD
ATOM     57  C   UNL A   1      45.887  26.745  29.609  1.00  0.00     0.074 A 
ATOM     58  C   UNL A   1      46.297  25.402  29.253  1.00  0.00     0.031 C 
ATOM     59  C   UNL A   1      46.716  27.681  30.133  1.00  0.00     0.037 A 
BRANCH  46  60
ATOM     60  C   UNL A   1      44.029  33.151  31.172  1.00  0.00     0.058 A 
ATOM     61  C   UNL A   1      44.390  34.167  30.271  1.00  0.00     0.135 A 
ATOM     62  C   UNL A   1      43.775  33.519  32.504  1.00  0.00     0.135 A 
ATOM     63  F   UNL A   1      44.661  33.871  28.990  1.00  0.00    -0.206 F 
ATOM     64  C   UNL A   1      44.520  35.491  30.680  1.00  0.00     0.059 A 
ATOM     65  C   UNL A   1      43.868  34.842  32.927  1.00  0.00     0.059 A 
ATOM     66  F   UNL A   1      43.429  32.589  33.407  1.00  0.00    -0.206 F 
ATOM     67  C   UNL A   1      44.255  35.818  32.011  1.00  0.00     0.060 A 
BRANCH  67  68
ATOM     68  S   UNL A   1      44.414  37.542  32.520  1.00  0.00     0.124 S 
ATOM     69  O   UNL A   1      43.391  37.635  33.558  1.00  0.00    -0.237 OA
ATOM     70  O   UNL A   1      45.795  37.604  32.984  1.00  0.00    -0.237 OA
ATOM     71  O   UNL A   1      44.133  38.287  31.296  1.00  0.00    -0.744 OA
ENDBRANCH  67  68
ENDBRANCH  46  60
BRANCH  47  72
ATOM     72  C   UNL A   1      42.653  23.840  27.792  1.00  0.00     0.058 A 
ATOM     73  C   UNL A   1      42.667  23.608  26.408  1.00  0.00     0.135 A 
ATOM     74  C   UNL A   1      42.464  22.733  28.636  1.00  0.00     0.135 A 
ATOM     75  F   UNL A   1      42.838  24.633  25.559  1.00  0.00    -0.206 F 
ATOM     76  C   UNL A   1      42.481  22.335  25.879  1.00  0.00     0.059 A 
ATOM     77  C   UNL A   1      42.304  21.446  28.131  1.00  0.00     0.059 A 
ATOM     78  F   UNL A   1      42.460  22.896  29.968  1.00  0.00    -0.206 F 
ATOM     79  C   UNL A   1      42.303  21.258  26.750  1.00  0.00     0.060 A 
BRANCH  79  80
ATOM     80  S   UNL A   1      42.107  19.604  26.054  1.00  0.00     0.124 S 
ATOM     81  O   UNL A   1      43.039  19.644  24.934  1.00  0.00    -0.237 OA
ATOM     82  O   UNL A   1      42.490  18.752  27.175  1.00  0.00    -0.237 OA
ATOM     83  O   UNL A   1      40.691  19.556  25.697  1.00  0.00    -0.744 OA
ENDBRANCH  79  80
ENDBRANCH  47  72
BRANCH  59  84
ATOM     84  C   UNL A   1      48.143  27.280  30.393  1.00  0.00     0.058 A 
ATOM     85  C   UNL A   1      49.159  27.509  29.455  1.00  0.00     0.135 A 
ATOM     86  C   UNL A   1      48.504  26.708  31.625  1.00  0.00     0.135 A 
ATOM     87  F   UNL A   1      48.868  28.047  28.260  1.00  0.00    -0.206 F 
ATOM     88  C   UNL A   1      50.482  27.163  29.717  1.00  0.00     0.059 A 
ATOM     89  C   UNL A   1      49.824  26.383  31.921  1.00  0.00     0.059 A 
ATOM     90  F   UNL A   1      47.573  26.478  32.564  1.00  0.00    -0.206 F 
ATOM     91  C   UNL A   1      50.804  26.603  30.955  1.00  0.00     0.060 A 
BRANCH  91  92
ATOM     92  S   UNL A   1      52.528  26.191  31.294  1.00  0.00     0.124 S 
ATOM     93  O   UNL A   1      52.938  27.313  32.134  1.00  0.00    -0.237 OA
ATOM     94  O   UNL A   1      52.415  24.902  31.968  1.00  0.00    -0.237 OA
ATOM     95  O   UNL A   1      53.135  26.147  29.968  1.00  0.00    -0.744 OA
ENDBRANCH  91  92
ENDBRANCH  59  84
ENDBRANCH  33  34
ENDBRANCH  25  28
ENDBRANCH  23  24
ENDBRANCH   1  23
TORSDOF 18
ENDMDL
MODEL 2
REMARK VINA RESULT:     -10.9      5.068     10.668
REMARK SMILES CC[C@@H](C)[C@H](C(=O)NCCCNC(=O)c1ccc(-c2c3nc(c(-c4c(F)cc(S(=O)(=O)[O-])cc4F)c4ccc([nH]4)c(-c4c(F)cc(S(=O)(=O)[O-])cc4F)c4nc(c(-c5c(F)cc(S(=O)(=O)[O-])cc5F)c5ccc2[nH]5)C=C4)C=C3)cc1)S(=O)(=O)c1cccc(OC)c1
REMARK SMILES IDX 10 1 9 2 8 3 6 4 7 5 5 7 3 8 4 9 2 10 1 11 81 12 82 13 83 14
REMARK SMILES IDX 84 15 85 16 91 17 86 18 88 19 87 20 89 21 90 22 11 23 12 24
REMARK SMILES IDX 13 25 14 27 15 28 16 29 80 30 17 31 79 32 18 33 19 34 20 35
REMARK SMILES IDX 73 36 21 37 78 38 72 39 74 40 22 41 77 42 71 43 70 44 23 46
REMARK SMILES IDX 57 47 36 48 56 49 37 50 40 51 55 52 75 53 38 54 39 55 54 57
REMARK SMILES IDX 76 58 41 59 24 60 25 61 34 62 26 63 27 64 33 65 35 66 28 67
REMARK SMILES IDX 29 68 30 69 31 70 32 71 58 72 59 73 68 74 60 75 61 76 67 77
REMARK SMILES IDX 69 78 62 79 63 80 64 81 65 82 66 83 42 84 43 85 52 86 44 87
REMARK SMILES IDX 45 88 51 89 53 90 46 91 47 92 48 93 49 94 50 95
REMARK H PARENT 8 6 12 26 74 45 40 56
REMARK Flexibility Score: inf
ROOT
ATOM      1  C   UNL A   1      37.698  22.959  25.847  1.00  0.00     0.042 C 
ENDROOT
BRANCH   1   2
ATOM      2  C   UNL A   1      36.219  23.264  25.755  1.00  0.00     0.117 C 
BRANCH   2   3
ATOM      3  N   UNL A   1      35.389  22.402  26.584  1.00  0.00    -0.355 N 
ATOM      4  C   UNL A   1      34.047  22.131  26.480  1.00  0.00     0.239 C 
ATOM      5  O   UNL A   1      33.618  21.184  27.137  1.00  0.00    -0.274 OA
ATOM      6  H   UNL A   1      35.856  21.951  27.324  1.00  0.00     0.163 HD
BRANCH   4   7
ATOM      7  C   UNL A   1      33.213  22.920  25.489  1.00  0.00     0.205 C 
BRANCH   7   8
ATOM      8  C   UNL A   1      33.171  22.189  24.109  1.00  0.00     0.014 C 
ATOM      9  C   UNL A   1      33.307  20.665  24.191  1.00  0.00     0.009 C 
BRANCH   8  10
ATOM     10  C   UNL A   1      33.945  22.955  23.006  1.00  0.00     0.002 C 
ATOM     11  C   UNL A   1      33.132  23.877  22.123  1.00  0.00     0.004 C 
ENDBRANCH   8  10
ENDBRANCH   7   8
BRANCH   7  12
ATOM     12  S   UNL A   1      31.642  23.395  26.229  1.00  0.00     0.190 S 
ATOM     13  O   UNL A   1      30.617  22.421  25.878  1.00  0.00    -0.223 OA
ATOM     14  O   UNL A   1      31.870  23.640  27.640  1.00  0.00    -0.223 OA
BRANCH  12  15
ATOM     15  C   UNL A   1      31.147  24.964  25.539  1.00  0.00     0.071 A 
ATOM     16  C   UNL A   1      30.420  25.013  24.351  1.00  0.00     0.020 A 
ATOM     17  C   UNL A   1      31.476  26.148  26.219  1.00  0.00     0.066 A 
ATOM     18  C   UNL A   1      30.099  26.254  23.802  1.00  0.00     0.005 A 
ATOM     19  C   UNL A   1      31.212  27.386  25.642  1.00  0.00     0.120 A 
ATOM     20  C   UNL A   1      30.517  27.431  24.432  1.00  0.00     0.046 A 
BRANCH  19  21
ATOM     21  O   UNL A   1      31.576  28.602  26.151  1.00  0.00    -0.497 OA
ATOM     22  C   UNL A   1      32.673  28.638  27.058  1.00  0.00     0.278 C 
ENDBRANCH  19  21
ENDBRANCH  12  15
ENDBRANCH   7  12
ENDBRANCH   4   7
ENDBRANCH   2   3
ENDBRANCH   1   2
BRANCH   1  23
ATOM     23  C   UNL A   1      38.538  24.105  26.383  1.00  0.00     0.118 C 
BRANCH  23  24
ATOM     24  N   UNL A   1      39.973  23.899  26.232  1.00  0.00    -0.352 N 
ATOM     25  C   UNL A   1      41.015  24.641  26.744  1.00  0.00     0.251 C 
ATOM     26  H   UNL A   1      40.233  23.120  25.689  1.00  0.00     0.163 HD
ATOM     27  O   UNL A   1      42.168  24.389  26.407  1.00  0.00    -0.269 OA
BRANCH  25  28
ATOM     28  C   UNL A   1      40.733  25.766  27.664  1.00  0.00     0.039 A 
ATOM     29  C   UNL A   1      39.713  25.634  28.609  1.00  0.00     0.014 A 
ATOM     30  C   UNL A   1      41.509  26.926  27.631  1.00  0.00     0.014 A 
ATOM     31  C   UNL A   1      39.537  26.626  29.578  1.00  0.00     0.010 A 
ATOM     32  C   UNL A   1      41.407  27.855  28.661  1.00  0.00     0.010 A 
ATOM     33  C   UNL A   1      40.418  27.719  29.645  1.00  0.00    -0.014 A 
BRANCH  33  34
ATOM     34  C   UNL A   1      40.321  28.732  30.729  1.00  0.00     0.031 A 
ATOM     35  C   UNL A   1      41.176  28.599  31.964  1.00  0.00     0.074 A 
ATOM     36  C   UNL A   1      39.414  29.727  30.641  1.00  0.00     0.049 A 
ATOM     37  N   UNL A   1      41.182  29.333  33.047  1.00  0.00    -0.248 NA
ATOM     38  C   UNL A   1      42.125  27.474  31.999  1.00  0.00     0.031 C 
ATOM     39  C   UNL A   1      38.483  29.929  29.527  1.00  0.00     0.029 A 
ATOM     40  N   UNL A   1      39.114  30.749  31.506  1.00  0.00    -0.354 N 
ATOM     41  C   UNL A   1      42.115  28.748  33.895  1.00  0.00     0.074 A 
ATOM     42  C   UNL A   1      42.613  27.566  33.227  1.00  0.00     0.031 C 
ATOM     43  C   UNL A   1      37.738  31.019  29.766  1.00  0.00     0.029 A 
ATOM     44  C   UNL A   1      38.103  31.570  31.067  1.00  0.00     0.049 A 
ATOM     45  H   UNL A   1      39.581  30.882  32.363  1.00  0.00     0.167 HD
ATOM     46  C   UNL A   1      42.539  29.172  35.109  1.00  0.00     0.037 A 
ATOM     47  C   UNL A   1      37.526  32.641  31.648  1.00  0.00     0.037 A 
ATOM     48  C   UNL A   1      42.066  30.368  35.754  1.00  0.00     0.049 A 
ATOM     49  C   UNL A   1      38.021  33.099  32.994  1.00  0.00     0.074 A 
ATOM     50  C   UNL A   1      42.487  30.923  36.949  1.00  0.00     0.029 A 
ATOM     51  N   UNL A   1      41.062  31.190  35.262  1.00  0.00    -0.354 N 
ATOM     52  N   UNL A   1      38.964  32.579  33.745  1.00  0.00    -0.248 NA
ATOM     53  C   UNL A   1      37.384  34.291  33.569  1.00  0.00     0.031 C 
ATOM     54  C   UNL A   1      41.702  32.052  37.205  1.00  0.00     0.029 A 
ATOM     55  C   UNL A   1      40.834  32.235  36.141  1.00  0.00     0.049 A 
ATOM     56  H   UNL A   1      40.585  31.051  34.411  1.00  0.00     0.167 HD
ATOM     57  C   UNL A   1      39.051  33.397  34.867  1.00  0.00     0.074 A 
ATOM     58  C   UNL A   1      38.076  34.454  34.689  1.00  0.00     0.031 C 
ATOM     59  C   UNL A   1      39.865  33.285  35.946  1.00  0.00     0.037 A 
BRANCH  46  60
ATOM     60  C   UNL A   1      43.574  28.340  35.820  1.00  0.00     0.058 A 
ATOM     61  C   UNL A   1      44.950  28.547  35.627  1.00  0.00     0.135 A 
ATOM     62  C   UNL A   1      43.185  27.351  36.738  1.00  0.00     0.135 A 
ATOM     63  F   UNL A   1      45.380  29.467  34.749  1.00  0.00    -0.206 F 
ATOM     64  C   UNL A   1      45.902  27.786  36.299  1.00  0.00     0.059 A 
ATOM     65  C   UNL A   1      44.120  26.599  37.444  1.00  0.00     0.059 A 
ATOM     66  F   UNL A   1      41.883  27.109  36.959  1.00  0.00    -0.206 F 
ATOM     67  C   UNL A   1      45.476  26.816  37.206  1.00  0.00     0.060 A 
BRANCH  67  68
ATOM     68  S   UNL A   1      46.726  25.848  38.079  1.00  0.00     0.124 S 
ATOM     69  O   UNL A   1      47.864  25.957  37.171  1.00  0.00    -0.237 OA
ATOM     70  O   UNL A   1      46.851  26.568  39.341  1.00  0.00    -0.237 OA
ATOM     71  O   UNL A   1      46.125  24.522  38.174  1.00  0.00    -0.744 OA
ENDBRANCH  67  68
ENDBRANCH  46  60
BRANCH  47  72
ATOM     72  C   UNL A   1      36.423  33.363  30.956  1.00  0.00     0.058 A 
ATOM     73  C   UNL A   1      35.097  33.261  31.403  1.00  0.00     0.135 A 
ATOM     74  C   UNL A   1      36.673  34.175  29.837  1.00  0.00     0.135 A 
ATOM     75  F   UNL A   1      34.804  32.493  32.464  1.00  0.00    -0.206 F 
ATOM     76  C   UNL A   1      34.055  33.919  30.756  1.00  0.00     0.059 A 
ATOM     77  C   UNL A   1      35.652  34.865  29.191  1.00  0.00     0.059 A 
ATOM     78  F   UNL A   1      37.926  34.322  29.380  1.00  0.00    -0.206 F 
ATOM     79  C   UNL A   1      34.344  34.722  29.651  1.00  0.00     0.060 A 
BRANCH  79  80
ATOM     80  S   UNL A   1      32.991  35.606  28.846  1.00  0.00     0.124 S 
ATOM     81  O   UNL A   1      33.714  36.603  28.066  1.00  0.00    -0.237 OA
ATOM     82  O   UNL A   1      32.343  34.545  28.082  1.00  0.00    -0.237 OA
ATOM     83  O   UNL A   1      32.214  36.123  29.969  1.00  0.00    -0.744 OA
ENDBRANCH  79  80
ENDBRANCH  47  72
BRANCH  59  84
ATOM     84  C   UNL A   1      39.768  34.350  37.004  1.00  0.00     0.058 A 
ATOM     85  C   UNL A   1      38.986  34.181  38.155  1.00  0.00     0.135 A 
ATOM     86  C   UNL A   1      40.516  35.534  36.886  1.00  0.00     0.135 A 
ATOM     87  F   UNL A   1      38.247  33.072  38.314  1.00  0.00    -0.206 F 
ATOM     88  C   UNL A   1      38.928  35.160  39.144  1.00  0.00     0.059 A 
ATOM     89  C   UNL A   1      40.498  36.510  37.877  1.00  0.00     0.059 A 
ATOM     90  F   UNL A   1      41.292  35.741  35.811  1.00  0.00    -0.206 F 
ATOM     91  C   UNL A   1      39.690  36.319  38.996  1.00  0.00     0.060 A 
BRANCH  91  92
ATOM     92  S   UNL A   1      39.632  37.564  40.302  1.00  0.00     0.124 S 
ATOM     93  O   UNL A   1      38.947  36.840  41.368  1.00  0.00    -0.237 OA
ATOM     94  O   UNL A   1      41.045  37.843  40.531  1.00  0.00    -0.237 OA
ATOM     95  O   UNL A   1      38.874  38.656  39.698  1.00  0.00    -0.744 OA
ENDBRANCH  91  92
ENDBRANCH  59  84
ENDBRANCH  33  34
ENDBRANCH  25  28
ENDBRANCH  23  24
ENDBRANCH   1  23
TORSDOF 18
ENDMDL
MODEL 3
REMARK VINA RESULT:     -10.7      1.583      2.678
REMARK SMILES CC[C@@H](C)[C@H](C(=O)NCCCNC(=O)c1ccc(-c2c3nc(c(-c4c(F)cc(S(=O)(=O)[O-])cc4F)c4ccc([nH]4)c(-c4c(F)cc(S(=O)(=O)[O-])cc4F)c4nc(c(-c5c(F)cc(S(=O)(=O)[O-])cc5F)c5ccc2[nH]5)C=C4)C=C3)cc1)S(=O)(=O)c1cccc(OC)c1
REMARK SMILES IDX 10 1 9 2 8 3 6 4 7 5 5 7 3 8 4 9 2 10 1 11 81 12 82 13 83 14
REMARK SMILES IDX 84 15 85 16 91 17 86 18 88 19 87 20 89 21 90 22 11 23 12 24
REMARK SMILES IDX 13 25 14 27 15 28 16 29 80 30 17 31 79 32 18 33 19 34 20 35
REMARK SMILES IDX 73 36 21 37 78 38 72 39 74 40 22 41 77 42 71 43 70 44 23 46
REMARK SMILES IDX 57 47 36 48 56 49 37 50 40 51 55 52 75 53 38 54 39 55 54 57
REMARK SMILES IDX 76 58 41 59 24 60 25 61 34 62 26 63 27 64 33 65 35 66 28 67
REMARK SMILES IDX 29 68 30 69 31 70 32 71 58 72 59 73 68 74 60 75 61 76 67 77
REMARK SMILES IDX 69 78 62 79 63 80 64 81 65 82 66 83 42 84 43 85 52 86 44 87
REMARK SMILES IDX 45 88 51 89 53 90 46 91 47 92 48 93 49 94 50 95
REMARK H PARENT 8 6 12 26 74 45 40 56
REMARK Flexibility Score: inf
ROOT
ATOM      1  C   UNL A   1      32.092  27.898  27.109  1.00  0.00     0.042 C 
ENDROOT
BRANCH   1   2
ATOM      2  C   UNL A   1      32.064  26.630  26.282  1.00  0.00     0.117 C 
BRANCH   2   3
ATOM      3  N   UNL A   1      33.375  26.028  26.089  1.00  0.00    -0.355 N 
ATOM      4  C   UNL A   1      33.704  24.856  25.454  1.00  0.00     0.239 C 
ATOM      5  O   UNL A   1      34.894  24.675  25.199  1.00  0.00    -0.274 OA
ATOM      6  H   UNL A   1      34.131  26.530  26.468  1.00  0.00     0.163 HD
BRANCH   4   7
ATOM      7  C   UNL A   1      32.592  23.927  25.002  1.00  0.00     0.205 C 
BRANCH   7   8
ATOM      8  C   UNL A   1      32.782  23.541  23.501  1.00  0.00     0.014 C 
ATOM      9  C   UNL A   1      33.304  24.674  22.612  1.00  0.00     0.009 C 
BRANCH   8  10
ATOM     10  C   UNL A   1      31.643  22.634  22.971  1.00  0.00     0.002 C 
ATOM     11  C   UNL A   1      32.059  21.420  22.169  1.00  0.00     0.004 C 
ENDBRANCH   8  10
ENDBRANCH   7   8
BRANCH   7  12
ATOM     12  S   UNL A   1      32.372  22.589  26.187  1.00  0.00     0.190 S 
ATOM     13  O   UNL A   1      32.891  22.992  27.487  1.00  0.00    -0.223 OA
ATOM     14  O   UNL A   1      30.987  22.163  26.127  1.00  0.00    -0.223 OA
BRANCH  12  15
ATOM     15  C   UNL A   1      33.332  21.190  25.638  1.00  0.00     0.071 A 
ATOM     16  C   UNL A   1      34.713  21.302  25.480  1.00  0.00     0.020 A 
ATOM     17  C   UNL A   1      32.687  19.967  25.391  1.00  0.00     0.066 A 
ATOM     18  C   UNL A   1      35.431  20.210  24.992  1.00  0.00     0.005 A 
ATOM     19  C   UNL A   1      33.390  18.899  24.844  1.00  0.00     0.120 A 
ATOM     20  C   UNL A   1      34.767  19.027  24.651  1.00  0.00     0.046 A 
BRANCH  19  21
ATOM     21  O   UNL A   1      32.857  17.699  24.462  1.00  0.00    -0.497 OA
ATOM     22  C   UNL A   1      33.410  17.065  23.313  1.00  0.00     0.278 C 
ENDBRANCH  19  21
ENDBRANCH  12  15
ENDBRANCH   7  12
ENDBRANCH   4   7
ENDBRANCH   2   3
ENDBRANCH   1   2
BRANCH   1  23
ATOM     23  C   UNL A   1      33.464  28.542  27.213  1.00  0.00     0.118 C 
BRANCH  23  24
ATOM     24  N   UNL A   1      33.424  29.935  27.639  1.00  0.00    -0.352 N 
ATOM     25  C   UNL A   1      34.412  30.690  28.234  1.00  0.00     0.251 C 
ATOM     26  H   UNL A   1      32.572  30.402  27.480  1.00  0.00     0.163 HD
ATOM     27  O   UNL A   1      34.157  31.818  28.642  1.00  0.00    -0.269 OA
BRANCH  25  28
ATOM     28  C   UNL A   1      35.764  30.115  28.417  1.00  0.00     0.039 A 
ATOM     29  C   UNL A   1      36.663  30.133  27.348  1.00  0.00     0.014 A 
ATOM     30  C   UNL A   1      36.163  29.611  29.656  1.00  0.00     0.014 A 
ATOM     31  C   UNL A   1      37.986  29.732  27.552  1.00  0.00     0.010 A 
ATOM     32  C   UNL A   1      37.504  29.322  29.885  1.00  0.00     0.010 A 
ATOM     33  C   UNL A   1      38.432  29.375  28.836  1.00  0.00    -0.014 A 
BRANCH  33  34
ATOM     34  C   UNL A   1      39.857  29.048  29.103  1.00  0.00     0.031 A 
ATOM     35  C   UNL A   1      40.779  30.099  29.666  1.00  0.00     0.074 A 
ATOM     36  C   UNL A   1      40.343  27.834  28.769  1.00  0.00     0.049 A 
ATOM     37  N   UNL A   1      42.065  30.033  29.895  1.00  0.00    -0.248 NA
ATOM     38  C   UNL A   1      40.182  31.408  29.982  1.00  0.00     0.031 C 
ATOM     39  C   UNL A   1      39.569  26.750  28.158  1.00  0.00     0.029 A 
ATOM     40  N   UNL A   1      41.606  27.309  28.884  1.00  0.00    -0.354 N 
ATOM     41  C   UNL A   1      42.432  31.290  30.360  1.00  0.00     0.074 A 
ATOM     42  C   UNL A   1      41.247  32.117  30.326  1.00  0.00     0.031 C 
ATOM     43  C   UNL A   1      40.366  25.685  27.977  1.00  0.00     0.029 A 
ATOM     44  C   UNL A   1      41.717  26.020  28.416  1.00  0.00     0.049 A 
ATOM     45  H   UNL A   1      42.363  27.809  29.268  1.00  0.00     0.167 HD
ATOM     46  C   UNL A   1      43.641  31.711  30.802  1.00  0.00     0.037 A 
ATOM     47  C   UNL A   1      42.786  25.203  28.339  1.00  0.00     0.037 A 
ATOM     48  C   UNL A   1      44.809  30.873  30.867  1.00  0.00     0.049 A 
ATOM     49  C   UNL A   1      44.118  25.690  28.845  1.00  0.00     0.074 A 
ATOM     50  C   UNL A   1      46.061  31.183  31.369  1.00  0.00     0.029 A 
ATOM     51  N   UNL A   1      44.873  29.564  30.412  1.00  0.00    -0.354 N 
ATOM     52  N   UNL A   1      44.427  26.857  29.359  1.00  0.00    -0.248 NA
ATOM     53  C   UNL A   1      45.244  24.749  28.772  1.00  0.00     0.031 C 
ATOM     54  C   UNL A   1      46.895  30.078  31.170  1.00  0.00     0.029 A 
ATOM     55  C   UNL A   1      46.149  29.060  30.599  1.00  0.00     0.049 A 
ATOM     56  H   UNL A   1      44.120  29.066  30.016  1.00  0.00     0.167 HD
ATOM     57  C   UNL A   1      45.774  26.781  29.694  1.00  0.00     0.074 A 
ATOM     58  C   UNL A   1      46.217  25.448  29.339  1.00  0.00     0.031 C 
ATOM     59  C   UNL A   1      46.572  27.727  30.248  1.00  0.00     0.037 A 
BRANCH  46  60
ATOM     60  C   UNL A   1      43.762  33.141  31.258  1.00  0.00     0.058 A 
ATOM     61  C   UNL A   1      43.568  33.509  32.599  1.00  0.00     0.135 A 
ATOM     62  C   UNL A   1      44.120  34.150  30.349  1.00  0.00     0.135 A 
ATOM     63  F   UNL A   1      43.208  32.590  33.509  1.00  0.00    -0.206 F 
ATOM     64  C   UNL A   1      43.697  34.830  33.017  1.00  0.00     0.059 A 
ATOM     65  C   UNL A   1      44.285  35.472  30.751  1.00  0.00     0.059 A 
ATOM     66  F   UNL A   1      44.316  33.855  29.054  1.00  0.00    -0.206 F 
ATOM     67  C   UNL A   1      44.058  35.804  32.086  1.00  0.00     0.060 A 
BRANCH  67  68
ATOM     68  S   UNL A   1      44.235  37.509  32.650  1.00  0.00     0.124 S 
ATOM     69  O   UNL A   1      45.597  37.502  33.176  1.00  0.00    -0.237 OA
ATOM     70  O   UNL A   1      44.035  38.267  31.419  1.00  0.00    -0.237 OA
ATOM     71  O   UNL A   1      43.179  37.650  33.648  1.00  0.00    -0.744 OA
ENDBRANCH  67  68
ENDBRANCH  46  60
BRANCH  47  72
ATOM     72  C   UNL A   1      42.640  23.835  27.771  1.00  0.00     0.058 A 
ATOM     73  C   UNL A   1      42.686  23.616  26.386  1.00  0.00     0.135 A 
ATOM     74  C   UNL A   1      42.459  22.716  28.601  1.00  0.00     0.135 A 
ATOM     75  F   UNL A   1      42.852  24.652  25.549  1.00  0.00    -0.206 F 
ATOM     76  C   UNL A   1      42.536  22.344  25.842  1.00  0.00     0.059 A 
ATOM     77  C   UNL A   1      42.335  21.432  28.083  1.00  0.00     0.059 A 
ATOM     78  F   UNL A   1      42.426  22.868  29.935  1.00  0.00    -0.206 F 
ATOM     79  C   UNL A   1      42.363  21.256  26.700  1.00  0.00     0.060 A 
BRANCH  79  80
ATOM     80  S   UNL A   1      42.215  19.604  25.986  1.00  0.00     0.124 S 
ATOM     81  O   UNL A   1      40.790  19.542  25.684  1.00  0.00    -0.237 OA
ATOM     82  O   UNL A   1      43.110  19.687  24.836  1.00  0.00    -0.237 OA
ATOM     83  O   UNL A   1      42.672  18.731  27.064  1.00  0.00    -0.744 OA
ENDBRANCH  79  80
ENDBRANCH  47  72
BRANCH  59  84
ATOM     84  C   UNL A   1      47.999  27.349  30.542  1.00  0.00     0.058 A 
ATOM     85  C   UNL A   1      48.348  26.604  31.678  1.00  0.00     0.135 A 
ATOM     86  C   UNL A   1      49.022  27.691  29.641  1.00  0.00     0.135 A 
ATOM     87  F   UNL A   1      47.411  26.257  32.573  1.00  0.00    -0.206 F 
ATOM     88  C   UNL A   1      49.666  26.232  31.925  1.00  0.00     0.059 A 
ATOM     89  C   UNL A   1      50.341  27.302  29.852  1.00  0.00     0.059 A 
ATOM     90  F   UNL A   1      48.741  28.392  28.532  1.00  0.00    -0.206 F 
ATOM     91  C   UNL A   1      50.654  26.584  31.004  1.00  0.00     0.060 A 
BRANCH  91  92
ATOM     92  S   UNL A   1      52.354  26.065  31.320  1.00  0.00     0.124 S 
ATOM     93  O   UNL A   1      52.893  25.982  29.966  1.00  0.00    -0.237 OA
ATOM     94  O   UNL A   1      52.867  27.155  32.142  1.00  0.00    -0.237 OA
ATOM     95  O   UNL A   1      52.197  24.788  32.011  1.00  0.00    -0.744 OA
ENDBRANCH  91  92
ENDBRANCH  59  84
ENDBRANCH  33  34
ENDBRANCH  25  28
ENDBRANCH  23  24
ENDBRANCH   1  23
TORSDOF 18
ENDMDL
