MODEL 1
REMARK VINA RESULT:     -13.0      0.000      0.000
REMARK SMILES COc1cccc(C(=O)N2[C@@H](C(=O)NCCCNC(=O)c3ccc(-c4c5nc(c(-c6c(F)cc(S(=O)(=O)[O-])cc6F)c6ccc([nH]6)c(-c6c(F)cc(S(=O)(=O)[O-])cc6F)c6nc(c(-c7c(F)cc(S(=O)(=O)[O-])cc7F)c7ccc4[nH]7)C=C6)C=C5)cc3)CS[C@@H]2c2ccccc2Cl)c1
REMARK SMILES IDX 16 1 15 2 14 3 12 4 13 5 11 7 10 8 89 9 87 10 88 11 8 12
REMARK SMILES IDX 9 13 7 14 3 15 4 16 97 17 5 18 6 19 2 20 1 21 90 22 91 23
REMARK SMILES IDX 95 24 92 25 94 26 96 27 93 28 17 29 18 30 19 31 20 33 21 34
REMARK SMILES IDX 22 35 86 36 23 37 85 38 24 39 25 40 26 41 79 42 27 43 84 44
REMARK SMILES IDX 78 45 80 46 28 47 83 48 77 49 76 50 29 52 63 53 42 54 62 55
REMARK SMILES IDX 43 56 46 57 61 58 81 59 44 60 45 61 60 63 82 64 47 65 30 66
REMARK SMILES IDX 31 67 40 68 32 69 33 70 39 71 41 72 34 73 35 74 36 75 37 76
REMARK SMILES IDX 38 77 64 78 65 79 74 80 66 81 67 82 73 83 75 84 68 85 69 86
REMARK SMILES IDX 70 87 71 88 72 89 48 90 49 91 58 92 50 93 51 94 57 95 59 96
REMARK SMILES IDX 52 97 53 98 54 99 55 100 56 101
REMARK H PARENT 14 6 18 32 80 51 46 62
REMARK Flexibility Score: inf
ROOT
ATOM      1  C   UNL A   1      39.689  21.801  26.507  1.00  0.00     0.042 C 
ENDROOT
BRANCH   1   2
ATOM      2  C   UNL A   1      38.516  21.901  25.539  1.00  0.00     0.117 C 
BRANCH   2   3
ATOM      3  N   UNL A   1      37.770  23.139  25.664  1.00  0.00    -0.354 N 
ATOM      4  C   UNL A   1      36.419  23.341  25.571  1.00  0.00     0.243 C 
ATOM      5  O   UNL A   1      35.973  24.454  25.856  1.00  0.00    -0.273 OA
ATOM      6  H   UNL A   1      38.308  23.944  25.840  1.00  0.00     0.163 HD
BRANCH   4   7
ATOM      7  C   UNL A   1      35.516  22.139  25.219  1.00  0.00     0.186 C 
ATOM      8  N   UNL A   1      34.376  22.519  24.372  1.00  0.00    -0.310 N 
ATOM      9  C   UNL A   1      33.084  22.002  24.794  1.00  0.00     0.176 C 
ATOM     10  C   UNL A   1      34.987  21.589  26.551  1.00  0.00     0.107 C 
ATOM     11  S   UNL A   1      33.265  22.150  26.631  1.00  0.00    -0.129 SA
BRANCH   8  12
ATOM     12  C   UNL A   1      34.636  23.316  23.264  1.00  0.00     0.255 C 
ATOM     13  O   UNL A   1      35.682  23.224  22.631  1.00  0.00    -0.269 OA
BRANCH  12  14
ATOM     14  C   UNL A   1      33.729  24.467  22.971  1.00  0.00     0.043 A 
ATOM     15  C   UNL A   1      32.984  26.738  23.430  1.00  0.00     0.119 A 
ATOM     16  C   UNL A   1      32.284  26.739  22.222  1.00  0.00     0.046 A 
ATOM     17  C   UNL A   1      33.720  25.608  23.790  1.00  0.00     0.060 A 
ATOM     18  C   UNL A   1      32.325  25.630  21.377  1.00  0.00     0.005 A 
ATOM     19  C   UNL A   1      33.045  24.493  21.751  1.00  0.00     0.014 A 
BRANCH  15  20
ATOM     20  O   UNL A   1      32.885  27.893  24.158  1.00  0.00    -0.497 OA
ATOM     21  C   UNL A   1      31.825  28.779  23.811  1.00  0.00     0.278 C 
ENDBRANCH  15  20
ENDBRANCH  12  14
ENDBRANCH   8  12
BRANCH   9  22
ATOM     22  C   UNL A   1      32.734  20.536  24.460  1.00  0.00     0.003 A 
ATOM     23  C   UNL A   1      32.859  19.602  25.526  1.00  0.00     0.008 A 
ATOM     24  C   UNL A   1      32.330  20.004  23.223  1.00  0.00     0.047 A 
ATOM     25  C   UNL A   1      32.714  18.223  25.346  1.00  0.00     0.001 A 
ATOM     26  C   UNL A   1      32.192  18.614  23.043  1.00  0.00     0.021 A 
ATOM     27  Cl  UNL A   1      31.929  20.934  21.830  1.00  0.00    -0.084 Cl
ATOM     28  C   UNL A   1      32.403  17.725  24.092  1.00  0.00     0.002 A 
ENDBRANCH   9  22
ENDBRANCH   4   7
ENDBRANCH   2   3
ENDBRANCH   1   2
BRANCH   1  29
ATOM     29  C   UNL A   1      40.183  23.137  27.057  1.00  0.00     0.118 C 
BRANCH  29  30
ATOM     30  N   UNL A   1      40.969  23.897  26.096  1.00  0.00    -0.352 N 
ATOM     31  C   UNL A   1      41.398  25.198  26.114  1.00  0.00     0.251 C 
ATOM     32  H   UNL A   1      41.239  23.389  25.297  1.00  0.00     0.163 HD
ATOM     33  O   UNL A   1      41.949  25.648  25.105  1.00  0.00    -0.269 OA
BRANCH  31  34
ATOM     34  C   UNL A   1      41.199  26.072  27.293  1.00  0.00     0.039 A 
ATOM     35  C   UNL A   1      42.114  27.108  27.512  1.00  0.00     0.014 A 
ATOM     36  C   UNL A   1      40.168  25.860  28.211  1.00  0.00     0.014 A 
ATOM     37  C   UNL A   1      41.964  27.955  28.613  1.00  0.00     0.010 A 
ATOM     38  C   UNL A   1      39.974  26.752  29.267  1.00  0.00     0.010 A 
ATOM     39  C   UNL A   1      40.875  27.803  29.486  1.00  0.00    -0.014 A 
BRANCH  39  40
ATOM     40  C   UNL A   1      40.679  28.737  30.628  1.00  0.00     0.031 A 
ATOM     41  C   UNL A   1      41.534  28.628  31.863  1.00  0.00     0.074 A 
ATOM     42  C   UNL A   1      39.706  29.666  30.566  1.00  0.00     0.049 A 
ATOM     43  N   UNL A   1      41.507  29.354  32.953  1.00  0.00    -0.248 NA
ATOM     44  C   UNL A   1      42.535  27.550  31.887  1.00  0.00     0.031 C 
ATOM     45  C   UNL A   1      38.779  29.845  29.446  1.00  0.00     0.029 A 
ATOM     46  N   UNL A   1      39.334  30.639  31.461  1.00  0.00    -0.354 N 
ATOM     47  C   UNL A   1      42.478  28.818  33.790  1.00  0.00     0.074 A 
ATOM     48  C   UNL A   1      43.034  27.670  33.108  1.00  0.00     0.031 C 
ATOM     49  C   UNL A   1      37.973  30.886  29.704  1.00  0.00     0.029 A 
ATOM     50  C   UNL A   1      38.297  31.428  31.020  1.00  0.00     0.049 A 
ATOM     51  H   UNL A   1      39.768  30.760  32.336  1.00  0.00     0.167 HD
ATOM     52  C   UNL A   1      42.889  29.257  35.006  1.00  0.00     0.037 A 
ATOM     53  C   UNL A   1      37.681  32.474  31.605  1.00  0.00     0.037 A 
ATOM     54  C   UNL A   1      42.340  30.407  35.677  1.00  0.00     0.049 A 
ATOM     55  C   UNL A   1      38.148  32.940  32.957  1.00  0.00     0.074 A 
ATOM     56  C   UNL A   1      42.718  30.959  36.889  1.00  0.00     0.029 A 
ATOM     57  N   UNL A   1      41.295  31.183  35.195  1.00  0.00    -0.354 N 
ATOM     58  N   UNL A   1      39.110  32.460  33.708  1.00  0.00    -0.248 NA
ATOM     59  C   UNL A   1      37.452  34.097  33.536  1.00  0.00     0.031 C 
ATOM     60  C   UNL A   1      41.872  32.041  37.160  1.00  0.00     0.029 A 
ATOM     61  C   UNL A   1      41.002  32.196  36.093  1.00  0.00     0.049 A 
ATOM     62  H   UNL A   1      40.829  31.034  34.340  1.00  0.00     0.167 HD
ATOM     63  C   UNL A   1      39.157  33.275  34.833  1.00  0.00     0.074 A 
ATOM     64  C   UNL A   1      38.130  34.283  34.661  1.00  0.00     0.031 C 
ATOM     65  C   UNL A   1      39.981  33.199  35.908  1.00  0.00     0.037 A 
BRANCH  52  66
ATOM     66  C   UNL A   1      43.988  28.484  35.686  1.00  0.00     0.058 A 
ATOM     67  C   UNL A   1      45.344  28.768  35.449  1.00  0.00     0.135 A 
ATOM     68  C   UNL A   1      43.687  27.455  36.594  1.00  0.00     0.135 A 
ATOM     69  F   UNL A   1      45.691  29.733  34.583  1.00  0.00    -0.206 F 
ATOM     70  C   UNL A   1      46.359  28.033  36.052  1.00  0.00     0.059 A 
ATOM     71  C   UNL A   1      44.687  26.727  37.232  1.00  0.00     0.059 A 
ATOM     72  F   UNL A   1      42.410  27.144  36.863  1.00  0.00    -0.206 F 
ATOM     73  C   UNL A   1      46.020  27.008  36.938  1.00  0.00     0.060 A 
BRANCH  73  74
ATOM     74  S   UNL A   1      47.348  26.049  37.695  1.00  0.00     0.124 S 
ATOM     75  O   UNL A   1      47.418  24.896  36.802  1.00  0.00    -0.237 OA
ATOM     76  O   UNL A   1      48.479  26.970  37.628  1.00  0.00    -0.237 OA
ATOM     77  O   UNL A   1      46.848  25.774  39.037  1.00  0.00    -0.744 OA
ENDBRANCH  73  74
ENDBRANCH  52  66
BRANCH  53  78
ATOM     78  C   UNL A   1      36.587  33.179  30.888  1.00  0.00     0.058 A 
ATOM     79  C   UNL A   1      35.253  33.042  31.299  1.00  0.00     0.135 A 
ATOM     80  C   UNL A   1      36.852  34.028  29.802  1.00  0.00     0.135 A 
ATOM     81  F   UNL A   1      34.947  32.238  32.329  1.00  0.00    -0.206 F 
ATOM     82  C   UNL A   1      34.218  33.715  30.655  1.00  0.00     0.059 A 
ATOM     83  C   UNL A   1      35.837  34.730  29.158  1.00  0.00     0.059 A 
ATOM     84  F   UNL A   1      38.114  34.206  29.380  1.00  0.00    -0.206 F 
ATOM     85  C   UNL A   1      34.522  34.561  29.589  1.00  0.00     0.060 A 
BRANCH  85  86
ATOM     86  S   UNL A   1      33.180  35.480  28.804  1.00  0.00     0.124 S 
ATOM     87  O   UNL A   1      32.516  34.433  28.036  1.00  0.00    -0.237 OA
ATOM     88  O   UNL A   1      32.444  35.991  29.956  1.00  0.00    -0.237 OA
ATOM     89  O   UNL A   1      33.880  36.493  28.019  1.00  0.00    -0.744 OA
ENDBRANCH  85  86
ENDBRANCH  53  78
BRANCH  65  90
ATOM     90  C   UNL A   1      39.838  34.257  36.968  1.00  0.00     0.058 A 
ATOM     91  C   UNL A   1      40.455  35.512  36.851  1.00  0.00     0.135 A 
ATOM     92  C   UNL A   1      39.032  34.025  38.095  1.00  0.00     0.135 A 
ATOM     93  F   UNL A   1      41.241  35.784  35.798  1.00  0.00    -0.206 F 
ATOM     94  C   UNL A   1      40.296  36.493  37.827  1.00  0.00     0.059 A 
ATOM     95  C   UNL A   1      38.837  35.001  39.068  1.00  0.00     0.059 A 
ATOM     96  F   UNL A   1      38.412  32.845  38.251  1.00  0.00    -0.206 F 
ATOM     97  C   UNL A   1      39.484  36.228  38.931  1.00  0.00     0.060 A 
BRANCH  97  98
ATOM     98  S   UNL A   1      39.262  37.520  40.173  1.00  0.00     0.124 S 
ATOM     99  O   UNL A   1      40.588  38.126  40.208  1.00  0.00    -0.237 OA
ATOM    100  O   UNL A   1      38.205  38.338  39.587  1.00  0.00    -0.237 OA
ATOM    101  O   UNL A   1      38.878  36.777  41.371  1.00  0.00    -0.744 OA
ENDBRANCH  97  98
ENDBRANCH  65  90
ENDBRANCH  39  40
ENDBRANCH  31  34
ENDBRANCH  29  30
ENDBRANCH   1  29
TORSDOF 17
ENDMDL
MODEL 2
REMARK VINA RESULT:     -12.8      6.528     12.235
REMARK SMILES COc1cccc(C(=O)N2[C@@H](C(=O)NCCCNC(=O)c3ccc(-c4c5nc(c(-c6c(F)cc(S(=O)(=O)[O-])cc6F)c6ccc([nH]6)c(-c6c(F)cc(S(=O)(=O)[O-])cc6F)c6nc(c(-c7c(F)cc(S(=O)(=O)[O-])cc7F)c7ccc4[nH]7)C=C6)C=C5)cc3)CS[C@@H]2c2ccccc2Cl)c1
REMARK SMILES IDX 16 1 15 2 14 3 12 4 13 5 11 7 10 8 89 9 87 10 88 11 8 12
REMARK SMILES IDX 9 13 7 14 3 15 4 16 97 17 5 18 6 19 2 20 1 21 90 22 91 23
REMARK SMILES IDX 95 24 92 25 94 26 96 27 93 28 17 29 18 30 19 31 20 33 21 34
REMARK SMILES IDX 22 35 86 36 23 37 85 38 24 39 25 40 26 41 79 42 27 43 84 44
REMARK SMILES IDX 78 45 80 46 28 47 83 48 77 49 76 50 29 52 63 53 42 54 62 55
REMARK SMILES IDX 43 56 46 57 61 58 81 59 44 60 45 61 60 63 82 64 47 65 30 66
REMARK SMILES IDX 31 67 40 68 32 69 33 70 39 71 41 72 34 73 35 74 36 75 37 76
REMARK SMILES IDX 38 77 64 78 65 79 74 80 66 81 67 82 73 83 75 84 68 85 69 86
REMARK SMILES IDX 70 87 71 88 72 89 48 90 49 91 58 92 50 93 51 94 57 95 59 96
REMARK SMILES IDX 52 97 53 98 54 99 55 100 56 101
REMARK H PARENT 14 6 18 32 80 51 46 62
REMARK Flexibility Score: inf
ROOT
ATOM      1  C   UNL A   1      34.225  31.497  27.710  1.00  0.00     0.042 C 
ENDROOT
BRANCH   1   2
ATOM      2  C   UNL A   1      33.185  30.387  27.608  1.00  0.00     0.117 C 
BRANCH   2   3
ATOM      3  N   UNL A   1      33.757  29.089  27.300  1.00  0.00    -0.354 N 
ATOM      4  C   UNL A   1      33.422  28.219  26.297  1.00  0.00     0.243 C 
ATOM      5  O   UNL A   1      34.133  27.228  26.121  1.00  0.00    -0.273 OA
ATOM      6  H   UNL A   1      34.485  28.794  27.892  1.00  0.00     0.163 HD
BRANCH   4   7
ATOM      7  C   UNL A   1      32.237  28.578  25.374  1.00  0.00     0.186 C 
ATOM      8  N   UNL A   1      31.455  27.398  24.976  1.00  0.00    -0.310 N 
ATOM      9  C   UNL A   1      31.146  27.303  23.558  1.00  0.00     0.176 C 
ATOM     10  C   UNL A   1      32.843  29.221  24.119  1.00  0.00     0.107 C 
ATOM     11  S   UNL A   1      32.731  27.939  22.842  1.00  0.00    -0.129 SA
BRANCH   8  12
ATOM     12  C   UNL A   1      31.085  26.505  25.974  1.00  0.00     0.255 C 
ATOM     13  O   UNL A   1      30.826  26.879  27.113  1.00  0.00    -0.269 OA
BRANCH  12  14
ATOM     14  C   UNL A   1      31.226  25.039  25.723  1.00  0.00     0.043 A 
ATOM     15  C   UNL A   1      32.481  23.165  24.809  1.00  0.00     0.119 A 
ATOM     16  C   UNL A   1      31.679  22.287  25.541  1.00  0.00     0.046 A 
ATOM     17  C   UNL A   1      32.264  24.539  24.919  1.00  0.00     0.060 A 
ATOM     18  C   UNL A   1      30.677  22.774  26.381  1.00  0.00     0.005 A 
ATOM     19  C   UNL A   1      30.449  24.148  26.472  1.00  0.00     0.014 A 
BRANCH  15  20
ATOM     20  O   UNL A   1      33.444  22.567  24.041  1.00  0.00    -0.497 OA
ATOM     21  C   UNL A   1      33.400  22.830  22.642  1.00  0.00     0.278 C 
ENDBRANCH  15  20
ENDBRANCH  12  14
ENDBRANCH   8  12
BRANCH   9  22
ATOM     22  C   UNL A   1      29.987  28.154  23.000  1.00  0.00     0.003 A 
ATOM     23  C   UNL A   1      30.356  29.259  22.183  1.00  0.00     0.008 A 
ATOM     24  C   UNL A   1      28.607  27.987  23.218  1.00  0.00     0.047 A 
ATOM     25  C   UNL A   1      29.433  30.201  21.720  1.00  0.00     0.001 A 
ATOM     26  C   UNL A   1      27.681  28.942  22.756  1.00  0.00     0.021 A 
ATOM     27  Cl  UNL A   1      27.888  26.637  24.008  1.00  0.00    -0.084 Cl
ATOM     28  C   UNL A   1      28.091  30.054  22.030  1.00  0.00     0.002 A 
ENDBRANCH   9  22
ENDBRANCH   4   7
ENDBRANCH   2   3
ENDBRANCH   1   2
BRANCH   1  29
ATOM     29  C   UNL A   1      35.592  31.050  28.223  1.00  0.00     0.118 C 
BRANCH  29  30
ATOM     30  N   UNL A   1      35.596  30.734  29.644  1.00  0.00    -0.352 N 
ATOM     31  C   UNL A   1      36.549  30.142  30.430  1.00  0.00     0.251 C 
ATOM     32  H   UNL A   1      34.774  30.990  30.121  1.00  0.00     0.163 HD
ATOM     33  O   UNL A   1      36.257  29.865  31.597  1.00  0.00    -0.269 OA
BRANCH  31  34
ATOM     34  C   UNL A   1      37.896  29.810  29.912  1.00  0.00     0.039 A 
ATOM     35  C   UNL A   1      38.934  29.626  30.834  1.00  0.00     0.014 A 
ATOM     36  C   UNL A   1      38.169  29.730  28.545  1.00  0.00     0.014 A 
ATOM     37  C   UNL A   1      40.221  29.314  30.387  1.00  0.00     0.010 A 
ATOM     38  C   UNL A   1      39.436  29.342  28.103  1.00  0.00     0.010 A 
ATOM     39  C   UNL A   1      40.478  29.140  29.019  1.00  0.00    -0.014 A 
BRANCH  39  40
ATOM     40  C   UNL A   1      41.833  28.752  28.543  1.00  0.00     0.031 A 
ATOM     41  C   UNL A   1      42.939  29.771  28.462  1.00  0.00     0.074 A 
ATOM     42  C   UNL A   1      42.061  27.483  28.150  1.00  0.00     0.049 A 
ATOM     43  N   UNL A   1      44.180  29.615  28.073  1.00  0.00    -0.248 NA
ATOM     44  C   UNL A   1      42.602  31.151  28.847  1.00  0.00     0.031 C 
ATOM     45  C   UNL A   1      41.062  26.412  28.135  1.00  0.00     0.029 A 
ATOM     46  N   UNL A   1      43.204  26.876  27.692  1.00  0.00    -0.354 N 
ATOM     47  C   UNL A   1      44.767  30.871  28.161  1.00  0.00     0.074 A 
ATOM     48  C   UNL A   1      43.731  31.790  28.581  1.00  0.00     0.031 C 
ATOM     49  C   UNL A   1      41.644  25.274  27.727  1.00  0.00     0.029 A 
ATOM     50  C   UNL A   1      43.046  25.538  27.417  1.00  0.00     0.049 A 
ATOM     51  H   UNL A   1      44.056  27.354  27.571  1.00  0.00     0.167 HD
ATOM     52  C   UNL A   1      46.057  31.225  27.938  1.00  0.00     0.037 A 
ATOM     53  C   UNL A   1      43.930  24.624  26.971  1.00  0.00     0.037 A 
ATOM     54  C   UNL A   1      47.087  30.305  27.530  1.00  0.00     0.049 A 
ATOM     55  C   UNL A   1      45.355  25.039  26.724  1.00  0.00     0.074 A 
ATOM     56  C   UNL A   1      48.432  30.556  27.321  1.00  0.00     0.029 A 
ATOM     57  N   UNL A   1      46.888  28.957  27.267  1.00  0.00    -0.354 N 
ATOM     58  N   UNL A   1      45.908  26.219  26.871  1.00  0.00    -0.248 NA
ATOM     59  C   UNL A   1      46.278  23.996  26.258  1.00  0.00     0.031 C 
ATOM     60  C   UNL A   1      49.037  29.370  26.890  1.00  0.00     0.029 A 
ATOM     61  C   UNL A   1      48.081  28.368  26.880  1.00  0.00     0.049 A 
ATOM     62  H   UNL A   1      46.025  28.489  27.343  1.00  0.00     0.167 HD
ATOM     63  C   UNL A   1      47.249  26.054  26.549  1.00  0.00     0.074 A 
ATOM     64  C   UNL A   1      47.426  24.657  26.204  1.00  0.00     0.031 C 
ATOM     65  C   UNL A   1      48.247  26.974  26.546  1.00  0.00     0.037 A 
BRANCH  52  66
ATOM     66  C   UNL A   1      46.420  32.674  28.131  1.00  0.00     0.058 A 
ATOM     67  C   UNL A   1      46.906  33.153  29.360  1.00  0.00     0.135 A 
ATOM     68  C   UNL A   1      46.295  33.593  27.077  1.00  0.00     0.135 A 
ATOM     69  F   UNL A   1      47.036  32.323  30.406  1.00  0.00    -0.206 F 
ATOM     70  C   UNL A   1      47.212  34.497  29.548  1.00  0.00     0.059 A 
ATOM     71  C   UNL A   1      46.624  34.936  27.234  1.00  0.00     0.059 A 
ATOM     72  F   UNL A   1      45.842  33.191  25.879  1.00  0.00    -0.206 F 
ATOM     73  C   UNL A   1      47.061  35.384  28.480  1.00  0.00     0.060 A 
BRANCH  73  74
ATOM     74  S   UNL A   1      47.440  37.128  28.747  1.00  0.00     0.124 S 
ATOM     75  O   UNL A   1      48.468  37.359  27.735  1.00  0.00    -0.237 OA
ATOM     76  O   UNL A   1      46.152  37.770  28.497  1.00  0.00    -0.237 OA
ATOM     77  O   UNL A   1      47.900  37.171  30.130  1.00  0.00    -0.744 OA
ENDBRANCH  73  74
ENDBRANCH  52  66
BRANCH  53  78
ATOM     78  C   UNL A   1      43.499  23.214  26.780  1.00  0.00     0.058 A 
ATOM     79  C   UNL A   1      43.369  22.671  25.493  1.00  0.00     0.135 A 
ATOM     80  C   UNL A   1      43.241  22.373  27.873  1.00  0.00     0.135 A 
ATOM     81  F   UNL A   1      43.599  23.437  24.415  1.00  0.00    -0.206 F 
ATOM     82  C   UNL A   1      42.991  21.347  25.295  1.00  0.00     0.059 A 
ATOM     83  C   UNL A   1      42.886  21.038  27.701  1.00  0.00     0.059 A 
ATOM     84  F   UNL A   1      43.368  22.840  29.125  1.00  0.00    -0.206 F 
ATOM     85  C   UNL A   1      42.757  20.536  26.407  1.00  0.00     0.060 A 
BRANCH  85  86
ATOM     86  S   UNL A   1      42.332  18.801  26.139  1.00  0.00     0.124 S 
ATOM     87  O   UNL A   1      40.931  18.899  25.746  1.00  0.00    -0.237 OA
ATOM     88  O   UNL A   1      43.266  18.417  25.085  1.00  0.00    -0.237 OA
ATOM     89  O   UNL A   1      42.583  18.190  27.440  1.00  0.00    -0.744 OA
ENDBRANCH  85  86
ENDBRANCH  53  78
BRANCH  65  90
ATOM     90  C   UNL A   1      49.630  26.497  26.197  1.00  0.00     0.058 A 
ATOM     91  C   UNL A   1      50.171  26.664  24.914  1.00  0.00     0.135 A 
ATOM     92  C   UNL A   1      50.443  25.906  27.179  1.00  0.00     0.135 A 
ATOM     93  F   UNL A   1      49.435  27.217  23.936  1.00  0.00    -0.206 F 
ATOM     94  C   UNL A   1      51.462  26.241  24.608  1.00  0.00     0.059 A 
ATOM     95  C   UNL A   1      51.745  25.501  26.904  1.00  0.00     0.059 A 
ATOM     96  F   UNL A   1      49.978  25.731  28.426  1.00  0.00    -0.206 F 
ATOM     97  C   UNL A   1      52.242  25.661  25.611  1.00  0.00     0.060 A 
BRANCH  97  98
ATOM     98  S   UNL A   1      53.925  25.145  25.211  1.00  0.00     0.124 S 
ATOM     99  O   UNL A   1      53.744  23.719  24.960  1.00  0.00    -0.237 OA
ATOM    100  O   UNL A   1      54.232  25.961  24.040  1.00  0.00    -0.237 OA
ATOM    101  O   UNL A   1      54.679  25.481  26.415  1.00  0.00    -0.744 OA
ENDBRANCH  97  98
ENDBRANCH  65  90
ENDBRANCH  39  40
ENDBRANCH  31  34
ENDBRANCH  29  30
ENDBRANCH   1  29
TORSDOF 17
ENDMDL
MODEL 3
REMARK VINA RESULT:     -12.2      6.431     11.686
REMARK SMILES COc1cccc(C(=O)N2[C@@H](C(=O)NCCCNC(=O)c3ccc(-c4c5nc(c(-c6c(F)cc(S(=O)(=O)[O-])cc6F)c6ccc([nH]6)c(-c6c(F)cc(S(=O)(=O)[O-])cc6F)c6nc(c(-c7c(F)cc(S(=O)(=O)[O-])cc7F)c7ccc4[nH]7)C=C6)C=C5)cc3)CS[C@@H]2c2ccccc2Cl)c1
REMARK SMILES IDX 16 1 15 2 14 3 12 4 13 5 11 7 10 8 89 9 87 10 88 11 8 12
REMARK SMILES IDX 9 13 7 14 3 15 4 16 97 17 5 18 6 19 2 20 1 21 90 22 91 23
REMARK SMILES IDX 95 24 92 25 94 26 96 27 93 28 17 29 18 30 19 31 20 33 21 34
REMARK SMILES IDX 22 35 86 36 23 37 85 38 24 39 25 40 26 41 79 42 27 43 84 44
REMARK SMILES IDX 78 45 80 46 28 47 83 48 77 49 76 50 29 52 63 53 42 54 62 55
REMARK SMILES IDX 43 56 46 57 61 58 81 59 44 60 45 61 60 63 82 64 47 65 30 66
REMARK SMILES IDX 31 67 40 68 32 69 33 70 39 71 41 72 34 73 35 74 36 75 37 76
REMARK SMILES IDX 38 77 64 78 65 79 74 80 66 81 67 82 73 83 75 84 68 85 69 86
REMARK SMILES IDX 70 87 71 88 72 89 48 90 49 91 58 92 50 93 51 94 57 95 59 96
REMARK SMILES IDX 52 97 53 98 54 99 55 100 56 101
REMARK H PARENT 14 6 18 32 80 51 46 62
REMARK Flexibility Score: inf
ROOT
ATOM      1  C   UNL A   1      34.315  31.701  28.179  1.00  0.00     0.042 C 
ENDROOT
BRANCH   1   2
ATOM      2  C   UNL A   1      33.462  30.842  27.254  1.00  0.00     0.117 C 
BRANCH   2   3
ATOM      3  N   UNL A   1      33.987  29.502  27.065  1.00  0.00    -0.354 N 
ATOM      4  C   UNL A   1      33.580  28.536  26.183  1.00  0.00     0.243 C 
ATOM      5  O   UNL A   1      34.258  27.512  26.084  1.00  0.00    -0.273 OA
ATOM      6  H   UNL A   1      34.738  29.253  27.650  1.00  0.00     0.163 HD
BRANCH   4   7
ATOM      7  C   UNL A   1      32.357  28.825  25.286  1.00  0.00     0.186 C 
ATOM      8  N   UNL A   1      31.538  27.628  25.047  1.00  0.00    -0.310 N 
ATOM      9  C   UNL A   1      31.159  27.396  23.662  1.00  0.00     0.176 C 
ATOM     10  C   UNL A   1      32.911  29.327  23.945  1.00  0.00     0.107 C 
ATOM     11  S   UNL A   1      32.716  27.925  22.811  1.00  0.00    -0.129 SA
BRANCH   8  12
ATOM     12  C   UNL A   1      31.204  26.847  26.147  1.00  0.00     0.255 C 
ATOM     13  O   UNL A   1      31.016  27.338  27.255  1.00  0.00    -0.269 OA
BRANCH  12  14
ATOM     14  C   UNL A   1      31.298  25.360  26.035  1.00  0.00     0.043 A 
ATOM     15  C   UNL A   1      32.640  23.338  25.853  1.00  0.00     0.119 A 
ATOM     16  C   UNL A   1      31.513  22.576  26.169  1.00  0.00     0.046 A 
ATOM     17  C   UNL A   1      32.532  24.728  25.807  1.00  0.00     0.060 A 
ATOM     18  C   UNL A   1      30.293  23.195  26.446  1.00  0.00     0.005 A 
ATOM     19  C   UNL A   1      30.184  24.586  26.378  1.00  0.00     0.014 A 
BRANCH  15  20
ATOM     20  O   UNL A   1      33.781  22.617  25.626  1.00  0.00    -0.497 OA
ATOM     21  C   UNL A   1      33.709  21.603  24.629  1.00  0.00     0.278 C 
ENDBRANCH  15  20
ENDBRANCH  12  14
ENDBRANCH   8  12
BRANCH   9  22
ATOM     22  C   UNL A   1      29.987  28.211  23.075  1.00  0.00     0.003 A 
ATOM     23  C   UNL A   1      30.340  29.305  22.237  1.00  0.00     0.008 A 
ATOM     24  C   UNL A   1      28.609  28.020  23.287  1.00  0.00     0.047 A 
ATOM     25  C   UNL A   1      29.401  30.217  21.746  1.00  0.00     0.001 A 
ATOM     26  C   UNL A   1      27.667  28.945  22.797  1.00  0.00     0.021 A 
ATOM     27  Cl  UNL A   1      27.911  26.674  24.102  1.00  0.00    -0.084 Cl
ATOM     28  C   UNL A   1      28.060  30.049  22.048  1.00  0.00     0.002 A 
ENDBRANCH   9  22
ENDBRANCH   4   7
ENDBRANCH   2   3
ENDBRANCH   1   2
BRANCH   1  29
ATOM     29  C   UNL A   1      35.585  31.026  28.692  1.00  0.00     0.118 C 
BRANCH  29  30
ATOM     30  N   UNL A   1      35.575  30.806  30.131  1.00  0.00    -0.352 N 
ATOM     31  C   UNL A   1      36.521  30.269  30.965  1.00  0.00     0.251 C 
ATOM     32  H   UNL A   1      34.750  31.094  30.583  1.00  0.00     0.163 HD
ATOM     33  O   UNL A   1      36.218  30.071  32.145  1.00  0.00    -0.269 OA
BRANCH  31  34
ATOM     34  C   UNL A   1      37.873  29.903  30.482  1.00  0.00     0.039 A 
ATOM     35  C   UNL A   1      38.171  30.105  29.130  1.00  0.00     0.014 A 
ATOM     36  C   UNL A   1      38.828  29.319  31.317  1.00  0.00     0.014 A 
ATOM     37  C   UNL A   1      39.433  29.771  28.633  1.00  0.00     0.010 A 
ATOM     38  C   UNL A   1      40.114  29.058  30.838  1.00  0.00     0.010 A 
ATOM     39  C   UNL A   1      40.427  29.272  29.488  1.00  0.00    -0.014 A 
BRANCH  39  40
ATOM     40  C   UNL A   1      41.790  28.969  28.976  1.00  0.00     0.031 A 
ATOM     41  C   UNL A   1      42.130  27.592  28.467  1.00  0.00     0.074 A 
ATOM     42  C   UNL A   1      42.737  29.927  28.998  1.00  0.00     0.049 A 
ATOM     43  N   UNL A   1      43.262  27.147  27.982  1.00  0.00    -0.248 NA
ATOM     44  C   UNL A   1      41.066  26.578  28.529  1.00  0.00     0.031 C 
ATOM     45  C   UNL A   1      42.549  31.287  29.509  1.00  0.00     0.029 A 
ATOM     46  N   UNL A   1      44.044  29.910  28.578  1.00  0.00    -0.354 N 
ATOM     47  C   UNL A   1      43.050  25.805  27.690  1.00  0.00     0.074 A 
ATOM     48  C   UNL A   1      41.700  25.494  28.108  1.00  0.00     0.031 C 
ATOM     49  C   UNL A   1      43.685  31.982  29.339  1.00  0.00     0.029 A 
ATOM     50  C   UNL A   1      44.692  31.111  28.742  1.00  0.00     0.049 A 
ATOM     51  H   UNL A   1      44.477  29.112  28.197  1.00  0.00     0.167 HD
ATOM     52  C   UNL A   1      43.891  24.918  27.104  1.00  0.00     0.037 A 
ATOM     53  C   UNL A   1      45.954  31.476  28.438  1.00  0.00     0.037 A 
ATOM     54  C   UNL A   1      45.230  25.235  26.680  1.00  0.00     0.049 A 
ATOM     55  C   UNL A   1      46.874  30.474  27.794  1.00  0.00     0.074 A 
ATOM     56  C   UNL A   1      46.146  24.420  26.036  1.00  0.00     0.029 A 
ATOM     57  N   UNL A   1      45.849  26.465  26.857  1.00  0.00    -0.354 N 
ATOM     58  N   UNL A   1      46.635  29.226  27.468  1.00  0.00    -0.248 NA
ATOM     59  C   UNL A   1      48.230  30.933  27.468  1.00  0.00     0.031 C 
ATOM     60  C   UNL A   1      47.332  25.143  25.865  1.00  0.00     0.029 A 
ATOM     61  C   UNL A   1      47.139  26.425  26.354  1.00  0.00     0.049 A 
ATOM     62  H   UNL A   1      45.432  27.250  27.281  1.00  0.00     0.167 HD
ATOM     63  C   UNL A   1      47.800  28.760  26.869  1.00  0.00     0.074 A 
ATOM     64  C   UNL A   1      48.740  29.863  26.872  1.00  0.00     0.031 C 
ATOM     65  C   UNL A   1      48.064  27.533  26.356  1.00  0.00     0.037 A 
BRANCH  52  66
ATOM     66  C   UNL A   1      43.380  23.518  26.889  1.00  0.00     0.058 A 
ATOM     67  C   UNL A   1      43.273  22.602  27.950  1.00  0.00     0.135 A 
ATOM     68  C   UNL A   1      42.980  23.087  25.613  1.00  0.00     0.135 A 
ATOM     69  F   UNL A   1      43.651  22.955  29.188  1.00  0.00    -0.206 F 
ATOM     70  C   UNL A   1      42.832  21.299  27.746  1.00  0.00     0.059 A 
ATOM     71  C   UNL A   1      42.506  21.797  25.392  1.00  0.00     0.059 A 
ATOM     72  F   UNL A   1      43.055  23.920  24.564  1.00  0.00    -0.206 F 
ATOM     73  C   UNL A   1      42.456  20.903  26.461  1.00  0.00     0.060 A 
BRANCH  73  74
ATOM     74  S   UNL A   1      41.907  19.202  26.208  1.00  0.00     0.124 S 
ATOM     75  O   UNL A   1      42.700  18.811  25.046  1.00  0.00    -0.237 OA
ATOM     76  O   UNL A   1      42.274  18.563  27.469  1.00  0.00    -0.237 OA
ATOM     77  O   UNL A   1      40.474  19.338  25.973  1.00  0.00    -0.744 OA
ENDBRANCH  73  74
ENDBRANCH  52  66
BRANCH  53  78
ATOM     78  C   UNL A   1      46.401  32.869  28.697  1.00  0.00     0.058 A 
ATOM     79  C   UNL A   1      46.228  33.871  27.730  1.00  0.00     0.135 A 
ATOM     80  C   UNL A   1      46.978  33.237  29.923  1.00  0.00     0.135 A 
ATOM     81  F   UNL A   1      45.686  33.568  26.540  1.00  0.00    -0.206 F 
ATOM     82  C   UNL A   1      46.618  35.186  27.964  1.00  0.00     0.059 A 
ATOM     83  C   UNL A   1      47.354  34.551  30.189  1.00  0.00     0.059 A 
ATOM     84  F   UNL A   1      47.151  32.319  30.887  1.00  0.00    -0.206 F 
ATOM     85  C   UNL A   1      47.174  35.517  29.200  1.00  0.00     0.060 A 
BRANCH  85  86
ATOM     86  S   UNL A   1      47.615  37.240  29.517  1.00  0.00     0.124 S 
ATOM     87  O   UNL A   1      47.711  37.255  30.972  1.00  0.00    -0.237 OA
ATOM     88  O   UNL A   1      48.874  37.372  28.792  1.00  0.00    -0.237 OA
ATOM     89  O   UNL A   1      46.493  37.982  28.950  1.00  0.00    -0.744 OA
ENDBRANCH  85  86
ENDBRANCH  53  78
BRANCH  65  90
ATOM     90  C   UNL A   1      49.409  27.322  25.716  1.00  0.00     0.058 A 
ATOM     91  C   UNL A   1      49.602  27.451  24.332  1.00  0.00     0.135 A 
ATOM     92  C   UNL A   1      50.532  27.034  26.510  1.00  0.00     0.135 A 
ATOM     93  F   UNL A   1      48.561  27.719  23.527  1.00  0.00    -0.206 F 
ATOM     94  C   UNL A   1      50.856  27.278  23.754  1.00  0.00     0.059 A 
ATOM     95  C   UNL A   1      51.800  26.884  25.956  1.00  0.00     0.059 A 
ATOM     96  F   UNL A   1      50.406  26.910  27.840  1.00  0.00    -0.206 F 
ATOM     97  C   UNL A   1      51.950  26.996  24.574  1.00  0.00     0.060 A 
BRANCH  97  98
ATOM     98  S   UNL A   1      53.577  26.805  23.815  1.00  0.00     0.124 S 
ATOM     99  O   UNL A   1      53.301  27.171  22.430  1.00  0.00    -0.237 OA
ATOM    100  O   UNL A   1      54.388  27.752  24.573  1.00  0.00    -0.237 OA
ATOM    101  O   UNL A   1      53.894  25.398  24.042  1.00  0.00    -0.744 OA
ENDBRANCH  97  98
ENDBRANCH  65  90
ENDBRANCH  39  40
ENDBRANCH  31  34
ENDBRANCH  29  30
ENDBRANCH   1  29
TORSDOF 17
ENDMDL
