MODEL 1
REMARK VINA RESULT:     -11.7      0.000      0.000
REMARK SMILES CCS(=O)(=O)c1ccccc1NC[C@H]1CC[C@H](C(=O)NCCCNC(=O)c2ccc(-c3c4nc(c(-c5c(F)cc(S(=O)(=O)[O-])cc5F)c5ccc([nH]5)c(-c5c(F)cc(S(=O)(=O)[O-])cc5F)c5nc(c(-c6c(F)cc(S(=O)(=O)[O-])cc6F)c6ccc3[nH]6)C=C5)C=C4)cc2)O1
REMARK SMILES IDX 21 1 20 2 18 3 19 4 17 6 14 7 15 8 93 9 16 10 13 11 12 12
REMARK SMILES IDX 11 14 6 15 7 16 8 17 10 18 9 19 3 20 4 21 5 22 2 23 1 24
REMARK SMILES IDX 22 25 23 26 24 27 25 28 26 30 27 31 28 32 92 33 29 34 91 35
REMARK SMILES IDX 30 36 31 37 32 38 85 39 33 40 90 41 84 42 86 43 34 44 89 45
REMARK SMILES IDX 83 46 82 47 35 49 69 50 48 51 68 52 49 53 52 54 67 55 87 56
REMARK SMILES IDX 50 57 51 58 66 60 88 61 53 62 36 63 37 64 46 65 38 66 39 67
REMARK SMILES IDX 45 68 47 69 40 70 41 71 42 72 43 73 44 74 70 75 71 76 80 77
REMARK SMILES IDX 72 78 73 79 79 80 81 81 74 82 75 83 76 84 77 85 78 86 54 87
REMARK SMILES IDX 55 88 64 89 56 90 57 91 63 92 65 93 58 94 59 95 60 96 61 97
REMARK SMILES IDX 62 98
REMARK H PARENT 20 5 12 13 24 29 86 48 52 59
REMARK Flexibility Score: inf
ROOT
ATOM      1  C   UNL A   1      36.162  23.209  26.053  1.00  0.00     0.117 C 
ENDROOT
BRANCH   1   2
ATOM      2  N   UNL A   1      35.501  22.124  25.356  1.00  0.00    -0.354 N 
ATOM      3  C   UNL A   1      34.249  22.060  24.822  1.00  0.00     0.249 C 
ATOM      4  O   UNL A   1      33.923  21.008  24.263  1.00  0.00    -0.272 OA
ATOM      5  H   UNL A   1      36.041  21.306  25.252  1.00  0.00     0.163 HD
BRANCH   3   6
ATOM      6  C   UNL A   1      33.239  23.222  24.960  1.00  0.00     0.207 C 
ATOM      7  C   UNL A   1      31.022  23.658  24.330  1.00  0.00     0.138 C 
ATOM      8  C   UNL A   1      31.910  24.064  23.164  1.00  0.00     0.037 C 
ATOM      9  O   UNL A   1      31.871  22.863  25.191  1.00  0.00    -0.363 OA
ATOM     10  C   UNL A   1      33.286  24.165  23.768  1.00  0.00     0.045 C 
BRANCH   7  11
ATOM     11  C   UNL A   1      30.413  24.800  25.168  1.00  0.00     0.145 C 
BRANCH  11  12
ATOM     12  N   UNL A   1      30.505  26.103  24.534  1.00  0.00    -0.381 N 
ATOM     13  H   UNL A   1      30.219  26.156  23.594  1.00  0.00     0.160 HD
BRANCH  12  14
ATOM     14  C   UNL A   1      30.953  27.278  25.109  1.00  0.00     0.053 A 
ATOM     15  C   UNL A   1      30.953  28.506  24.408  1.00  0.00     0.090 A 
ATOM     16  C   UNL A   1      31.405  29.689  25.015  1.00  0.00     0.022 A 
ATOM     17  C   UNL A   1      31.905  29.666  26.314  1.00  0.00     0.001 A 
ATOM     18  C   UNL A   1      31.426  27.301  26.432  1.00  0.00     0.027 A 
ATOM     19  C   UNL A   1      31.910  28.473  27.024  1.00  0.00     0.002 A 
BRANCH  15  20
ATOM     20  S   UNL A   1      30.256  28.643  22.764  1.00  0.00     0.180 S 
ATOM     21  O   UNL A   1      30.622  27.434  22.055  1.00  0.00    -0.224 OA
ATOM     22  O   UNL A   1      30.647  29.940  22.226  1.00  0.00    -0.224 OA
BRANCH  20  23
ATOM     23  C   UNL A   1      28.488  28.722  22.935  1.00  0.00     0.139 C 
ATOM     24  C   UNL A   1      27.787  29.714  22.029  1.00  0.00     0.021 C 
ENDBRANCH  20  23
ENDBRANCH  15  20
ENDBRANCH  12  14
ENDBRANCH  11  12
ENDBRANCH   7  11
ENDBRANCH   3   6
ENDBRANCH   1   2
BRANCH   1  25
ATOM     25  C   UNL A   1      37.566  23.460  25.516  1.00  0.00     0.042 C 
BRANCH  25  26
ATOM     26  C   UNL A   1      38.499  24.090  26.540  1.00  0.00     0.118 C 
BRANCH  26  27
ATOM     27  N   UNL A   1      39.898  23.962  26.154  1.00  0.00    -0.352 N 
ATOM     28  C   UNL A   1      40.985  24.727  26.496  1.00  0.00     0.251 C 
ATOM     29  H   UNL A   1      40.095  23.208  25.552  1.00  0.00     0.163 HD
ATOM     30  O   UNL A   1      42.036  24.584  25.876  1.00  0.00    -0.269 OA
BRANCH  28  31
ATOM     31  C   UNL A   1      40.898  25.716  27.591  1.00  0.00     0.039 A 
ATOM     32  C   UNL A   1      41.854  26.734  27.658  1.00  0.00     0.014 A 
ATOM     33  C   UNL A   1      39.911  25.622  28.575  1.00  0.00     0.014 A 
ATOM     34  C   UNL A   1      41.789  27.682  28.681  1.00  0.00     0.010 A 
ATOM     35  C   UNL A   1      39.795  26.615  29.541  1.00  0.00     0.010 A 
ATOM     36  C   UNL A   1      40.742  27.646  29.615  1.00  0.00    -0.014 A 
BRANCH  36  37
ATOM     37  C   UNL A   1      40.625  28.666  30.686  1.00  0.00     0.031 A 
ATOM     38  C   UNL A   1      41.475  28.562  31.923  1.00  0.00     0.074 A 
ATOM     39  C   UNL A   1      39.700  29.639  30.579  1.00  0.00     0.049 A 
ATOM     40  N   UNL A   1      41.466  29.305  32.999  1.00  0.00    -0.248 NA
ATOM     41  C   UNL A   1      42.441  27.452  31.970  1.00  0.00     0.031 C 
ATOM     42  C   UNL A   1      38.772  29.802  29.457  1.00  0.00     0.029 A 
ATOM     43  N   UNL A   1      39.372  30.660  31.433  1.00  0.00    -0.354 N 
ATOM     44  C   UNL A   1      42.405  28.744  33.855  1.00  0.00     0.074 A 
ATOM     45  C   UNL A   1      42.922  27.563  33.198  1.00  0.00     0.031 C 
ATOM     46  C   UNL A   1      37.988  30.865  29.688  1.00  0.00     0.029 A 
ATOM     47  C   UNL A   1      38.330  31.439  30.986  1.00  0.00     0.049 A 
ATOM     48  H   UNL A   1      39.838  30.822  32.285  1.00  0.00     0.167 HD
ATOM     49  C   UNL A   1      42.816  29.184  35.069  1.00  0.00     0.037 A 
ATOM     50  C   UNL A   1      37.713  32.488  31.561  1.00  0.00     0.037 A 
ATOM     51  C   UNL A   1      42.306  30.371  35.706  1.00  0.00     0.049 A 
ATOM     52  C   UNL A   1      38.200  32.981  32.894  1.00  0.00     0.074 A 
ATOM     53  C   UNL A   1      42.699  30.944  36.902  1.00  0.00     0.029 A 
ATOM     54  N   UNL A   1      41.284  31.163  35.199  1.00  0.00    -0.354 N 
ATOM     55  N   UNL A   1      39.145  32.485  33.658  1.00  0.00    -0.248 NA
ATOM     56  C   UNL A   1      37.549  34.179  33.439  1.00  0.00     0.031 C 
ATOM     57  C   UNL A   1      41.886  32.059  37.139  1.00  0.00     0.029 A 
ATOM     58  C   UNL A   1      41.019  32.209  36.067  1.00  0.00     0.049 A 
ATOM     59  H   UNL A   1      40.817  31.003  34.347  1.00  0.00     0.167 HD
ATOM     60  C   UNL A   1      39.213  33.320  34.769  1.00  0.00     0.074 A 
ATOM     61  C   UNL A   1      38.224  34.360  34.567  1.00  0.00     0.031 C 
ATOM     62  C   UNL A   1      40.023  33.232  35.854  1.00  0.00     0.037 A 
BRANCH  49  63
ATOM     63  C   UNL A   1      43.863  28.367  35.778  1.00  0.00     0.058 A 
ATOM     64  C   UNL A   1      43.518  27.353  36.687  1.00  0.00     0.135 A 
ATOM     65  C   UNL A   1      45.229  28.612  35.564  1.00  0.00     0.135 A 
ATOM     66  F   UNL A   1      42.227  27.081  36.939  1.00  0.00    -0.206 F 
ATOM     67  C   UNL A   1      44.485  26.653  37.402  1.00  0.00     0.059 A 
ATOM     68  C   UNL A   1      46.216  27.901  36.245  1.00  0.00     0.059 A 
ATOM     69  F   UNL A   1      45.620  29.564  34.703  1.00  0.00    -0.206 F 
ATOM     70  C   UNL A   1      45.832  26.943  37.182  1.00  0.00     0.060 A 
BRANCH  70  71
ATOM     71  S   UNL A   1      47.074  26.060  38.149  1.00  0.00     0.124 S 
ATOM     72  O   UNL A   1      47.278  26.979  39.265  1.00  0.00    -0.237 OA
ATOM     73  O   UNL A   1      46.392  24.812  38.474  1.00  0.00    -0.237 OA
ATOM     74  O   UNL A   1      48.197  25.934  37.225  1.00  0.00    -0.744 OA
ENDBRANCH  70  71
ENDBRANCH  49  63
BRANCH  50  75
ATOM     75  C   UNL A   1      36.587  33.146  30.848  1.00  0.00     0.058 A 
ATOM     76  C   UNL A   1      35.264  32.982  31.279  1.00  0.00     0.135 A 
ATOM     77  C   UNL A   1      36.821  34.017  29.772  1.00  0.00     0.135 A 
ATOM     78  F   UNL A   1      34.989  32.157  32.300  1.00  0.00    -0.206 F 
ATOM     79  C   UNL A   1      34.211  33.661  30.673  1.00  0.00     0.059 A 
ATOM     80  C   UNL A   1      35.788  34.724  29.164  1.00  0.00     0.059 A 
ATOM     81  F   UNL A   1      38.073  34.221  29.333  1.00  0.00    -0.206 F 
ATOM     82  C   UNL A   1      34.485  34.539  29.623  1.00  0.00     0.060 A 
BRANCH  82  83
ATOM     83  S   UNL A   1      33.123  35.490  28.913  1.00  0.00     0.124 S 
ATOM     84  O   UNL A   1      32.422  35.942  30.108  1.00  0.00    -0.237 OA
ATOM     85  O   UNL A   1      33.829  36.521  28.158  1.00  0.00    -0.237 OA
ATOM     86  O   UNL A   1      32.414  34.507  28.098  1.00  0.00    -0.744 OA
ENDBRANCH  82  83
ENDBRANCH  50  75
BRANCH  62  87
ATOM     87  C   UNL A   1      39.885  34.300  36.904  1.00  0.00     0.058 A 
ATOM     88  C   UNL A   1      40.562  35.525  36.801  1.00  0.00     0.135 A 
ATOM     89  C   UNL A   1      39.023  34.115  37.997  1.00  0.00     0.135 A 
ATOM     90  F   UNL A   1      41.405  35.749  35.781  1.00  0.00    -0.206 F 
ATOM     91  C   UNL A   1      40.406  36.523  37.758  1.00  0.00     0.059 A 
ATOM     92  C   UNL A   1      38.831  35.109  38.950  1.00  0.00     0.059 A 
ATOM     93  F   UNL A   1      38.343  32.965  38.135  1.00  0.00    -0.206 F 
ATOM     94  C   UNL A   1      39.535  36.307  38.828  1.00  0.00     0.060 A 
BRANCH  94  95
ATOM     95  S   UNL A   1      39.314  37.622  40.044  1.00  0.00     0.124 S 
ATOM     96  O   UNL A   1      40.580  38.339  39.937  1.00  0.00    -0.237 OA
ATOM     97  O   UNL A   1      38.141  38.327  39.533  1.00  0.00    -0.237 OA
ATOM     98  O   UNL A   1      39.106  36.898  41.294  1.00  0.00    -0.744 OA
ENDBRANCH  94  95
ENDBRANCH  62  87
ENDBRANCH  36  37
ENDBRANCH  28  31
ENDBRANCH  26  27
ENDBRANCH  25  26
ENDBRANCH   1  25
TORSDOF 18
ENDMDL
MODEL 2
REMARK VINA RESULT:     -11.6      6.211     10.717
REMARK SMILES CCS(=O)(=O)c1ccccc1NC[C@H]1CC[C@H](C(=O)NCCCNC(=O)c2ccc(-c3c4nc(c(-c5c(F)cc(S(=O)(=O)[O-])cc5F)c5ccc([nH]5)c(-c5c(F)cc(S(=O)(=O)[O-])cc5F)c5nc(c(-c6c(F)cc(S(=O)(=O)[O-])cc6F)c6ccc3[nH]6)C=C5)C=C4)cc2)O1
REMARK SMILES IDX 21 1 20 2 18 3 19 4 17 6 14 7 15 8 93 9 16 10 13 11 12 12
REMARK SMILES IDX 11 14 6 15 7 16 8 17 10 18 9 19 3 20 4 21 5 22 2 23 1 24
REMARK SMILES IDX 22 25 23 26 24 27 25 28 26 30 27 31 28 32 92 33 29 34 91 35
REMARK SMILES IDX 30 36 31 37 32 38 85 39 33 40 90 41 84 42 86 43 34 44 89 45
REMARK SMILES IDX 83 46 82 47 35 49 69 50 48 51 68 52 49 53 52 54 67 55 87 56
REMARK SMILES IDX 50 57 51 58 66 60 88 61 53 62 36 63 37 64 46 65 38 66 39 67
REMARK SMILES IDX 45 68 47 69 40 70 41 71 42 72 43 73 44 74 70 75 71 76 80 77
REMARK SMILES IDX 72 78 73 79 79 80 81 81 74 82 75 83 76 84 77 85 78 86 54 87
REMARK SMILES IDX 55 88 64 89 56 90 57 91 63 92 65 93 58 94 59 95 60 96 61 97
REMARK SMILES IDX 62 98
REMARK H PARENT 20 5 12 13 24 29 86 48 52 59
REMARK Flexibility Score: inf
ROOT
ATOM      1  C   UNL A   1      36.831  20.763  24.933  1.00  0.00     0.117 C 
ENDROOT
BRANCH   1   2
ATOM      2  N   UNL A   1      35.588  20.043  25.124  1.00  0.00    -0.354 N 
ATOM      3  C   UNL A   1      34.304  20.437  24.895  1.00  0.00     0.249 C 
ATOM      4  O   UNL A   1      33.408  19.620  25.132  1.00  0.00    -0.272 OA
ATOM      5  H   UNL A   1      35.687  19.126  25.471  1.00  0.00     0.163 HD
BRANCH   3   6
ATOM      6  C   UNL A   1      33.957  21.867  24.424  1.00  0.00     0.207 C 
ATOM      7  C   UNL A   1      32.657  23.663  25.189  1.00  0.00     0.138 C 
ATOM      8  C   UNL A   1      31.744  22.763  24.373  1.00  0.00     0.037 C 
ATOM      9  O   UNL A   1      33.842  22.871  25.439  1.00  0.00    -0.363 OA
ATOM     10  C   UNL A   1      32.691  21.900  23.581  1.00  0.00     0.045 C 
BRANCH   7  11
ATOM     11  C   UNL A   1      33.089  24.990  24.533  1.00  0.00     0.145 C 
BRANCH  11  12
ATOM     12  N   UNL A   1      32.020  25.968  24.434  1.00  0.00    -0.381 N 
ATOM     13  H   UNL A   1      31.192  25.672  23.993  1.00  0.00     0.160 HD
BRANCH  12  14
ATOM     14  C   UNL A   1      32.042  27.272  24.892  1.00  0.00     0.053 A 
ATOM     15  C   UNL A   1      31.169  28.263  24.384  1.00  0.00     0.090 A 
ATOM     16  C   UNL A   1      31.203  29.580  24.870  1.00  0.00     0.022 A 
ATOM     17  C   UNL A   1      32.132  29.948  25.840  1.00  0.00     0.001 A 
ATOM     18  C   UNL A   1      32.936  27.671  25.899  1.00  0.00     0.027 A 
ATOM     19  C   UNL A   1      32.995  28.991  26.358  1.00  0.00     0.002 A 
BRANCH  15  20
ATOM     20  S   UNL A   1      29.892  27.861  23.194  1.00  0.00     0.180 S 
ATOM     21  O   UNL A   1      29.084  26.815  23.788  1.00  0.00    -0.224 OA
ATOM     22  O   UNL A   1      30.543  27.627  21.910  1.00  0.00    -0.224 OA
BRANCH  20  23
ATOM     23  C   UNL A   1      28.902  29.319  22.956  1.00  0.00     0.139 C 
ATOM     24  C   UNL A   1      27.403  29.100  22.967  1.00  0.00     0.021 C 
ENDBRANCH  20  23
ENDBRANCH  15  20
ENDBRANCH  12  14
ENDBRANCH  11  12
ENDBRANCH   7  11
ENDBRANCH   3   6
ENDBRANCH   1   2
BRANCH   1  25
ATOM     25  C   UNL A   1      38.039  19.835  24.962  1.00  0.00     0.042 C 
BRANCH  25  26
ATOM     26  C   UNL A   1      39.131  20.296  25.916  1.00  0.00     0.118 C 
BRANCH  26  27
ATOM     27  N   UNL A   1      40.225  19.336  25.997  1.00  0.00    -0.352 N 
ATOM     28  C   UNL A   1      41.579  19.541  26.083  1.00  0.00     0.251 C 
ATOM     29  H   UNL A   1      39.949  18.391  25.988  1.00  0.00     0.163 HD
ATOM     30  O   UNL A   1      42.340  18.593  25.907  1.00  0.00    -0.269 OA
BRANCH  28  31
ATOM     31  C   UNL A   1      42.122  20.885  26.377  1.00  0.00     0.039 A 
ATOM     32  C   UNL A   1      42.368  21.236  27.707  1.00  0.00     0.014 A 
ATOM     33  C   UNL A   1      42.347  21.813  25.357  1.00  0.00     0.014 A 
ATOM     34  C   UNL A   1      42.886  22.498  28.008  1.00  0.00     0.010 A 
ATOM     35  C   UNL A   1      42.942  23.036  25.649  1.00  0.00     0.010 A 
ATOM     36  C   UNL A   1      43.203  23.398  26.978  1.00  0.00    -0.014 A 
BRANCH  36  37
ATOM     37  C   UNL A   1      43.792  24.728  27.268  1.00  0.00     0.031 A 
ATOM     38  C   UNL A   1      42.916  25.855  27.741  1.00  0.00     0.074 A 
ATOM     39  C   UNL A   1      45.101  24.941  27.029  1.00  0.00     0.049 A 
ATOM     40  N   UNL A   1      43.226  27.104  27.972  1.00  0.00    -0.248 NA
ATOM     41  C   UNL A   1      41.493  25.543  27.949  1.00  0.00     0.031 C 
ATOM     42  C   UNL A   1      46.036  23.943  26.506  1.00  0.00     0.029 A 
ATOM     43  N   UNL A   1      45.865  26.069  27.175  1.00  0.00    -0.354 N 
ATOM     44  C   UNL A   1      42.039  27.730  28.332  1.00  0.00     0.074 A 
ATOM     45  C   UNL A   1      40.992  26.736  28.231  1.00  0.00     0.031 C 
ATOM     46  C   UNL A   1      47.250  24.501  26.384  1.00  0.00     0.029 A 
ATOM     47  C   UNL A   1      47.174  25.902  26.786  1.00  0.00     0.049 A 
ATOM     48  H   UNL A   1      45.512  26.919  27.526  1.00  0.00     0.167 HD
ATOM     49  C   UNL A   1      41.841  29.009  28.733  1.00  0.00     0.037 A 
ATOM     50  C   UNL A   1      48.193  26.781  26.746  1.00  0.00     0.037 A 
ATOM     51  C   UNL A   1      42.894  29.985  28.846  1.00  0.00     0.049 A 
ATOM     52  C   UNL A   1      47.964  28.188  27.220  1.00  0.00     0.074 A 
ATOM     53  C   UNL A   1      42.816  31.287  29.304  1.00  0.00     0.029 A 
ATOM     54  N   UNL A   1      44.218  29.764  28.488  1.00  0.00    -0.354 N 
ATOM     55  N   UNL A   1      46.850  28.744  27.633  1.00  0.00    -0.248 NA
ATOM     56  C   UNL A   1      49.128  29.082  27.236  1.00  0.00     0.031 C 
ATOM     57  C   UNL A   1      44.085  31.868  29.185  1.00  0.00     0.029 A 
ATOM     58  C   UNL A   1      44.964  30.912  28.698  1.00  0.00     0.049 A 
ATOM     59  H   UNL A   1      44.573  28.916  28.139  1.00  0.00     0.167 HD
ATOM     60  C   UNL A   1      47.180  30.052  27.972  1.00  0.00     0.074 A 
ATOM     61  C   UNL A   1      48.602  30.196  27.731  1.00  0.00     0.031 C 
ATOM     62  C   UNL A   1      46.379  31.041  28.443  1.00  0.00     0.037 A 
BRANCH  49  63
ATOM     63  C   UNL A   1      40.430  29.414  29.068  1.00  0.00     0.058 A 
ATOM     64  C   UNL A   1      39.474  29.656  28.067  1.00  0.00     0.135 A 
ATOM     65  C   UNL A   1      40.032  29.584  30.403  1.00  0.00     0.135 A 
ATOM     66  F   UNL A   1      39.801  29.520  26.771  1.00  0.00    -0.206 F 
ATOM     67  C   UNL A   1      38.194  30.108  28.374  1.00  0.00     0.059 A 
ATOM     68  C   UNL A   1      38.745  30.005  30.735  1.00  0.00     0.059 A 
ATOM     69  F   UNL A   1      40.899  29.361  31.403  1.00  0.00    -0.206 F 
ATOM     70  C   UNL A   1      37.843  30.290  29.712  1.00  0.00     0.060 A 
BRANCH  70  71
ATOM     71  S   UNL A   1      36.196  30.921  30.094  1.00  0.00     0.124 S 
ATOM     72  O   UNL A   1      35.460  30.559  28.887  1.00  0.00    -0.237 OA
ATOM     73  O   UNL A   1      35.844  30.173  31.297  1.00  0.00    -0.237 OA
ATOM     74  O   UNL A   1      36.417  32.350  30.291  1.00  0.00    -0.744 OA
ENDBRANCH  70  71
ENDBRANCH  49  63
BRANCH  50  75
ATOM     75  C   UNL A   1      49.523  26.326  26.261  1.00  0.00     0.058 A 
ATOM     76  C   UNL A   1      49.973  26.650  24.974  1.00  0.00     0.135 A 
ATOM     77  C   UNL A   1      50.402  25.629  27.105  1.00  0.00     0.135 A 
ATOM     78  F   UNL A   1      49.167  27.311  24.129  1.00  0.00    -0.206 F 
ATOM     79  C   UNL A   1      51.249  26.304  24.540  1.00  0.00     0.059 A 
ATOM     80  C   UNL A   1      51.690  25.291  26.702  1.00  0.00     0.059 A 
ATOM     81  F   UNL A   1      50.024  25.311  28.353  1.00  0.00    -0.206 F 
ATOM     82  C   UNL A   1      52.105  25.634  25.416  1.00  0.00     0.060 A 
BRANCH  82  83
ATOM     83  S   UNL A   1      53.792  25.281  24.876  1.00  0.00     0.124 S 
ATOM     84  O   UNL A   1      53.807  25.873  23.544  1.00  0.00    -0.237 OA
ATOM     85  O   UNL A   1      54.589  25.966  25.889  1.00  0.00    -0.237 OA
ATOM     86  O   UNL A   1      53.861  23.823  24.919  1.00  0.00    -0.744 OA
ENDBRANCH  82  83
ENDBRANCH  50  75
BRANCH  62  87
ATOM     87  C   UNL A   1      47.024  32.365  28.743  1.00  0.00     0.058 A 
ATOM     88  C   UNL A   1      47.095  33.384  27.780  1.00  0.00     0.135 A 
ATOM     89  C   UNL A   1      47.525  32.638  30.026  1.00  0.00     0.135 A 
ATOM     90  F   UNL A   1      46.637  33.173  26.536  1.00  0.00    -0.206 F 
ATOM     91  C   UNL A   1      47.662  34.621  28.072  1.00  0.00     0.059 A 
ATOM     92  C   UNL A   1      48.072  33.876  30.348  1.00  0.00     0.059 A 
ATOM     93  F   UNL A   1      47.471  31.701  30.986  1.00  0.00    -0.206 F 
ATOM     94  C   UNL A   1      48.146  34.858  29.361  1.00  0.00     0.060 A 
BRANCH  94  95
ATOM     95  S   UNL A   1      48.847  36.478  29.738  1.00  0.00     0.124 S 
ATOM     96  O   UNL A   1      48.931  36.430  31.193  1.00  0.00    -0.237 OA
ATOM     97  O   UNL A   1      50.121  36.441  29.027  1.00  0.00    -0.237 OA
ATOM     98  O   UNL A   1      47.862  37.409  29.196  1.00  0.00    -0.744 OA
ENDBRANCH  94  95
ENDBRANCH  62  87
ENDBRANCH  36  37
ENDBRANCH  28  31
ENDBRANCH  26  27
ENDBRANCH  25  26
ENDBRANCH   1  25
TORSDOF 18
ENDMDL
MODEL 3
REMARK VINA RESULT:     -11.3      4.876     10.631
REMARK SMILES CCS(=O)(=O)c1ccccc1NC[C@H]1CC[C@H](C(=O)NCCCNC(=O)c2ccc(-c3c4nc(c(-c5c(F)cc(S(=O)(=O)[O-])cc5F)c5ccc([nH]5)c(-c5c(F)cc(S(=O)(=O)[O-])cc5F)c5nc(c(-c6c(F)cc(S(=O)(=O)[O-])cc6F)c6ccc3[nH]6)C=C5)C=C4)cc2)O1
REMARK SMILES IDX 21 1 20 2 18 3 19 4 17 6 14 7 15 8 93 9 16 10 13 11 12 12
REMARK SMILES IDX 11 14 6 15 7 16 8 17 10 18 9 19 3 20 4 21 5 22 2 23 1 24
REMARK SMILES IDX 22 25 23 26 24 27 25 28 26 30 27 31 28 32 92 33 29 34 91 35
REMARK SMILES IDX 30 36 31 37 32 38 85 39 33 40 90 41 84 42 86 43 34 44 89 45
REMARK SMILES IDX 83 46 82 47 35 49 69 50 48 51 68 52 49 53 52 54 67 55 87 56
REMARK SMILES IDX 50 57 51 58 66 60 88 61 53 62 36 63 37 64 46 65 38 66 39 67
REMARK SMILES IDX 45 68 47 69 40 70 41 71 42 72 43 73 44 74 70 75 71 76 80 77
REMARK SMILES IDX 72 78 73 79 79 80 81 81 74 82 75 83 76 84 77 85 78 86 54 87
REMARK SMILES IDX 55 88 64 89 56 90 57 91 63 92 65 93 58 94 59 95 60 96 61 97
REMARK SMILES IDX 62 98
REMARK H PARENT 20 5 12 13 24 29 86 48 52 59
REMARK Flexibility Score: inf
ROOT
ATOM      1  C   UNL A   1      32.316  28.427  24.779  1.00  0.00     0.117 C 
ENDROOT
BRANCH   1   2
ATOM      2  N   UNL A   1      30.911  28.365  24.429  1.00  0.00    -0.354 N 
ATOM      3  C   UNL A   1      30.228  27.430  23.712  1.00  0.00     0.249 C 
ATOM      4  O   UNL A   1      29.014  27.605  23.559  1.00  0.00    -0.272 OA
ATOM      5  H   UNL A   1      30.366  29.115  24.761  1.00  0.00     0.163 HD
BRANCH   3   6
ATOM      6  C   UNL A   1      30.936  26.227  23.049  1.00  0.00     0.207 C 
ATOM      7  C   UNL A   1      33.066  25.246  23.092  1.00  0.00     0.138 C 
ATOM      8  C   UNL A   1      33.093  26.334  22.030  1.00  0.00     0.037 C 
ATOM      9  O   UNL A   1      31.865  25.499  23.859  1.00  0.00    -0.363 OA
ATOM     10  C   UNL A   1      31.639  26.617  21.758  1.00  0.00     0.045 C 
BRANCH   7  11
ATOM     11  C   UNL A   1      33.024  23.789  22.590  1.00  0.00     0.145 C 
BRANCH  11  12
ATOM     12  N   UNL A   1      32.415  22.864  23.529  1.00  0.00    -0.381 N 
ATOM     13  H   UNL A   1      31.682  23.218  24.081  1.00  0.00     0.160 HD
BRANCH  12  14
ATOM     14  C   UNL A   1      32.755  21.539  23.730  1.00  0.00     0.053 A 
ATOM     15  C   UNL A   1      33.741  21.150  24.667  1.00  0.00     0.090 A 
ATOM     16  C   UNL A   1      34.064  19.797  24.861  1.00  0.00     0.022 A 
ATOM     17  C   UNL A   1      33.446  18.809  24.098  1.00  0.00     0.001 A 
ATOM     18  C   UNL A   1      32.123  20.512  23.009  1.00  0.00     0.027 A 
ATOM     19  C   UNL A   1      32.472  19.167  23.177  1.00  0.00     0.002 A 
BRANCH  15  20
ATOM     20  S   UNL A   1      34.529  22.344  25.744  1.00  0.00     0.180 S 
ATOM     21  O   UNL A   1      35.170  21.590  26.802  1.00  0.00    -0.224 OA
ATOM     22  O   UNL A   1      33.535  23.357  26.081  1.00  0.00    -0.224 OA
BRANCH  20  23
ATOM     23  C   UNL A   1      35.761  23.199  24.788  1.00  0.00     0.139 C 
ATOM     24  C   UNL A   1      36.551  22.340  23.822  1.00  0.00     0.021 C 
ENDBRANCH  20  23
ENDBRANCH  15  20
ENDBRANCH  12  14
ENDBRANCH  11  12
ENDBRANCH   7  11
ENDBRANCH   3   6
ENDBRANCH   1   2
BRANCH   1  25
ATOM     25  C   UNL A   1      32.608  27.714  26.093  1.00  0.00     0.042 C 
BRANCH  25  26
ATOM     26  C   UNL A   1      33.848  28.239  26.802  1.00  0.00     0.118 C 
BRANCH  26  27
ATOM     27  N   UNL A   1      33.686  29.623  27.229  1.00  0.00    -0.352 N 
ATOM     28  C   UNL A   1      34.513  30.421  27.978  1.00  0.00     0.251 C 
ATOM     29  H   UNL A   1      32.851  30.053  26.935  1.00  0.00     0.163 HD
ATOM     30  O   UNL A   1      34.080  31.483  28.419  1.00  0.00    -0.269 OA
BRANCH  28  31
ATOM     31  C   UNL A   1      35.905  30.012  28.261  1.00  0.00     0.039 A 
ATOM     32  C   UNL A   1      36.854  30.097  27.237  1.00  0.00     0.014 A 
ATOM     33  C   UNL A   1      36.271  29.505  29.510  1.00  0.00     0.014 A 
ATOM     34  C   UNL A   1      38.176  29.721  27.482  1.00  0.00     0.010 A 
ATOM     35  C   UNL A   1      37.604  29.212  29.778  1.00  0.00     0.010 A 
ATOM     36  C   UNL A   1      38.567  29.302  28.763  1.00  0.00    -0.014 A 
BRANCH  36  37
ATOM     37  C   UNL A   1      39.974  28.936  29.061  1.00  0.00     0.031 A 
ATOM     38  C   UNL A   1      40.914  29.959  29.638  1.00  0.00     0.074 A 
ATOM     39  C   UNL A   1      40.424  27.708  28.737  1.00  0.00     0.049 A 
ATOM     40  N   UNL A   1      42.192  29.858  29.893  1.00  0.00    -0.248 NA
ATOM     41  C   UNL A   1      40.346  31.285  29.934  1.00  0.00     0.031 C 
ATOM     42  C   UNL A   1      39.624  26.654  28.111  1.00  0.00     0.029 A 
ATOM     43  N   UNL A   1      41.668  27.147  28.872  1.00  0.00    -0.354 N 
ATOM     44  C   UNL A   1      42.585  31.107  30.361  1.00  0.00     0.074 A 
ATOM     45  C   UNL A   1      41.422  31.965  30.296  1.00  0.00     0.031 C 
ATOM     46  C   UNL A   1      40.394  25.572  27.924  1.00  0.00     0.029 A 
ATOM     47  C   UNL A   1      41.748  25.864  28.384  1.00  0.00     0.049 A 
ATOM     48  H   UNL A   1      42.431  27.617  29.279  1.00  0.00     0.167 HD
ATOM     49  C   UNL A   1      43.797  31.497  30.823  1.00  0.00     0.037 A 
ATOM     50  C   UNL A   1      42.796  25.022  28.305  1.00  0.00     0.037 A 
ATOM     51  C   UNL A   1      44.943  30.627  30.898  1.00  0.00     0.049 A 
ATOM     52  C   UNL A   1      44.127  25.459  28.848  1.00  0.00     0.074 A 
ATOM     53  C   UNL A   1      46.199  30.899  31.410  1.00  0.00     0.029 A 
ATOM     54  N   UNL A   1      44.973  29.317  30.439  1.00  0.00    -0.354 N 
ATOM     55  N   UNL A   1      44.464  26.619  29.360  1.00  0.00    -0.248 NA
ATOM     56  C   UNL A   1      45.215  24.475  28.815  1.00  0.00     0.031 C 
ATOM     57  C   UNL A   1      47.001  29.766  31.223  1.00  0.00     0.029 A 
ATOM     58  C   UNL A   1      46.231  28.772  30.639  1.00  0.00     0.049 A 
ATOM     59  H   UNL A   1      44.211  28.845  30.033  1.00  0.00     0.167 HD
ATOM     60  C   UNL A   1      45.801  26.501  29.725  1.00  0.00     0.074 A 
ATOM     61  C   UNL A   1      46.203  25.150  29.388  1.00  0.00     0.031 C 
ATOM     62  C   UNL A   1      46.618  27.426  30.289  1.00  0.00     0.037 A 
BRANCH  49  63
ATOM     63  C   UNL A   1      43.935  32.927  31.273  1.00  0.00     0.058 A 
ATOM     64  C   UNL A   1      43.650  33.317  32.592  1.00  0.00     0.135 A 
ATOM     65  C   UNL A   1      44.335  33.925  30.371  1.00  0.00     0.135 A 
ATOM     66  F   UNL A   1      43.252  32.406  33.496  1.00  0.00    -0.206 F 
ATOM     67  C   UNL A   1      43.700  34.651  32.987  1.00  0.00     0.059 A 
ATOM     68  C   UNL A   1      44.424  35.263  30.752  1.00  0.00     0.059 A 
ATOM     69  F   UNL A   1      44.627  33.613  29.099  1.00  0.00    -0.206 F 
ATOM     70  C   UNL A   1      44.077  35.618  32.055  1.00  0.00     0.060 A 
BRANCH  70  71
ATOM     71  S   UNL A   1      44.093  37.349  32.566  1.00  0.00     0.124 S 
ATOM     72  O   UNL A   1      43.787  38.025  31.309  1.00  0.00    -0.237 OA
ATOM     73  O   UNL A   1      43.042  37.388  33.577  1.00  0.00    -0.237 OA
ATOM     74  O   UNL A   1      45.449  37.542  33.070  1.00  0.00    -0.744 OA
ENDBRANCH  70  71
ENDBRANCH  49  63
BRANCH  50  75
ATOM     75  C   UNL A   1      42.600  23.674  27.709  1.00  0.00     0.058 A 
ATOM     76  C   UNL A   1      42.717  23.470  26.328  1.00  0.00     0.135 A 
ATOM     77  C   UNL A   1      42.371  22.551  28.520  1.00  0.00     0.135 A 
ATOM     78  F   UNL A   1      42.930  24.513  25.512  1.00  0.00    -0.206 F 
ATOM     79  C   UNL A   1      42.621  22.199  25.769  1.00  0.00     0.059 A 
ATOM     80  C   UNL A   1      42.293  21.268  27.987  1.00  0.00     0.059 A 
ATOM     81  F   UNL A   1      42.269  22.692  29.851  1.00  0.00    -0.206 F 
ATOM     82  C   UNL A   1      42.420  21.102  26.609  1.00  0.00     0.060 A 
BRANCH  82  83
ATOM     83  S   UNL A   1      42.398  19.448  25.882  1.00  0.00     0.124 S 
ATOM     84  O   UNL A   1      43.254  19.627  24.716  1.00  0.00    -0.237 OA
ATOM     85  O   UNL A   1      42.948  18.632  26.959  1.00  0.00    -0.237 OA
ATOM     86  O   UNL A   1      40.983  19.224  25.598  1.00  0.00    -0.744 OA
ENDBRANCH  82  83
ENDBRANCH  50  75
BRANCH  62  87
ATOM     87  C   UNL A   1      48.028  27.005  30.593  1.00  0.00     0.058 A 
ATOM     88  C   UNL A   1      49.100  27.370  29.763  1.00  0.00     0.135 A 
ATOM     89  C   UNL A   1      48.318  26.276  31.757  1.00  0.00     0.135 A 
ATOM     90  F   UNL A   1      48.877  28.060  28.634  1.00  0.00    -0.206 F 
ATOM     91  C   UNL A   1      50.409  27.007  30.066  1.00  0.00     0.059 A 
ATOM     92  C   UNL A   1      49.621  25.926  32.093  1.00  0.00     0.059 A 
ATOM     93  F   UNL A   1      47.330  25.912  32.590  1.00  0.00    -0.206 F 
ATOM     94  C   UNL A   1      50.660  26.287  31.236  1.00  0.00     0.060 A 
BRANCH  94  95
ATOM     95  S   UNL A   1      52.365  25.852  31.636  1.00  0.00     0.124 S 
ATOM     96  O   UNL A   1      52.699  26.860  32.637  1.00  0.00    -0.237 OA
ATOM     97  O   UNL A   1      52.232  24.486  32.132  1.00  0.00    -0.237 OA
ATOM     98  O   UNL A   1      53.058  25.983  30.358  1.00  0.00    -0.744 OA
ENDBRANCH  94  95
ENDBRANCH  62  87
ENDBRANCH  36  37
ENDBRANCH  28  31
ENDBRANCH  26  27
ENDBRANCH  25  26
ENDBRANCH   1  25
TORSDOF 18
ENDMDL
