MODEL 1
REMARK VINA RESULT:     -12.0      0.000      0.000
REMARK SMILES COc1ccc([C@@H](CC(=O)NCCCNC(=O)c2ccc(-c3c4nc(c(-c5c(F)cc(S(=O)(=O)[O-])cc5F)c5ccc([nH]5)c(-c5c(F)cc(S(=O)(=O)[O-])cc5F)c5nc(c(-c6c(F)cc(S(=O)(=O)[O-])cc6F)c6ccc3[nH]6)C=C5)C=C4)cc2)C2CCCCC2)cc1Cl
REMARK SMILES IDX 13 1 12 2 11 3 9 4 10 5 8 7 7 8 6 9 3 10 4 11 91 12 5 13
REMARK SMILES IDX 90 14 92 15 2 16 1 17 84 18 85 19 89 20 86 21 88 22 87 23
REMARK SMILES IDX 14 24 15 25 16 26 17 28 18 29 19 30 83 31 20 32 82 33 21 34
REMARK SMILES IDX 22 35 23 36 76 37 24 38 81 39 75 40 77 41 25 42 80 43 74 44
REMARK SMILES IDX 73 45 26 47 60 48 39 49 59 50 40 51 43 52 58 53 78 54 41 55
REMARK SMILES IDX 42 56 57 58 79 59 44 60 27 61 28 62 37 63 29 64 30 65 36 66
REMARK SMILES IDX 38 67 31 68 32 69 33 70 34 71 35 72 61 73 62 74 71 75 63 76
REMARK SMILES IDX 64 77 70 78 72 79 65 80 66 81 67 82 68 83 69 84 45 85 46 86
REMARK SMILES IDX 55 87 47 88 48 89 54 90 56 91 49 92 50 93 51 94 52 95 53 96
REMARK H PARENT 11 6 15 27 77 46 43 57
REMARK Flexibility Score: inf
ROOT
ATOM      1  C   UNL A   1      34.243  31.391  27.656  1.00  0.00     0.042 C 
ENDROOT
BRANCH   1   2
ATOM      2  C   UNL A   1      34.151  29.925  27.253  1.00  0.00     0.117 C 
BRANCH   2   3
ATOM      3  N   UNL A   1      32.884  29.337  27.657  1.00  0.00    -0.356 N 
ATOM      4  C   UNL A   1      32.324  28.135  27.354  1.00  0.00     0.220 C 
ATOM      5  O   UNL A   1      31.269  27.849  27.932  1.00  0.00    -0.275 OA
ATOM      6  H   UNL A   1      32.340  29.905  28.248  1.00  0.00     0.163 HD
BRANCH   4   7
ATOM      7  C   UNL A   1      32.981  27.126  26.424  1.00  0.00     0.108 C 
BRANCH   7   8
ATOM      8  C   UNL A   1      32.255  25.815  25.982  1.00  0.00     0.032 C 
BRANCH   8   9
ATOM      9  C   UNL A   1      33.158  24.584  26.127  1.00  0.00    -0.042 A 
ATOM     10  C   UNL A   1      34.813  22.272  26.050  1.00  0.00     0.137 A 
ATOM     11  C   UNL A   1      33.615  22.264  26.762  1.00  0.00     0.048 A 
ATOM     12  C   UNL A   1      35.234  23.468  25.464  1.00  0.00     0.083 A 
ATOM     13  C   UNL A   1      32.810  23.415  26.814  1.00  0.00     0.008 A 
ATOM     14  C   UNL A   1      34.426  24.610  25.515  1.00  0.00     0.028 A 
ATOM     15  Cl  UNL A   1      36.738  23.579  24.620  1.00  0.00    -0.080 Cl
BRANCH  10  16
ATOM     16  O   UNL A   1      35.515  21.140  25.747  1.00  0.00    -0.495 OA
ATOM     17  C   UNL A   1      34.888  20.172  24.917  1.00  0.00     0.278 C 
ENDBRANCH  10  16
ENDBRANCH   8   9
BRANCH   8  18
ATOM     18  C   UNL A   1      31.308  25.932  24.728  1.00  0.00    -0.003 C 
ATOM     19  C   UNL A   1      29.798  25.952  25.038  1.00  0.00     0.004 C 
ATOM     20  C   UNL A   1      31.780  27.073  23.788  1.00  0.00     0.004 C 
ATOM     21  C   UNL A   1      28.908  26.375  23.874  1.00  0.00     0.000 C 
ATOM     22  C   UNL A   1      30.799  27.444  22.681  1.00  0.00     0.000 C 
ATOM     23  C   UNL A   1      29.400  27.658  23.232  1.00  0.00     0.000 C 
ENDBRANCH   8  18
ENDBRANCH   7   8
ENDBRANCH   4   7
ENDBRANCH   2   3
ENDBRANCH   1   2
BRANCH   1  24
ATOM     24  C   UNL A   1      35.466  31.801  28.460  1.00  0.00     0.118 C 
BRANCH  24  25
ATOM     25  N   UNL A   1      35.436  31.262  29.808  1.00  0.00    -0.352 N 
ATOM     26  C   UNL A   1      36.315  30.491  30.530  1.00  0.00     0.251 C 
ATOM     27  H   UNL A   1      34.619  31.495  30.305  1.00  0.00     0.163 HD
ATOM     28  O   UNL A   1      35.881  29.984  31.567  1.00  0.00    -0.269 OA
BRANCH  26  29
ATOM     29  C   UNL A   1      37.737  30.233  30.150  1.00  0.00     0.039 A 
ATOM     30  C   UNL A   1      38.024  30.081  28.783  1.00  0.00     0.014 A 
ATOM     31  C   UNL A   1      38.767  29.995  31.063  1.00  0.00     0.014 A 
ATOM     32  C   UNL A   1      39.303  29.704  28.345  1.00  0.00     0.010 A 
ATOM     33  C   UNL A   1      40.068  29.704  30.622  1.00  0.00     0.010 A 
ATOM     34  C   UNL A   1      40.350  29.524  29.259  1.00  0.00    -0.014 A 
BRANCH  34  35
ATOM     35  C   UNL A   1      41.716  29.113  28.809  1.00  0.00     0.031 A 
ATOM     36  C   UNL A   1      42.838  30.122  28.724  1.00  0.00     0.074 A 
ATOM     37  C   UNL A   1      41.953  27.836  28.442  1.00  0.00     0.049 A 
ATOM     38  N   UNL A   1      44.066  29.962  28.294  1.00  0.00    -0.248 NA
ATOM     39  C   UNL A   1      42.536  31.494  29.161  1.00  0.00     0.031 C 
ATOM     40  C   UNL A   1      40.964  26.757  28.452  1.00  0.00     0.029 A 
ATOM     41  N   UNL A   1      43.096  27.227  27.981  1.00  0.00    -0.354 N 
ATOM     42  C   UNL A   1      44.675  31.210  28.391  1.00  0.00     0.074 A 
ATOM     43  C   UNL A   1      43.666  32.128  28.876  1.00  0.00     0.031 C 
ATOM     44  C   UNL A   1      41.544  25.620  28.038  1.00  0.00     0.029 A 
ATOM     45  C   UNL A   1      42.935  25.892  27.687  1.00  0.00     0.049 A 
ATOM     46  H   UNL A   1      43.952  27.702  27.872  1.00  0.00     0.167 HD
ATOM     47  C   UNL A   1      45.958  31.561  28.123  1.00  0.00     0.037 A 
ATOM     48  C   UNL A   1      43.798  24.988  27.179  1.00  0.00     0.037 A 
ATOM     49  C   UNL A   1      46.972  30.644  27.668  1.00  0.00     0.049 A 
ATOM     50  C   UNL A   1      45.211  25.404  26.868  1.00  0.00     0.074 A 
ATOM     51  C   UNL A   1      48.312  30.897  27.422  1.00  0.00     0.029 A 
ATOM     52  N   UNL A   1      46.766  29.302  27.386  1.00  0.00    -0.354 N 
ATOM     53  N   UNL A   1      45.776  26.579  27.015  1.00  0.00    -0.248 NA
ATOM     54  C   UNL A   1      46.107  24.370  26.329  1.00  0.00     0.031 C 
ATOM     55  C   UNL A   1      48.901  29.723  26.942  1.00  0.00     0.029 A 
ATOM     56  C   UNL A   1      47.944  28.722  26.945  1.00  0.00     0.049 A 
ATOM     57  H   UNL A   1      45.907  28.830  27.486  1.00  0.00     0.167 HD
ATOM     58  C   UNL A   1      47.100  26.417  26.614  1.00  0.00     0.074 A 
ATOM     59  C   UNL A   1      47.254  25.030  26.230  1.00  0.00     0.031 C 
ATOM     60  C   UNL A   1      48.096  27.337  26.570  1.00  0.00     0.037 A 
BRANCH  47  61
ATOM     61  C   UNL A   1      46.347  33.005  28.313  1.00  0.00     0.058 A 
ATOM     62  C   UNL A   1      46.850  33.483  29.534  1.00  0.00     0.135 A 
ATOM     63  C   UNL A   1      46.264  33.913  27.244  1.00  0.00     0.135 A 
ATOM     64  F   UNL A   1      46.945  32.664  30.593  1.00  0.00    -0.206 F 
ATOM     65  C   UNL A   1      47.224  34.814  29.698  1.00  0.00     0.059 A 
ATOM     66  C   UNL A   1      46.661  35.241  27.376  1.00  0.00     0.059 A 
ATOM     67  F   UNL A   1      45.796  33.512  26.051  1.00  0.00    -0.206 F 
ATOM     68  C   UNL A   1      47.125  35.686  28.612  1.00  0.00     0.060 A 
BRANCH  68  69
ATOM     69  S   UNL A   1      47.613  37.408  28.845  1.00  0.00     0.124 S 
ATOM     70  O   UNL A   1      46.810  38.078  27.827  1.00  0.00    -0.237 OA
ATOM     71  O   UNL A   1      47.223  37.660  30.227  1.00  0.00    -0.237 OA
ATOM     72  O   UNL A   1      49.053  37.391  28.596  1.00  0.00    -0.744 OA
ENDBRANCH  68  69
ENDBRANCH  47  61
BRANCH  48  73
ATOM     73  C   UNL A   1      43.349  23.589  26.937  1.00  0.00     0.058 A 
ATOM     74  C   UNL A   1      42.996  23.155  25.651  1.00  0.00     0.135 A 
ATOM     75  C   UNL A   1      43.272  22.658  27.985  1.00  0.00     0.135 A 
ATOM     76  F   UNL A   1      43.044  24.010  24.618  1.00  0.00    -0.206 F 
ATOM     77  C   UNL A   1      42.568  21.852  25.412  1.00  0.00     0.059 A 
ATOM     78  C   UNL A   1      42.874  21.342  27.766  1.00  0.00     0.059 A 
ATOM     79  F   UNL A   1      43.613  23.018  29.232  1.00  0.00    -0.206 F 
ATOM     80  C   UNL A   1      42.515  20.953  26.477  1.00  0.00     0.060 A 
BRANCH  80  81
ATOM     81  S   UNL A   1      42.009  19.250  26.148  1.00  0.00     0.124 S 
ATOM     82  O   UNL A   1      42.909  18.881  25.063  1.00  0.00    -0.237 OA
ATOM     83  O   UNL A   1      42.257  18.605  27.433  1.00  0.00    -0.237 OA
ATOM     84  O   UNL A   1      40.602  19.383  25.784  1.00  0.00    -0.744 OA
ENDBRANCH  80  81
ENDBRANCH  48  73
BRANCH  60  85
ATOM     85  C   UNL A   1      49.457  26.872  26.128  1.00  0.00     0.058 A 
ATOM     86  C   UNL A   1      50.353  26.252  27.012  1.00  0.00     0.135 A 
ATOM     87  C   UNL A   1      49.851  27.004  24.785  1.00  0.00     0.135 A 
ATOM     88  F   UNL A   1      50.032  26.106  28.307  1.00  0.00    -0.206 F 
ATOM     89  C   UNL A   1      51.600  25.800  26.588  1.00  0.00     0.059 A 
ATOM     90  C   UNL A   1      51.080  26.533  24.333  1.00  0.00     0.059 A 
ATOM     91  F   UNL A   1      49.030  27.582  23.893  1.00  0.00    -0.206 F 
ATOM     92  C   UNL A   1      51.952  25.942  25.245  1.00  0.00     0.060 A 
BRANCH  92  93
ATOM     93  S   UNL A   1      53.558  25.320  24.701  1.00  0.00     0.124 S 
ATOM     94  O   UNL A   1      53.474  23.914  25.080  1.00  0.00    -0.237 OA
ATOM     95  O   UNL A   1      53.528  25.592  23.267  1.00  0.00    -0.237 OA
ATOM     96  O   UNL A   1      54.510  26.121  25.464  1.00  0.00    -0.744 OA
ENDBRANCH  92  93
ENDBRANCH  60  85
ENDBRANCH  34  35
ENDBRANCH  26  29
ENDBRANCH  24  25
ENDBRANCH   1  24
TORSDOF 17
ENDMDL
MODEL 2
REMARK VINA RESULT:     -11.9      6.503     12.015
REMARK SMILES COc1ccc([C@@H](CC(=O)NCCCNC(=O)c2ccc(-c3c4nc(c(-c5c(F)cc(S(=O)(=O)[O-])cc5F)c5ccc([nH]5)c(-c5c(F)cc(S(=O)(=O)[O-])cc5F)c5nc(c(-c6c(F)cc(S(=O)(=O)[O-])cc6F)c6ccc3[nH]6)C=C5)C=C4)cc2)C2CCCCC2)cc1Cl
REMARK SMILES IDX 13 1 12 2 11 3 9 4 10 5 8 7 7 8 6 9 3 10 4 11 91 12 5 13
REMARK SMILES IDX 90 14 92 15 2 16 1 17 84 18 85 19 89 20 86 21 88 22 87 23
REMARK SMILES IDX 14 24 15 25 16 26 17 28 18 29 19 30 83 31 20 32 82 33 21 34
REMARK SMILES IDX 22 35 23 36 76 37 24 38 81 39 75 40 77 41 25 42 80 43 74 44
REMARK SMILES IDX 73 45 26 47 60 48 39 49 59 50 40 51 43 52 58 53 78 54 41 55
REMARK SMILES IDX 42 56 57 58 79 59 44 60 27 61 28 62 37 63 29 64 30 65 36 66
REMARK SMILES IDX 38 67 31 68 32 69 33 70 34 71 35 72 61 73 62 74 71 75 63 76
REMARK SMILES IDX 64 77 70 78 72 79 65 80 66 81 67 82 68 83 69 84 45 85 46 86
REMARK SMILES IDX 55 87 47 88 48 89 54 90 56 91 49 92 50 93 51 94 52 95 53 96
REMARK H PARENT 11 6 15 27 77 46 43 57
REMARK Flexibility Score: inf
ROOT
ATOM      1  C   UNL A   1      38.702  23.072  26.276  1.00  0.00     0.042 C 
ENDROOT
BRANCH   1   2
ATOM      2  C   UNL A   1      37.905  21.926  25.666  1.00  0.00     0.117 C 
BRANCH   2   3
ATOM      3  N   UNL A   1      37.547  22.199  24.283  1.00  0.00    -0.356 N 
ATOM      4  C   UNL A   1      36.562  22.975  23.755  1.00  0.00     0.220 C 
ATOM      5  O   UNL A   1      36.556  23.110  22.527  1.00  0.00    -0.275 OA
ATOM      6  H   UNL A   1      38.111  21.744  23.617  1.00  0.00     0.163 HD
BRANCH   4   7
ATOM      7  C   UNL A   1      35.555  23.730  24.610  1.00  0.00     0.108 C 
BRANCH   7   8
ATOM      8  C   UNL A   1      34.173  24.189  24.046  1.00  0.00     0.032 C 
BRANCH   8   9
ATOM      9  C   UNL A   1      33.781  25.582  24.553  1.00  0.00    -0.042 A 
ATOM     10  C   UNL A   1      33.368  28.270  25.388  1.00  0.00     0.137 A 
ATOM     11  C   UNL A   1      33.320  27.225  26.308  1.00  0.00     0.048 A 
ATOM     12  C   UNL A   1      33.517  27.960  24.033  1.00  0.00     0.083 A 
ATOM     13  C   UNL A   1      33.505  25.897  25.889  1.00  0.00     0.008 A 
ATOM     14  C   UNL A   1      33.707  26.635  23.622  1.00  0.00     0.028 A 
ATOM     15  Cl  UNL A   1      33.521  29.192  22.820  1.00  0.00    -0.080 Cl
BRANCH  10  16
ATOM     16  O   UNL A   1      33.447  29.586  25.745  1.00  0.00    -0.495 OA
ATOM     17  C   UNL A   1      33.762  29.888  27.098  1.00  0.00     0.278 C 
ENDBRANCH  10  16
ENDBRANCH   8   9
BRANCH   8  18
ATOM     18  C   UNL A   1      33.065  23.075  23.925  1.00  0.00    -0.003 C 
ATOM     19  C   UNL A   1      32.879  22.475  22.517  1.00  0.00     0.004 C 
ATOM     20  C   UNL A   1      33.224  22.018  25.051  1.00  0.00     0.004 C 
ATOM     21  C   UNL A   1      32.044  21.200  22.466  1.00  0.00     0.000 C 
ATOM     22  C   UNL A   1      32.372  20.764  24.884  1.00  0.00     0.000 C 
ATOM     23  C   UNL A   1      32.514  20.183  23.487  1.00  0.00     0.000 C 
ENDBRANCH   8  18
ENDBRANCH   7   8
ENDBRANCH   4   7
ENDBRANCH   2   3
ENDBRANCH   1   2
BRANCH   1  24
ATOM     24  C   UNL A   1      40.036  22.713  26.908  1.00  0.00     0.118 C 
BRANCH  24  25
ATOM     25  N   UNL A   1      41.150  23.342  26.221  1.00  0.00    -0.352 N 
ATOM     26  C   UNL A   1      41.684  24.608  26.261  1.00  0.00     0.251 C 
ATOM     27  H   UNL A   1      41.617  22.739  25.598  1.00  0.00     0.163 HD
ATOM     28  O   UNL A   1      42.475  24.902  25.362  1.00  0.00    -0.269 OA
BRANCH  26  29
ATOM     29  C   UNL A   1      41.377  25.632  27.305  1.00  0.00     0.039 A 
ATOM     30  C   UNL A   1      42.219  26.754  27.378  1.00  0.00     0.014 A 
ATOM     31  C   UNL A   1      40.404  25.481  28.295  1.00  0.00     0.014 A 
ATOM     32  C   UNL A   1      42.088  27.696  28.410  1.00  0.00     0.010 A 
ATOM     33  C   UNL A   1      40.215  26.468  29.277  1.00  0.00     0.010 A 
ATOM     34  C   UNL A   1      41.072  27.575  29.368  1.00  0.00    -0.014 A 
BRANCH  34  35
ATOM     35  C   UNL A   1      40.926  28.565  30.479  1.00  0.00     0.031 A 
ATOM     36  C   UNL A   1      41.808  28.488  31.704  1.00  0.00     0.074 A 
ATOM     37  C   UNL A   1      39.980  29.525  30.413  1.00  0.00     0.049 A 
ATOM     38  N   UNL A   1      41.782  29.218  32.793  1.00  0.00    -0.248 NA
ATOM     39  C   UNL A   1      42.842  27.442  31.717  1.00  0.00     0.031 C 
ATOM     40  C   UNL A   1      39.043  29.711  29.303  1.00  0.00     0.029 A 
ATOM     41  N   UNL A   1      39.640  30.521  31.298  1.00  0.00    -0.354 N 
ATOM     42  C   UNL A   1      42.777  28.710  33.623  1.00  0.00     0.074 A 
ATOM     43  C   UNL A   1      43.357  27.579  32.931  1.00  0.00     0.031 C 
ATOM     44  C   UNL A   1      38.251  30.763  29.563  1.00  0.00     0.029 A 
ATOM     45  C   UNL A   1      38.588  31.302  30.877  1.00  0.00     0.049 A 
ATOM     46  H   UNL A   1      40.107  30.662  32.153  1.00  0.00     0.167 HD
ATOM     47  C   UNL A   1      43.188  29.153  34.838  1.00  0.00     0.037 A 
ATOM     48  C   UNL A   1      37.952  32.328  31.482  1.00  0.00     0.037 A 
ATOM     49  C   UNL A   1      42.631  30.296  35.516  1.00  0.00     0.049 A 
ATOM     50  C   UNL A   1      38.410  32.788  32.840  1.00  0.00     0.074 A 
ATOM     51  C   UNL A   1      43.019  30.851  36.725  1.00  0.00     0.029 A 
ATOM     52  N   UNL A   1      41.570  31.059  35.054  1.00  0.00    -0.354 N 
ATOM     53  N   UNL A   1      39.386  32.323  33.583  1.00  0.00    -0.248 NA
ATOM     54  C   UNL A   1      37.685  33.918  33.440  1.00  0.00     0.031 C 
ATOM     55  C   UNL A   1      42.159  31.914  37.018  1.00  0.00     0.029 A 
ATOM     56  C   UNL A   1      41.273  32.062  35.964  1.00  0.00     0.049 A 
ATOM     57  H   UNL A   1      41.097  30.911  34.203  1.00  0.00     0.167 HD
ATOM     58  C   UNL A   1      39.410  33.121  34.723  1.00  0.00     0.074 A 
ATOM     59  C   UNL A   1      38.360  34.106  34.567  1.00  0.00     0.031 C 
ATOM     60  C   UNL A   1      40.230  33.045  35.801  1.00  0.00     0.037 A 
BRANCH  47  61
ATOM     61  C   UNL A   1      44.298  28.397  35.524  1.00  0.00     0.058 A 
ATOM     62  C   UNL A   1      44.036  27.345  36.416  1.00  0.00     0.135 A 
ATOM     63  C   UNL A   1      45.643  28.696  35.247  1.00  0.00     0.135 A 
ATOM     64  F   UNL A   1      42.772  27.019  36.726  1.00  0.00    -0.206 F 
ATOM     65  C   UNL A   1      45.065  26.640  37.033  1.00  0.00     0.059 A 
ATOM     66  C   UNL A   1      46.688  27.984  35.829  1.00  0.00     0.059 A 
ATOM     67  F   UNL A   1      45.953  29.689  34.398  1.00  0.00    -0.206 F 
ATOM     68  C   UNL A   1      46.389  26.968  36.734  1.00  0.00     0.060 A 
BRANCH  68  69
ATOM     69  S   UNL A   1      47.710  26.043  37.546  1.00  0.00     0.124 S 
ATOM     70  O   UNL A   1      48.673  25.897  36.460  1.00  0.00    -0.237 OA
ATOM     71  O   UNL A   1      48.102  26.941  38.626  1.00  0.00    -0.237 OA
ATOM     72  O   UNL A   1      47.051  24.809  37.970  1.00  0.00    -0.744 OA
ENDBRANCH  68  69
ENDBRANCH  47  61
BRANCH  48  73
ATOM     73  C   UNL A   1      36.811  32.997  30.799  1.00  0.00     0.058 A 
ATOM     74  C   UNL A   1      35.485  32.641  31.089  1.00  0.00     0.135 A 
ATOM     75  C   UNL A   1      37.022  34.010  29.851  1.00  0.00     0.135 A 
ATOM     76  F   UNL A   1      35.230  31.673  31.982  1.00  0.00    -0.206 F 
ATOM     77  C   UNL A   1      34.409  33.254  30.454  1.00  0.00     0.059 A 
ATOM     78  C   UNL A   1      35.962  34.657  29.223  1.00  0.00     0.059 A 
ATOM     79  F   UNL A   1      38.270  34.398  29.548  1.00  0.00    -0.206 F 
ATOM     80  C   UNL A   1      34.659  34.264  29.524  1.00  0.00     0.060 A 
BRANCH  80  81
ATOM     81  S   UNL A   1      33.255  35.090  28.744  1.00  0.00     0.124 S 
ATOM     82  O   UNL A   1      32.510  35.562  29.905  1.00  0.00    -0.237 OA
ATOM     83  O   UNL A   1      33.912  36.118  27.945  1.00  0.00    -0.237 OA
ATOM     84  O   UNL A   1      32.621  34.021  27.979  1.00  0.00    -0.744 OA
ENDBRANCH  80  81
ENDBRANCH  48  73
BRANCH  60  85
ATOM     85  C   UNL A   1      40.058  34.074  36.885  1.00  0.00     0.058 A 
ATOM     86  C   UNL A   1      40.743  35.299  36.862  1.00  0.00     0.135 A 
ATOM     87  C   UNL A   1      39.153  33.852  37.938  1.00  0.00     0.135 A 
ATOM     88  F   UNL A   1      41.625  35.560  35.884  1.00  0.00    -0.206 F 
ATOM     89  C   UNL A   1      40.557  36.257  37.854  1.00  0.00     0.059 A 
ATOM     90  C   UNL A   1      38.929  34.809  38.924  1.00  0.00     0.059 A 
ATOM     91  F   UNL A   1      38.463  32.703  38.006  1.00  0.00    -0.206 F 
ATOM     92  C   UNL A   1      39.644  36.004  38.880  1.00  0.00     0.060 A 
BRANCH  92  93
ATOM     93  S   UNL A   1      39.386  37.269  40.141  1.00  0.00     0.124 S 
ATOM     94  O   UNL A   1      38.497  38.197  39.451  1.00  0.00    -0.237 OA
ATOM     95  O   UNL A   1      38.784  36.506  41.230  1.00  0.00    -0.237 OA
ATOM     96  O   UNL A   1      40.733  37.768  40.405  1.00  0.00    -0.744 OA
ENDBRANCH  92  93
ENDBRANCH  60  85
ENDBRANCH  34  35
ENDBRANCH  26  29
ENDBRANCH  24  25
ENDBRANCH   1  24
TORSDOF 17
ENDMDL
MODEL 3
REMARK VINA RESULT:     -11.9      6.672     12.059
REMARK SMILES COc1ccc([C@@H](CC(=O)NCCCNC(=O)c2ccc(-c3c4nc(c(-c5c(F)cc(S(=O)(=O)[O-])cc5F)c5ccc([nH]5)c(-c5c(F)cc(S(=O)(=O)[O-])cc5F)c5nc(c(-c6c(F)cc(S(=O)(=O)[O-])cc6F)c6ccc3[nH]6)C=C5)C=C4)cc2)C2CCCCC2)cc1Cl
REMARK SMILES IDX 13 1 12 2 11 3 9 4 10 5 8 7 7 8 6 9 3 10 4 11 91 12 5 13
REMARK SMILES IDX 90 14 92 15 2 16 1 17 84 18 85 19 89 20 86 21 88 22 87 23
REMARK SMILES IDX 14 24 15 25 16 26 17 28 18 29 19 30 83 31 20 32 82 33 21 34
REMARK SMILES IDX 22 35 23 36 76 37 24 38 81 39 75 40 77 41 25 42 80 43 74 44
REMARK SMILES IDX 73 45 26 47 60 48 39 49 59 50 40 51 43 52 58 53 78 54 41 55
REMARK SMILES IDX 42 56 57 58 79 59 44 60 27 61 28 62 37 63 29 64 30 65 36 66
REMARK SMILES IDX 38 67 31 68 32 69 33 70 34 71 35 72 61 73 62 74 71 75 63 76
REMARK SMILES IDX 64 77 70 78 72 79 65 80 66 81 67 82 68 83 69 84 45 85 46 86
REMARK SMILES IDX 55 87 47 88 48 89 54 90 56 91 49 92 50 93 51 94 52 95 53 96
REMARK H PARENT 11 6 15 27 77 46 43 57
REMARK Flexibility Score: inf
ROOT
ATOM      1  C   UNL A   1      38.639  23.010  26.499  1.00  0.00     0.042 C 
ENDROOT
BRANCH   1   2
ATOM      2  C   UNL A   1      38.181  21.767  25.747  1.00  0.00     0.117 C 
BRANCH   2   3
ATOM      3  N   UNL A   1      37.690  22.096  24.419  1.00  0.00    -0.356 N 
ATOM      4  C   UNL A   1      36.830  23.063  24.001  1.00  0.00     0.220 C 
ATOM      5  O   UNL A   1      36.671  23.181  22.781  1.00  0.00    -0.275 OA
ATOM      6  H   UNL A   1      38.038  21.520  23.700  1.00  0.00     0.163 HD
BRANCH   4   7
ATOM      7  C   UNL A   1      36.147  24.032  24.956  1.00  0.00     0.108 C 
BRANCH   7   8
ATOM      8  C   UNL A   1      34.629  23.917  25.303  1.00  0.00     0.032 C 
BRANCH   8   9
ATOM      9  C   UNL A   1      34.115  22.479  25.156  1.00  0.00    -0.042 A 
ATOM     10  C   UNL A   1      32.846  19.950  24.868  1.00  0.00     0.137 A 
ATOM     11  C   UNL A   1      33.603  20.239  26.001  1.00  0.00     0.048 A 
ATOM     12  C   UNL A   1      32.810  20.887  23.831  1.00  0.00     0.083 A 
ATOM     13  C   UNL A   1      34.245  21.482  26.130  1.00  0.00     0.008 A 
ATOM     14  C   UNL A   1      33.447  22.126  23.968  1.00  0.00     0.028 A 
ATOM     15  Cl  UNL A   1      31.948  20.579  22.365  1.00  0.00    -0.080 Cl
BRANCH  10  16
ATOM     16  O   UNL A   1      31.999  18.881  24.780  1.00  0.00    -0.495 OA
ATOM     17  C   UNL A   1      32.455  17.631  25.281  1.00  0.00     0.278 C 
ENDBRANCH  10  16
ENDBRANCH   8   9
BRANCH   8  18
ATOM     18  C   UNL A   1      33.714  25.111  24.833  1.00  0.00    -0.003 C 
ATOM     19  C   UNL A   1      33.696  26.338  25.767  1.00  0.00     0.004 C 
ATOM     20  C   UNL A   1      33.977  25.451  23.341  1.00  0.00     0.004 C 
ATOM     21  C   UNL A   1      33.073  27.594  25.167  1.00  0.00     0.000 C 
ATOM     22  C   UNL A   1      33.340  26.747  22.853  1.00  0.00     0.000 C 
ATOM     23  C   UNL A   1      33.641  27.900  23.795  1.00  0.00     0.000 C 
ENDBRANCH   8  18
ENDBRANCH   7   8
ENDBRANCH   4   7
ENDBRANCH   2   3
ENDBRANCH   1   2
BRANCH   1  24
ATOM     24  C   UNL A   1      40.069  23.006  27.015  1.00  0.00     0.118 C 
BRANCH  24  25
ATOM     25  N   UNL A   1      40.952  23.792  26.173  1.00  0.00    -0.352 N 
ATOM     26  C   UNL A   1      41.289  25.125  26.150  1.00  0.00     0.251 C 
ATOM     27  H   UNL A   1      41.402  23.263  25.475  1.00  0.00     0.163 HD
ATOM     28  O   UNL A   1      41.875  25.529  25.143  1.00  0.00    -0.269 OA
BRANCH  26  29
ATOM     29  C   UNL A   1      40.997  26.098  27.246  1.00  0.00     0.039 A 
ATOM     30  C   UNL A   1      41.806  27.244  27.326  1.00  0.00     0.014 A 
ATOM     31  C   UNL A   1      40.075  25.877  28.272  1.00  0.00     0.014 A 
ATOM     32  C   UNL A   1      41.692  28.142  28.398  1.00  0.00     0.010 A 
ATOM     33  C   UNL A   1      39.901  26.820  29.299  1.00  0.00     0.010 A 
ATOM     34  C   UNL A   1      40.725  27.950  29.395  1.00  0.00    -0.014 A 
BRANCH  34  35
ATOM     35  C   UNL A   1      40.599  28.893  30.550  1.00  0.00     0.031 A 
ATOM     36  C   UNL A   1      41.485  28.749  31.765  1.00  0.00     0.074 A 
ATOM     37  C   UNL A   1      39.666  29.868  30.531  1.00  0.00     0.049 A 
ATOM     38  N   UNL A   1      41.475  29.431  32.885  1.00  0.00    -0.248 NA
ATOM     39  C   UNL A   1      42.504  27.688  31.726  1.00  0.00     0.031 C 
ATOM     40  C   UNL A   1      38.727  30.116  29.435  1.00  0.00     0.029 A 
ATOM     41  N   UNL A   1      39.345  30.828  31.460  1.00  0.00    -0.354 N 
ATOM     42  C   UNL A   1      42.467  28.872  33.687  1.00  0.00     0.074 A 
ATOM     43  C   UNL A   1      43.027  27.765  32.943  1.00  0.00     0.031 C 
ATOM     44  C   UNL A   1      37.952  31.166  29.746  1.00  0.00     0.029 A 
ATOM     45  C   UNL A   1      38.303  31.642  31.081  1.00  0.00     0.049 A 
ATOM     46  H   UNL A   1      39.818  30.925  32.318  1.00  0.00     0.167 HD
ATOM     47  C   UNL A   1      42.890  29.255  34.917  1.00  0.00     0.037 A 
ATOM     48  C   UNL A   1      37.684  32.649  31.733  1.00  0.00     0.037 A 
ATOM     49  C   UNL A   1      42.353  30.375  35.649  1.00  0.00     0.049 A 
ATOM     50  C   UNL A   1      38.155  33.043  33.108  1.00  0.00     0.074 A 
ATOM     51  C   UNL A   1      42.754  30.871  36.879  1.00  0.00     0.029 A 
ATOM     52  N   UNL A   1      41.300  31.173  35.226  1.00  0.00    -0.354 N 
ATOM     53  N   UNL A   1      39.128  32.531  33.824  1.00  0.00    -0.248 NA
ATOM     54  C   UNL A   1      37.449  34.155  33.761  1.00  0.00     0.031 C 
ATOM     55  C   UNL A   1      41.912  31.932  37.222  1.00  0.00     0.029 A 
ATOM     56  C   UNL A   1      41.023  32.138  36.181  1.00  0.00     0.049 A 
ATOM     57  H   UNL A   1      40.821  31.069  34.372  1.00  0.00     0.167 HD
ATOM     58  C   UNL A   1      39.169  33.278  34.999  1.00  0.00     0.074 A 
ATOM     59  C   UNL A   1      38.132  34.283  34.891  1.00  0.00     0.031 C 
ATOM     60  C   UNL A   1      39.993  33.143  36.067  1.00  0.00     0.037 A 
BRANCH  47  61
ATOM     61  C   UNL A   1      43.992  28.455  35.564  1.00  0.00     0.058 A 
ATOM     62  C   UNL A   1      45.347  28.738  35.330  1.00  0.00     0.135 A 
ATOM     63  C   UNL A   1      43.689  27.422  36.468  1.00  0.00     0.135 A 
ATOM     64  F   UNL A   1      45.698  29.706  34.470  1.00  0.00    -0.206 F 
ATOM     65  C   UNL A   1      46.361  28.006  35.943  1.00  0.00     0.059 A 
ATOM     66  C   UNL A   1      44.686  26.698  37.116  1.00  0.00     0.059 A 
ATOM     67  F   UNL A   1      42.411  27.111  36.734  1.00  0.00    -0.206 F 
ATOM     68  C   UNL A   1      46.020  26.987  36.834  1.00  0.00     0.060 A 
BRANCH  68  69
ATOM     69  S   UNL A   1      47.348  26.048  37.617  1.00  0.00     0.124 S 
ATOM     70  O   UNL A   1      47.502  24.932  36.690  1.00  0.00    -0.237 OA
ATOM     71  O   UNL A   1      48.443  27.012  37.637  1.00  0.00    -0.237 OA
ATOM     72  O   UNL A   1      46.797  25.704  38.926  1.00  0.00    -0.744 OA
ENDBRANCH  68  69
ENDBRANCH  47  61
BRANCH  48  73
ATOM     73  C   UNL A   1      36.549  33.364  31.087  1.00  0.00     0.058 A 
ATOM     74  C   UNL A   1      36.757  34.204  29.982  1.00  0.00     0.135 A 
ATOM     75  C   UNL A   1      35.235  33.216  31.556  1.00  0.00     0.135 A 
ATOM     76  F   UNL A   1      37.997  34.385  29.503  1.00  0.00    -0.206 F 
ATOM     77  C   UNL A   1      35.706  34.883  29.374  1.00  0.00     0.059 A 
ATOM     78  C   UNL A   1      34.163  33.863  30.947  1.00  0.00     0.059 A 
ATOM     79  F   UNL A   1      34.979  32.413  32.600  1.00  0.00    -0.206 F 
ATOM     80  C   UNL A   1      34.412  34.702  29.862  1.00  0.00     0.060 A 
BRANCH  80  81
ATOM     81  S   UNL A   1      33.048  35.547  29.032  1.00  0.00     0.124 S 
ATOM     82  O   UNL A   1      32.472  34.467  28.240  1.00  0.00    -0.237 OA
ATOM     83  O   UNL A   1      32.246  36.010  30.160  1.00  0.00    -0.237 OA
ATOM     84  O   UNL A   1      33.717  36.599  28.274  1.00  0.00    -0.744 OA
ENDBRANCH  80  81
ENDBRANCH  48  73
BRANCH  60  85
ATOM     85  C   UNL A   1      39.841  34.126  37.196  1.00  0.00     0.058 A 
ATOM     86  C   UNL A   1      40.468  35.381  37.178  1.00  0.00     0.135 A 
ATOM     87  C   UNL A   1      39.013  33.826  38.292  1.00  0.00     0.135 A 
ATOM     88  F   UNL A   1      41.276  35.717  36.159  1.00  0.00    -0.206 F 
ATOM     89  C   UNL A   1      40.299  36.295  38.214  1.00  0.00     0.059 A 
ATOM     90  C   UNL A   1      38.806  34.737  39.324  1.00  0.00     0.059 A 
ATOM     91  F   UNL A   1      38.380  32.643  38.358  1.00  0.00    -0.206 F 
ATOM     92  C   UNL A   1      39.463  35.965  39.281  1.00  0.00     0.060 A 
BRANCH  92  93
ATOM     93  S   UNL A   1      39.225  37.174  40.602  1.00  0.00     0.124 S 
ATOM     94  O   UNL A   1      38.245  38.074  40.005  1.00  0.00    -0.237 OA
ATOM     95  O   UNL A   1      38.738  36.344  41.699  1.00  0.00    -0.237 OA
ATOM     96  O   UNL A   1      40.559  37.735  40.794  1.00  0.00    -0.744 OA
ENDBRANCH  92  93
ENDBRANCH  60  85
ENDBRANCH  34  35
ENDBRANCH  26  29
ENDBRANCH  24  25
ENDBRANCH   1  24
TORSDOF 17
ENDMDL
