MODEL 1
REMARK VINA RESULT:     -10.3      0.000      0.000
REMARK SMILES C[C@H]1[C@H](C(=O)NCCCNC(=O)c2ccc(-c3c4nc(c(-c5c(F)cc(S(=O)(=O)[O-])cc5F)c5ccc([nH]5)c(-c5c(F)cc(S(=O)(=O)[O-])cc5F)c5nc(c(-c6c(F)cc(S(=O)(=O)[O-])cc6F)c6ccc3[nH]6)C=C5)C=C4)cc2)CC[N@@H+]1Cc1nnnn1-c1ccccc1
REMARK SMILES IDX 8 1 7 2 6 3 4 4 5 5 3 7 1 8 2 9 81 10 79 11 80 12 82 14
REMARK SMILES IDX 83 15 84 16 87 17 85 18 86 19 88 20 89 21 93 22 90 23 92 24
REMARK SMILES IDX 91 25 9 26 10 27 11 28 12 30 13 31 14 32 78 33 15 34 77 35
REMARK SMILES IDX 16 36 17 37 18 38 71 39 19 40 76 41 70 42 72 43 20 44 75 45
REMARK SMILES IDX 69 46 68 47 21 49 55 50 34 51 54 52 35 53 38 54 53 55 73 56
REMARK SMILES IDX 36 57 37 58 52 60 74 61 39 62 22 63 23 64 32 65 24 66 25 67
REMARK SMILES IDX 31 68 33 69 26 70 27 71 28 72 29 73 30 74 56 75 57 76 66 77
REMARK SMILES IDX 58 78 59 79 65 80 67 81 60 82 61 83 62 84 63 85 64 86 40 87
REMARK SMILES IDX 41 88 50 89 42 90 43 91 49 92 51 93 44 94 45 95 46 96 47 97
REMARK SMILES IDX 48 98
REMARK H PARENT 6 6 81 13 10 29 72 48 38 59
REMARK Flexibility Score: inf
ROOT
ATOM      1  C   UNL A   1      33.550  33.645  28.401  1.00  0.00     0.042 C 
ENDROOT
BRANCH   1   2
ATOM      2  C   UNL A   1      34.176  34.967  28.831  1.00  0.00     0.117 C 
BRANCH   2   3
ATOM      3  N   UNL A   1      33.964  35.265  30.226  1.00  0.00    -0.356 N 
ATOM      4  C   UNL A   1      34.515  34.694  31.326  1.00  0.00     0.229 C 
ATOM      5  O   UNL A   1      34.313  35.261  32.406  1.00  0.00    -0.275 OA
ATOM      6  H   UNL A   1      33.326  35.992  30.406  1.00  0.00     0.163 HD
BRANCH   4   7
ATOM      7  C   UNL A   1      35.393  33.449  31.283  1.00  0.00     0.142 C 
ATOM      8  C   UNL A   1      37.414  33.380  29.800  1.00  0.00     0.076 C 
ATOM      9  C   UNL A   1      36.926  33.635  31.235  1.00  0.00     0.194 C 
ATOM     10  N   UNL A   1      37.487  32.580  32.102  1.00  0.00    -0.326 N 
ATOM     11  C   UNL A   1      35.162  32.437  32.397  1.00  0.00     0.081 C 
ATOM     12  C   UNL A   1      36.434  31.608  32.330  1.00  0.00     0.263 C 
ATOM     13  H   UNL A   1      38.255  32.132  31.601  1.00  0.00     0.348 HD
BRANCH  10  14
ATOM     14  C   UNL A   1      38.393  32.940  33.212  1.00  0.00     0.343 C 
BRANCH  14  15
ATOM     15  C   UNL A   1      38.357  32.188  34.512  1.00  0.00     0.210 A 
ATOM     16  N   UNL A   1      37.897  32.641  35.666  1.00  0.00    -0.107 NA
ATOM     17  N   UNL A   1      38.762  30.884  34.741  1.00  0.00    -0.192 N 
ATOM     18  N   UNL A   1      37.813  31.563  36.508  1.00  0.00    -0.023 NA
ATOM     19  N   UNL A   1      38.217  30.460  35.901  1.00  0.00    -0.040 NA
BRANCH  17  20
ATOM     20  C   UNL A   1      39.624  30.061  34.009  1.00  0.00     0.069 A 
ATOM     21  C   UNL A   1      41.007  30.254  34.109  1.00  0.00     0.028 A 
ATOM     22  C   UNL A   1      39.089  29.030  33.233  1.00  0.00     0.028 A 
ATOM     23  C   UNL A   1      41.860  29.334  33.505  1.00  0.00     0.002 A 
ATOM     24  C   UNL A   1      39.951  28.152  32.586  1.00  0.00     0.002 A 
ATOM     25  C   UNL A   1      41.332  28.287  32.744  1.00  0.00     0.000 A 
ENDBRANCH  17  20
ENDBRANCH  14  15
ENDBRANCH  10  14
ENDBRANCH   4   7
ENDBRANCH   2   3
ENDBRANCH   1   2
BRANCH   1  26
ATOM     26  C   UNL A   1      34.563  32.606  27.948  1.00  0.00     0.118 C 
BRANCH  26  27
ATOM     27  N   UNL A   1      34.014  31.278  27.703  1.00  0.00    -0.352 N 
ATOM     28  C   UNL A   1      34.588  30.029  27.785  1.00  0.00     0.251 C 
ATOM     29  H   UNL A   1      33.068  31.274  27.430  1.00  0.00     0.163 HD
ATOM     30  O   UNL A   1      33.923  29.038  27.525  1.00  0.00    -0.269 OA
BRANCH  28  31
ATOM     31  C   UNL A   1      36.020  29.883  28.130  1.00  0.00     0.039 A 
ATOM     32  C   UNL A   1      36.351  29.474  29.426  1.00  0.00     0.014 A 
ATOM     33  C   UNL A   1      37.028  30.112  27.197  1.00  0.00     0.014 A 
ATOM     34  C   UNL A   1      37.683  29.218  29.755  1.00  0.00     0.010 A 
ATOM     35  C   UNL A   1      38.333  29.737  27.485  1.00  0.00     0.010 A 
ATOM     36  C   UNL A   1      38.679  29.298  28.770  1.00  0.00    -0.014 A 
BRANCH  36  37
ATOM     37  C   UNL A   1      40.091  28.946  29.058  1.00  0.00     0.031 A 
ATOM     38  C   UNL A   1      41.015  29.982  29.646  1.00  0.00     0.074 A 
ATOM     39  C   UNL A   1      40.559  27.730  28.714  1.00  0.00     0.049 A 
ATOM     40  N   UNL A   1      42.301  29.911  29.868  1.00  0.00    -0.248 NA
ATOM     41  C   UNL A   1      40.420  31.285  29.989  1.00  0.00     0.031 C 
ATOM     42  C   UNL A   1      39.776  26.670  28.073  1.00  0.00     0.029 A 
ATOM     43  N   UNL A   1      41.810  27.183  28.841  1.00  0.00    -0.354 N 
ATOM     44  C   UNL A   1      42.670  31.161  30.353  1.00  0.00     0.074 A 
ATOM     45  C   UNL A   1      41.488  31.993  30.322  1.00  0.00     0.031 C 
ATOM     46  C   UNL A   1      40.555  25.593  27.890  1.00  0.00     0.029 A 
ATOM     47  C   UNL A   1      41.903  25.899  28.358  1.00  0.00     0.049 A 
ATOM     48  H   UNL A   1      42.571  27.664  29.241  1.00  0.00     0.167 HD
ATOM     49  C   UNL A   1      43.875  31.569  30.814  1.00  0.00     0.037 A 
ATOM     50  C   UNL A   1      42.958  25.064  28.295  1.00  0.00     0.037 A 
ATOM     51  C   UNL A   1      45.035  30.719  30.873  1.00  0.00     0.049 A 
ATOM     52  C   UNL A   1      44.281  25.528  28.837  1.00  0.00     0.074 A 
ATOM     53  C   UNL A   1      46.291  31.009  31.375  1.00  0.00     0.029 A 
ATOM     54  N   UNL A   1      45.078  29.409  30.417  1.00  0.00    -0.354 N 
ATOM     55  N   UNL A   1      44.599  26.695  29.349  1.00  0.00    -0.248 NA
ATOM     56  C   UNL A   1      45.387  24.562  28.807  1.00  0.00     0.031 C 
ATOM     57  C   UNL A   1      47.105  29.887  31.185  1.00  0.00     0.029 A 
ATOM     58  C   UNL A   1      46.343  28.880  30.613  1.00  0.00     0.049 A 
ATOM     59  H   UNL A   1      44.320  28.926  30.014  1.00  0.00     0.167 HD
ATOM     60  C   UNL A   1      45.935  26.597  29.719  1.00  0.00     0.074 A 
ATOM     61  C   UNL A   1      46.358  25.249  29.393  1.00  0.00     0.031 C 
ATOM     62  C   UNL A   1      46.742  27.535  30.277  1.00  0.00     0.037 A 
BRANCH  49  63
ATOM     63  C   UNL A   1      43.989  32.988  31.302  1.00  0.00     0.058 A 
ATOM     64  C   UNL A   1      43.665  33.342  32.624  1.00  0.00     0.135 A 
ATOM     65  C   UNL A   1      44.439  34.008  30.448  1.00  0.00     0.135 A 
ATOM     66  F   UNL A   1      43.211  32.413  33.481  1.00  0.00    -0.206 F 
ATOM     67  C   UNL A   1      43.747  34.657  33.069  1.00  0.00     0.059 A 
ATOM     68  C   UNL A   1      44.562  35.326  30.882  1.00  0.00     0.059 A 
ATOM     69  F   UNL A   1      44.763  33.731  29.176  1.00  0.00    -0.206 F 
ATOM     70  C   UNL A   1      44.196  35.643  32.190  1.00  0.00     0.060 A 
BRANCH  70  71
ATOM     71  S   UNL A   1      44.299  37.344  32.784  1.00  0.00     0.124 S 
ATOM     72  O   UNL A   1      43.693  38.077  31.677  1.00  0.00    -0.237 OA
ATOM     73  O   UNL A   1      43.516  37.293  34.015  1.00  0.00    -0.237 OA
ATOM     74  O   UNL A   1      45.732  37.555  32.966  1.00  0.00    -0.744 OA
ENDBRANCH  70  71
ENDBRANCH  49  63
BRANCH  50  75
ATOM     75  C   UNL A   1      42.793  23.702  27.719  1.00  0.00     0.058 A 
ATOM     76  C   UNL A   1      42.935  23.477  26.342  1.00  0.00     0.135 A 
ATOM     77  C   UNL A   1      42.518  22.593  28.536  1.00  0.00     0.135 A 
ATOM     78  F   UNL A   1      43.194  24.503  25.518  1.00  0.00    -0.206 F 
ATOM     79  C   UNL A   1      42.796  22.206  25.792  1.00  0.00     0.059 A 
ATOM     80  C   UNL A   1      42.401  21.309  28.013  1.00  0.00     0.059 A 
ATOM     81  F   UNL A   1      42.391  22.750  29.862  1.00  0.00    -0.206 F 
ATOM     82  C   UNL A   1      42.533  21.126  26.637  1.00  0.00     0.060 A 
BRANCH  82  83
ATOM     83  S   UNL A   1      42.412  19.473  25.919  1.00  0.00     0.124 S 
ATOM     84  O   UNL A   1      40.983  19.374  25.649  1.00  0.00    -0.237 OA
ATOM     85  O   UNL A   1      43.278  19.583  24.749  1.00  0.00    -0.237 OA
ATOM     86  O   UNL A   1      42.916  18.608  26.982  1.00  0.00    -0.744 OA
ENDBRANCH  82  83
ENDBRANCH  50  75
BRANCH  62  87
ATOM     87  C   UNL A   1      48.154  27.125  30.592  1.00  0.00     0.058 A 
ATOM     88  C   UNL A   1      48.495  26.542  31.822  1.00  0.00     0.135 A 
ATOM     89  C   UNL A   1      49.171  27.292  29.638  1.00  0.00     0.135 A 
ATOM     90  F   UNL A   1      47.560  26.365  32.770  1.00  0.00    -0.206 F 
ATOM     91  C   UNL A   1      49.803  26.168  32.109  1.00  0.00     0.059 A 
ATOM     92  C   UNL A   1      50.480  26.896  29.892  1.00  0.00     0.059 A 
ATOM     93  F   UNL A   1      48.895  27.833  28.441  1.00  0.00    -0.206 F 
ATOM     94  C   UNL A   1      50.789  26.352  31.138  1.00  0.00     0.060 A 
BRANCH  94  95
ATOM     95  S   UNL A   1      52.481  25.852  31.518  1.00  0.00     0.124 S 
ATOM     96  O   UNL A   1      52.280  24.498  32.024  1.00  0.00    -0.237 OA
ATOM     97  O   UNL A   1      53.138  25.952  30.218  1.00  0.00    -0.237 OA
ATOM     98  O   UNL A   1      52.912  26.835  32.508  1.00  0.00    -0.744 OA
ENDBRANCH  94  95
ENDBRANCH  62  87
ENDBRANCH  36  37
ENDBRANCH  28  31
ENDBRANCH  26  27
ENDBRANCH   1  26
TORSDOF 16
ENDMDL
MODEL 2
REMARK VINA RESULT:     -10.3      4.039      6.467
REMARK SMILES C[C@H]1[C@H](C(=O)NCCCNC(=O)c2ccc(-c3c4nc(c(-c5c(F)cc(S(=O)(=O)[O-])cc5F)c5ccc([nH]5)c(-c5c(F)cc(S(=O)(=O)[O-])cc5F)c5nc(c(-c6c(F)cc(S(=O)(=O)[O-])cc6F)c6ccc3[nH]6)C=C5)C=C4)cc2)CC[N@@H+]1Cc1nnnn1-c1ccccc1
REMARK SMILES IDX 8 1 7 2 6 3 4 4 5 5 3 7 1 8 2 9 81 10 79 11 80 12 82 14
REMARK SMILES IDX 83 15 84 16 87 17 85 18 86 19 88 20 89 21 93 22 90 23 92 24
REMARK SMILES IDX 91 25 9 26 10 27 11 28 12 30 13 31 14 32 78 33 15 34 77 35
REMARK SMILES IDX 16 36 17 37 18 38 71 39 19 40 76 41 70 42 72 43 20 44 75 45
REMARK SMILES IDX 69 46 68 47 21 49 55 50 34 51 54 52 35 53 38 54 53 55 73 56
REMARK SMILES IDX 36 57 37 58 52 60 74 61 39 62 22 63 23 64 32 65 24 66 25 67
REMARK SMILES IDX 31 68 33 69 26 70 27 71 28 72 29 73 30 74 56 75 57 76 66 77
REMARK SMILES IDX 58 78 59 79 65 80 67 81 60 82 61 83 62 84 63 85 64 86 40 87
REMARK SMILES IDX 41 88 50 89 42 90 43 91 49 92 51 93 44 94 45 95 46 96 47 97
REMARK SMILES IDX 48 98
REMARK H PARENT 6 6 81 13 10 29 72 48 38 59
REMARK Flexibility Score: inf
ROOT
ATOM      1  C   UNL A   1      34.958  29.583  27.231  1.00  0.00     0.042 C 
ENDROOT
BRANCH   1   2
ATOM      2  C   UNL A   1      33.562  29.957  26.746  1.00  0.00     0.117 C 
BRANCH   2   3
ATOM      3  N   UNL A   1      32.512  29.270  27.458  1.00  0.00    -0.356 N 
ATOM      4  C   UNL A   1      31.750  28.217  27.071  1.00  0.00     0.229 C 
ATOM      5  O   UNL A   1      31.047  27.690  27.941  1.00  0.00    -0.275 OA
ATOM      6  H   UNL A   1      32.321  29.617  28.359  1.00  0.00     0.163 HD
BRANCH   4   7
ATOM      7  C   UNL A   1      31.762  27.637  25.661  1.00  0.00     0.142 C 
ATOM      8  C   UNL A   1      33.912  26.850  24.638  1.00  0.00     0.076 C 
ATOM      9  C   UNL A   1      32.647  26.400  25.386  1.00  0.00     0.194 C 
ATOM     10  N   UNL A   1      31.863  25.539  24.479  1.00  0.00    -0.326 N 
ATOM     11  C   UNL A   1      30.401  27.274  25.083  1.00  0.00     0.081 C 
ATOM     12  C   UNL A   1      30.787  26.350  23.940  1.00  0.00     0.263 C 
ATOM     13  H   UNL A   1      32.473  25.241  23.717  1.00  0.00     0.348 HD
BRANCH  10  14
ATOM     14  C   UNL A   1      31.595  24.132  24.843  1.00  0.00     0.343 C 
BRANCH  14  15
ATOM     15  C   UNL A   1      32.136  23.548  26.117  1.00  0.00     0.210 A 
ATOM     16  N   UNL A   1      31.518  23.512  27.286  1.00  0.00    -0.107 NA
ATOM     17  N   UNL A   1      33.352  22.913  26.302  1.00  0.00    -0.192 N 
ATOM     18  N   UNL A   1      32.245  22.674  28.091  1.00  0.00    -0.023 NA
ATOM     19  N   UNL A   1      33.298  22.200  27.446  1.00  0.00    -0.040 NA
BRANCH  17  20
ATOM     20  C   UNL A   1      34.525  22.964  25.541  1.00  0.00     0.069 A 
ATOM     21  C   UNL A   1      34.563  22.329  24.294  1.00  0.00     0.028 A 
ATOM     22  C   UNL A   1      35.617  23.692  26.019  1.00  0.00     0.028 A 
ATOM     23  C   UNL A   1      35.674  22.517  23.477  1.00  0.00     0.002 A 
ATOM     24  C   UNL A   1      36.745  23.825  25.217  1.00  0.00     0.002 A 
ATOM     25  C   UNL A   1      36.763  23.263  23.939  1.00  0.00     0.000 A 
ENDBRANCH  17  20
ENDBRANCH  14  15
ENDBRANCH  10  14
ENDBRANCH   4   7
ENDBRANCH   2   3
ENDBRANCH   1   2
BRANCH   1  26
ATOM     26  C   UNL A   1      35.632  30.668  28.056  1.00  0.00     0.118 C 
BRANCH  26  27
ATOM     27  N   UNL A   1      35.546  30.486  29.499  1.00  0.00    -0.352 N 
ATOM     28  C   UNL A   1      36.515  30.213  30.438  1.00  0.00     0.251 C 
ATOM     29  H   UNL A   1      34.636  30.571  29.866  1.00  0.00     0.163 HD
ATOM     30  O   UNL A   1      36.204  30.096  31.614  1.00  0.00    -0.269 OA
BRANCH  28  31
ATOM     31  C   UNL A   1      37.922  30.003  30.026  1.00  0.00     0.039 A 
ATOM     32  C   UNL A   1      38.852  29.638  31.005  1.00  0.00     0.014 A 
ATOM     33  C   UNL A   1      38.326  30.130  28.699  1.00  0.00     0.014 A 
ATOM     34  C   UNL A   1      40.160  29.324  30.637  1.00  0.00     0.010 A 
ATOM     35  C   UNL A   1      39.588  29.697  28.318  1.00  0.00     0.010 A 
ATOM     36  C   UNL A   1      40.524  29.301  29.282  1.00  0.00    -0.014 A 
BRANCH  36  37
ATOM     37  C   UNL A   1      41.880  28.884  28.845  1.00  0.00     0.031 A 
ATOM     38  C   UNL A   1      42.982  29.907  28.750  1.00  0.00     0.074 A 
ATOM     39  C   UNL A   1      42.093  27.612  28.456  1.00  0.00     0.049 A 
ATOM     40  N   UNL A   1      44.197  29.772  28.289  1.00  0.00    -0.248 NA
ATOM     41  C   UNL A   1      42.660  31.275  29.194  1.00  0.00     0.031 C 
ATOM     42  C   UNL A   1      41.083  26.550  28.436  1.00  0.00     0.029 A 
ATOM     43  N   UNL A   1      43.226  26.996  27.988  1.00  0.00    -0.354 N 
ATOM     44  C   UNL A   1      44.773  31.035  28.365  1.00  0.00     0.074 A 
ATOM     45  C   UNL A   1      43.751  31.938  28.847  1.00  0.00     0.031 C 
ATOM     46  C   UNL A   1      41.648  25.410  28.008  1.00  0.00     0.029 A 
ATOM     47  C   UNL A   1      43.046  25.668  27.680  1.00  0.00     0.049 A 
ATOM     48  H   UNL A   1      44.087  27.462  27.882  1.00  0.00     0.167 HD
ATOM     49  C   UNL A   1      46.046  31.404  28.092  1.00  0.00     0.037 A 
ATOM     50  C   UNL A   1      43.911  24.763  27.184  1.00  0.00     0.037 A 
ATOM     51  C   UNL A   1      47.064  30.488  27.648  1.00  0.00     0.049 A 
ATOM     52  C   UNL A   1      45.327  25.187  26.913  1.00  0.00     0.074 A 
ATOM     53  C   UNL A   1      48.401  30.740  27.398  1.00  0.00     0.029 A 
ATOM     54  N   UNL A   1      46.855  29.140  27.393  1.00  0.00    -0.354 N 
ATOM     55  N   UNL A   1      45.872  26.374  27.048  1.00  0.00    -0.248 NA
ATOM     56  C   UNL A   1      46.251  24.150  26.435  1.00  0.00     0.031 C 
ATOM     57  C   UNL A   1      48.991  29.553  26.952  1.00  0.00     0.029 A 
ATOM     58  C   UNL A   1      48.035  28.549  26.974  1.00  0.00     0.049 A 
ATOM     59  H   UNL A   1      45.994  28.672  27.495  1.00  0.00     0.167 HD
ATOM     60  C   UNL A   1      47.207  26.223  26.691  1.00  0.00     0.074 A 
ATOM     61  C   UNL A   1      47.390  24.824  26.355  1.00  0.00     0.031 C 
ATOM     62  C   UNL A   1      48.193  27.153  26.642  1.00  0.00     0.037 A 
BRANCH  49  63
ATOM     63  C   UNL A   1      46.407  32.853  28.283  1.00  0.00     0.058 A 
ATOM     64  C   UNL A   1      46.252  33.794  27.249  1.00  0.00     0.135 A 
ATOM     65  C   UNL A   1      46.900  33.315  29.514  1.00  0.00     0.135 A 
ATOM     66  F   UNL A   1      45.803  33.408  26.045  1.00  0.00    -0.206 F 
ATOM     67  C   UNL A   1      46.609  35.128  27.418  1.00  0.00     0.059 A 
ATOM     68  C   UNL A   1      47.231  34.653  29.716  1.00  0.00     0.059 A 
ATOM     69  F   UNL A   1      47.070  32.463  30.537  1.00  0.00    -0.206 F 
ATOM     70  C   UNL A   1      47.098  35.549  28.655  1.00  0.00     0.060 A 
BRANCH  70  71
ATOM     71  S   UNL A   1      47.552  37.283  28.856  1.00  0.00     0.124 S 
ATOM     72  O   UNL A   1      46.844  37.629  30.085  1.00  0.00    -0.237 OA
ATOM     73  O   UNL A   1      49.006  37.216  28.961  1.00  0.00    -0.237 OA
ATOM     74  O   UNL A   1      47.043  37.912  27.642  1.00  0.00    -0.744 OA
ENDBRANCH  70  71
ENDBRANCH  49  63
BRANCH  50  75
ATOM     75  C   UNL A   1      43.461  23.365  26.939  1.00  0.00     0.058 A 
ATOM     76  C   UNL A   1      43.239  22.895  25.636  1.00  0.00     0.135 A 
ATOM     77  C   UNL A   1      43.273  22.463  27.998  1.00  0.00     0.135 A 
ATOM     78  F   UNL A   1      43.401  23.718  24.590  1.00  0.00    -0.206 F 
ATOM     79  C   UNL A   1      42.831  21.587  25.392  1.00  0.00     0.059 A 
ATOM     80  C   UNL A   1      42.892  21.143  27.778  1.00  0.00     0.059 A 
ATOM     81  F   UNL A   1      43.491  22.856  29.263  1.00  0.00    -0.206 F 
ATOM     82  C   UNL A   1      42.665  20.716  26.470  1.00  0.00     0.060 A 
BRANCH  82  83
ATOM     83  S   UNL A   1      42.191  19.005  26.138  1.00  0.00     0.124 S 
ATOM     84  O   UNL A   1      40.785  19.152  25.782  1.00  0.00    -0.237 OA
ATOM     85  O   UNL A   1      43.092  18.645  25.047  1.00  0.00    -0.237 OA
ATOM     86  O   UNL A   1      42.455  18.331  27.406  1.00  0.00    -0.744 OA
ENDBRANCH  82  83
ENDBRANCH  50  75
BRANCH  62  87
ATOM     87  C   UNL A   1      49.561  26.683  26.235  1.00  0.00     0.058 A 
ATOM     88  C   UNL A   1      50.039  26.847  24.926  1.00  0.00     0.135 A 
ATOM     89  C   UNL A   1      50.417  26.088  27.177  1.00  0.00     0.135 A 
ATOM     90  F   UNL A   1      49.259  27.406  23.986  1.00  0.00    -0.206 F 
ATOM     91  C   UNL A   1      51.305  26.407  24.555  1.00  0.00     0.059 A 
ATOM     92  C   UNL A   1      51.698  25.669  26.835  1.00  0.00     0.059 A 
ATOM     93  F   UNL A   1      50.014  25.919  28.446  1.00  0.00    -0.206 F 
ATOM     94  C   UNL A   1      52.126  25.817  25.517  1.00  0.00     0.060 A 
BRANCH  94  95
ATOM     95  S   UNL A   1      53.771  25.261  25.026  1.00  0.00     0.124 S 
ATOM     96  O   UNL A   1      53.973  26.002  23.785  1.00  0.00    -0.237 OA
ATOM     97  O   UNL A   1      54.594  25.680  26.155  1.00  0.00    -0.237 OA
ATOM     98  O   UNL A   1      53.612  23.817  24.876  1.00  0.00    -0.744 OA
ENDBRANCH  94  95
ENDBRANCH  62  87
ENDBRANCH  36  37
ENDBRANCH  28  31
ENDBRANCH  26  27
ENDBRANCH   1  26
TORSDOF 16
ENDMDL
MODEL 3
REMARK VINA RESULT:     -10.2      5.249     11.977
REMARK SMILES C[C@H]1[C@H](C(=O)NCCCNC(=O)c2ccc(-c3c4nc(c(-c5c(F)cc(S(=O)(=O)[O-])cc5F)c5ccc([nH]5)c(-c5c(F)cc(S(=O)(=O)[O-])cc5F)c5nc(c(-c6c(F)cc(S(=O)(=O)[O-])cc6F)c6ccc3[nH]6)C=C5)C=C4)cc2)CC[N@@H+]1Cc1nnnn1-c1ccccc1
REMARK SMILES IDX 8 1 7 2 6 3 4 4 5 5 3 7 1 8 2 9 81 10 79 11 80 12 82 14
REMARK SMILES IDX 83 15 84 16 87 17 85 18 86 19 88 20 89 21 93 22 90 23 92 24
REMARK SMILES IDX 91 25 9 26 10 27 11 28 12 30 13 31 14 32 78 33 15 34 77 35
REMARK SMILES IDX 16 36 17 37 18 38 71 39 19 40 76 41 70 42 72 43 20 44 75 45
REMARK SMILES IDX 69 46 68 47 21 49 55 50 34 51 54 52 35 53 38 54 53 55 73 56
REMARK SMILES IDX 36 57 37 58 52 60 74 61 39 62 22 63 23 64 32 65 24 66 25 67
REMARK SMILES IDX 31 68 33 69 26 70 27 71 28 72 29 73 30 74 56 75 57 76 66 77
REMARK SMILES IDX 58 78 59 79 65 80 67 81 60 82 61 83 62 84 63 85 64 86 40 87
REMARK SMILES IDX 41 88 50 89 42 90 43 91 49 92 51 93 44 94 45 95 46 96 47 97
REMARK SMILES IDX 48 98
REMARK H PARENT 6 6 81 13 10 29 72 48 38 59
REMARK Flexibility Score: inf
ROOT
ATOM      1  C   UNL A   1      39.352  22.013  26.482  1.00  0.00     0.042 C 
ENDROOT
BRANCH   1   2
ATOM      2  C   UNL A   1      38.105  22.286  25.648  1.00  0.00     0.117 C 
BRANCH   2   3
ATOM      3  N   UNL A   1      37.019  22.841  26.419  1.00  0.00    -0.356 N 
ATOM      4  C   UNL A   1      35.691  22.872  26.145  1.00  0.00     0.229 C 
ATOM      5  O   UNL A   1      34.944  23.237  27.059  1.00  0.00    -0.275 OA
ATOM      6  H   UNL A   1      37.281  23.260  27.270  1.00  0.00     0.163 HD
BRANCH   4   7
ATOM      7  C   UNL A   1      35.092  22.435  24.813  1.00  0.00     0.142 C 
ATOM      8  C   UNL A   1      34.095  20.147  24.567  1.00  0.00     0.076 C 
ATOM      9  C   UNL A   1      33.774  21.627  24.832  1.00  0.00     0.194 C 
ATOM     10  N   UNL A   1      32.976  22.131  23.698  1.00  0.00    -0.326 N 
ATOM     11  C   UNL A   1      34.848  23.546  23.801  1.00  0.00     0.081 C 
ATOM     12  C   UNL A   1      33.876  22.881  22.840  1.00  0.00     0.263 C 
ATOM     13  H   UNL A   1      32.612  21.329  23.184  1.00  0.00     0.348 HD
BRANCH  10  14
ATOM     14  C   UNL A   1      31.606  22.635  23.925  1.00  0.00     0.343 C 
BRANCH  14  15
ATOM     15  C   UNL A   1      31.188  23.159  25.269  1.00  0.00     0.210 A 
ATOM     16  N   UNL A   1      30.355  22.573  26.112  1.00  0.00    -0.107 NA
ATOM     17  N   UNL A   1      31.613  24.321  25.889  1.00  0.00    -0.192 N 
ATOM     18  N   UNL A   1      30.457  23.248  27.301  1.00  0.00    -0.023 NA
ATOM     19  N   UNL A   1      31.328  24.238  27.205  1.00  0.00    -0.040 NA
BRANCH  17  20
ATOM     20  C   UNL A   1      32.197  25.473  25.351  1.00  0.00     0.069 A 
ATOM     21  C   UNL A   1      33.232  26.108  26.048  1.00  0.00     0.028 A 
ATOM     22  C   UNL A   1      31.771  25.935  24.103  1.00  0.00     0.028 A 
ATOM     23  C   UNL A   1      33.913  27.156  25.433  1.00  0.00     0.002 A 
ATOM     24  C   UNL A   1      32.421  27.020  23.525  1.00  0.00     0.002 A 
ATOM     25  C   UNL A   1      33.507  27.610  24.176  1.00  0.00     0.000 A 
ENDBRANCH  17  20
ENDBRANCH  14  15
ENDBRANCH  10  14
ENDBRANCH   4   7
ENDBRANCH   2   3
ENDBRANCH   1   2
BRANCH   1  26
ATOM     26  C   UNL A   1      40.035  23.271  26.993  1.00  0.00     0.118 C 
BRANCH  26  27
ATOM     27  N   UNL A   1      40.792  24.010  25.991  1.00  0.00    -0.352 N 
ATOM     28  C   UNL A   1      41.429  25.229  26.052  1.00  0.00     0.251 C 
ATOM     29  H   UNL A   1      40.858  23.559  25.118  1.00  0.00     0.163 HD
ATOM     30  O   UNL A   1      42.008  25.659  25.066  1.00  0.00    -0.269 OA
BRANCH  28  31
ATOM     31  C   UNL A   1      41.368  26.047  27.284  1.00  0.00     0.039 A 
ATOM     32  C   UNL A   1      42.308  27.070  27.447  1.00  0.00     0.014 A 
ATOM     33  C   UNL A   1      40.390  25.843  28.254  1.00  0.00     0.014 A 
ATOM     34  C   UNL A   1      42.213  27.932  28.540  1.00  0.00     0.010 A 
ATOM     35  C   UNL A   1      40.221  26.774  29.269  1.00  0.00     0.010 A 
ATOM     36  C   UNL A   1      41.136  27.821  29.433  1.00  0.00    -0.014 A 
BRANCH  36  37
ATOM     37  C   UNL A   1      40.951  28.775  30.554  1.00  0.00     0.031 A 
ATOM     38  C   UNL A   1      41.799  28.646  31.793  1.00  0.00     0.074 A 
ATOM     39  C   UNL A   1      39.970  29.696  30.491  1.00  0.00     0.049 A 
ATOM     40  N   UNL A   1      41.721  29.303  32.920  1.00  0.00    -0.248 NA
ATOM     41  C   UNL A   1      42.846  27.610  31.777  1.00  0.00     0.031 C 
ATOM     42  C   UNL A   1      39.039  29.869  29.372  1.00  0.00     0.029 A 
ATOM     43  N   UNL A   1      39.580  30.653  31.393  1.00  0.00    -0.354 N 
ATOM     44  C   UNL A   1      42.688  28.746  33.750  1.00  0.00     0.074 A 
ATOM     45  C   UNL A   1      43.289  27.650  33.024  1.00  0.00     0.031 C 
ATOM     46  C   UNL A   1      38.207  30.888  29.642  1.00  0.00     0.029 A 
ATOM     47  C   UNL A   1      38.514  31.411  30.969  1.00  0.00     0.049 A 
ATOM     48  H   UNL A   1      40.022  30.785  32.263  1.00  0.00     0.167 HD
ATOM     49  C   UNL A   1      43.065  29.134  34.990  1.00  0.00     0.037 A 
ATOM     50  C   UNL A   1      37.855  32.412  31.583  1.00  0.00     0.037 A 
ATOM     51  C   UNL A   1      42.483  30.251  35.688  1.00  0.00     0.049 A 
ATOM     52  C   UNL A   1      38.308  32.845  32.950  1.00  0.00     0.074 A 
ATOM     53  C   UNL A   1      42.827  30.770  36.923  1.00  0.00     0.029 A 
ATOM     54  N   UNL A   1      41.437  31.024  35.205  1.00  0.00    -0.354 N 
ATOM     55  N   UNL A   1      39.266  32.346  33.697  1.00  0.00    -0.248 NA
ATOM     56  C   UNL A   1      37.603  33.982  33.554  1.00  0.00     0.031 C 
ATOM     57  C   UNL A   1      41.962  31.832  37.205  1.00  0.00     0.029 A 
ATOM     58  C   UNL A   1      41.112  32.008  36.124  1.00  0.00     0.049 A 
ATOM     59  H   UNL A   1      40.991  30.893  34.337  1.00  0.00     0.167 HD
ATOM     60  C   UNL A   1      39.291  33.121  34.851  1.00  0.00     0.074 A 
ATOM     61  C   UNL A   1      38.266  34.135  34.691  1.00  0.00     0.031 C 
ATOM     62  C   UNL A   1      40.085  33.006  35.944  1.00  0.00     0.037 A 
BRANCH  49  63
ATOM     63  C   UNL A   1      44.166  28.355  35.659  1.00  0.00     0.058 A 
ATOM     64  C   UNL A   1      43.889  27.279  36.522  1.00  0.00     0.135 A 
ATOM     65  C   UNL A   1      45.514  28.672  35.427  1.00  0.00     0.135 A 
ATOM     66  F   UNL A   1      42.619  26.941  36.796  1.00  0.00    -0.206 F 
ATOM     67  C   UNL A   1      44.906  26.575  37.158  1.00  0.00     0.059 A 
ATOM     68  C   UNL A   1      46.549  27.958  36.027  1.00  0.00     0.059 A 
ATOM     69  F   UNL A   1      45.839  29.689  34.613  1.00  0.00    -0.206 F 
ATOM     70  C   UNL A   1      46.233  26.922  36.905  1.00  0.00     0.060 A 
BRANCH  70  71
ATOM     71  S   UNL A   1      47.538  25.995  37.737  1.00  0.00     0.124 S 
ATOM     72  O   UNL A   1      47.977  25.093  36.676  1.00  0.00    -0.237 OA
ATOM     73  O   UNL A   1      48.482  27.045  38.105  1.00  0.00    -0.237 OA
ATOM     74  O   UNL A   1      46.847  25.358  38.853  1.00  0.00    -0.744 OA
ENDBRANCH  70  71
ENDBRANCH  49  63
BRANCH  50  75
ATOM     75  C   UNL A   1      36.718  33.083  30.896  1.00  0.00     0.058 A 
ATOM     76  C   UNL A   1      35.395  32.863  31.305  1.00  0.00     0.135 A 
ATOM     77  C   UNL A   1      36.932  33.979  29.837  1.00  0.00     0.135 A 
ATOM     78  F   UNL A   1      35.136  32.013  32.310  1.00  0.00    -0.206 F 
ATOM     79  C   UNL A   1      34.323  33.494  30.681  1.00  0.00     0.059 A 
ATOM     80  C   UNL A   1      35.880  34.643  29.214  1.00  0.00     0.059 A 
ATOM     81  F   UNL A   1      38.180  34.240  29.419  1.00  0.00    -0.206 F 
ATOM     82  C   UNL A   1      34.576  34.387  29.638  1.00  0.00     0.060 A 
BRANCH  82  83
ATOM     83  S   UNL A   1      33.183  35.244  28.872  1.00  0.00     0.124 S 
ATOM     84  O   UNL A   1      32.377  35.593  30.036  1.00  0.00    -0.237 OA
ATOM     85  O   UNL A   1      33.842  36.356  28.194  1.00  0.00    -0.237 OA
ATOM     86  O   UNL A   1      32.611  34.232  27.988  1.00  0.00    -0.744 OA
ENDBRANCH  82  83
ENDBRANCH  50  75
BRANCH  62  87
ATOM     87  C   UNL A   1      39.895  34.018  37.040  1.00  0.00     0.058 A 
ATOM     88  C   UNL A   1      40.563  35.252  37.029  1.00  0.00     0.135 A 
ATOM     89  C   UNL A   1      39.008  33.760  38.099  1.00  0.00     0.135 A 
ATOM     90  F   UNL A   1      41.425  35.546  36.042  1.00  0.00    -0.206 F 
ATOM     91  C   UNL A   1      40.385  36.182  38.047  1.00  0.00     0.059 A 
ATOM     92  C   UNL A   1      38.791  34.689  39.111  1.00  0.00     0.059 A 
ATOM     93  F   UNL A   1      38.334  32.600  38.150  1.00  0.00    -0.206 F 
ATOM     94  C   UNL A   1      39.498  35.890  39.085  1.00  0.00     0.060 A 
BRANCH  94  95
ATOM     95  S   UNL A   1      39.268  37.110  40.394  1.00  0.00     0.124 S 
ATOM     96  O   UNL A   1      38.593  36.319  41.417  1.00  0.00    -0.237 OA
ATOM     97  O   UNL A   1      40.639  37.505  40.701  1.00  0.00    -0.237 OA
ATOM     98  O   UNL A   1      38.453  38.142  39.758  1.00  0.00    -0.744 OA
ENDBRANCH  94  95
ENDBRANCH  62  87
ENDBRANCH  36  37
ENDBRANCH  28  31
ENDBRANCH  26  27
ENDBRANCH   1  26
TORSDOF 16
ENDMDL
