MODEL 1
REMARK VINA RESULT:      -9.1      0.000      0.000
REMARK SMILES C[C@H](C(=O)NCCCNC(=O)c1ccc(-c2c3nc(c(-c4c(F)cc(S(=O)(=O)[O-])cc4F)c4ccc([nH]4)c(-c4c(F)cc(S(=O)(=O)[O-])cc4F)c4nc(c(-c5c(F)cc(S(=O)(=O)[O-])cc5F)c5ccc2[nH]5)C=C4)C=C3)cc1)[C@H](C)[N@H+](Cc1ccsc1)C1CC1
REMARK SMILES IDX 6 1 5 2 3 3 4 4 2 6 1 7 78 8 79 9 80 10 81 12 82 13 83 14
REMARK SMILES IDX 86 15 84 16 85 17 87 18 88 19 89 20 7 21 8 22 9 23 10 24
REMARK SMILES IDX 11 26 12 27 13 28 77 29 14 30 76 31 15 32 16 33 17 34 70 35
REMARK SMILES IDX 18 36 75 37 69 38 71 39 19 40 74 41 68 42 67 43 20 45 54 46
REMARK SMILES IDX 33 47 53 48 34 49 37 50 52 51 72 52 35 53 36 54 51 56 73 57
REMARK SMILES IDX 38 58 21 59 22 60 31 61 23 62 24 63 30 64 32 65 25 66 26 67
REMARK SMILES IDX 27 68 28 69 29 70 55 71 56 72 65 73 57 74 58 75 64 76 66 77
REMARK SMILES IDX 59 78 60 79 61 80 62 81 63 82 39 83 40 84 49 85 41 86 42 87
REMARK SMILES IDX 48 88 50 89 43 90 44 91 45 92 46 93 47 94
REMARK H PARENT 5 5 80 11 9 25 71 44 37 55
REMARK Flexibility Score: inf
ROOT
ATOM      1  C   UNL A   1      34.670  32.842  30.613  1.00  0.00     0.117 C 
ENDROOT
BRANCH   1   2
ATOM      2  N   UNL A   1      35.200  33.907  31.463  1.00  0.00    -0.356 N 
ATOM      3  C   UNL A   1      36.274  34.264  32.192  1.00  0.00     0.228 C 
ATOM      4  O   UNL A   1      36.012  35.269  32.879  1.00  0.00    -0.275 OA
ATOM      5  H   UNL A   1      34.526  34.621  31.526  1.00  0.00     0.163 HD
BRANCH   3   6
ATOM      6  C   UNL A   1      37.742  33.729  32.171  1.00  0.00     0.133 C 
ATOM      7  C   UNL A   1      38.353  34.287  30.849  1.00  0.00     0.024 C 
BRANCH   6   8
ATOM      8  C   UNL A   1      38.727  33.913  33.427  1.00  0.00     0.193 C 
ATOM      9  C   UNL A   1      40.131  34.395  32.973  1.00  0.00     0.076 C 
BRANCH   8  10
ATOM     10  N   UNL A   1      38.858  32.632  34.252  1.00  0.00    -0.326 N 
ATOM     11  H   UNL A   1      39.815  32.632  34.606  1.00  0.00     0.348 HD
BRANCH  10  12
ATOM     12  C   UNL A   1      38.620  31.477  33.386  1.00  0.00     0.300 C 
BRANCH  12  13
ATOM     13  C   UNL A   1      39.637  30.383  33.455  1.00  0.00     0.017 A 
ATOM     14  C   UNL A   1      39.361  29.066  32.947  1.00  0.00     0.021 A 
ATOM     15  C   UNL A   1      40.960  30.483  33.841  1.00  0.00     0.074 A 
ATOM     16  C   UNL A   1      40.478  28.266  32.898  1.00  0.00     0.065 A 
ATOM     17  S   UNL A   1      41.854  29.059  33.525  1.00  0.00    -0.152 S 
ENDBRANCH  12  13
ENDBRANCH  10  12
BRANCH  10  18
ATOM     18  C   UNL A   1      38.045  32.558  35.514  1.00  0.00     0.184 C 
ATOM     19  C   UNL A   1      38.573  32.576  36.932  1.00  0.00     0.071 C 
ATOM     20  C   UNL A   1      37.970  33.815  36.353  1.00  0.00     0.071 C 
ENDBRANCH  10  18
ENDBRANCH   8  10
ENDBRANCH   6   8
ENDBRANCH   3   6
ENDBRANCH   1   2
BRANCH   1  21
ATOM     21  C   UNL A   1      34.148  33.384  29.284  1.00  0.00     0.042 C 
BRANCH  21  22
ATOM     22  C   UNL A   1      34.557  32.514  28.110  1.00  0.00     0.118 C 
BRANCH  22  23
ATOM     23  N   UNL A   1      33.832  31.257  27.974  1.00  0.00    -0.352 N 
ATOM     24  C   UNL A   1      34.421  30.002  27.957  1.00  0.00     0.251 C 
ATOM     25  H   UNL A   1      32.852  31.303  27.888  1.00  0.00     0.163 HD
ATOM     26  O   UNL A   1      33.792  29.008  27.611  1.00  0.00    -0.269 OA
BRANCH  24  27
ATOM     27  C   UNL A   1      35.853  29.915  28.326  1.00  0.00     0.039 A 
ATOM     28  C   UNL A   1      36.230  29.516  29.609  1.00  0.00     0.014 A 
ATOM     29  C   UNL A   1      36.812  30.090  27.329  1.00  0.00     0.014 A 
ATOM     30  C   UNL A   1      37.572  29.213  29.863  1.00  0.00     0.010 A 
ATOM     31  C   UNL A   1      38.112  29.658  27.547  1.00  0.00     0.010 A 
ATOM     32  C   UNL A   1      38.518  29.240  28.822  1.00  0.00    -0.014 A 
BRANCH  32  33
ATOM     33  C   UNL A   1      39.948  28.897  29.045  1.00  0.00     0.031 A 
ATOM     34  C   UNL A   1      40.867  29.928  29.654  1.00  0.00     0.074 A 
ATOM     35  C   UNL A   1      40.437  27.706  28.640  1.00  0.00     0.049 A 
ATOM     36  N   UNL A   1      42.156  29.870  29.866  1.00  0.00    -0.248 NA
ATOM     37  C   UNL A   1      40.264  31.221  30.025  1.00  0.00     0.031 C 
ATOM     38  C   UNL A   1      39.670  26.659  27.959  1.00  0.00     0.029 A 
ATOM     39  N   UNL A   1      41.698  27.174  28.738  1.00  0.00    -0.354 N 
ATOM     40  C   UNL A   1      42.513  31.121  30.360  1.00  0.00     0.074 A 
ATOM     41  C   UNL A   1      41.328  31.944  30.335  1.00  0.00     0.031 C 
ATOM     42  C   UNL A   1      40.464  25.596  27.744  1.00  0.00     0.029 A 
ATOM     43  C   UNL A   1      41.802  25.895  28.243  1.00  0.00     0.049 A 
ATOM     44  H   UNL A   1      42.458  27.664  29.126  1.00  0.00     0.167 HD
ATOM     45  C   UNL A   1      43.711  31.535  30.839  1.00  0.00     0.037 A 
ATOM     46  C   UNL A   1      42.857  25.055  28.209  1.00  0.00     0.037 A 
ATOM     47  C   UNL A   1      44.866  30.684  30.924  1.00  0.00     0.049 A 
ATOM     48  C   UNL A   1      44.163  25.513  28.805  1.00  0.00     0.074 A 
ATOM     49  C   UNL A   1      46.107  30.967  31.465  1.00  0.00     0.029 A 
ATOM     50  N   UNL A   1      44.913  29.375  30.466  1.00  0.00    -0.354 N 
ATOM     51  N   UNL A   1      44.463  26.673  29.341  1.00  0.00    -0.248 NA
ATOM     52  C   UNL A   1      45.268  24.545  28.809  1.00  0.00     0.031 C 
ATOM     53  C   UNL A   1      46.916  29.837  31.303  1.00  0.00     0.029 A 
ATOM     54  C   UNL A   1      46.165  28.838  30.704  1.00  0.00     0.049 A 
ATOM     55  H   UNL A   1      44.166  28.900  30.036  1.00  0.00     0.167 HD
ATOM     56  C   UNL A   1      45.780  26.565  29.771  1.00  0.00     0.074 A 
ATOM     57  C   UNL A   1      46.215  25.222  29.446  1.00  0.00     0.031 C 
ATOM     58  C   UNL A   1      46.563  27.490  30.381  1.00  0.00     0.037 A 
BRANCH  45  59
ATOM     59  C   UNL A   1      43.812  32.955  31.326  1.00  0.00     0.058 A 
ATOM     60  C   UNL A   1      43.960  34.033  30.437  1.00  0.00     0.135 A 
ATOM     61  C   UNL A   1      43.754  33.247  32.698  1.00  0.00     0.135 A 
ATOM     62  F   UNL A   1      44.041  33.814  29.115  1.00  0.00    -0.206 F 
ATOM     63  C   UNL A   1      44.091  35.342  30.891  1.00  0.00     0.059 A 
ATOM     64  C   UNL A   1      43.849  34.552  33.174  1.00  0.00     0.059 A 
ATOM     65  F   UNL A   1      43.615  32.257  33.595  1.00  0.00    -0.206 F 
ATOM     66  C   UNL A   1      44.036  35.591  32.262  1.00  0.00     0.060 A 
BRANCH  66  67
ATOM     67  S   UNL A   1      44.207  37.294  32.835  1.00  0.00     0.124 S 
ATOM     68  O   UNL A   1      43.002  37.450  33.645  1.00  0.00    -0.237 OA
ATOM     69  O   UNL A   1      45.465  37.251  33.574  1.00  0.00    -0.237 OA
ATOM     70  O   UNL A   1      44.236  38.068  31.598  1.00  0.00    -0.744 OA
ENDBRANCH  66  67
ENDBRANCH  45  59
BRANCH  46  71
ATOM     71  C   UNL A   1      42.708  23.682  27.650  1.00  0.00     0.058 A 
ATOM     72  C   UNL A   1      42.483  22.581  28.493  1.00  0.00     0.135 A 
ATOM     73  C   UNL A   1      42.773  23.439  26.270  1.00  0.00     0.135 A 
ATOM     74  F   UNL A   1      42.417  22.758  29.821  1.00  0.00    -0.206 F 
ATOM     75  C   UNL A   1      42.348  21.290  27.992  1.00  0.00     0.059 A 
ATOM     76  C   UNL A   1      42.615  22.160  25.741  1.00  0.00     0.059 A 
ATOM     77  F   UNL A   1      42.967  24.457  25.417  1.00  0.00    -0.206 F 
ATOM     78  C   UNL A   1      42.413  21.090  26.612  1.00  0.00     0.060 A 
BRANCH  78  79
ATOM     79  S   UNL A   1      42.186  19.417  25.967  1.00  0.00     0.124 S 
ATOM     80  O   UNL A   1      42.662  18.605  27.081  1.00  0.00    -0.237 OA
ATOM     81  O   UNL A   1      40.748  19.378  25.718  1.00  0.00    -0.237 OA
ATOM     82  O   UNL A   1      43.021  19.402  24.771  1.00  0.00    -0.744 OA
ENDBRANCH  78  79
ENDBRANCH  46  71
BRANCH  58  83
ATOM     83  C   UNL A   1      47.952  27.070  30.770  1.00  0.00     0.058 A 
ATOM     84  C   UNL A   1      48.201  26.343  31.943  1.00  0.00     0.135 A 
ATOM     85  C   UNL A   1      49.038  27.354  29.927  1.00  0.00     0.135 A 
ATOM     86  F   UNL A   1      47.195  26.048  32.782  1.00  0.00    -0.206 F 
ATOM     87  C   UNL A   1      49.486  25.936  32.283  1.00  0.00     0.059 A 
ATOM     88  C   UNL A   1      50.328  26.933  30.233  1.00  0.00     0.059 A 
ATOM     89  F   UNL A   1      48.850  28.036  28.785  1.00  0.00    -0.206 F 
ATOM     90  C   UNL A   1      50.543  26.236  31.422  1.00  0.00     0.060 A 
BRANCH  90  91
ATOM     91  S   UNL A   1      52.203  25.681  31.862  1.00  0.00     0.124 S 
ATOM     92  O   UNL A   1      52.507  26.543  32.999  1.00  0.00    -0.237 OA
ATOM     93  O   UNL A   1      51.989  24.272  32.174  1.00  0.00    -0.237 OA
ATOM     94  O   UNL A   1      52.978  25.938  30.653  1.00  0.00    -0.744 OA
ENDBRANCH  90  91
ENDBRANCH  58  83
ENDBRANCH  32  33
ENDBRANCH  24  27
ENDBRANCH  22  23
ENDBRANCH  21  22
ENDBRANCH   1  21
TORSDOF 18
ENDMDL
MODEL 2
REMARK VINA RESULT:      -8.8      4.276      7.246
REMARK SMILES C[C@H](C(=O)NCCCNC(=O)c1ccc(-c2c3nc(c(-c4c(F)cc(S(=O)(=O)[O-])cc4F)c4ccc([nH]4)c(-c4c(F)cc(S(=O)(=O)[O-])cc4F)c4nc(c(-c5c(F)cc(S(=O)(=O)[O-])cc5F)c5ccc2[nH]5)C=C4)C=C3)cc1)[C@H](C)[N@H+](Cc1ccsc1)C1CC1
REMARK SMILES IDX 6 1 5 2 3 3 4 4 2 6 1 7 78 8 79 9 80 10 81 12 82 13 83 14
REMARK SMILES IDX 86 15 84 16 85 17 87 18 88 19 89 20 7 21 8 22 9 23 10 24
REMARK SMILES IDX 11 26 12 27 13 28 77 29 14 30 76 31 15 32 16 33 17 34 70 35
REMARK SMILES IDX 18 36 75 37 69 38 71 39 19 40 74 41 68 42 67 43 20 45 54 46
REMARK SMILES IDX 33 47 53 48 34 49 37 50 52 51 72 52 35 53 36 54 51 56 73 57
REMARK SMILES IDX 38 58 21 59 22 60 31 61 23 62 24 63 30 64 32 65 25 66 26 67
REMARK SMILES IDX 27 68 28 69 29 70 55 71 56 72 65 73 57 74 58 75 64 76 66 77
REMARK SMILES IDX 59 78 60 79 61 80 62 81 63 82 39 83 40 84 49 85 41 86 42 87
REMARK SMILES IDX 48 88 50 89 43 90 44 91 45 92 46 93 47 94
REMARK H PARENT 5 5 80 11 9 25 71 44 37 55
REMARK Flexibility Score: inf
ROOT
ATOM      1  C   UNL A   1      32.003  26.802  26.016  1.00  0.00     0.117 C 
ENDROOT
BRANCH   1   2
ATOM      2  N   UNL A   1      31.479  25.584  26.631  1.00  0.00    -0.356 N 
ATOM      3  C   UNL A   1      31.689  24.258  26.735  1.00  0.00     0.228 C 
ATOM      4  O   UNL A   1      30.715  23.711  27.283  1.00  0.00    -0.275 OA
ATOM      5  H   UNL A   1      30.683  25.818  27.160  1.00  0.00     0.163 HD
BRANCH   3   6
ATOM      6  C   UNL A   1      32.961  23.402  26.432  1.00  0.00     0.133 C 
ATOM      7  C   UNL A   1      33.148  22.503  27.692  1.00  0.00     0.024 C 
BRANCH   6   8
ATOM      8  C   UNL A   1      33.119  22.578  25.062  1.00  0.00     0.193 C 
ATOM      9  C   UNL A   1      33.477  21.093  25.338  1.00  0.00     0.076 C 
BRANCH   8  10
ATOM     10  N   UNL A   1      34.160  23.199  24.129  1.00  0.00    -0.326 N 
ATOM     11  H   UNL A   1      34.479  24.045  24.600  1.00  0.00     0.348 HD
BRANCH  10  12
ATOM     12  C   UNL A   1      33.527  23.519  22.849  1.00  0.00     0.300 C 
BRANCH  12  13
ATOM     13  C   UNL A   1      32.891  24.868  22.749  1.00  0.00     0.017 A 
ATOM     14  C   UNL A   1      33.679  26.064  22.618  1.00  0.00     0.021 A 
ATOM     15  C   UNL A   1      31.546  25.160  22.615  1.00  0.00     0.074 A 
ATOM     16  C   UNL A   1      32.923  27.173  22.321  1.00  0.00     0.065 A 
ATOM     17  S   UNL A   1      31.256  26.808  22.264  1.00  0.00    -0.152 S 
ENDBRANCH  12  13
ENDBRANCH  10  12
BRANCH  10  18
ATOM     18  C   UNL A   1      35.438  22.431  23.941  1.00  0.00     0.184 C 
ATOM     19  C   UNL A   1      36.668  22.894  23.190  1.00  0.00     0.071 C 
ATOM     20  C   UNL A   1      36.655  22.937  24.685  1.00  0.00     0.071 C 
ENDBRANCH  10  18
ENDBRANCH   8  10
ENDBRANCH   6   8
ENDBRANCH   3   6
ENDBRANCH   1   2
BRANCH   1  21
ATOM     21  C   UNL A   1      32.650  27.725  27.047  1.00  0.00     0.042 C 
BRANCH  21  22
ATOM     22  C   UNL A   1      33.799  28.523  26.458  1.00  0.00     0.118 C 
BRANCH  22  23
ATOM     23  N   UNL A   1      33.692  29.970  26.585  1.00  0.00    -0.352 N 
ATOM     24  C   UNL A   1      34.540  30.764  27.343  1.00  0.00     0.251 C 
ATOM     25  H   UNL A   1      32.963  30.418  26.097  1.00  0.00     0.163 HD
ATOM     26  O   UNL A   1      34.265  31.931  27.595  1.00  0.00    -0.269 OA
BRANCH  24  27
ATOM     27  C   UNL A   1      35.768  30.132  27.878  1.00  0.00     0.039 A 
ATOM     28  C   UNL A   1      36.965  30.194  27.162  1.00  0.00     0.014 A 
ATOM     29  C   UNL A   1      35.744  29.610  29.171  1.00  0.00     0.014 A 
ATOM     30  C   UNL A   1      38.154  29.804  27.787  1.00  0.00     0.010 A 
ATOM     31  C   UNL A   1      36.938  29.356  29.829  1.00  0.00     0.010 A 
ATOM     32  C   UNL A   1      38.157  29.422  29.140  1.00  0.00    -0.014 A 
BRANCH  32  33
ATOM     33  C   UNL A   1      39.405  29.029  29.848  1.00  0.00     0.031 A 
ATOM     34  C   UNL A   1      39.789  29.748  31.118  1.00  0.00     0.074 A 
ATOM     35  C   UNL A   1      40.223  28.092  29.323  1.00  0.00     0.049 A 
ATOM     36  N   UNL A   1      40.864  29.620  31.852  1.00  0.00    -0.248 NA
ATOM     37  C   UNL A   1      38.865  30.791  31.599  1.00  0.00     0.031 C 
ATOM     38  C   UNL A   1      40.006  27.387  28.057  1.00  0.00     0.029 A 
ATOM     39  N   UNL A   1      41.405  27.573  29.788  1.00  0.00    -0.354 N 
ATOM     40  C   UNL A   1      40.755  30.583  32.851  1.00  0.00     0.074 A 
ATOM     41  C   UNL A   1      39.558  31.343  32.581  1.00  0.00     0.031 C 
ATOM     42  C   UNL A   1      40.996  26.497  27.870  1.00  0.00     0.029 A 
ATOM     43  C   UNL A   1      41.933  26.587  28.986  1.00  0.00     0.049 A 
ATOM     44  H   UNL A   1      41.836  27.877  30.618  1.00  0.00     0.167 HD
ATOM     45  C   UNL A   1      41.553  30.787  33.926  1.00  0.00     0.037 A 
ATOM     46  C   UNL A   1      43.040  25.833  29.143  1.00  0.00     0.037 A 
ATOM     47  C   UNL A   1      42.703  29.978  34.222  1.00  0.00     0.049 A 
ATOM     48  C   UNL A   1      43.879  26.032  30.378  1.00  0.00     0.074 A 
ATOM     49  C   UNL A   1      43.538  30.037  35.323  1.00  0.00     0.029 A 
ATOM     50  N   UNL A   1      43.169  28.950  33.415  1.00  0.00    -0.354 N 
ATOM     51  N   UNL A   1      43.717  26.894  31.354  1.00  0.00    -0.248 NA
ATOM     52  C   UNL A   1      45.039  25.146  30.544  1.00  0.00     0.031 C 
ATOM     53  C   UNL A   1      44.531  29.064  35.164  1.00  0.00     0.029 A 
ATOM     54  C   UNL A   1      44.287  28.370  33.989  1.00  0.00     0.049 A 
ATOM     55  H   UNL A   1      42.765  28.674  32.561  1.00  0.00     0.167 HD
ATOM     56  C   UNL A   1      44.736  26.637  32.264  1.00  0.00     0.074 A 
ATOM     57  C   UNL A   1      45.501  25.528  31.728  1.00  0.00     0.031 C 
ATOM     58  C   UNL A   1      45.018  27.258  33.436  1.00  0.00     0.037 A 
BRANCH  45  59
ATOM     59  C   UNL A   1      41.186  31.906  34.863  1.00  0.00     0.058 A 
ATOM     60  C   UNL A   1      41.750  33.188  34.739  1.00  0.00     0.135 A 
ATOM     61  C   UNL A   1      40.256  31.701  35.894  1.00  0.00     0.135 A 
ATOM     62  F   UNL A   1      42.659  33.438  33.784  1.00  0.00    -0.206 F 
ATOM     63  C   UNL A   1      41.438  34.211  35.628  1.00  0.00     0.059 A 
ATOM     64  C   UNL A   1      39.904  32.720  36.776  1.00  0.00     0.059 A 
ATOM     65  F   UNL A   1      39.686  30.497  36.062  1.00  0.00    -0.206 F 
ATOM     66  C   UNL A   1      40.515  33.967  36.645  1.00  0.00     0.060 A 
BRANCH  66  67
ATOM     67  S   UNL A   1      40.122  35.306  37.791  1.00  0.00     0.124 S 
ATOM     68  O   UNL A   1      39.934  36.426  36.874  1.00  0.00    -0.237 OA
ATOM     69  O   UNL A   1      38.913  34.813  38.444  1.00  0.00    -0.237 OA
ATOM     70  O   UNL A   1      41.304  35.383  38.642  1.00  0.00    -0.744 OA
ENDBRANCH  66  67
ENDBRANCH  45  59
BRANCH  46  71
ATOM     71  C   UNL A   1      43.384  24.784  28.142  1.00  0.00     0.058 A 
ATOM     72  C   UNL A   1      44.234  25.070  27.061  1.00  0.00     0.135 A 
ATOM     73  C   UNL A   1      42.886  23.477  28.247  1.00  0.00     0.135 A 
ATOM     74  F   UNL A   1      44.733  26.307  26.911  1.00  0.00    -0.206 F 
ATOM     75  C   UNL A   1      44.562  24.107  26.112  1.00  0.00     0.059 A 
ATOM     76  C   UNL A   1      43.221  22.488  27.325  1.00  0.00     0.059 A 
ATOM     77  F   UNL A   1      42.085  23.143  29.271  1.00  0.00    -0.206 F 
ATOM     78  C   UNL A   1      44.051  22.816  26.255  1.00  0.00     0.060 A 
BRANCH  78  79
ATOM     79  S   UNL A   1      44.524  21.559  25.045  1.00  0.00     0.124 S 
ATOM     80  O   UNL A   1      45.909  21.297  25.419  1.00  0.00    -0.237 OA
ATOM     81  O   UNL A   1      43.572  20.488  25.328  1.00  0.00    -0.237 OA
ATOM     82  O   UNL A   1      44.332  22.235  23.766  1.00  0.00    -0.744 OA
ENDBRANCH  78  79
ENDBRANCH  46  71
BRANCH  58  83
ATOM     83  C   UNL A   1      46.174  26.729  34.236  1.00  0.00     0.058 A 
ATOM     84  C   UNL A   1      46.013  25.696  35.173  1.00  0.00     0.135 A 
ATOM     85  C   UNL A   1      47.469  27.227  34.021  1.00  0.00     0.135 A 
ATOM     86  F   UNL A   1      44.794  25.188  35.414  1.00  0.00    -0.206 F 
ATOM     87  C   UNL A   1      47.092  25.196  35.891  1.00  0.00     0.059 A 
ATOM     88  C   UNL A   1      48.568  26.721  34.708  1.00  0.00     0.059 A 
ATOM     89  F   UNL A   1      47.678  28.205  33.125  1.00  0.00    -0.206 F 
ATOM     90  C   UNL A   1      48.366  25.714  35.651  1.00  0.00     0.060 A 
BRANCH  90  91
ATOM     91  S   UNL A   1      49.764  25.039  36.572  1.00  0.00     0.124 S 
ATOM     92  O   UNL A   1      49.396  23.630  36.670  1.00  0.00    -0.237 OA
ATOM     93  O   UNL A   1      50.891  25.340  35.694  1.00  0.00    -0.237 OA
ATOM     94  O   UNL A   1      49.737  25.785  37.825  1.00  0.00    -0.744 OA
ENDBRANCH  90  91
ENDBRANCH  58  83
ENDBRANCH  32  33
ENDBRANCH  24  27
ENDBRANCH  22  23
ENDBRANCH  21  22
ENDBRANCH   1  21
TORSDOF 18
ENDMDL
MODEL 3
REMARK VINA RESULT:      -8.7      5.402     12.368
REMARK SMILES C[C@H](C(=O)NCCCNC(=O)c1ccc(-c2c3nc(c(-c4c(F)cc(S(=O)(=O)[O-])cc4F)c4ccc([nH]4)c(-c4c(F)cc(S(=O)(=O)[O-])cc4F)c4nc(c(-c5c(F)cc(S(=O)(=O)[O-])cc5F)c5ccc2[nH]5)C=C4)C=C3)cc1)[C@H](C)[N@H+](Cc1ccsc1)C1CC1
REMARK SMILES IDX 6 1 5 2 3 3 4 4 2 6 1 7 78 8 79 9 80 10 81 12 82 13 83 14
REMARK SMILES IDX 86 15 84 16 85 17 87 18 88 19 89 20 7 21 8 22 9 23 10 24
REMARK SMILES IDX 11 26 12 27 13 28 77 29 14 30 76 31 15 32 16 33 17 34 70 35
REMARK SMILES IDX 18 36 75 37 69 38 71 39 19 40 74 41 68 42 67 43 20 45 54 46
REMARK SMILES IDX 33 47 53 48 34 49 37 50 52 51 72 52 35 53 36 54 51 56 73 57
REMARK SMILES IDX 38 58 21 59 22 60 31 61 23 62 24 63 30 64 32 65 25 66 26 67
REMARK SMILES IDX 27 68 28 69 29 70 55 71 56 72 65 73 57 74 58 75 64 76 66 77
REMARK SMILES IDX 59 78 60 79 61 80 62 81 63 82 39 83 40 84 49 85 41 86 42 87
REMARK SMILES IDX 48 88 50 89 43 90 44 91 45 92 46 93 47 94
REMARK H PARENT 5 5 80 11 9 25 71 44 37 55
REMARK Flexibility Score: inf
ROOT
ATOM      1  C   UNL A   1      38.130  23.285  26.397  1.00  0.00     0.117 C 
ENDROOT
BRANCH   1   2
ATOM      2  N   UNL A   1      37.066  22.301  26.209  1.00  0.00    -0.356 N 
ATOM      3  C   UNL A   1      35.938  22.058  25.515  1.00  0.00     0.228 C 
ATOM      4  O   UNL A   1      35.352  21.064  25.982  1.00  0.00    -0.275 OA
ATOM      5  H   UNL A   1      37.237  21.538  26.808  1.00  0.00     0.163 HD
BRANCH   3   6
ATOM      6  C   UNL A   1      35.391  22.706  24.203  1.00  0.00     0.133 C 
ATOM      7  C   UNL A   1      36.629  22.811  23.261  1.00  0.00     0.024 C 
BRANCH   6   8
ATOM      8  C   UNL A   1      34.096  22.127  23.450  1.00  0.00     0.193 C 
ATOM      9  C   UNL A   1      33.447  23.204  22.539  1.00  0.00     0.076 C 
BRANCH   8  10
ATOM     10  N   UNL A   1      33.055  21.578  24.428  1.00  0.00    -0.326 N 
ATOM     11  H   UNL A   1      33.570  21.356  25.279  1.00  0.00     0.348 HD
BRANCH  10  12
ATOM     12  C   UNL A   1      32.445  20.378  23.856  1.00  0.00     0.300 C 
BRANCH  12  13
ATOM     13  C   UNL A   1      32.956  19.071  24.373  1.00  0.00     0.017 A 
ATOM     14  C   UNL A   1      32.381  18.444  25.533  1.00  0.00     0.021 A 
ATOM     15  C   UNL A   1      33.883  18.233  23.782  1.00  0.00     0.074 A 
ATOM     16  C   UNL A   1      32.828  17.158  25.724  1.00  0.00     0.065 A 
ATOM     17  S   UNL A   1      33.993  16.712  24.558  1.00  0.00    -0.152 S 
ENDBRANCH  12  13
ENDBRANCH  10  12
BRANCH  10  18
ATOM     18  C   UNL A   1      32.017  22.548  24.920  1.00  0.00     0.184 C 
ATOM     19  C   UNL A   1      31.293  22.500  26.249  1.00  0.00     0.071 C 
ATOM     20  C   UNL A   1      32.421  23.462  26.056  1.00  0.00     0.071 C 
ENDBRANCH  10  18
ENDBRANCH   8  10
ENDBRANCH   6   8
ENDBRANCH   3   6
ENDBRANCH   1   2
BRANCH   1  21
ATOM     21  C   UNL A   1      39.505  22.626  26.487  1.00  0.00     0.042 C 
BRANCH  21  22
ATOM     22  C   UNL A   1      40.560  23.573  27.029  1.00  0.00     0.118 C 
BRANCH  22  23
ATOM     23  N   UNL A   1      41.495  24.104  26.046  1.00  0.00    -0.352 N 
ATOM     24  C   UNL A   1      41.799  25.447  25.886  1.00  0.00     0.251 C 
ATOM     25  H   UNL A   1      41.945  23.460  25.451  1.00  0.00     0.163 HD
ATOM     26  O   UNL A   1      42.409  25.850  24.902  1.00  0.00    -0.269 OA
BRANCH  24  27
ATOM     27  C   UNL A   1      41.315  26.384  26.926  1.00  0.00     0.039 A 
ATOM     28  C   UNL A   1      40.429  25.949  27.913  1.00  0.00     0.014 A 
ATOM     29  C   UNL A   1      41.875  27.659  26.992  1.00  0.00     0.014 A 
ATOM     30  C   UNL A   1      40.173  26.775  29.013  1.00  0.00     0.010 A 
ATOM     31  C   UNL A   1      41.727  28.413  28.146  1.00  0.00     0.010 A 
ATOM     32  C   UNL A   1      40.853  27.997  29.160  1.00  0.00    -0.014 A 
BRANCH  32  33
ATOM     33  C   UNL A   1      40.631  28.889  30.329  1.00  0.00     0.031 A 
ATOM     34  C   UNL A   1      41.485  28.715  31.562  1.00  0.00     0.074 A 
ATOM     35  C   UNL A   1      39.630  29.794  30.318  1.00  0.00     0.049 A 
ATOM     36  N   UNL A   1      41.414  29.328  32.715  1.00  0.00    -0.248 NA
ATOM     37  C   UNL A   1      42.525  27.672  31.509  1.00  0.00     0.031 C 
ATOM     38  C   UNL A   1      38.681  30.000  29.221  1.00  0.00     0.029 A 
ATOM     39  N   UNL A   1      39.241  30.712  31.262  1.00  0.00    -0.354 N 
ATOM     40  C   UNL A   1      42.371  28.723  33.523  1.00  0.00     0.074 A 
ATOM     41  C   UNL A   1      42.949  27.640  32.762  1.00  0.00     0.031 C 
ATOM     42  C   UNL A   1      37.851  31.009  29.535  1.00  0.00     0.029 A 
ATOM     43  C   UNL A   1      38.188  31.504  30.866  1.00  0.00     0.049 A 
ATOM     44  H   UNL A   1      39.675  30.795  32.141  1.00  0.00     0.167 HD
ATOM     45  C   UNL A   1      42.770  29.066  34.771  1.00  0.00     0.037 A 
ATOM     46  C   UNL A   1      37.575  32.523  31.502  1.00  0.00     0.037 A 
ATOM     47  C   UNL A   1      42.237  30.190  35.491  1.00  0.00     0.049 A 
ATOM     48  C   UNL A   1      38.077  32.931  32.862  1.00  0.00     0.074 A 
ATOM     49  C   UNL A   1      42.620  30.683  36.724  1.00  0.00     0.029 A 
ATOM     50  N   UNL A   1      41.212  31.004  35.029  1.00  0.00    -0.354 N 
ATOM     51  N   UNL A   1      39.037  32.398  33.580  1.00  0.00    -0.248 NA
ATOM     52  C   UNL A   1      37.426  34.088  33.493  1.00  0.00     0.031 C 
ATOM     53  C   UNL A   1      41.801  31.778  37.025  1.00  0.00     0.029 A 
ATOM     54  C   UNL A   1      40.942  31.993  35.958  1.00  0.00     0.049 A 
ATOM     55  H   UNL A   1      40.746  30.893  34.169  1.00  0.00     0.167 HD
ATOM     56  C   UNL A   1      39.126  33.170  34.733  1.00  0.00     0.074 A 
ATOM     57  C   UNL A   1      38.131  34.216  34.610  1.00  0.00     0.031 C 
ATOM     58  C   UNL A   1      39.953  33.030  35.799  1.00  0.00     0.037 A 
BRANCH  45  59
ATOM     59  C   UNL A   1      43.848  28.233  35.411  1.00  0.00     0.058 A 
ATOM     60  C   UNL A   1      43.545  27.082  36.159  1.00  0.00     0.135 A 
ATOM     61  C   UNL A   1      45.200  28.583  35.273  1.00  0.00     0.135 A 
ATOM     62  F   UNL A   1      42.269  26.709  36.341  1.00  0.00    -0.206 F 
ATOM     63  C   UNL A   1      44.540  26.334  36.781  1.00  0.00     0.059 A 
ATOM     64  C   UNL A   1      46.215  27.830  35.859  1.00  0.00     0.059 A 
ATOM     65  F   UNL A   1      45.549  29.673  34.571  1.00  0.00    -0.206 F 
ATOM     66  C   UNL A   1      45.872  26.717  36.627  1.00  0.00     0.060 A 
BRANCH  66  67
ATOM     67  S   UNL A   1      47.150  25.736  37.441  1.00  0.00     0.124 S 
ATOM     68  O   UNL A   1      47.663  26.685  38.424  1.00  0.00    -0.237 OA
ATOM     69  O   UNL A   1      46.386  24.615  37.981  1.00  0.00    -0.237 OA
ATOM     70  O   UNL A   1      48.065  25.401  36.355  1.00  0.00    -0.744 OA
ENDBRANCH  66  67
ENDBRANCH  45  59
BRANCH  46  71
ATOM     71  C   UNL A   1      36.467  33.267  30.838  1.00  0.00     0.058 A 
ATOM     72  C   UNL A   1      35.139  33.116  31.268  1.00  0.00     0.135 A 
ATOM     73  C   UNL A   1      36.708  34.148  29.773  1.00  0.00     0.135 A 
ATOM     74  F   UNL A   1      34.854  32.282  32.279  1.00  0.00    -0.206 F 
ATOM     75  C   UNL A   1      34.089  33.796  30.658  1.00  0.00     0.059 A 
ATOM     76  C   UNL A   1      35.678  34.860  29.162  1.00  0.00     0.059 A 
ATOM     77  F   UNL A   1      37.961  34.345  29.334  1.00  0.00    -0.206 F 
ATOM     78  C   UNL A   1      34.370  34.669  29.605  1.00  0.00     0.060 A 
BRANCH  78  79
ATOM     79  S   UNL A   1      33.006  35.585  28.852  1.00  0.00     0.124 S 
ATOM     80  O   UNL A   1      33.721  36.601  28.088  1.00  0.00    -0.237 OA
ATOM     81  O   UNL A   1      32.336  34.549  28.071  1.00  0.00    -0.237 OA
ATOM     82  O   UNL A   1      32.255  36.073  30.004  1.00  0.00    -0.744 OA
ENDBRANCH  78  79
ENDBRANCH  46  71
BRANCH  58  83
ATOM     83  C   UNL A   1      39.845  34.052  36.894  1.00  0.00     0.058 A 
ATOM     84  C   UNL A   1      40.447  35.315  36.787  1.00  0.00     0.135 A 
ATOM     85  C   UNL A   1      39.083  33.780  38.042  1.00  0.00     0.135 A 
ATOM     86  F   UNL A   1      41.188  35.621  35.710  1.00  0.00    -0.206 F 
ATOM     87  C   UNL A   1      40.322  36.264  37.795  1.00  0.00     0.059 A 
ATOM     88  C   UNL A   1      38.920  34.725  39.049  1.00  0.00     0.059 A 
ATOM     89  F   UNL A   1      38.475  32.591  38.185  1.00  0.00    -0.206 F 
ATOM     90  C   UNL A   1      39.556  35.960  38.922  1.00  0.00     0.060 A 
BRANCH  90  91
ATOM     91  S   UNL A   1      39.379  37.210  40.212  1.00  0.00     0.124 S 
ATOM     92  O   UNL A   1      38.714  38.286  39.487  1.00  0.00    -0.237 OA
ATOM     93  O   UNL A   1      38.566  36.518  41.207  1.00  0.00    -0.237 OA
ATOM     94  O   UNL A   1      40.756  37.480  40.614  1.00  0.00    -0.744 OA
ENDBRANCH  90  91
ENDBRANCH  58  83
ENDBRANCH  32  33
ENDBRANCH  24  27
ENDBRANCH  22  23
ENDBRANCH  21  22
ENDBRANCH   1  21
TORSDOF 18
ENDMDL
