MODEL 1
REMARK VINA RESULT:     -11.9      0.000      0.000
REMARK SMILES O=C(CNc1ccccc1C(=O)N1CCCC1)NCCCNC(=O)c1ccc(-c2c3nc(c(-c4c(F)cc(S(=O)(=O)[O-])cc4F)c4ccc([nH]4)c(-c4c(F)cc(S(=O)(=O)[O-])cc4F)c4nc(c(-c5c(F)cc(S(=O)(=O)[O-])cc5F)c5ccc2[nH]5)C=C4)C=C3)cc1
REMARK SMILES IDX 20 1 19 2 18 3 1 4 2 5 3 7 4 8 5 10 6 11 10 12 7 13 9 14
REMARK SMILES IDX 8 15 11 16 12 17 13 18 14 19 17 20 15 21 16 22 21 23 22 24
REMARK SMILES IDX 23 25 24 27 25 28 26 29 90 30 27 31 89 32 28 33 29 34 30 35
REMARK SMILES IDX 83 36 31 37 88 38 82 39 84 40 32 41 87 42 81 43 80 44 33 46
REMARK SMILES IDX 67 47 46 48 66 49 47 50 50 51 65 52 85 53 48 54 49 55 64 57
REMARK SMILES IDX 86 58 51 59 34 60 35 61 44 62 36 63 37 64 43 65 45 66 38 67
REMARK SMILES IDX 39 68 40 69 41 70 42 71 68 72 69 73 78 74 70 75 71 76 77 77
REMARK SMILES IDX 79 78 72 79 73 80 74 81 75 82 76 83 52 84 53 85 62 86 54 87
REMARK SMILES IDX 55 88 61 89 63 90 56 91 57 92 58 93 59 94 60 95
REMARK H PARENT 18 6 4 9 22 26 84 45 50 56
REMARK Flexibility Score: inf
ROOT
ATOM      1  C   UNL A   1      40.079  22.283  27.001  1.00  0.00     0.042 C 
ENDROOT
BRANCH   1   2
ATOM      2  C   UNL A   1      38.938  23.027  26.303  1.00  0.00     0.117 C 
BRANCH   2   3
ATOM      3  N   UNL A   1      38.234  22.140  25.405  1.00  0.00    -0.355 N 
ATOM      4  O   UNL A   1      36.132  22.577  26.227  1.00  0.00    -0.273 OA
ATOM      5  C   UNL A   1      36.900  21.852  25.602  1.00  0.00     0.239 C 
ATOM      6  H   UNL A   1      38.711  21.738  24.643  1.00  0.00     0.163 HD
BRANCH   5   7
ATOM      7  C   UNL A   1      36.503  20.496  25.033  1.00  0.00     0.213 C 
BRANCH   7   8
ATOM      8  N   UNL A   1      35.181  20.087  25.500  1.00  0.00    -0.376 N 
ATOM      9  H   UNL A   1      34.875  20.303  26.411  1.00  0.00     0.161 HD
BRANCH   8  10
ATOM     10  C   UNL A   1      34.369  19.380  24.612  1.00  0.00     0.047 A 
ATOM     11  C   UNL A   1      34.806  18.086  24.267  1.00  0.00     0.026 A 
ATOM     12  C   UNL A   1      33.083  19.782  24.177  1.00  0.00     0.063 A 
ATOM     13  C   UNL A   1      33.989  17.194  23.567  1.00  0.00     0.002 A 
ATOM     14  C   UNL A   1      32.274  18.876  23.463  1.00  0.00     0.016 A 
ATOM     15  C   UNL A   1      32.719  17.587  23.170  1.00  0.00     0.001 A 
BRANCH  12  16
ATOM     16  C   UNL A   1      32.418  21.061  24.559  1.00  0.00     0.255 C 
ATOM     17  O   UNL A   1      31.506  20.992  25.387  1.00  0.00    -0.269 OA
ATOM     18  N   UNL A   1      32.844  22.279  24.064  1.00  0.00    -0.339 N 
ATOM     19  C   UNL A   1      33.651  22.580  22.900  1.00  0.00     0.120 C 
ATOM     20  C   UNL A   1      32.539  23.503  24.777  1.00  0.00     0.120 C 
ATOM     21  C   UNL A   1      34.497  23.766  23.340  1.00  0.00     0.023 C 
ATOM     22  C   UNL A   1      33.718  24.424  24.484  1.00  0.00     0.023 C 
ENDBRANCH  12  16
ENDBRANCH   8  10
ENDBRANCH   7   8
ENDBRANCH   5   7
ENDBRANCH   2   3
ENDBRANCH   1   2
BRANCH   1  23
ATOM     23  C   UNL A   1      41.333  23.133  27.222  1.00  0.00     0.118 C 
BRANCH  23  24
ATOM     24  N   UNL A   1      41.612  24.025  26.103  1.00  0.00    -0.352 N 
ATOM     25  C   UNL A   1      41.629  25.394  26.053  1.00  0.00     0.251 C 
ATOM     26  H   UNL A   1      41.819  23.574  25.253  1.00  0.00     0.163 HD
ATOM     27  O   UNL A   1      41.698  25.963  24.967  1.00  0.00    -0.269 OA
BRANCH  25  28
ATOM     28  C   UNL A   1      41.536  26.172  27.301  1.00  0.00     0.039 A 
ATOM     29  C   UNL A   1      42.573  27.048  27.626  1.00  0.00     0.014 A 
ATOM     30  C   UNL A   1      40.420  26.048  28.134  1.00  0.00     0.014 A 
ATOM     31  C   UNL A   1      42.456  27.859  28.755  1.00  0.00     0.010 A 
ATOM     32  C   UNL A   1      40.276  26.905  29.220  1.00  0.00     0.010 A 
ATOM     33  C   UNL A   1      41.288  27.825  29.535  1.00  0.00    -0.014 A 
BRANCH  33  34
ATOM     34  C   UNL A   1      41.092  28.764  30.666  1.00  0.00     0.031 A 
ATOM     35  C   UNL A   1      41.916  28.627  31.915  1.00  0.00     0.074 A 
ATOM     36  C   UNL A   1      40.117  29.691  30.591  1.00  0.00     0.049 A 
ATOM     37  N   UNL A   1      41.831  29.294  33.036  1.00  0.00    -0.248 NA
ATOM     38  C   UNL A   1      42.958  27.587  31.912  1.00  0.00     0.031 C 
ATOM     39  C   UNL A   1      39.223  29.887  29.447  1.00  0.00     0.029 A 
ATOM     40  N   UNL A   1      39.702  30.632  31.499  1.00  0.00    -0.354 N 
ATOM     41  C   UNL A   1      42.794  28.749  33.876  1.00  0.00     0.074 A 
ATOM     42  C   UNL A   1      43.421  27.664  33.151  1.00  0.00     0.031 C 
ATOM     43  C   UNL A   1      38.377  30.895  29.717  1.00  0.00     0.029 A 
ATOM     44  C   UNL A   1      38.638  31.388  31.064  1.00  0.00     0.049 A 
ATOM     45  H   UNL A   1      40.126  30.754  32.379  1.00  0.00     0.167 HD
ATOM     46  C   UNL A   1      43.139  29.133  35.128  1.00  0.00     0.037 A 
ATOM     47  C   UNL A   1      37.942  32.358  31.688  1.00  0.00     0.037 A 
ATOM     48  C   UNL A   1      42.519  30.225  35.834  1.00  0.00     0.049 A 
ATOM     49  C   UNL A   1      38.333  32.754  33.085  1.00  0.00     0.074 A 
ATOM     50  C   UNL A   1      42.836  30.732  37.082  1.00  0.00     0.029 A 
ATOM     51  N   UNL A   1      41.454  30.975  35.357  1.00  0.00    -0.354 N 
ATOM     52  N   UNL A   1      39.292  32.273  33.840  1.00  0.00    -0.248 NA
ATOM     53  C   UNL A   1      37.549  33.825  33.715  1.00  0.00     0.031 C 
ATOM     54  C   UNL A   1      41.932  31.757  37.380  1.00  0.00     0.029 A 
ATOM     55  C   UNL A   1      41.083  31.922  36.296  1.00  0.00     0.049 A 
ATOM     56  H   UNL A   1      41.024  30.851  34.480  1.00  0.00     0.167 HD
ATOM     57  C   UNL A   1      39.240  32.996  35.027  1.00  0.00     0.074 A 
ATOM     58  C   UNL A   1      38.166  33.958  34.882  1.00  0.00     0.031 C 
ATOM     59  C   UNL A   1      40.010  32.873  36.136  1.00  0.00     0.037 A 
BRANCH  46  60
ATOM     60  C   UNL A   1      44.234  28.365  35.816  1.00  0.00     0.058 A 
ATOM     61  C   UNL A   1      45.586  28.710  35.657  1.00  0.00     0.135 A 
ATOM     62  C   UNL A   1      43.929  27.295  36.672  1.00  0.00     0.135 A 
ATOM     63  F   UNL A   1      45.936  29.714  34.838  1.00  0.00    -0.206 F 
ATOM     64  C   UNL A   1      46.598  28.003  36.297  1.00  0.00     0.059 A 
ATOM     65  C   UNL A   1      44.923  26.591  37.346  1.00  0.00     0.059 A 
ATOM     66  F   UNL A   1      42.654  26.922  36.861  1.00  0.00    -0.206 F 
ATOM     67  C   UNL A   1      46.257  26.944  37.141  1.00  0.00     0.060 A 
BRANCH  67  68
ATOM     68  S   UNL A   1      47.582  26.041  37.968  1.00  0.00     0.124 S 
ATOM     69  O   UNL A   1      48.042  25.156  36.901  1.00  0.00    -0.237 OA
ATOM     70  O   UNL A   1      48.501  27.110  38.344  1.00  0.00    -0.237 OA
ATOM     71  O   UNL A   1      46.903  25.381  39.080  1.00  0.00    -0.744 OA
ENDBRANCH  67  68
ENDBRANCH  46  60
BRANCH  47  72
ATOM     72  C   UNL A   1      36.811  33.025  30.990  1.00  0.00     0.058 A 
ATOM     73  C   UNL A   1      37.045  33.994  30.002  1.00  0.00     0.135 A 
ATOM     74  C   UNL A   1      35.477  32.701  31.284  1.00  0.00     0.135 A 
ATOM     75  F   UNL A   1      38.302  34.343  29.691  1.00  0.00    -0.206 F 
ATOM     76  C   UNL A   1      35.998  34.627  29.341  1.00  0.00     0.059 A 
ATOM     77  C   UNL A   1      34.414  33.302  30.618  1.00  0.00     0.059 A 
ATOM     78  F   UNL A   1      35.200  31.769  32.209  1.00  0.00    -0.206 F 
ATOM     79  C   UNL A   1      34.686  34.272  29.654  1.00  0.00     0.060 A 
BRANCH  79  80
ATOM     80  S   UNL A   1      33.336  35.066  28.753  1.00  0.00     0.124 S 
ATOM     81  O   UNL A   1      32.800  33.949  27.983  1.00  0.00    -0.237 OA
ATOM     82  O   UNL A   1      32.492  35.559  29.836  1.00  0.00    -0.237 OA
ATOM     83  O   UNL A   1      34.014  36.101  27.978  1.00  0.00    -0.744 OA
ENDBRANCH  79  80
ENDBRANCH  47  72
BRANCH  59  84
ATOM     84  C   UNL A   1      39.732  33.813  37.276  1.00  0.00     0.058 A 
ATOM     85  C   UNL A   1      38.871  33.461  38.327  1.00  0.00     0.135 A 
ATOM     86  C   UNL A   1      40.375  35.060  37.344  1.00  0.00     0.135 A 
ATOM     87  F   UNL A   1      38.225  32.284  38.306  1.00  0.00    -0.206 F 
ATOM     88  C   UNL A   1      38.640  34.322  39.395  1.00  0.00     0.059 A 
ATOM     89  C   UNL A   1      40.180  35.925  38.416  1.00  0.00     0.059 A 
ATOM     90  F   UNL A   1      41.216  35.441  36.369  1.00  0.00    -0.206 F 
ATOM     91  C   UNL A   1      39.301  35.550  39.432  1.00  0.00     0.060 A 
BRANCH  91  92
ATOM     92  S   UNL A   1      39.021  36.642  40.842  1.00  0.00     0.124 S 
ATOM     93  O   UNL A   1      38.047  35.880  41.616  1.00  0.00    -0.237 OA
ATOM     94  O   UNL A   1      40.355  36.744  41.429  1.00  0.00    -0.237 OA
ATOM     95  O   UNL A   1      38.518  37.868  40.229  1.00  0.00    -0.744 OA
ENDBRANCH  91  92
ENDBRANCH  59  84
ENDBRANCH  33  34
ENDBRANCH  25  28
ENDBRANCH  23  24
ENDBRANCH   1  23
TORSDOF 16
ENDMDL
MODEL 2
REMARK VINA RESULT:     -11.9      3.459      5.107
REMARK SMILES O=C(CNc1ccccc1C(=O)N1CCCC1)NCCCNC(=O)c1ccc(-c2c3nc(c(-c4c(F)cc(S(=O)(=O)[O-])cc4F)c4ccc([nH]4)c(-c4c(F)cc(S(=O)(=O)[O-])cc4F)c4nc(c(-c5c(F)cc(S(=O)(=O)[O-])cc5F)c5ccc2[nH]5)C=C4)C=C3)cc1
REMARK SMILES IDX 20 1 19 2 18 3 1 4 2 5 3 7 4 8 5 10 6 11 10 12 7 13 9 14
REMARK SMILES IDX 8 15 11 16 12 17 13 18 14 19 17 20 15 21 16 22 21 23 22 24
REMARK SMILES IDX 23 25 24 27 25 28 26 29 90 30 27 31 89 32 28 33 29 34 30 35
REMARK SMILES IDX 83 36 31 37 88 38 82 39 84 40 32 41 87 42 81 43 80 44 33 46
REMARK SMILES IDX 67 47 46 48 66 49 47 50 50 51 65 52 85 53 48 54 49 55 64 57
REMARK SMILES IDX 86 58 51 59 34 60 35 61 44 62 36 63 37 64 43 65 45 66 38 67
REMARK SMILES IDX 39 68 40 69 41 70 42 71 68 72 69 73 78 74 70 75 71 76 77 77
REMARK SMILES IDX 79 78 72 79 73 80 74 81 75 82 76 83 52 84 53 85 62 86 54 87
REMARK SMILES IDX 55 88 61 89 63 90 56 91 57 92 58 93 59 94 60 95
REMARK H PARENT 18 6 4 9 22 26 84 45 50 56
REMARK Flexibility Score: inf
ROOT
ATOM      1  C   UNL A   1      35.398  23.005  24.888  1.00  0.00     0.042 C 
ENDROOT
BRANCH   1   2
ATOM      2  C   UNL A   1      34.462  22.815  26.084  1.00  0.00     0.117 C 
BRANCH   2   3
ATOM      3  N   UNL A   1      33.282  23.636  25.936  1.00  0.00    -0.355 N 
ATOM      4  O   UNL A   1      32.243  22.921  27.857  1.00  0.00    -0.273 OA
ATOM      5  C   UNL A   1      32.185  23.446  26.750  1.00  0.00     0.239 C 
ATOM      6  H   UNL A   1      33.260  24.338  25.246  1.00  0.00     0.163 HD
BRANCH   5   7
ATOM      7  C   UNL A   1      30.883  23.884  26.091  1.00  0.00     0.213 C 
BRANCH   7   8
ATOM      8  N   UNL A   1      30.591  25.287  26.366  1.00  0.00    -0.376 N 
ATOM      9  H   UNL A   1      30.372  25.592  27.277  1.00  0.00     0.161 HD
BRANCH   8  10
ATOM     10  C   UNL A   1      30.633  26.182  25.296  1.00  0.00     0.047 A 
ATOM     11  C   UNL A   1      29.487  26.226  24.477  1.00  0.00     0.026 A 
ATOM     12  C   UNL A   1      31.641  27.151  25.074  1.00  0.00     0.063 A 
ATOM     13  C   UNL A   1      29.308  27.218  23.511  1.00  0.00     0.002 A 
ATOM     14  C   UNL A   1      31.452  28.141  24.089  1.00  0.00     0.016 A 
ATOM     15  C   UNL A   1      30.289  28.181  23.320  1.00  0.00     0.001 A 
BRANCH  12  16
ATOM     16  C   UNL A   1      32.853  27.327  25.926  1.00  0.00     0.255 C 
ATOM     17  O   UNL A   1      33.734  26.470  25.830  1.00  0.00    -0.269 OA
ATOM     18  N   UNL A   1      33.017  28.434  26.737  1.00  0.00    -0.339 N 
ATOM     19  C   UNL A   1      32.038  29.377  27.234  1.00  0.00     0.120 C 
ATOM     20  C   UNL A   1      34.342  28.834  27.165  1.00  0.00     0.120 C 
ATOM     21  C   UNL A   1      32.776  30.708  27.227  1.00  0.00     0.023 C 
ATOM     22  C   UNL A   1      34.265  30.352  27.292  1.00  0.00     0.023 C 
ENDBRANCH  12  16
ENDBRANCH   8  10
ENDBRANCH   7   8
ENDBRANCH   5   7
ENDBRANCH   2   3
ENDBRANCH   1   2
BRANCH   1  23
ATOM     23  C   UNL A   1      36.718  23.697  25.235  1.00  0.00     0.118 C 
BRANCH  23  24
ATOM     24  N   UNL A   1      37.809  22.754  25.447  1.00  0.00    -0.352 N 
ATOM     25  C   UNL A   1      39.036  22.945  26.025  1.00  0.00     0.251 C 
ATOM     26  H   UNL A   1      37.637  21.839  25.126  1.00  0.00     0.163 HD
ATOM     27  O   UNL A   1      39.893  22.069  25.938  1.00  0.00    -0.269 OA
BRANCH  25  28
ATOM     28  C   UNL A   1      39.328  24.210  26.721  1.00  0.00     0.039 A 
ATOM     29  C   UNL A   1      38.860  24.384  28.024  1.00  0.00     0.014 A 
ATOM     30  C   UNL A   1      40.076  25.210  26.093  1.00  0.00     0.014 A 
ATOM     31  C   UNL A   1      39.208  25.536  28.729  1.00  0.00     0.010 A 
ATOM     32  C   UNL A   1      40.476  26.327  26.820  1.00  0.00     0.010 A 
ATOM     33  C   UNL A   1      40.053  26.495  28.147  1.00  0.00    -0.014 A 
BRANCH  33  34
ATOM     34  C   UNL A   1      40.533  27.667  28.921  1.00  0.00     0.031 A 
ATOM     35  C   UNL A   1      41.873  27.627  29.600  1.00  0.00     0.074 A 
ATOM     36  C   UNL A   1      39.724  28.734  29.071  1.00  0.00     0.049 A 
ATOM     37  N   UNL A   1      42.424  28.514  30.387  1.00  0.00    -0.248 NA
ATOM     38  C   UNL A   1      42.691  26.423  29.384  1.00  0.00     0.031 C 
ATOM     39  C   UNL A   1      38.383  28.865  28.496  1.00  0.00     0.029 A 
ATOM     40  N   UNL A   1      39.902  29.905  29.764  1.00  0.00    -0.354 N 
ATOM     41  C   UNL A   1      43.644  27.972  30.772  1.00  0.00     0.074 A 
ATOM     42  C   UNL A   1      43.732  26.659  30.170  1.00  0.00     0.031 C 
ATOM     43  C   UNL A   1      37.868  30.054  28.848  1.00  0.00     0.029 A 
ATOM     44  C   UNL A   1      38.820  30.751  29.705  1.00  0.00     0.049 A 
ATOM     45  H   UNL A   1      40.727  30.118  30.257  1.00  0.00     0.167 HD
ATOM     46  C   UNL A   1      44.612  28.528  31.541  1.00  0.00     0.037 A 
ATOM     47  C   UNL A   1      38.613  31.948  30.288  1.00  0.00     0.037 A 
ATOM     48  C   UNL A   1      44.521  29.843  32.122  1.00  0.00     0.049 A 
ATOM     49  C   UNL A   1      39.696  32.536  31.151  1.00  0.00     0.074 A 
ATOM     50  C   UNL A   1      45.470  30.521  32.865  1.00  0.00     0.029 A 
ATOM     51  N   UNL A   1      43.415  30.675  32.030  1.00  0.00    -0.354 N 
ATOM     52  N   UNL A   1      40.872  32.039  31.450  1.00  0.00    -0.248 NA
ATOM     53  C   UNL A   1      39.424  33.848  31.754  1.00  0.00     0.031 C 
ATOM     54  C   UNL A   1      44.921  31.745  33.263  1.00  0.00     0.029 A 
ATOM     55  C   UNL A   1      43.647  31.850  32.726  1.00  0.00     0.049 A 
ATOM     56  H   UNL A   1      42.586  30.462  31.543  1.00  0.00     0.167 HD
ATOM     57  C   UNL A   1      41.490  32.985  32.261  1.00  0.00     0.074 A 
ATOM     58  C   UNL A   1      40.562  34.091  32.390  1.00  0.00     0.031 C 
ATOM     59  C   UNL A   1      42.712  32.942  32.846  1.00  0.00     0.037 A 
BRANCH  46  60
ATOM     60  C   UNL A   1      45.851  27.715  31.798  1.00  0.00     0.058 A 
ATOM     61  C   UNL A   1      46.980  27.812  30.968  1.00  0.00     0.135 A 
ATOM     62  C   UNL A   1      45.926  26.856  32.905  1.00  0.00     0.135 A 
ATOM     63  F   UNL A   1      46.959  28.607  29.887  1.00  0.00    -0.206 F 
ATOM     64  C   UNL A   1      48.127  27.064  31.210  1.00  0.00     0.059 A 
ATOM     65  C   UNL A   1      47.074  26.119  33.184  1.00  0.00     0.059 A 
ATOM     66  F   UNL A   1      44.876  26.724  33.731  1.00  0.00    -0.206 F 
ATOM     67  C   UNL A   1      48.165  26.219  32.321  1.00  0.00     0.060 A 
BRANCH  67  68
ATOM     68  S   UNL A   1      49.664  25.261  32.622  1.00  0.00     0.124 S 
ATOM     69  O   UNL A   1      49.159  24.193  33.482  1.00  0.00    -0.237 OA
ATOM     70  O   UNL A   1      50.053  24.858  31.275  1.00  0.00    -0.237 OA
ATOM     71  O   UNL A   1      50.556  26.218  33.270  1.00  0.00    -0.744 OA
ENDBRANCH  67  68
ENDBRANCH  46  60
BRANCH  47  72
ATOM     72  C   UNL A   1      37.332  32.669  30.067  1.00  0.00     0.058 A 
ATOM     73  C   UNL A   1      37.219  33.647  29.068  1.00  0.00     0.135 A 
ATOM     74  C   UNL A   1      36.192  32.388  30.839  1.00  0.00     0.135 A 
ATOM     75  F   UNL A   1      38.282  33.956  28.310  1.00  0.00    -0.206 F 
ATOM     76  C   UNL A   1      36.028  34.331  28.849  1.00  0.00     0.059 A 
ATOM     77  C   UNL A   1      34.983  33.040  30.621  1.00  0.00     0.059 A 
ATOM     78  F   UNL A   1      36.243  31.449  31.796  1.00  0.00    -0.206 F 
ATOM     79  C   UNL A   1      34.914  34.018  29.630  1.00  0.00     0.060 A 
BRANCH  79  80
ATOM     80  S   UNL A   1      33.359  34.878  29.303  1.00  0.00     0.124 S 
ATOM     81  O   UNL A   1      33.834  36.150  28.772  1.00  0.00    -0.237 OA
ATOM     82  O   UNL A   1      32.712  33.987  28.345  1.00  0.00    -0.237 OA
ATOM     83  O   UNL A   1      32.726  34.937  30.617  1.00  0.00    -0.744 OA
ENDBRANCH  79  80
ENDBRANCH  47  72
BRANCH  59  84
ATOM     84  C   UNL A   1      43.127  34.132  33.665  1.00  0.00     0.058 A 
ATOM     85  C   UNL A   1      43.754  35.245  33.083  1.00  0.00     0.135 A 
ATOM     86  C   UNL A   1      42.850  34.180  35.042  1.00  0.00     0.135 A 
ATOM     87  F   UNL A   1      44.049  35.245  31.773  1.00  0.00    -0.206 F 
ATOM     88  C   UNL A   1      44.109  36.356  33.840  1.00  0.00     0.059 A 
ATOM     89  C   UNL A   1      43.172  35.292  35.812  1.00  0.00     0.059 A 
ATOM     90  F   UNL A   1      42.244  33.146  35.647  1.00  0.00    -0.206 F 
ATOM     91  C   UNL A   1      43.812  36.372  35.203  1.00  0.00     0.060 A 
BRANCH  91  92
ATOM     92  S   UNL A   1      44.245  37.835  36.167  1.00  0.00     0.124 S 
ATOM     93  O   UNL A   1      43.347  37.712  37.311  1.00  0.00    -0.237 OA
ATOM     94  O   UNL A   1      45.661  37.616  36.447  1.00  0.00    -0.237 OA
ATOM     95  O   UNL A   1      43.957  38.940  35.257  1.00  0.00    -0.744 OA
ENDBRANCH  91  92
ENDBRANCH  59  84
ENDBRANCH  33  34
ENDBRANCH  25  28
ENDBRANCH  23  24
ENDBRANCH   1  23
TORSDOF 16
ENDMDL
MODEL 3
REMARK VINA RESULT:     -11.8      4.984     10.423
REMARK SMILES O=C(CNc1ccccc1C(=O)N1CCCC1)NCCCNC(=O)c1ccc(-c2c3nc(c(-c4c(F)cc(S(=O)(=O)[O-])cc4F)c4ccc([nH]4)c(-c4c(F)cc(S(=O)(=O)[O-])cc4F)c4nc(c(-c5c(F)cc(S(=O)(=O)[O-])cc5F)c5ccc2[nH]5)C=C4)C=C3)cc1
REMARK SMILES IDX 20 1 19 2 18 3 1 4 2 5 3 7 4 8 5 10 6 11 10 12 7 13 9 14
REMARK SMILES IDX 8 15 11 16 12 17 13 18 14 19 17 20 15 21 16 22 21 23 22 24
REMARK SMILES IDX 23 25 24 27 25 28 26 29 90 30 27 31 89 32 28 33 29 34 30 35
REMARK SMILES IDX 83 36 31 37 88 38 82 39 84 40 32 41 87 42 81 43 80 44 33 46
REMARK SMILES IDX 67 47 46 48 66 49 47 50 50 51 65 52 85 53 48 54 49 55 64 57
REMARK SMILES IDX 86 58 51 59 34 60 35 61 44 62 36 63 37 64 43 65 45 66 38 67
REMARK SMILES IDX 39 68 40 69 41 70 42 71 68 72 69 73 78 74 70 75 71 76 77 77
REMARK SMILES IDX 79 78 72 79 73 80 74 81 75 82 76 83 52 84 53 85 62 86 54 87
REMARK SMILES IDX 55 88 61 89 63 90 56 91 57 92 58 93 59 94 60 95
REMARK H PARENT 18 6 4 9 22 26 84 45 50 56
REMARK Flexibility Score: inf
ROOT
ATOM      1  C   UNL A   1      32.800  28.029  25.796  1.00  0.00     0.042 C 
ENDROOT
BRANCH   1   2
ATOM      2  C   UNL A   1      33.623  27.863  24.516  1.00  0.00     0.117 C 
BRANCH   2   3
ATOM      3  N   UNL A   1      33.517  26.509  24.021  1.00  0.00    -0.355 N 
ATOM      4  O   UNL A   1      32.257  27.023  22.169  1.00  0.00    -0.273 OA
ATOM      5  C   UNL A   1      32.657  26.202  22.989  1.00  0.00     0.239 C 
ATOM      6  H   UNL A   1      34.067  25.799  24.425  1.00  0.00     0.163 HD
BRANCH   5   7
ATOM      7  C   UNL A   1      32.191  24.752  23.026  1.00  0.00     0.213 C 
BRANCH   7   8
ATOM      8  N   UNL A   1      33.311  23.828  22.872  1.00  0.00    -0.376 N 
ATOM      9  H   UNL A   1      34.015  23.990  22.203  1.00  0.00     0.161 HD
BRANCH   8  10
ATOM     10  C   UNL A   1      33.349  22.709  23.706  1.00  0.00     0.047 A 
ATOM     11  C   UNL A   1      32.481  21.652  23.366  1.00  0.00     0.026 A 
ATOM     12  C   UNL A   1      34.291  22.485  24.738  1.00  0.00     0.063 A 
ATOM     13  C   UNL A   1      32.569  20.400  23.978  1.00  0.00     0.002 A 
ATOM     14  C   UNL A   1      34.363  21.219  25.354  1.00  0.00     0.016 A 
ATOM     15  C   UNL A   1      33.516  20.181  24.969  1.00  0.00     0.001 A 
BRANCH  12  16
ATOM     16  C   UNL A   1      35.362  23.444  25.134  1.00  0.00     0.255 C 
ATOM     17  O   UNL A   1      35.000  24.560  25.517  1.00  0.00    -0.269 OA
ATOM     18  N   UNL A   1      36.696  23.085  25.139  1.00  0.00    -0.339 N 
ATOM     19  C   UNL A   1      37.368  21.991  24.469  1.00  0.00     0.120 C 
ATOM     20  C   UNL A   1      37.645  23.816  25.953  1.00  0.00     0.120 C 
ATOM     21  C   UNL A   1      38.438  21.558  25.461  1.00  0.00     0.023 C 
ATOM     22  C   UNL A   1      38.691  22.779  26.350  1.00  0.00     0.023 C 
ENDBRANCH  12  16
ENDBRANCH   8  10
ENDBRANCH   7   8
ENDBRANCH   5   7
ENDBRANCH   2   3
ENDBRANCH   1   2
BRANCH   1  23
ATOM     23  C   UNL A   1      33.637  28.336  27.040  1.00  0.00     0.118 C 
BRANCH  23  24
ATOM     24  N   UNL A   1      33.590  29.744  27.415  1.00  0.00    -0.352 N 
ATOM     25  C   UNL A   1      34.526  30.515  28.053  1.00  0.00     0.251 C 
ATOM     26  H   UNL A   1      32.758  30.211  27.174  1.00  0.00     0.163 HD
ATOM     27  O   UNL A   1      34.221  31.636  28.452  1.00  0.00    -0.269 OA
BRANCH  25  28
ATOM     28  C   UNL A   1      35.881  29.983  28.279  1.00  0.00     0.039 A 
ATOM     29  C   UNL A   1      36.819  30.072  27.249  1.00  0.00     0.014 A 
ATOM     30  C   UNL A   1      36.226  29.417  29.510  1.00  0.00     0.014 A 
ATOM     31  C   UNL A   1      38.131  29.659  27.480  1.00  0.00     0.010 A 
ATOM     32  C   UNL A   1      37.549  29.068  29.758  1.00  0.00     0.010 A 
ATOM     33  C   UNL A   1      38.515  29.194  28.749  1.00  0.00    -0.014 A 
BRANCH  33  34
ATOM     34  C   UNL A   1      39.930  28.865  29.050  1.00  0.00     0.031 A 
ATOM     35  C   UNL A   1      40.843  29.908  29.631  1.00  0.00     0.074 A 
ATOM     36  C   UNL A   1      40.406  27.646  28.727  1.00  0.00     0.049 A 
ATOM     37  N   UNL A   1      42.124  29.835  29.880  1.00  0.00    -0.248 NA
ATOM     38  C   UNL A   1      40.240  31.212  29.951  1.00  0.00     0.031 C 
ATOM     39  C   UNL A   1      39.625  26.567  28.116  1.00  0.00     0.029 A 
ATOM     40  N   UNL A   1      41.664  27.112  28.853  1.00  0.00    -0.354 N 
ATOM     41  C   UNL A   1      42.485  31.083  30.372  1.00  0.00     0.074 A 
ATOM     42  C   UNL A   1      41.297  31.909  30.343  1.00  0.00     0.031 C 
ATOM     43  C   UNL A   1      40.417  25.498  27.935  1.00  0.00     0.029 A 
ATOM     44  C   UNL A   1      41.768  25.826  28.375  1.00  0.00     0.049 A 
ATOM     45  H   UNL A   1      42.420  27.604  29.247  1.00  0.00     0.167 HD
ATOM     46  C   UNL A   1      43.693  31.495  30.828  1.00  0.00     0.037 A 
ATOM     47  C   UNL A   1      42.835  25.009  28.288  1.00  0.00     0.037 A 
ATOM     48  C   UNL A   1      44.865  30.659  30.868  1.00  0.00     0.049 A 
ATOM     49  C   UNL A   1      44.169  25.496  28.785  1.00  0.00     0.074 A 
ATOM     50  C   UNL A   1      46.119  30.962  31.367  1.00  0.00     0.029 A 
ATOM     51  N   UNL A   1      44.929  29.359  30.388  1.00  0.00    -0.354 N 
ATOM     52  N   UNL A   1      44.479  26.657  29.311  1.00  0.00    -0.248 NA
ATOM     53  C   UNL A   1      45.299  24.563  28.678  1.00  0.00     0.031 C 
ATOM     54  C   UNL A   1      46.956  29.862  31.144  1.00  0.00     0.029 A 
ATOM     55  C   UNL A   1      46.208  28.855  30.553  1.00  0.00     0.049 A 
ATOM     56  H   UNL A   1      44.175  28.868  29.988  1.00  0.00     0.167 HD
ATOM     57  C   UNL A   1      45.834  26.588  29.616  1.00  0.00     0.074 A 
ATOM     58  C   UNL A   1      46.279  25.264  29.231  1.00  0.00     0.031 C 
ATOM     59  C   UNL A   1      46.636  27.534  30.163  1.00  0.00     0.037 A 
BRANCH  46  60
ATOM     60  C   UNL A   1      43.807  32.913  31.317  1.00  0.00     0.058 A 
ATOM     61  C   UNL A   1      44.225  33.953  30.471  1.00  0.00     0.135 A 
ATOM     62  C   UNL A   1      43.461  33.244  32.637  1.00  0.00     0.135 A 
ATOM     63  F   UNL A   1      44.583  33.691  29.204  1.00  0.00    -0.206 F 
ATOM     64  C   UNL A   1      44.325  35.264  30.923  1.00  0.00     0.059 A 
ATOM     65  C   UNL A   1      43.526  34.554  33.104  1.00  0.00     0.059 A 
ATOM     66  F   UNL A   1      43.055  32.290  33.489  1.00  0.00    -0.206 F 
ATOM     67  C   UNL A   1      43.973  35.555  32.242  1.00  0.00     0.060 A 
BRANCH  67  68
ATOM     68  S   UNL A   1      44.104  37.263  32.811  1.00  0.00     0.124 S 
ATOM     69  O   UNL A   1      43.067  37.309  33.837  1.00  0.00    -0.237 OA
ATOM     70  O   UNL A   1      45.479  37.327  33.296  1.00  0.00    -0.237 OA
ATOM     71  O   UNL A   1      43.831  38.044  31.608  1.00  0.00    -0.744 OA
ENDBRANCH  67  68
ENDBRANCH  46  60
BRANCH  47  72
ATOM     72  C   UNL A   1      42.682  23.646  27.716  1.00  0.00     0.058 A 
ATOM     73  C   UNL A   1      42.855  23.417  26.343  1.00  0.00     0.135 A 
ATOM     74  C   UNL A   1      42.375  22.542  28.529  1.00  0.00     0.135 A 
ATOM     75  F   UNL A   1      43.141  24.441  25.525  1.00  0.00    -0.206 F 
ATOM     76  C   UNL A   1      42.714  22.148  25.792  1.00  0.00     0.059 A 
ATOM     77  C   UNL A   1      42.256  21.259  28.005  1.00  0.00     0.059 A 
ATOM     78  F   UNL A   1      42.218  22.705  29.852  1.00  0.00    -0.206 F 
ATOM     79  C   UNL A   1      42.418  21.074  26.633  1.00  0.00     0.060 A 
BRANCH  79  80
ATOM     80  S   UNL A   1      42.288  19.423  25.913  1.00  0.00     0.124 S 
ATOM     81  O   UNL A   1      42.871  18.598  26.964  1.00  0.00    -0.237 OA
ATOM     82  O   UNL A   1      40.848  19.286  25.718  1.00  0.00    -0.237 OA
ATOM     83  O   UNL A   1      43.070  19.530  24.685  1.00  0.00    -0.744 OA
ENDBRANCH  79  80
ENDBRANCH  47  72
BRANCH  59  84
ATOM     84  C   UNL A   1      48.075  27.167  30.396  1.00  0.00     0.058 A 
ATOM     85  C   UNL A   1      49.064  27.419  29.432  1.00  0.00     0.135 A 
ATOM     86  C   UNL A   1      48.478  26.603  31.618  1.00  0.00     0.135 A 
ATOM     87  F   UNL A   1      48.731  27.949  28.245  1.00  0.00    -0.206 F 
ATOM     88  C   UNL A   1      50.399  27.106  29.664  1.00  0.00     0.059 A 
ATOM     89  C   UNL A   1      49.811  26.308  31.881  1.00  0.00     0.059 A 
ATOM     90  F   UNL A   1      47.573  26.350  32.577  1.00  0.00    -0.206 F 
ATOM     91  C   UNL A   1      50.764  26.554  30.892  1.00  0.00     0.060 A 
BRANCH  91  92
ATOM     92  S   UNL A   1      52.505  26.186  31.194  1.00  0.00     0.124 S 
ATOM     93  O   UNL A   1      52.421  24.900  31.878  1.00  0.00    -0.237 OA
ATOM     94  O   UNL A   1      53.055  26.149  29.842  1.00  0.00    -0.237 OA
ATOM     95  O   UNL A   1      52.953  27.307  32.015  1.00  0.00    -0.744 OA
ENDBRANCH  91  92
ENDBRANCH  59  84
ENDBRANCH  33  34
ENDBRANCH  25  28
ENDBRANCH  23  24
ENDBRANCH   1  23
TORSDOF 16
ENDMDL
