MODEL 1
REMARK VINA RESULT:     -11.8      0.000      0.000
REMARK SMILES O=C(C[NH+]1CC[NH+](Cc2cc(Cl)ccc2[N+](=O)[O-])CC1)NCCCNC(=O)c1ccc(-c2c3nc(c(-c4c(F)cc(S(=O)(=O)[O-])cc4F)c4ccc([nH]4)c(-c4c(F)cc(S(=O)(=O)[O-])cc4F)c4nc(c(-c5c(F)cc(S(=O)(=O)[O-])cc5F)c5ccc2[nH]5)C=C4)C=C3)cc1
REMARK SMILES IDX 22 1 21 2 1 3 2 4 3 6 4 7 5 8 20 9 6 11 19 12 7 13 8 15 9 16
REMARK SMILES IDX 10 17 15 18 11 19 14 20 12 21 13 22 16 23 17 24 18 25 23 26
REMARK SMILES IDX 24 27 25 28 26 29 27 31 28 32 29 33 93 34 30 35 92 36 31 37
REMARK SMILES IDX 32 38 33 39 86 40 34 41 91 42 85 43 87 44 35 45 90 46 84 47
REMARK SMILES IDX 83 48 36 50 70 51 49 52 69 53 50 54 53 55 68 56 88 57 51 58
REMARK SMILES IDX 52 59 67 61 89 62 54 63 37 64 38 65 47 66 39 67 40 68 46 69
REMARK SMILES IDX 48 70 41 71 42 72 43 73 44 74 45 75 71 76 72 77 81 78 73 79
REMARK SMILES IDX 74 80 80 81 82 82 75 83 76 84 77 85 78 86 79 87 55 88 56 89
REMARK SMILES IDX 65 90 57 91 58 92 64 93 66 94 59 95 60 96 61 97 62 98 63 99
REMARK H PARENT 21 5 4 10 7 14 25 30 87 49 53 60
REMARK Flexibility Score: inf
ROOT
ATOM      1  C   UNL A   1      39.796  20.830  26.142  1.00  0.00     0.118 C 
ENDROOT
BRANCH   1   2
ATOM      2  N   UNL A   1      38.635  21.469  25.557  1.00  0.00    -0.351 N 
ATOM      3  O   UNL A   1      37.690  19.557  24.691  1.00  0.00    -0.269 OA
ATOM      4  C   UNL A   1      37.592  20.735  25.016  1.00  0.00     0.275 C 
ATOM      5  H   UNL A   1      38.585  22.451  25.547  1.00  0.00     0.163 HD
BRANCH   4   6
ATOM      6  C   UNL A   1      36.262  21.510  25.047  1.00  0.00     0.363 C 
BRANCH   6   7
ATOM      7  N   UNL A   1      36.414  22.906  24.576  1.00  0.00    -0.318 N 
ATOM      8  C   UNL A   1      35.675  23.253  23.352  1.00  0.00     0.325 C 
ATOM      9  C   UNL A   1      36.104  23.892  25.631  1.00  0.00     0.325 C 
ATOM     10  H   UNL A   1      37.403  22.955  24.333  1.00  0.00     0.348 HD
ATOM     11  C   UNL A   1      34.166  23.524  23.538  1.00  0.00     0.324 C 
ATOM     12  C   UNL A   1      34.597  24.232  25.820  1.00  0.00     0.324 C 
ATOM     13  N   UNL A   1      33.826  24.475  24.596  1.00  0.00    -0.322 N 
ATOM     14  H   UNL A   1      32.866  24.270  24.872  1.00  0.00     0.348 HD
BRANCH  13  15
ATOM     15  C   UNL A   1      33.620  25.866  24.171  1.00  0.00     0.306 C 
BRANCH  15  16
ATOM     16  C   UNL A   1      33.007  26.796  25.202  1.00  0.00     0.085 A 
ATOM     17  C   UNL A   1      33.847  27.827  25.691  1.00  0.00     0.037 A 
ATOM     18  C   UNL A   1      31.731  26.668  25.791  1.00  0.00     0.278 A 
ATOM     19  C   UNL A   1      33.521  28.558  26.834  1.00  0.00     0.042 A 
ATOM     20  C   UNL A   1      31.407  27.427  26.940  1.00  0.00     0.088 A 
ATOM     21  Cl  UNL A   1      34.657  29.670  27.489  1.00  0.00    -0.084 Cl
ATOM     22  C   UNL A   1      32.315  28.337  27.479  1.00  0.00     0.027 A 
BRANCH  18  23
ATOM     23  N   UNL A   1      30.659  25.795  25.261  1.00  0.00     0.063 N 
ATOM     24  O   UNL A   1      29.684  26.352  24.733  1.00  0.00    -0.258 OA
ATOM     25  O   UNL A   1      30.778  24.570  25.343  1.00  0.00    -0.258 OA
ENDBRANCH  18  23
ENDBRANCH  15  16
ENDBRANCH  13  15
ENDBRANCH   6   7
ENDBRANCH   4   6
ENDBRANCH   1   2
BRANCH   1  26
ATOM     26  C   UNL A   1      40.460  21.689  27.210  1.00  0.00     0.042 C 
BRANCH  26  27
ATOM     27  C   UNL A   1      40.060  23.165  27.201  1.00  0.00     0.118 C 
BRANCH  27  28
ATOM     28  N   UNL A   1      40.664  23.933  26.125  1.00  0.00    -0.352 N 
ATOM     29  C   UNL A   1      41.072  25.251  26.124  1.00  0.00     0.251 C 
ATOM     30  H   UNL A   1      40.801  23.446  25.280  1.00  0.00     0.163 HD
ATOM     31  O   UNL A   1      41.467  25.764  25.085  1.00  0.00    -0.269 OA
BRANCH  29  32
ATOM     32  C   UNL A   1      40.993  26.057  27.369  1.00  0.00     0.039 A 
ATOM     33  C   UNL A   1      42.014  26.972  27.643  1.00  0.00     0.014 A 
ATOM     34  C   UNL A   1      39.920  25.928  28.255  1.00  0.00     0.014 A 
ATOM     35  C   UNL A   1      41.920  27.806  28.762  1.00  0.00     0.010 A 
ATOM     36  C   UNL A   1      39.792  26.811  29.329  1.00  0.00     0.010 A 
ATOM     37  C   UNL A   1      40.787  27.765  29.594  1.00  0.00    -0.014 A 
BRANCH  37  38
ATOM     38  C   UNL A   1      40.630  28.724  30.723  1.00  0.00     0.031 A 
ATOM     39  C   UNL A   1      41.478  28.602  31.962  1.00  0.00     0.074 A 
ATOM     40  C   UNL A   1      39.687  29.688  30.656  1.00  0.00     0.049 A 
ATOM     41  N   UNL A   1      41.462  29.331  33.050  1.00  0.00    -0.248 NA
ATOM     42  C   UNL A   1      42.457  27.504  31.993  1.00  0.00     0.031 C 
ATOM     43  C   UNL A   1      38.763  29.888  29.536  1.00  0.00     0.029 A 
ATOM     44  N   UNL A   1      39.343  30.677  31.545  1.00  0.00    -0.354 N 
ATOM     45  C   UNL A   1      42.420  28.779  33.894  1.00  0.00     0.074 A 
ATOM     46  C   UNL A   1      42.958  27.620  33.216  1.00  0.00     0.031 C 
ATOM     47  C   UNL A   1      37.980  30.948  29.794  1.00  0.00     0.029 A 
ATOM     48  C   UNL A   1      38.315  31.481  31.111  1.00  0.00     0.049 A 
ATOM     49  H   UNL A   1      39.791  30.798  32.413  1.00  0.00     0.167 HD
ATOM     50  C   UNL A   1      42.833  29.211  35.111  1.00  0.00     0.037 A 
ATOM     51  C   UNL A   1      37.705  32.527  31.703  1.00  0.00     0.037 A 
ATOM     52  C   UNL A   1      42.307  30.375  35.779  1.00  0.00     0.049 A 
ATOM     53  C   UNL A   1      38.171  32.981  33.060  1.00  0.00     0.074 A 
ATOM     54  C   UNL A   1      42.700  30.922  36.988  1.00  0.00     0.029 A 
ATOM     55  N   UNL A   1      41.273  31.168  35.302  1.00  0.00    -0.354 N 
ATOM     56  N   UNL A   1      39.128  32.489  33.811  1.00  0.00    -0.248 NA
ATOM     57  C   UNL A   1      37.484  34.140  33.648  1.00  0.00     0.031 C 
ATOM     58  C   UNL A   1      41.868  32.010  37.269  1.00  0.00     0.029 A 
ATOM     59  C   UNL A   1      40.997  32.182  36.205  1.00  0.00     0.049 A 
ATOM     60  H   UNL A   1      40.803  31.029  34.447  1.00  0.00     0.167 HD
ATOM     61  C   UNL A   1      39.176  33.295  34.944  1.00  0.00     0.074 A 
ATOM     62  C   UNL A   1      38.163  34.314  34.774  1.00  0.00     0.031 C 
ATOM     63  C   UNL A   1      39.988  33.198  36.027  1.00  0.00     0.037 A 
BRANCH  50  64
ATOM     64  C   UNL A   1      43.913  28.422  35.805  1.00  0.00     0.058 A 
ATOM     65  C   UNL A   1      45.270  28.765  35.687  1.00  0.00     0.135 A 
ATOM     66  C   UNL A   1      43.584  27.338  36.636  1.00  0.00     0.135 A 
ATOM     67  F   UNL A   1      45.644  29.783  34.897  1.00  0.00    -0.206 F 
ATOM     68  C   UNL A   1      46.263  28.043  36.342  1.00  0.00     0.059 A 
ATOM     69  C   UNL A   1      44.559  26.622  37.325  1.00  0.00     0.059 A 
ATOM     70  F   UNL A   1      42.303  26.967  36.789  1.00  0.00    -0.206 F 
ATOM     71  C   UNL A   1      45.897  26.973  37.159  1.00  0.00     0.060 A 
BRANCH  71  72
ATOM     72  S   UNL A   1      47.199  26.052  38.005  1.00  0.00     0.124 S 
ATOM     73  O   UNL A   1      48.385  26.821  37.638  1.00  0.00    -0.237 OA
ATOM     74  O   UNL A   1      46.791  26.147  39.402  1.00  0.00    -0.237 OA
ATOM     75  O   UNL A   1      47.111  24.718  37.418  1.00  0.00    -0.744 OA
ENDBRANCH  71  72
ENDBRANCH  50  64
BRANCH  51  76
ATOM     76  C   UNL A   1      36.594  33.234  31.007  1.00  0.00     0.058 A 
ATOM     77  C   UNL A   1      36.844  34.095  29.929  1.00  0.00     0.135 A 
ATOM     78  C   UNL A   1      35.258  33.059  31.405  1.00  0.00     0.135 A 
ATOM     79  F   UNL A   1      38.104  34.302  29.516  1.00  0.00    -0.206 F 
ATOM     80  C   UNL A   1      35.817  34.772  29.280  1.00  0.00     0.059 A 
ATOM     81  C   UNL A   1      34.210  33.702  30.753  1.00  0.00     0.059 A 
ATOM     82  F   UNL A   1      34.961  32.234  32.422  1.00  0.00    -0.206 F 
ATOM     83  C   UNL A   1      34.500  34.565  29.698  1.00  0.00     0.060 A 
BRANCH  83  84
ATOM     84  S   UNL A   1      33.170  35.412  28.819  1.00  0.00     0.124 S 
ATOM     85  O   UNL A   1      33.916  36.344  27.983  1.00  0.00    -0.237 OA
ATOM     86  O   UNL A   1      32.516  34.310  28.120  1.00  0.00    -0.237 OA
ATOM     87  O   UNL A   1      32.387  36.013  29.894  1.00  0.00    -0.744 OA
ENDBRANCH  83  84
ENDBRANCH  51  76
BRANCH  63  88
ATOM     88  C   UNL A   1      39.845  34.245  37.100  1.00  0.00     0.058 A 
ATOM     89  C   UNL A   1      40.439  35.512  36.986  1.00  0.00     0.135 A 
ATOM     90  C   UNL A   1      39.065  33.990  38.240  1.00  0.00     0.135 A 
ATOM     91  F   UNL A   1      41.200  35.807  35.919  1.00  0.00    -0.206 F 
ATOM     92  C   UNL A   1      40.292  36.477  37.977  1.00  0.00     0.059 A 
ATOM     93  C   UNL A   1      38.878  34.951  39.229  1.00  0.00     0.059 A 
ATOM     94  F   UNL A   1      38.463  32.800  38.396  1.00  0.00    -0.206 F 
ATOM     95  C   UNL A   1      39.507  36.188  39.095  1.00  0.00     0.060 A 
BRANCH  95  96
ATOM     96  S   UNL A   1      39.304  37.457  40.362  1.00  0.00     0.124 S 
ATOM     97  O   UNL A   1      40.639  38.045  40.406  1.00  0.00    -0.237 OA
ATOM     98  O   UNL A   1      38.258  38.300  39.794  1.00  0.00    -0.237 OA
ATOM     99  O   UNL A   1      38.915  36.698  41.547  1.00  0.00    -0.744 OA
ENDBRANCH  95  96
ENDBRANCH  63  88
ENDBRANCH  37  38
ENDBRANCH  29  32
ENDBRANCH  27  28
ENDBRANCH  26  27
ENDBRANCH   1  26
TORSDOF 17
ENDMDL
MODEL 2
REMARK VINA RESULT:     -11.6      6.571     12.273
REMARK SMILES O=C(C[NH+]1CC[NH+](Cc2cc(Cl)ccc2[N+](=O)[O-])CC1)NCCCNC(=O)c1ccc(-c2c3nc(c(-c4c(F)cc(S(=O)(=O)[O-])cc4F)c4ccc([nH]4)c(-c4c(F)cc(S(=O)(=O)[O-])cc4F)c4nc(c(-c5c(F)cc(S(=O)(=O)[O-])cc5F)c5ccc2[nH]5)C=C4)C=C3)cc1
REMARK SMILES IDX 22 1 21 2 1 3 2 4 3 6 4 7 5 8 20 9 6 11 19 12 7 13 8 15 9 16
REMARK SMILES IDX 10 17 15 18 11 19 14 20 12 21 13 22 16 23 17 24 18 25 23 26
REMARK SMILES IDX 24 27 25 28 26 29 27 31 28 32 29 33 93 34 30 35 92 36 31 37
REMARK SMILES IDX 32 38 33 39 86 40 34 41 91 42 85 43 87 44 35 45 90 46 84 47
REMARK SMILES IDX 83 48 36 50 70 51 49 52 69 53 50 54 53 55 68 56 88 57 51 58
REMARK SMILES IDX 52 59 67 61 89 62 54 63 37 64 38 65 47 66 39 67 40 68 46 69
REMARK SMILES IDX 48 70 41 71 42 72 43 73 44 74 45 75 71 76 72 77 81 78 73 79
REMARK SMILES IDX 74 80 80 81 82 82 75 83 76 84 77 85 78 86 79 87 55 88 56 89
REMARK SMILES IDX 65 90 57 91 58 92 64 93 66 94 59 95 60 96 61 97 62 98 63 99
REMARK H PARENT 21 5 4 10 7 14 25 30 87 49 53 60
REMARK Flexibility Score: inf
ROOT
ATOM      1  C   UNL A   1      36.228  34.049  28.769  1.00  0.00     0.118 C 
ENDROOT
BRANCH   1   2
ATOM      2  N   UNL A   1      35.877  32.804  28.117  1.00  0.00    -0.351 N 
ATOM      3  O   UNL A   1      34.051  32.323  29.433  1.00  0.00    -0.269 OA
ATOM      4  C   UNL A   1      34.705  32.128  28.414  1.00  0.00     0.275 C 
ATOM      5  H   UNL A   1      36.488  32.429  27.443  1.00  0.00     0.163 HD
BRANCH   4   6
ATOM      6  C   UNL A   1      34.226  31.254  27.241  1.00  0.00     0.363 C 
BRANCH   6   7
ATOM      7  N   UNL A   1      33.106  30.364  27.625  1.00  0.00    -0.318 N 
ATOM      8  C   UNL A   1      31.858  30.542  26.866  1.00  0.00     0.325 C 
ATOM      9  C   UNL A   1      33.490  28.938  27.607  1.00  0.00     0.325 C 
ATOM     10  H   UNL A   1      32.902  30.658  28.579  1.00  0.00     0.348 HD
ATOM     11  C   UNL A   1      31.832  29.900  25.462  1.00  0.00     0.324 C 
ATOM     12  C   UNL A   1      33.431  28.237  26.218  1.00  0.00     0.324 C 
ATOM     13  N   UNL A   1      32.235  28.496  25.408  1.00  0.00    -0.322 N 
ATOM     14  H   UNL A   1      32.550  28.321  24.454  1.00  0.00     0.348 HD
BRANCH  13  15
ATOM     15  C   UNL A   1      31.147  27.510  25.445  1.00  0.00     0.306 C 
BRANCH  15  16
ATOM     16  C   UNL A   1      31.393  26.214  24.695  1.00  0.00     0.085 A 
ATOM     17  C   UNL A   1      31.968  26.337  23.406  1.00  0.00     0.037 A 
ATOM     18  C   UNL A   1      31.008  24.920  25.110  1.00  0.00     0.278 A 
ATOM     19  C   UNL A   1      31.977  25.274  22.502  1.00  0.00     0.042 A 
ATOM     20  C   UNL A   1      31.037  23.848  24.189  1.00  0.00     0.088 A 
ATOM     21  Cl  UNL A   1      32.522  25.527  20.891  1.00  0.00    -0.084 Cl
ATOM     22  C   UNL A   1      31.482  24.037  22.881  1.00  0.00     0.027 A 
BRANCH  18  23
ATOM     23  N   UNL A   1      30.595  24.584  26.492  1.00  0.00     0.063 N 
ATOM     24  O   UNL A   1      29.421  24.832  26.808  1.00  0.00    -0.258 OA
ATOM     25  O   UNL A   1      31.408  24.062  27.258  1.00  0.00    -0.258 OA
ENDBRANCH  18  23
ENDBRANCH  15  16
ENDBRANCH  13  15
ENDBRANCH   6   7
ENDBRANCH   4   6
ENDBRANCH   1   2
BRANCH   1  26
ATOM     26  C   UNL A   1      37.613  34.007  29.402  1.00  0.00     0.042 C 
BRANCH  26  27
ATOM     27  C   UNL A   1      37.631  33.775  30.913  1.00  0.00     0.118 C 
BRANCH  27  28
ATOM     28  N   UNL A   1      36.708  32.746  31.363  1.00  0.00    -0.352 N 
ATOM     29  C   UNL A   1      36.840  31.374  31.298  1.00  0.00     0.251 C 
ATOM     30  H   UNL A   1      35.873  33.073  31.770  1.00  0.00     0.163 HD
ATOM     31  O   UNL A   1      35.907  30.657  31.635  1.00  0.00    -0.269 OA
BRANCH  29  32
ATOM     32  C   UNL A   1      38.095  30.769  30.784  1.00  0.00     0.039 A 
ATOM     33  C   UNL A   1      38.234  30.579  29.406  1.00  0.00     0.014 A 
ATOM     34  C   UNL A   1      39.135  30.402  31.643  1.00  0.00     0.014 A 
ATOM     35  C   UNL A   1      39.439  30.094  28.887  1.00  0.00     0.010 A 
ATOM     36  C   UNL A   1      40.361  29.989  31.118  1.00  0.00     0.010 A 
ATOM     37  C   UNL A   1      40.532  29.834  29.734  1.00  0.00    -0.014 A 
BRANCH  37  38
ATOM     38  C   UNL A   1      41.851  29.422  29.178  1.00  0.00     0.031 A 
ATOM     39  C   UNL A   1      42.972  30.419  29.035  1.00  0.00     0.074 A 
ATOM     40  C   UNL A   1      42.032  28.153  28.756  1.00  0.00     0.049 A 
ATOM     41  N   UNL A   1      44.176  30.244  28.551  1.00  0.00    -0.248 NA
ATOM     42  C   UNL A   1      42.697  31.797  29.471  1.00  0.00     0.031 C 
ATOM     43  C   UNL A   1      41.015  27.098  28.790  1.00  0.00     0.029 A 
ATOM     44  N   UNL A   1      43.130  27.531  28.212  1.00  0.00    -0.354 N 
ATOM     45  C   UNL A   1      44.799  31.486  28.619  1.00  0.00     0.074 A 
ATOM     46  C   UNL A   1      43.821  32.417  29.137  1.00  0.00     0.031 C 
ATOM     47  C   UNL A   1      41.545  25.958  28.317  1.00  0.00     0.029 A 
ATOM     48  C   UNL A   1      42.925  26.206  27.909  1.00  0.00     0.049 A 
ATOM     49  H   UNL A   1      43.986  27.993  28.056  1.00  0.00     0.167 HD
ATOM     50  C   UNL A   1      46.075  31.817  28.304  1.00  0.00     0.037 A 
ATOM     51  C   UNL A   1      43.747  25.290  27.359  1.00  0.00     0.037 A 
ATOM     52  C   UNL A   1      47.054  30.884  27.802  1.00  0.00     0.049 A 
ATOM     53  C   UNL A   1      45.156  25.683  27.004  1.00  0.00     0.074 A 
ATOM     54  C   UNL A   1      48.386  31.114  27.505  1.00  0.00     0.029 A 
ATOM     55  N   UNL A   1      46.808  29.549  27.516  1.00  0.00    -0.354 N 
ATOM     56  N   UNL A   1      45.747  26.846  27.143  1.00  0.00    -0.248 NA
ATOM     57  C   UNL A   1      46.014  24.638  26.428  1.00  0.00     0.031 C 
ATOM     58  C   UNL A   1      48.931  29.934  26.988  1.00  0.00     0.029 A 
ATOM     59  C   UNL A   1      47.955  28.951  27.021  1.00  0.00     0.049 A 
ATOM     60  H   UNL A   1      45.944  29.094  27.644  1.00  0.00     0.167 HD
ATOM     61  C   UNL A   1      47.054  26.664  26.700  1.00  0.00     0.074 A 
ATOM     62  C   UNL A   1      47.170  25.278  26.302  1.00  0.00     0.031 C 
ATOM     63  C   UNL A   1      48.065  27.566  26.630  1.00  0.00     0.037 A 
BRANCH  50  64
ATOM     64  C   UNL A   1      46.494  33.251  28.493  1.00  0.00     0.058 A 
ATOM     65  C   UNL A   1      47.040  33.707  29.705  1.00  0.00     0.135 A 
ATOM     66  C   UNL A   1      46.395  34.171  27.436  1.00  0.00     0.135 A 
ATOM     67  F   UNL A   1      47.147  32.876  30.753  1.00  0.00    -0.206 F 
ATOM     68  C   UNL A   1      47.439  35.030  29.872  1.00  0.00     0.059 A 
ATOM     69  C   UNL A   1      46.817  35.490  27.571  1.00  0.00     0.059 A 
ATOM     70  F   UNL A   1      45.885  33.790  26.254  1.00  0.00    -0.206 F 
ATOM     71  C   UNL A   1      47.325  35.914  28.798  1.00  0.00     0.060 A 
BRANCH  71  72
ATOM     72  S   UNL A   1      47.855  37.624  29.032  1.00  0.00     0.124 S 
ATOM     73  O   UNL A   1      48.481  37.557  30.349  1.00  0.00    -0.237 OA
ATOM     74  O   UNL A   1      48.763  37.825  27.908  1.00  0.00    -0.237 OA
ATOM     75  O   UNL A   1      46.607  38.379  28.968  1.00  0.00    -0.744 OA
ENDBRANCH  71  72
ENDBRANCH  50  64
BRANCH  51  76
ATOM     76  C   UNL A   1      43.265  23.900  27.125  1.00  0.00     0.058 A 
ATOM     77  C   UNL A   1      42.950  23.449  25.835  1.00  0.00     0.135 A 
ATOM     78  C   UNL A   1      43.115  22.994  28.187  1.00  0.00     0.135 A 
ATOM     79  F   UNL A   1      43.069  24.280  24.788  1.00  0.00    -0.206 F 
ATOM     80  C   UNL A   1      42.486  22.158  25.606  1.00  0.00     0.059 A 
ATOM     81  C   UNL A   1      42.680  21.688  27.979  1.00  0.00     0.059 A 
ATOM     82  F   UNL A   1      43.416  23.369  29.440  1.00  0.00    -0.206 F 
ATOM     83  C   UNL A   1      42.358  21.282  26.686  1.00  0.00     0.060 A 
BRANCH  83  84
ATOM     84  S   UNL A   1      41.800  19.595  26.371  1.00  0.00     0.124 S 
ATOM     85  O   UNL A   1      42.387  19.330  25.063  1.00  0.00    -0.237 OA
ATOM     86  O   UNL A   1      42.383  18.866  27.492  1.00  0.00    -0.237 OA
ATOM     87  O   UNL A   1      40.345  19.712  26.399  1.00  0.00    -0.744 OA
ENDBRANCH  83  84
ENDBRANCH  51  76
BRANCH  63  88
ATOM     88  C   UNL A   1      49.403  27.075  26.142  1.00  0.00     0.058 A 
ATOM     89  C   UNL A   1      50.312  26.426  26.991  1.00  0.00     0.135 A 
ATOM     90  C   UNL A   1      49.760  27.220  24.791  1.00  0.00     0.135 A 
ATOM     91  F   UNL A   1      50.023  26.265  28.293  1.00  0.00    -0.206 F 
ATOM     92  C   UNL A   1      51.541  25.966  26.527  1.00  0.00     0.059 A 
ATOM     93  C   UNL A   1      50.970  26.739  24.298  1.00  0.00     0.059 A 
ATOM     94  F   UNL A   1      48.925  27.822  23.930  1.00  0.00    -0.206 F 
ATOM     95  C   UNL A   1      51.860  26.126  25.178  1.00  0.00     0.060 A 
BRANCH  95  96
ATOM     96  S   UNL A   1      53.447  25.503  24.585  1.00  0.00     0.124 S 
ATOM     97  O   UNL A   1      53.427  24.129  25.077  1.00  0.00    -0.237 OA
ATOM     98  O   UNL A   1      53.323  25.660  23.139  1.00  0.00    -0.237 OA
ATOM     99  O   UNL A   1      54.420  26.384  25.223  1.00  0.00    -0.744 OA
ENDBRANCH  95  96
ENDBRANCH  63  88
ENDBRANCH  37  38
ENDBRANCH  29  32
ENDBRANCH  27  28
ENDBRANCH  26  27
ENDBRANCH   1  26
TORSDOF 17
ENDMDL
MODEL 3
REMARK VINA RESULT:     -11.5      1.598      2.314
REMARK SMILES O=C(C[NH+]1CC[NH+](Cc2cc(Cl)ccc2[N+](=O)[O-])CC1)NCCCNC(=O)c1ccc(-c2c3nc(c(-c4c(F)cc(S(=O)(=O)[O-])cc4F)c4ccc([nH]4)c(-c4c(F)cc(S(=O)(=O)[O-])cc4F)c4nc(c(-c5c(F)cc(S(=O)(=O)[O-])cc5F)c5ccc2[nH]5)C=C4)C=C3)cc1
REMARK SMILES IDX 22 1 21 2 1 3 2 4 3 6 4 7 5 8 20 9 6 11 19 12 7 13 8 15 9 16
REMARK SMILES IDX 10 17 15 18 11 19 14 20 12 21 13 22 16 23 17 24 18 25 23 26
REMARK SMILES IDX 24 27 25 28 26 29 27 31 28 32 29 33 93 34 30 35 92 36 31 37
REMARK SMILES IDX 32 38 33 39 86 40 34 41 91 42 85 43 87 44 35 45 90 46 84 47
REMARK SMILES IDX 83 48 36 50 70 51 49 52 69 53 50 54 53 55 68 56 88 57 51 58
REMARK SMILES IDX 52 59 67 61 89 62 54 63 37 64 38 65 47 66 39 67 40 68 46 69
REMARK SMILES IDX 48 70 41 71 42 72 43 73 44 74 45 75 71 76 72 77 81 78 73 79
REMARK SMILES IDX 74 80 80 81 82 82 75 83 76 84 77 85 78 86 79 87 55 88 56 89
REMARK SMILES IDX 65 90 57 91 58 92 64 93 66 94 59 95 60 96 61 97 62 98 63 99
REMARK H PARENT 21 5 4 10 7 14 25 30 87 49 53 60
REMARK Flexibility Score: inf
ROOT
ATOM      1  C   UNL A   1      39.071  21.226  25.814  1.00  0.00     0.118 C 
ENDROOT
BRANCH   1   2
ATOM      2  N   UNL A   1      38.087  22.240  25.493  1.00  0.00    -0.351 N 
ATOM      3  O   UNL A   1      36.276  20.824  25.376  1.00  0.00    -0.269 OA
ATOM      4  C   UNL A   1      36.731  21.959  25.462  1.00  0.00     0.275 C 
ATOM      5  H   UNL A   1      38.392  23.154  25.294  1.00  0.00     0.163 HD
BRANCH   4   6
ATOM      6  C   UNL A   1      35.875  23.209  25.737  1.00  0.00     0.363 C 
BRANCH   6   7
ATOM      7  N   UNL A   1      34.445  22.991  25.415  1.00  0.00    -0.318 N 
ATOM      8  C   UNL A   1      33.499  23.934  26.032  1.00  0.00     0.325 C 
ATOM      9  C   UNL A   1      34.200  22.935  23.959  1.00  0.00     0.325 C 
ATOM     10  H   UNL A   1      34.255  22.082  25.836  1.00  0.00     0.348 HD
ATOM     11  C   UNL A   1      33.398  25.318  25.356  1.00  0.00     0.324 C 
ATOM     12  C   UNL A   1      34.043  24.308  23.245  1.00  0.00     0.324 C 
ATOM     13  N   UNL A   1      33.184  25.295  23.910  1.00  0.00    -0.322 N 
ATOM     14  H   UNL A   1      33.523  26.188  23.552  1.00  0.00     0.348 HD
BRANCH  13  15
ATOM     15  C   UNL A   1      31.790  25.414  23.462  1.00  0.00     0.306 C 
BRANCH  15  16
ATOM     16  C   UNL A   1      31.256  26.826  23.306  1.00  0.00     0.085 A 
ATOM     17  C   UNL A   1      29.874  27.004  23.563  1.00  0.00     0.037 A 
ATOM     18  C   UNL A   1      31.974  27.944  22.830  1.00  0.00     0.278 A 
ATOM     19  C   UNL A   1      29.201  28.165  23.181  1.00  0.00     0.042 A 
ATOM     20  C   UNL A   1      31.281  29.121  22.461  1.00  0.00     0.088 A 
ATOM     21  Cl  UNL A   1      27.492  28.256  23.352  1.00  0.00    -0.084 Cl
ATOM     22  C   UNL A   1      29.897  29.212  22.600  1.00  0.00     0.027 A 
BRANCH  18  23
ATOM     23  N   UNL A   1      33.450  27.992  22.715  1.00  0.00     0.063 N 
ATOM     24  O   UNL A   1      34.078  28.453  23.681  1.00  0.00    -0.258 OA
ATOM     25  O   UNL A   1      33.993  27.565  21.694  1.00  0.00    -0.258 OA
ENDBRANCH  18  23
ENDBRANCH  15  16
ENDBRANCH  13  15
ENDBRANCH   6   7
ENDBRANCH   4   6
ENDBRANCH   1   2
BRANCH   1  26
ATOM     26  C   UNL A   1      40.057  21.684  26.880  1.00  0.00     0.042 C 
BRANCH  26  27
ATOM     27  C   UNL A   1      40.108  23.194  27.114  1.00  0.00     0.118 C 
BRANCH  27  28
ATOM     28  N   UNL A   1      40.818  23.928  26.079  1.00  0.00    -0.352 N 
ATOM     29  C   UNL A   1      41.303  25.219  26.110  1.00  0.00     0.251 C 
ATOM     30  H   UNL A   1      40.974  23.436  25.241  1.00  0.00     0.163 HD
ATOM     31  O   UNL A   1      41.787  25.711  25.099  1.00  0.00    -0.269 OA
BRANCH  29  32
ATOM     32  C   UNL A   1      41.201  26.025  27.353  1.00  0.00     0.039 A 
ATOM     33  C   UNL A   1      42.217  26.938  27.648  1.00  0.00     0.014 A 
ATOM     34  C   UNL A   1      40.111  25.896  28.219  1.00  0.00     0.014 A 
ATOM     35  C   UNL A   1      42.103  27.772  28.766  1.00  0.00     0.010 A 
ATOM     36  C   UNL A   1      39.963  26.780  29.291  1.00  0.00     0.010 A 
ATOM     37  C   UNL A   1      40.954  27.732  29.576  1.00  0.00    -0.014 A 
BRANCH  37  38
ATOM     38  C   UNL A   1      40.776  28.691  30.702  1.00  0.00     0.031 A 
ATOM     39  C   UNL A   1      41.618  28.583  31.946  1.00  0.00     0.074 A 
ATOM     40  C   UNL A   1      39.820  29.641  30.626  1.00  0.00     0.049 A 
ATOM     41  N   UNL A   1      41.585  29.313  33.033  1.00  0.00    -0.248 NA
ATOM     42  C   UNL A   1      42.612  27.499  31.985  1.00  0.00     0.031 C 
ATOM     43  C   UNL A   1      38.901  29.826  29.500  1.00  0.00     0.029 A 
ATOM     44  N   UNL A   1      39.456  30.627  31.512  1.00  0.00    -0.354 N 
ATOM     45  C   UNL A   1      42.545  28.777  33.884  1.00  0.00     0.074 A 
ATOM     46  C   UNL A   1      43.103  27.624  33.211  1.00  0.00     0.031 C 
ATOM     47  C   UNL A   1      38.101  30.876  29.751  1.00  0.00     0.029 A 
ATOM     48  C   UNL A   1      38.421  31.416  31.069  1.00  0.00     0.049 A 
ATOM     49  H   UNL A   1      39.898  30.756  32.382  1.00  0.00     0.167 HD
ATOM     50  C   UNL A   1      42.944  29.217  35.102  1.00  0.00     0.037 A 
ATOM     51  C   UNL A   1      37.792  32.454  31.655  1.00  0.00     0.037 A 
ATOM     52  C   UNL A   1      42.398  30.374  35.765  1.00  0.00     0.049 A 
ATOM     53  C   UNL A   1      38.243  32.917  33.015  1.00  0.00     0.074 A 
ATOM     54  C   UNL A   1      42.774  30.929  36.976  1.00  0.00     0.029 A 
ATOM     55  N   UNL A   1      41.355  31.151  35.280  1.00  0.00    -0.354 N 
ATOM     56  N   UNL A   1      39.202  32.440  33.772  1.00  0.00    -0.248 NA
ATOM     57  C   UNL A   1      37.535  34.067  33.596  1.00  0.00     0.031 C 
ATOM     58  C   UNL A   1      41.925  32.006  37.249  1.00  0.00     0.029 A 
ATOM     59  C   UNL A   1      41.059  32.163  36.179  1.00  0.00     0.049 A 
ATOM     60  H   UNL A   1      40.893  31.005  34.422  1.00  0.00     0.167 HD
ATOM     61  C   UNL A   1      39.231  33.248  34.904  1.00  0.00     0.074 A 
ATOM     62  C   UNL A   1      38.205  34.253  34.726  1.00  0.00     0.031 C 
ATOM     63  C   UNL A   1      40.038  33.165  35.993  1.00  0.00     0.037 A 
BRANCH  50  64
ATOM     64  C   UNL A   1      44.030  28.444  35.804  1.00  0.00     0.058 A 
ATOM     65  C   UNL A   1      43.735  27.393  36.689  1.00  0.00     0.135 A 
ATOM     66  C   UNL A   1      45.384  28.725  35.554  1.00  0.00     0.135 A 
ATOM     67  F   UNL A   1      42.460  27.088  36.975  1.00  0.00    -0.206 F 
ATOM     68  C   UNL A   1      44.742  26.672  37.324  1.00  0.00     0.059 A 
ATOM     69  C   UNL A   1      46.406  27.996  36.154  1.00  0.00     0.059 A 
ATOM     70  F   UNL A   1      45.725  29.716  34.715  1.00  0.00    -0.206 F 
ATOM     71  C   UNL A   1      46.075  26.980  37.049  1.00  0.00     0.060 A 
BRANCH  71  72
ATOM     72  S   UNL A   1      47.366  26.029  37.878  1.00  0.00     0.124 S 
ATOM     73  O   UNL A   1      47.167  26.421  39.270  1.00  0.00    -0.237 OA
ATOM     74  O   UNL A   1      47.001  24.656  37.549  1.00  0.00    -0.237 OA
ATOM     75  O   UNL A   1      48.597  26.514  37.260  1.00  0.00    -0.744 OA
ENDBRANCH  71  72
ENDBRANCH  50  64
BRANCH  51  76
ATOM     76  C   UNL A   1      36.675  33.144  30.951  1.00  0.00     0.058 A 
ATOM     77  C   UNL A   1      35.347  32.996  31.377  1.00  0.00     0.135 A 
ATOM     78  C   UNL A   1      36.915  33.968  29.840  1.00  0.00     0.135 A 
ATOM     79  F   UNL A   1      35.065  32.212  32.429  1.00  0.00    -0.206 F 
ATOM     80  C   UNL A   1      34.294  33.623  30.719  1.00  0.00     0.059 A 
ATOM     81  C   UNL A   1      35.881  34.630  29.183  1.00  0.00     0.059 A 
ATOM     82  F   UNL A   1      38.168  34.157  29.398  1.00  0.00    -0.206 F 
ATOM     83  C   UNL A   1      34.572  34.442  29.623  1.00  0.00     0.060 A 
BRANCH  83  84
ATOM     84  S   UNL A   1      33.204  35.289  28.806  1.00  0.00     0.124 S 
ATOM     85  O   UNL A   1      32.605  34.206  28.036  1.00  0.00    -0.237 OA
ATOM     86  O   UNL A   1      32.424  35.775  29.940  1.00  0.00    -0.237 OA
ATOM     87  O   UNL A   1      33.871  36.326  28.024  1.00  0.00    -0.744 OA
ENDBRANCH  83  84
ENDBRANCH  51  76
BRANCH  63  88
ATOM     88  C   UNL A   1      39.873  34.212  37.062  1.00  0.00     0.058 A 
ATOM     89  C   UNL A   1      40.449  35.487  36.949  1.00  0.00     0.135 A 
ATOM     90  C   UNL A   1      39.090  33.947  38.198  1.00  0.00     0.135 A 
ATOM     91  F   UNL A   1      41.211  35.792  35.887  1.00  0.00    -0.206 F 
ATOM     92  C   UNL A   1      40.282  36.451  37.938  1.00  0.00     0.059 A 
ATOM     93  C   UNL A   1      38.883  34.908  39.184  1.00  0.00     0.059 A 
ATOM     94  F   UNL A   1      38.505  32.749  38.354  1.00  0.00    -0.206 F 
ATOM     95  C   UNL A   1      39.495  36.153  39.052  1.00  0.00     0.060 A 
BRANCH  95  96
ATOM     96  S   UNL A   1      39.266  37.422  40.315  1.00  0.00     0.124 S 
ATOM     97  O   UNL A   1      40.632  37.903  40.500  1.00  0.00    -0.237 OA
ATOM     98  O   UNL A   1      38.350  38.350  39.662  1.00  0.00    -0.237 OA
ATOM     99  O   UNL A   1      38.703  36.684  41.442  1.00  0.00    -0.744 OA
ENDBRANCH  95  96
ENDBRANCH  63  88
ENDBRANCH  37  38
ENDBRANCH  29  32
ENDBRANCH  27  28
ENDBRANCH  26  27
ENDBRANCH   1  26
TORSDOF 17
ENDMDL
