MODEL 1
REMARK VINA RESULT:     -11.8      0.000      0.000
REMARK SMILES COc1cc([N+](=O)[O-])cc([C@H]2[NH2+][C@H](C(=O)NCCCNC(=O)c3ccc(-c4c5nc(c(-c6c(F)cc(S(=O)(=O)[O-])cc6F)c6ccc([nH]6)c(-c6c(F)cc(S(=O)(=O)[O-])cc6F)c6nc(c(-c7c(F)cc(S(=O)(=O)[O-])cc7F)c7ccc4[nH]7)C=C6)C=C5)cc3)CS2)c1O
REMARK SMILES IDX 18 1 17 2 16 3 14 4 15 5 13 7 11 8 12 9 90 10 89 13 10 14
REMARK SMILES IDX 3 15 4 16 91 17 5 18 9 19 2 20 1 21 92 22 6 24 7 25 8 26
REMARK SMILES IDX 19 27 20 28 21 29 22 31 23 32 24 33 88 34 25 35 87 36 26 37
REMARK SMILES IDX 27 38 28 39 81 40 29 41 86 42 80 43 82 44 30 45 85 46 79 47
REMARK SMILES IDX 78 48 31 50 65 51 44 52 64 53 45 54 48 55 63 56 83 57 46 58
REMARK SMILES IDX 47 59 62 61 84 62 49 63 32 64 33 65 42 66 34 67 35 68 41 69
REMARK SMILES IDX 43 70 36 71 37 72 38 73 39 74 40 75 66 76 67 77 76 78 68 79
REMARK SMILES IDX 69 80 75 81 77 82 70 83 71 84 72 85 73 86 74 87 50 88 51 89
REMARK SMILES IDX 60 90 52 91 53 92 59 93 61 94 54 95 55 96 56 97 57 98 58 99
REMARK H PARENT 16 6 12 11 12 12 92 23 20 30 82 49 48 60
REMARK Flexibility Score: inf
ROOT
ATOM      1  C   UNL A   1      37.544  23.209  25.539  1.00  0.00     0.042 C 
ENDROOT
BRANCH   1   2
ATOM      2  C   UNL A   1      36.069  23.594  25.572  1.00  0.00     0.118 C 
BRANCH   2   3
ATOM      3  N   UNL A   1      35.352  23.015  26.691  1.00  0.00    -0.351 N 
ATOM      4  C   UNL A   1      34.015  22.919  26.936  1.00  0.00     0.279 C 
ATOM      5  O   UNL A   1      33.671  22.313  27.956  1.00  0.00    -0.268 OA
ATOM      6  H   UNL A   1      35.927  22.626  27.389  1.00  0.00     0.163 HD
BRANCH   4   7
ATOM      7  C   UNL A   1      32.951  23.490  25.987  1.00  0.00     0.283 C 
ATOM      8  C   UNL A   1      32.995  25.597  24.778  1.00  0.00     0.278 C 
ATOM      9  N   UNL A   1      32.860  24.973  26.100  1.00  0.00    -0.320 N 
ATOM     10  S   UNL A   1      32.368  24.369  23.609  1.00  0.00    -0.087 SA
ATOM     11  H   UNL A   1      31.956  25.225  26.499  1.00  0.00     0.348 HD
ATOM     12  H   UNL A   1      33.614  25.305  26.701  1.00  0.00     0.348 HD
ATOM     13  C   UNL A   1      33.092  23.010  24.549  1.00  0.00     0.151 C 
BRANCH   8  14
ATOM     14  C   UNL A   1      32.423  27.011  24.704  1.00  0.00     0.073 A 
ATOM     15  C   UNL A   1      32.068  29.290  25.576  1.00  0.00     0.167 A 
ATOM     16  C   UNL A   1      31.043  29.496  24.646  1.00  0.00     0.136 A 
ATOM     17  C   UNL A   1      32.750  28.055  25.602  1.00  0.00     0.168 A 
ATOM     18  C   UNL A   1      30.690  28.479  23.764  1.00  0.00     0.273 A 
ATOM     19  C   UNL A   1      31.360  27.248  23.798  1.00  0.00     0.100 A 
BRANCH  15  20
ATOM     20  O   UNL A   1      32.268  30.391  26.366  1.00  0.00    -0.493 OA
ATOM     21  C   UNL A   1      31.386  31.496  26.250  1.00  0.00     0.278 C 
ENDBRANCH  15  20
BRANCH  17  22
ATOM     22  O   UNL A   1      33.726  27.875  26.545  1.00  0.00    -0.504 OA
ATOM     23  H   UNL A   1      33.982  27.009  26.796  1.00  0.00     0.293 HD
ENDBRANCH  17  22
BRANCH  18  24
ATOM     24  N   UNL A   1      29.608  28.691  22.794  1.00  0.00     0.062 N 
ATOM     25  O   UNL A   1      29.904  29.183  21.698  1.00  0.00    -0.258 OA
ATOM     26  O   UNL A   1      28.467  28.333  23.125  1.00  0.00    -0.258 OA
ENDBRANCH  18  24
ENDBRANCH   8  14
ENDBRANCH   4   7
ENDBRANCH   2   3
ENDBRANCH   1   2
BRANCH   1  27
ATOM     27  C   UNL A   1      38.416  24.047  26.467  1.00  0.00     0.118 C 
BRANCH  27  28
ATOM     28  N   UNL A   1      39.830  23.953  26.127  1.00  0.00    -0.352 N 
ATOM     29  C   UNL A   1      40.885  24.759  26.476  1.00  0.00     0.251 C 
ATOM     30  H   UNL A   1      40.067  23.189  25.553  1.00  0.00     0.163 HD
ATOM     31  O   UNL A   1      41.957  24.620  25.896  1.00  0.00    -0.269 OA
BRANCH  29  32
ATOM     32  C   UNL A   1      40.737  25.786  27.531  1.00  0.00     0.039 A 
ATOM     33  C   UNL A   1      39.736  25.625  28.493  1.00  0.00     0.014 A 
ATOM     34  C   UNL A   1      41.546  26.926  27.550  1.00  0.00     0.014 A 
ATOM     35  C   UNL A   1      39.581  26.579  29.501  1.00  0.00     0.010 A 
ATOM     36  C   UNL A   1      41.443  27.834  28.598  1.00  0.00     0.010 A 
ATOM     37  C   UNL A   1      40.453  27.677  29.578  1.00  0.00    -0.014 A 
BRANCH  37  38
ATOM     38  C   UNL A   1      40.342  28.674  30.672  1.00  0.00     0.031 A 
ATOM     39  C   UNL A   1      41.226  28.572  31.884  1.00  0.00     0.074 A 
ATOM     40  C   UNL A   1      39.399  29.633  30.599  1.00  0.00     0.049 A 
ATOM     41  N   UNL A   1      41.243  29.314  32.960  1.00  0.00    -0.248 NA
ATOM     42  C   UNL A   1      42.204  27.472  31.898  1.00  0.00     0.031 C 
ATOM     43  C   UNL A   1      38.452  29.806  29.495  1.00  0.00     0.029 A 
ATOM     44  N   UNL A   1      39.077  30.640  31.473  1.00  0.00    -0.354 N 
ATOM     45  C   UNL A   1      42.219  28.765  33.784  1.00  0.00     0.074 A 
ATOM     46  C   UNL A   1      42.729  27.591  33.107  1.00  0.00     0.031 C 
ATOM     47  C   UNL A   1      37.680  30.876  29.742  1.00  0.00     0.029 A 
ATOM     48  C   UNL A   1      38.049  31.440  31.036  1.00  0.00     0.049 A 
ATOM     49  H   UNL A   1      39.540  30.777  32.332  1.00  0.00     0.167 HD
ATOM     50  C   UNL A   1      42.665  29.208  34.985  1.00  0.00     0.037 A 
ATOM     51  C   UNL A   1      37.468  32.508  31.614  1.00  0.00     0.037 A 
ATOM     52  C   UNL A   1      42.158  30.384  35.645  1.00  0.00     0.049 A 
ATOM     53  C   UNL A   1      37.967  32.978  32.952  1.00  0.00     0.074 A 
ATOM     54  C   UNL A   1      42.576  30.954  36.834  1.00  0.00     0.029 A 
ATOM     55  N   UNL A   1      41.114  31.167  35.173  1.00  0.00    -0.354 N 
ATOM     56  N   UNL A   1      38.933  32.485  33.690  1.00  0.00    -0.248 NA
ATOM     57  C   UNL A   1      37.300  34.149  33.535  1.00  0.00     0.031 C 
ATOM     58  C   UNL A   1      41.755  32.055  37.103  1.00  0.00     0.029 A 
ATOM     59  C   UNL A   1      40.856  32.201  36.058  1.00  0.00     0.049 A 
ATOM     60  H   UNL A   1      40.626  31.010  34.331  1.00  0.00     0.167 HD
ATOM     61  C   UNL A   1      39.006  33.298  34.815  1.00  0.00     0.074 A 
ATOM     62  C   UNL A   1      37.992  34.323  34.652  1.00  0.00     0.031 C 
ATOM     63  C   UNL A   1      39.837  33.209  35.884  1.00  0.00     0.037 A 
BRANCH  50  64
ATOM     64  C   UNL A   1      43.750  28.407  35.655  1.00  0.00     0.058 A 
ATOM     65  C   UNL A   1      43.453  27.385  36.572  1.00  0.00     0.135 A 
ATOM     66  C   UNL A   1      45.103  28.675  35.394  1.00  0.00     0.135 A 
ATOM     67  F   UNL A   1      42.177  27.093  36.869  1.00  0.00    -0.206 F 
ATOM     68  C   UNL A   1      44.457  26.697  37.248  1.00  0.00     0.059 A 
ATOM     69  C   UNL A   1      46.124  27.977  36.035  1.00  0.00     0.059 A 
ATOM     70  F   UNL A   1      45.447  29.636  34.522  1.00  0.00    -0.206 F 
ATOM     71  C   UNL A   1      45.789  27.008  36.979  1.00  0.00     0.060 A 
BRANCH  71  72
ATOM     72  S   UNL A   1      47.080  26.140  37.897  1.00  0.00     0.124 S 
ATOM     73  O   UNL A   1      46.293  25.180  38.664  1.00  0.00    -0.237 OA
ATOM     74  O   UNL A   1      47.900  25.576  36.830  1.00  0.00    -0.237 OA
ATOM     75  O   UNL A   1      47.713  27.199  38.678  1.00  0.00    -0.744 OA
ENDBRANCH  71  72
ENDBRANCH  50  64
BRANCH  51  76
ATOM     76  C   UNL A   1      36.385  33.233  30.898  1.00  0.00     0.058 A 
ATOM     77  C   UNL A   1      35.057  33.146  31.341  1.00  0.00     0.135 A 
ATOM     78  C   UNL A   1      36.658  34.064  29.801  1.00  0.00     0.135 A 
ATOM     79  F   UNL A   1      34.748  32.359  32.382  1.00  0.00    -0.206 F 
ATOM     80  C   UNL A   1      34.036  33.859  30.723  1.00  0.00     0.059 A 
ATOM     81  C   UNL A   1      35.656  34.806  29.179  1.00  0.00     0.059 A 
ATOM     82  F   UNL A   1      37.915  34.192  29.351  1.00  0.00    -0.206 F 
ATOM     83  C   UNL A   1      34.347  34.694  29.647  1.00  0.00     0.060 A 
BRANCH  83  84
ATOM     84  S   UNL A   1      33.023  35.677  28.910  1.00  0.00     0.124 S 
ATOM     85  O   UNL A   1      33.774  36.756  28.280  1.00  0.00    -0.237 OA
ATOM     86  O   UNL A   1      32.400  34.719  28.002  1.00  0.00    -0.237 OA
ATOM     87  O   UNL A   1      32.208  36.060  30.059  1.00  0.00    -0.744 OA
ENDBRANCH  83  84
ENDBRANCH  51  76
BRANCH  63  88
ATOM     88  C   UNL A   1      39.699  34.258  36.952  1.00  0.00     0.058 A 
ATOM     89  C   UNL A   1      38.980  34.018  38.133  1.00  0.00     0.135 A 
ATOM     90  C   UNL A   1      40.328  35.505  36.809  1.00  0.00     0.135 A 
ATOM     91  F   UNL A   1      38.352  32.845  38.316  1.00  0.00    -0.206 F 
ATOM     92  C   UNL A   1      38.869  34.986  39.124  1.00  0.00     0.059 A 
ATOM     93  C   UNL A   1      40.254  36.478  37.801  1.00  0.00     0.059 A 
ATOM     94  F   UNL A   1      41.038  35.783  35.704  1.00  0.00    -0.206 F 
ATOM     95  C   UNL A   1      39.510  36.214  38.950  1.00  0.00     0.060 A 
BRANCH  95  96
ATOM     96  S   UNL A   1      39.383  37.452  40.258  1.00  0.00     0.124 S 
ATOM     97  O   UNL A   1      38.795  36.675  41.343  1.00  0.00    -0.237 OA
ATOM     98  O   UNL A   1      40.774  37.853  40.446  1.00  0.00    -0.237 OA
ATOM     99  O   UNL A   1      38.517  38.474  39.676  1.00  0.00    -0.744 OA
ENDBRANCH  95  96
ENDBRANCH  63  88
ENDBRANCH  37  38
ENDBRANCH  29  32
ENDBRANCH  27  28
ENDBRANCH   1  27
TORSDOF 17
ENDMDL
MODEL 2
REMARK VINA RESULT:     -11.8      6.565     13.072
REMARK SMILES COc1cc([N+](=O)[O-])cc([C@H]2[NH2+][C@H](C(=O)NCCCNC(=O)c3ccc(-c4c5nc(c(-c6c(F)cc(S(=O)(=O)[O-])cc6F)c6ccc([nH]6)c(-c6c(F)cc(S(=O)(=O)[O-])cc6F)c6nc(c(-c7c(F)cc(S(=O)(=O)[O-])cc7F)c7ccc4[nH]7)C=C6)C=C5)cc3)CS2)c1O
REMARK SMILES IDX 18 1 17 2 16 3 14 4 15 5 13 7 11 8 12 9 90 10 89 13 10 14
REMARK SMILES IDX 3 15 4 16 91 17 5 18 9 19 2 20 1 21 92 22 6 24 7 25 8 26
REMARK SMILES IDX 19 27 20 28 21 29 22 31 23 32 24 33 88 34 25 35 87 36 26 37
REMARK SMILES IDX 27 38 28 39 81 40 29 41 86 42 80 43 82 44 30 45 85 46 79 47
REMARK SMILES IDX 78 48 31 50 65 51 44 52 64 53 45 54 48 55 63 56 83 57 46 58
REMARK SMILES IDX 47 59 62 61 84 62 49 63 32 64 33 65 42 66 34 67 35 68 41 69
REMARK SMILES IDX 43 70 36 71 37 72 38 73 39 74 40 75 66 76 67 77 76 78 68 79
REMARK SMILES IDX 69 80 75 81 77 82 70 83 71 84 72 85 73 86 74 87 50 88 51 89
REMARK SMILES IDX 60 90 52 91 53 92 59 93 61 94 54 95 55 96 56 97 57 98 58 99
REMARK H PARENT 16 6 12 11 12 12 92 23 20 30 82 49 48 60
REMARK Flexibility Score: inf
ROOT
ATOM      1  C   UNL A   1      34.395  32.493  27.997  1.00  0.00     0.042 C 
ENDROOT
BRANCH   1   2
ATOM      2  C   UNL A   1      35.005  33.891  28.027  1.00  0.00     0.118 C 
BRANCH   2   3
ATOM      3  N   UNL A   1      34.014  34.946  28.089  1.00  0.00    -0.351 N 
ATOM      4  C   UNL A   1      33.336  35.468  29.149  1.00  0.00     0.279 C 
ATOM      5  O   UNL A   1      32.579  36.418  28.923  1.00  0.00    -0.268 OA
ATOM      6  H   UNL A   1      33.795  35.355  27.220  1.00  0.00     0.163 HD
BRANCH   4   7
ATOM      7  C   UNL A   1      33.509  34.950  30.585  1.00  0.00     0.283 C 
ATOM      8  C   UNL A   1      35.407  35.257  32.071  1.00  0.00     0.278 C 
ATOM      9  N   UNL A   1      34.925  34.577  30.863  1.00  0.00    -0.320 N 
ATOM     10  S   UNL A   1      33.935  35.511  33.089  1.00  0.00    -0.087 SA
ATOM     11  H   UNL A   1      34.986  33.568  30.998  1.00  0.00     0.348 HD
ATOM     12  H   UNL A   1      35.503  34.860  30.070  1.00  0.00     0.348 HD
ATOM     13  C   UNL A   1      32.918  35.871  31.643  1.00  0.00     0.151 C 
BRANCH   8  14
ATOM     14  C   UNL A   1      36.614  34.581  32.717  1.00  0.00     0.073 A 
ATOM     15  C   UNL A   1      38.846  33.534  32.653  1.00  0.00     0.167 A 
ATOM     16  C   UNL A   1      38.656  33.031  33.945  1.00  0.00     0.136 A 
ATOM     17  C   UNL A   1      37.829  34.302  32.046  1.00  0.00     0.168 A 
ATOM     18  C   UNL A   1      37.463  33.276  34.618  1.00  0.00     0.273 A 
ATOM     19  C   UNL A   1      36.450  34.029  34.011  1.00  0.00     0.100 A 
BRANCH  15  20
ATOM     20  O   UNL A   1      40.069  33.184  32.144  1.00  0.00    -0.493 OA
ATOM     21  C   UNL A   1      41.213  33.938  32.511  1.00  0.00     0.278 C 
ENDBRANCH  15  20
BRANCH  17  22
ATOM     22  O   UNL A   1      38.034  34.752  30.769  1.00  0.00    -0.504 OA
ATOM     23  H   UNL A   1      38.875  35.076  30.516  1.00  0.00     0.293 HD
ENDBRANCH  17  22
BRANCH  18  24
ATOM     24  N   UNL A   1      37.260  32.739  35.971  1.00  0.00     0.062 N 
ATOM     25  O   UNL A   1      37.734  31.624  36.225  1.00  0.00    -0.258 OA
ATOM     26  O   UNL A   1      36.653  33.453  36.782  1.00  0.00    -0.258 OA
ENDBRANCH  18  24
ENDBRANCH   8  14
ENDBRANCH   4   7
ENDBRANCH   2   3
ENDBRANCH   1   2
BRANCH   1  27
ATOM     27  C   UNL A   1      35.289  31.423  28.613  1.00  0.00     0.118 C 
BRANCH  27  28
ATOM     28  N   UNL A   1      35.323  31.506  30.069  1.00  0.00    -0.352 N 
ATOM     29  C   UNL A   1      36.259  31.052  30.964  1.00  0.00     0.251 C 
ATOM     30  H   UNL A   1      34.549  31.960  30.474  1.00  0.00     0.163 HD
ATOM     31  O   UNL A   1      35.980  31.033  32.158  1.00  0.00    -0.269 OA
BRANCH  29  32
ATOM     32  C   UNL A   1      37.585  30.585  30.503  1.00  0.00     0.039 A 
ATOM     33  C   UNL A   1      37.872  30.616  29.135  1.00  0.00     0.014 A 
ATOM     34  C   UNL A   1      38.526  30.075  31.402  1.00  0.00     0.014 A 
ATOM     35  C   UNL A   1      39.119  30.184  28.677  1.00  0.00     0.010 A 
ATOM     36  C   UNL A   1      39.795  29.721  30.954  1.00  0.00     0.010 A 
ATOM     37  C   UNL A   1      40.101  29.761  29.587  1.00  0.00    -0.014 A 
BRANCH  37  38
ATOM     38  C   UNL A   1      41.451  29.350  29.128  1.00  0.00     0.031 A 
ATOM     39  C   UNL A   1      42.570  30.353  29.070  1.00  0.00     0.074 A 
ATOM     40  C   UNL A   1      41.650  28.087  28.703  1.00  0.00     0.049 A 
ATOM     41  N   UNL A   1      43.799  30.198  28.652  1.00  0.00    -0.248 NA
ATOM     42  C   UNL A   1      42.257  31.720  29.518  1.00  0.00     0.031 C 
ATOM     43  C   UNL A   1      40.630  27.037  28.669  1.00  0.00     0.029 A 
ATOM     44  N   UNL A   1      42.775  27.474  28.214  1.00  0.00    -0.354 N 
ATOM     45  C   UNL A   1      44.401  31.446  28.771  1.00  0.00     0.074 A 
ATOM     46  C   UNL A   1      43.383  32.359  29.246  1.00  0.00     0.031 C 
ATOM     47  C   UNL A   1      41.185  25.901  28.218  1.00  0.00     0.029 A 
ATOM     48  C   UNL A   1      42.585  26.151  27.894  1.00  0.00     0.049 A 
ATOM     49  H   UNL A   1      43.636  27.938  28.103  1.00  0.00     0.167 HD
ATOM     50  C   UNL A   1      45.689  31.795  28.530  1.00  0.00     0.037 A 
ATOM     51  C   UNL A   1      43.444  25.242  27.395  1.00  0.00     0.037 A 
ATOM     52  C   UNL A   1      46.696  30.875  28.069  1.00  0.00     0.049 A 
ATOM     53  C   UNL A   1      44.864  25.650  27.121  1.00  0.00     0.074 A 
ATOM     54  C   UNL A   1      48.041  31.109  27.845  1.00  0.00     0.029 A 
ATOM     55  N   UNL A   1      46.466  29.543  27.752  1.00  0.00    -0.354 N 
ATOM     56  N   UNL A   1      45.435  26.819  27.299  1.00  0.00    -0.248 NA
ATOM     57  C   UNL A   1      45.759  24.618  26.581  1.00  0.00     0.031 C 
ATOM     58  C   UNL A   1      48.614  29.931  27.352  1.00  0.00     0.029 A 
ATOM     59  C   UNL A   1      47.637  28.948  27.313  1.00  0.00     0.049 A 
ATOM     60  H   UNL A   1      45.595  29.087  27.829  1.00  0.00     0.167 HD
ATOM     61  C   UNL A   1      46.760  26.658  26.914  1.00  0.00     0.074 A 
ATOM     62  C   UNL A   1      46.908  25.274  26.505  1.00  0.00     0.031 C 
ATOM     63  C   UNL A   1      47.765  27.570  26.902  1.00  0.00     0.037 A 
BRANCH  50  64
ATOM     64  C   UNL A   1      46.065  33.235  28.757  1.00  0.00     0.058 A 
ATOM     65  C   UNL A   1      45.992  34.188  27.727  1.00  0.00     0.135 A 
ATOM     66  C   UNL A   1      46.524  33.667  30.011  1.00  0.00     0.135 A 
ATOM     67  F   UNL A   1      45.571  33.830  26.503  1.00  0.00    -0.206 F 
ATOM     68  C   UNL A   1      46.412  35.501  27.916  1.00  0.00     0.059 A 
ATOM     69  C   UNL A   1      46.920  34.983  30.232  1.00  0.00     0.059 A 
ATOM     70  F   UNL A   1      46.610  32.802  31.034  1.00  0.00    -0.206 F 
ATOM     71  C   UNL A   1      46.885  35.885  29.170  1.00  0.00     0.060 A 
BRANCH  71  72
ATOM     72  S   UNL A   1      47.471  37.580  29.390  1.00  0.00     0.124 S 
ATOM     73  O   UNL A   1      48.817  37.355  29.907  1.00  0.00    -0.237 OA
ATOM     74  O   UNL A   1      47.396  38.117  28.035  1.00  0.00    -0.237 OA
ATOM     75  O   UNL A   1      46.520  38.148  30.340  1.00  0.00    -0.744 OA
ENDBRANCH  71  72
ENDBRANCH  50  64
BRANCH  51  76
ATOM     76  C   UNL A   1      42.988  23.843  27.177  1.00  0.00     0.058 A 
ATOM     77  C   UNL A   1      42.575  23.420  25.905  1.00  0.00     0.135 A 
ATOM     78  C   UNL A   1      43.010  22.894  28.210  1.00  0.00     0.135 A 
ATOM     79  F   UNL A   1      42.532  24.295  24.889  1.00  0.00    -0.206 F 
ATOM     80  C   UNL A   1      42.199  22.104  25.663  1.00  0.00     0.059 A 
ATOM     81  C   UNL A   1      42.660  21.564  27.987  1.00  0.00     0.059 A 
ATOM     82  F   UNL A   1      43.414  23.247  29.440  1.00  0.00    -0.206 F 
ATOM     83  C   UNL A   1      42.252  21.180  26.710  1.00  0.00     0.060 A 
BRANCH  83  84
ATOM     84  S   UNL A   1      41.842  19.457  26.358  1.00  0.00     0.124 S 
ATOM     85  O   UNL A   1      42.655  19.196  25.177  1.00  0.00    -0.237 OA
ATOM     86  O   UNL A   1      42.264  18.786  27.584  1.00  0.00    -0.237 OA
ATOM     87  O   UNL A   1      40.400  19.492  26.138  1.00  0.00    -0.744 OA
ENDBRANCH  83  84
ENDBRANCH  51  76
BRANCH  63  88
ATOM     88  C   UNL A   1      49.119  27.095  26.452  1.00  0.00     0.058 A 
ATOM     89  C   UNL A   1      50.039  26.532  27.349  1.00  0.00     0.135 A 
ATOM     90  C   UNL A   1      49.482  27.168  25.097  1.00  0.00     0.135 A 
ATOM     91  F   UNL A   1      49.744  26.447  28.656  1.00  0.00    -0.206 F 
ATOM     92  C   UNL A   1      51.284  26.080  26.924  1.00  0.00     0.059 A 
ATOM     93  C   UNL A   1      50.712  26.696  24.645  1.00  0.00     0.059 A 
ATOM     94  F   UNL A   1      48.635  27.688  24.195  1.00  0.00    -0.206 F 
ATOM     95  C   UNL A   1      51.611  26.166  25.569  1.00  0.00     0.060 A 
BRANCH  95  96
ATOM     96  S   UNL A   1      53.218  25.548  25.024  1.00  0.00     0.124 S 
ATOM     97  O   UNL A   1      53.123  24.135  25.371  1.00  0.00    -0.237 OA
ATOM     98  O   UNL A   1      53.203  25.853  23.597  1.00  0.00    -0.237 OA
ATOM     99  O   UNL A   1      54.167  26.326  25.815  1.00  0.00    -0.744 OA
ENDBRANCH  95  96
ENDBRANCH  63  88
ENDBRANCH  37  38
ENDBRANCH  29  32
ENDBRANCH  27  28
ENDBRANCH   1  27
TORSDOF 17
ENDMDL
MODEL 3
REMARK VINA RESULT:     -11.7      6.614     12.290
REMARK SMILES COc1cc([N+](=O)[O-])cc([C@H]2[NH2+][C@H](C(=O)NCCCNC(=O)c3ccc(-c4c5nc(c(-c6c(F)cc(S(=O)(=O)[O-])cc6F)c6ccc([nH]6)c(-c6c(F)cc(S(=O)(=O)[O-])cc6F)c6nc(c(-c7c(F)cc(S(=O)(=O)[O-])cc7F)c7ccc4[nH]7)C=C6)C=C5)cc3)CS2)c1O
REMARK SMILES IDX 18 1 17 2 16 3 14 4 15 5 13 7 11 8 12 9 90 10 89 13 10 14
REMARK SMILES IDX 3 15 4 16 91 17 5 18 9 19 2 20 1 21 92 22 6 24 7 25 8 26
REMARK SMILES IDX 19 27 20 28 21 29 22 31 23 32 24 33 88 34 25 35 87 36 26 37
REMARK SMILES IDX 27 38 28 39 81 40 29 41 86 42 80 43 82 44 30 45 85 46 79 47
REMARK SMILES IDX 78 48 31 50 65 51 44 52 64 53 45 54 48 55 63 56 83 57 46 58
REMARK SMILES IDX 47 59 62 61 84 62 49 63 32 64 33 65 42 66 34 67 35 68 41 69
REMARK SMILES IDX 43 70 36 71 37 72 38 73 39 74 40 75 66 76 67 77 76 78 68 79
REMARK SMILES IDX 69 80 75 81 77 82 70 83 71 84 72 85 73 86 74 87 50 88 51 89
REMARK SMILES IDX 60 90 52 91 53 92 59 93 61 94 54 95 55 96 56 97 57 98 58 99
REMARK H PARENT 16 6 12 11 12 12 92 23 20 30 82 49 48 60
REMARK Flexibility Score: inf
ROOT
ATOM      1  C   UNL A   1      33.745  29.679  27.246  1.00  0.00     0.042 C 
ENDROOT
BRANCH   1   2
ATOM      2  C   UNL A   1      33.561  28.765  26.038  1.00  0.00     0.118 C 
BRANCH   2   3
ATOM      3  N   UNL A   1      32.228  28.205  25.943  1.00  0.00    -0.351 N 
ATOM      4  C   UNL A   1      31.770  27.108  25.279  1.00  0.00     0.279 C 
ATOM      5  O   UNL A   1      30.577  26.820  25.418  1.00  0.00    -0.268 OA
ATOM      6  H   UNL A   1      31.538  28.700  26.442  1.00  0.00     0.163 HD
BRANCH   4   7
ATOM      7  C   UNL A   1      32.678  26.217  24.417  1.00  0.00     0.283 C 
ATOM      8  C   UNL A   1      32.663  23.794  24.232  1.00  0.00     0.278 C 
ATOM      9  N   UNL A   1      32.989  24.930  25.102  1.00  0.00    -0.320 N 
ATOM     10  S   UNL A   1      32.860  24.418  22.546  1.00  0.00    -0.087 SA
ATOM     11  H   UNL A   1      33.982  24.903  25.332  1.00  0.00     0.348 HD
ATOM     12  H   UNL A   1      32.430  24.866  25.953  1.00  0.00     0.348 HD
ATOM     13  C   UNL A   1      32.174  26.026  22.993  1.00  0.00     0.151 C 
BRANCH   8  14
ATOM     14  C   UNL A   1      33.391  22.505  24.605  1.00  0.00     0.073 A 
ATOM     15  C   UNL A   1      35.400  21.206  25.204  1.00  0.00     0.167 A 
ATOM     16  C   UNL A   1      34.712  20.012  24.958  1.00  0.00     0.136 A 
ATOM     17  C   UNL A   1      34.741  22.441  25.027  1.00  0.00     0.168 A 
ATOM     18  C   UNL A   1      33.390  20.048  24.525  1.00  0.00     0.273 A 
ATOM     19  C   UNL A   1      32.740  21.276  24.338  1.00  0.00     0.100 A 
BRANCH  15  20
ATOM     20  O   UNL A   1      36.688  20.978  25.609  1.00  0.00    -0.493 OA
ATOM     21  C   UNL A   1      37.563  20.254  24.758  1.00  0.00     0.278 C 
ENDBRANCH  15  20
BRANCH  17  22
ATOM     22  O   UNL A   1      35.452  23.590  25.246  1.00  0.00    -0.504 OA
ATOM     23  H   UNL A   1      35.958  23.687  26.028  1.00  0.00     0.293 HD
ENDBRANCH  17  22
BRANCH  18  24
ATOM     24  N   UNL A   1      32.671  18.796  24.256  1.00  0.00     0.062 N 
ATOM     25  O   UNL A   1      31.962  18.334  25.159  1.00  0.00    -0.258 OA
ATOM     26  O   UNL A   1      32.797  18.297  23.128  1.00  0.00    -0.258 OA
ENDBRANCH  18  24
ENDBRANCH   8  14
ENDBRANCH   4   7
ENDBRANCH   2   3
ENDBRANCH   1   2
BRANCH   1  27
ATOM     27  C   UNL A   1      35.144  29.621  27.848  1.00  0.00     0.118 C 
BRANCH  27  28
ATOM     28  N   UNL A   1      35.234  30.360  29.102  1.00  0.00    -0.352 N 
ATOM     29  C   UNL A   1      36.273  30.483  29.990  1.00  0.00     0.251 C 
ATOM     30  H   UNL A   1      34.418  30.850  29.351  1.00  0.00     0.163 HD
ATOM     31  O   UNL A   1      36.059  30.975  31.093  1.00  0.00    -0.269 OA
BRANCH  29  32
ATOM     32  C   UNL A   1      37.634  30.024  29.632  1.00  0.00     0.039 A 
ATOM     33  C   UNL A   1      38.005  30.001  28.285  1.00  0.00     0.014 A 
ATOM     34  C   UNL A   1      38.526  29.573  30.610  1.00  0.00     0.014 A 
ATOM     35  C   UNL A   1      39.286  29.576  27.925  1.00  0.00     0.010 A 
ATOM     36  C   UNL A   1      39.826  29.226  30.257  1.00  0.00     0.010 A 
ATOM     37  C   UNL A   1      40.217  29.213  28.912  1.00  0.00    -0.014 A 
BRANCH  37  38
ATOM     38  C   UNL A   1      41.600  28.811  28.555  1.00  0.00     0.031 A 
ATOM     39  C   UNL A   1      42.708  29.828  28.549  1.00  0.00     0.074 A 
ATOM     40  C   UNL A   1      41.843  27.542  28.176  1.00  0.00     0.049 A 
ATOM     41  N   UNL A   1      43.964  29.681  28.219  1.00  0.00    -0.248 NA
ATOM     42  C   UNL A   1      42.347  31.200  28.942  1.00  0.00     0.031 C 
ATOM     43  C   UNL A   1      40.841  26.476  28.097  1.00  0.00     0.029 A 
ATOM     44  N   UNL A   1      43.007  26.933  27.779  1.00  0.00    -0.354 N 
ATOM     45  C   UNL A   1      44.541  30.939  28.349  1.00  0.00     0.074 A 
ATOM     46  C   UNL A   1      43.481  31.849  28.732  1.00  0.00     0.031 C 
ATOM     47  C   UNL A   1      41.440  25.338  27.712  1.00  0.00     0.029 A 
ATOM     48  C   UNL A   1      42.856  25.601  27.478  1.00  0.00     0.049 A 
ATOM     49  H   UNL A   1      43.868  27.406  27.715  1.00  0.00     0.167 HD
ATOM     50  C   UNL A   1      45.838  31.301  28.187  1.00  0.00     0.037 A 
ATOM     51  C   UNL A   1      43.758  24.692  27.062  1.00  0.00     0.037 A 
ATOM     52  C   UNL A   1      46.885  30.385  27.818  1.00  0.00     0.049 A 
ATOM     53  C   UNL A   1      45.189  25.115  26.874  1.00  0.00     0.074 A 
ATOM     54  C   UNL A   1      48.239  30.633  27.681  1.00  0.00     0.029 A 
ATOM     55  N   UNL A   1      46.694  29.043  27.519  1.00  0.00    -0.354 N 
ATOM     56  N   UNL A   1      45.731  26.295  27.062  1.00  0.00    -0.248 NA
ATOM     57  C   UNL A   1      46.131  24.083  26.421  1.00  0.00     0.031 C 
ATOM     58  C   UNL A   1      48.859  29.452  27.256  1.00  0.00     0.029 A 
ATOM     59  C   UNL A   1      47.900  28.455  27.175  1.00  0.00     0.049 A 
ATOM     60  H   UNL A   1      45.826  28.577  27.547  1.00  0.00     0.167 HD
ATOM     61  C   UNL A   1      47.081  26.144  26.772  1.00  0.00     0.074 A 
ATOM     62  C   UNL A   1      47.275  24.754  26.408  1.00  0.00     0.031 C 
ATOM     63  C   UNL A   1      48.073  27.070  26.807  1.00  0.00     0.037 A 
BRANCH  50  64
ATOM     64  C   UNL A   1      46.179  32.751  28.405  1.00  0.00     0.058 A 
ATOM     65  C   UNL A   1      46.151  33.682  27.352  1.00  0.00     0.135 A 
ATOM     66  C   UNL A   1      46.559  33.216  29.674  1.00  0.00     0.135 A 
ATOM     67  F   UNL A   1      45.807  33.292  26.114  1.00  0.00    -0.206 F 
ATOM     68  C   UNL A   1      46.541  35.005  27.537  1.00  0.00     0.059 A 
ATOM     69  C   UNL A   1      46.923  34.542  29.889  1.00  0.00     0.059 A 
ATOM     70  F   UNL A   1      46.599  32.374  30.718  1.00  0.00    -0.206 F 
ATOM     71  C   UNL A   1      46.936  35.422  28.808  1.00  0.00     0.060 A 
BRANCH  71  72
ATOM     72  S   UNL A   1      47.483  37.130  29.024  1.00  0.00     0.124 S 
ATOM     73  O   UNL A   1      48.488  36.981  30.073  1.00  0.00    -0.237 OA
ATOM     74  O   UNL A   1      47.998  37.465  27.700  1.00  0.00    -0.237 OA
ATOM     75  O   UNL A   1      46.265  37.831  29.417  1.00  0.00    -0.744 OA
ENDBRANCH  71  72
ENDBRANCH  50  64
BRANCH  51  76
ATOM     76  C   UNL A   1      43.336  23.283  26.846  1.00  0.00     0.058 A 
ATOM     77  C   UNL A   1      43.256  22.754  25.550  1.00  0.00     0.135 A 
ATOM     78  C   UNL A   1      43.061  22.426  27.923  1.00  0.00     0.135 A 
ATOM     79  F   UNL A   1      43.505  23.538  24.490  1.00  0.00    -0.206 F 
ATOM     80  C   UNL A   1      42.920  21.424  25.326  1.00  0.00     0.059 A 
ATOM     81  C   UNL A   1      42.744  21.084  27.726  1.00  0.00     0.059 A 
ATOM     82  F   UNL A   1      43.140  22.882  29.182  1.00  0.00    -0.206 F 
ATOM     83  C   UNL A   1      42.673  20.594  26.422  1.00  0.00     0.060 A 
BRANCH  83  84
ATOM     84  S   UNL A   1      42.320  18.848  26.117  1.00  0.00     0.124 S 
ATOM     85  O   UNL A   1      42.597  18.260  27.421  1.00  0.00    -0.237 OA
ATOM     86  O   UNL A   1      40.916  18.886  25.720  1.00  0.00    -0.237 OA
ATOM     87  O   UNL A   1      43.254  18.497  25.052  1.00  0.00    -0.744 OA
ENDBRANCH  83  84
ENDBRANCH  51  76
BRANCH  63  88
ATOM     88  C   UNL A   1      49.460  26.604  26.461  1.00  0.00     0.058 A 
ATOM     89  C   UNL A   1      50.277  25.957  27.401  1.00  0.00     0.135 A 
ATOM     90  C   UNL A   1      49.962  26.772  25.161  1.00  0.00     0.135 A 
ATOM     91  F   UNL A   1      49.848  25.778  28.661  1.00  0.00    -0.206 F 
ATOM     92  C   UNL A   1      51.553  25.514  27.071  1.00  0.00     0.059 A 
ATOM     93  C   UNL A   1      51.226  26.311  24.801  1.00  0.00     0.059 A 
ATOM     94  F   UNL A   1      49.219  27.375  24.220  1.00  0.00    -0.206 F 
ATOM     95  C   UNL A   1      52.019  25.695  25.768  1.00  0.00     0.060 A 
BRANCH  95  96
ATOM     96  S   UNL A   1      53.666  25.089  25.343  1.00  0.00     0.124 S 
ATOM     97  O   UNL A   1      54.471  25.641  26.426  1.00  0.00    -0.237 OA
ATOM     98  O   UNL A   1      53.482  23.641  25.363  1.00  0.00    -0.237 OA
ATOM     99  O   UNL A   1      53.910  25.664  24.023  1.00  0.00    -0.744 OA
ENDBRANCH  95  96
ENDBRANCH  63  88
ENDBRANCH  37  38
ENDBRANCH  29  32
ENDBRANCH  27  28
ENDBRANCH   1  27
TORSDOF 17
ENDMDL
