MODEL 1
REMARK VINA RESULT:     -11.4      0.000      0.000
REMARK SMILES O=C(CSc1ccc2ccccc2c1)NCCCNC(=O)c1ccc(-c2c3nc(c(-c4c(F)cc(S(=O)(=O)[O-])cc4F)c4ccc([nH]4)c(-c4c(F)cc(S(=O)(=O)[O-])cc4F)c4nc(c(-c5c(F)cc(S(=O)(=O)[O-])cc5F)c5ccc2[nH]5)C=C4)C=C3)cc1
REMARK SMILES IDX 17 1 16 2 15 3 1 4 2 5 3 7 4 8 5 9 6 10 14 11 7 12 13 13
REMARK SMILES IDX 8 14 12 15 9 16 11 17 10 18 18 19 19 20 20 21 21 23 22 24
REMARK SMILES IDX 23 25 87 26 24 27 86 28 25 29 26 30 27 31 80 32 28 33 85 34
REMARK SMILES IDX 79 35 81 36 29 37 84 38 78 39 77 40 30 42 64 43 43 44 63 45
REMARK SMILES IDX 44 46 47 47 62 48 82 49 45 50 46 51 61 53 83 54 48 55 31 56
REMARK SMILES IDX 32 57 41 58 33 59 34 60 40 61 42 62 35 63 36 64 37 65 38 66
REMARK SMILES IDX 39 67 65 68 66 69 75 70 67 71 68 72 74 73 76 74 69 75 70 76
REMARK SMILES IDX 71 77 72 78 73 79 49 80 50 81 59 82 51 83 52 84 58 85 60 86
REMARK SMILES IDX 53 87 54 88 55 89 56 90 57 91
REMARK H PARENT 15 6 19 22 81 41 47 52
REMARK Flexibility Score: inf
ROOT
ATOM      1  C   UNL A   1      45.396  22.973  26.740  1.00  0.00     0.042 C 
ENDROOT
BRANCH   1   2
ATOM      2  C   UNL A   1      45.246  21.833  25.738  1.00  0.00     0.117 C 
BRANCH   2   3
ATOM      3  N   UNL A   1      44.189  20.908  26.090  1.00  0.00    -0.355 N 
ATOM      4  O   UNL A   1      44.207  19.727  24.117  1.00  0.00    -0.274 OA
ATOM      5  C   UNL A   1      43.774  19.891  25.255  1.00  0.00     0.230 C 
ATOM      6  H   UNL A   1      43.746  21.009  26.963  1.00  0.00     0.163 HD
BRANCH   5   7
ATOM      7  C   UNL A   1      42.657  19.024  25.811  1.00  0.00     0.174 C 
BRANCH   7   8
ATOM      8  S   UNL A   1      42.068  19.600  27.441  1.00  0.00    -0.116 SA
BRANCH   8   9
ATOM      9  C   UNL A   1      40.778  20.760  27.009  1.00  0.00     0.008 A 
ATOM     10  C   UNL A   1      40.836  22.034  27.580  1.00  0.00     0.016 A 
ATOM     11  C   UNL A   1      39.761  20.478  26.091  1.00  0.00     0.023 A 
ATOM     12  C   UNL A   1      39.889  23.008  27.254  1.00  0.00     0.010 A 
ATOM     13  C   UNL A   1      38.799  21.449  25.748  1.00  0.00    -0.017 A 
ATOM     14  C   UNL A   1      38.866  22.732  26.337  1.00  0.00    -0.018 A 
ATOM     15  C   UNL A   1      37.775  21.174  24.827  1.00  0.00     0.009 A 
ATOM     16  C   UNL A   1      37.914  23.703  25.987  1.00  0.00     0.009 A 
ATOM     17  C   UNL A   1      36.835  22.150  24.488  1.00  0.00     0.001 A 
ATOM     18  C   UNL A   1      36.906  23.413  25.067  1.00  0.00     0.001 A 
ENDBRANCH   8   9
ENDBRANCH   7   8
ENDBRANCH   5   7
ENDBRANCH   2   3
ENDBRANCH   1   2
BRANCH   1  19
ATOM     19  C   UNL A   1      44.092  23.659  27.145  1.00  0.00     0.118 C 
BRANCH  19  20
ATOM     20  N   UNL A   1      43.422  24.327  26.039  1.00  0.00    -0.352 N 
ATOM     21  C   UNL A   1      42.577  25.409  26.021  1.00  0.00     0.251 C 
ATOM     22  H   UNL A   1      43.606  23.937  25.154  1.00  0.00     0.163 HD
ATOM     23  O   UNL A   1      42.044  25.718  24.954  1.00  0.00    -0.269 OA
BRANCH  21  24
ATOM     24  C   UNL A   1      42.274  26.190  27.245  1.00  0.00     0.039 A 
ATOM     25  C   UNL A   1      43.023  27.347  27.490  1.00  0.00     0.014 A 
ATOM     26  C   UNL A   1      41.314  25.786  28.177  1.00  0.00     0.014 A 
ATOM     27  C   UNL A   1      42.773  28.120  28.628  1.00  0.00     0.010 A 
ATOM     28  C   UNL A   1      41.017  26.595  29.277  1.00  0.00     0.010 A 
ATOM     29  C   UNL A   1      41.744  27.770  29.517  1.00  0.00    -0.014 A 
BRANCH  29  30
ATOM     30  C   UNL A   1      41.420  28.644  30.679  1.00  0.00     0.031 A 
ATOM     31  C   UNL A   1      42.215  28.570  31.955  1.00  0.00     0.074 A 
ATOM     32  C   UNL A   1      40.378  29.498  30.592  1.00  0.00     0.049 A 
ATOM     33  N   UNL A   1      42.085  29.273  33.052  1.00  0.00    -0.248 NA
ATOM     34  C   UNL A   1      43.282  27.558  32.018  1.00  0.00     0.031 C 
ATOM     35  C   UNL A   1      39.484  29.623  29.438  1.00  0.00     0.029 A 
ATOM     36  N   UNL A   1      39.896  30.422  31.485  1.00  0.00    -0.354 N 
ATOM     37  C   UNL A   1      43.043  28.788  33.936  1.00  0.00     0.074 A 
ATOM     38  C   UNL A   1      43.713  27.693  33.265  1.00  0.00     0.031 C 
ATOM     39  C   UNL A   1      38.586  30.590  29.680  1.00  0.00     0.029 A 
ATOM     40  C   UNL A   1      38.821  31.137  31.013  1.00  0.00     0.049 A 
ATOM     41  H   UNL A   1      40.283  30.558  32.380  1.00  0.00     0.167 HD
ATOM     42  C   UNL A   1      43.352  29.226  35.181  1.00  0.00     0.037 A 
ATOM     43  C   UNL A   1      38.109  32.130  31.582  1.00  0.00     0.037 A 
ATOM     44  C   UNL A   1      42.699  30.330  35.839  1.00  0.00     0.049 A 
ATOM     45  C   UNL A   1      38.497  32.624  32.947  1.00  0.00     0.074 A 
ATOM     46  C   UNL A   1      42.980  30.883  37.077  1.00  0.00     0.029 A 
ATOM     47  N   UNL A   1      41.636  31.049  35.315  1.00  0.00    -0.354 N 
ATOM     48  N   UNL A   1      39.453  32.198  33.739  1.00  0.00    -0.248 NA
ATOM     49  C   UNL A   1      37.721  33.749  33.489  1.00  0.00     0.031 C 
ATOM     50  C   UNL A   1      42.064  31.914  37.317  1.00  0.00     0.029 A 
ATOM     51  C   UNL A   1      41.241  32.033  36.209  1.00  0.00     0.049 A 
ATOM     52  H   UNL A   1      41.221  30.885  34.438  1.00  0.00     0.167 HD
ATOM     53  C   UNL A   1      39.407  33.016  34.863  1.00  0.00     0.074 A 
ATOM     54  C   UNL A   1      38.344  33.974  34.639  1.00  0.00     0.031 C 
ATOM     55  C   UNL A   1      40.178  32.978  35.978  1.00  0.00     0.037 A 
BRANCH  42  56
ATOM     56  C   UNL A   1      44.459  28.514  35.913  1.00  0.00     0.058 A 
ATOM     57  C   UNL A   1      45.802  28.898  35.768  1.00  0.00     0.135 A 
ATOM     58  C   UNL A   1      44.173  27.463  36.798  1.00  0.00     0.135 A 
ATOM     59  F   UNL A   1      46.135  29.889  34.926  1.00  0.00    -0.206 F 
ATOM     60  C   UNL A   1      46.824  28.244  36.449  1.00  0.00     0.059 A 
ATOM     61  C   UNL A   1      45.177  26.812  37.511  1.00  0.00     0.059 A 
ATOM     62  F   UNL A   1      42.906  27.056  36.979  1.00  0.00    -0.206 F 
ATOM     63  C   UNL A   1      46.502  27.199  37.316  1.00  0.00     0.060 A 
BRANCH  63  64
ATOM     64  S   UNL A   1      47.839  26.359  38.193  1.00  0.00     0.124 S 
ATOM     65  O   UNL A   1      48.703  27.482  38.546  1.00  0.00    -0.237 OA
ATOM     66  O   UNL A   1      47.134  25.729  39.307  1.00  0.00    -0.237 OA
ATOM     67  O   UNL A   1      48.377  25.442  37.197  1.00  0.00    -0.744 OA
ENDBRANCH  63  64
ENDBRANCH  42  56
BRANCH  43  68
ATOM     68  C   UNL A   1      36.984  32.754  30.837  1.00  0.00     0.058 A 
ATOM     69  C   UNL A   1      35.654  32.405  31.116  1.00  0.00     0.135 A 
ATOM     70  C   UNL A   1      37.214  33.717  29.842  1.00  0.00     0.135 A 
ATOM     71  F   UNL A   1      35.385  31.485  32.055  1.00  0.00    -0.206 F 
ATOM     72  C   UNL A   1      34.591  32.976  30.424  1.00  0.00     0.059 A 
ATOM     73  C   UNL A   1      36.166  34.320  29.154  1.00  0.00     0.059 A 
ATOM     74  F   UNL A   1      38.467  34.097  29.552  1.00  0.00    -0.206 F 
ATOM     75  C   UNL A   1      34.857  33.934  29.446  1.00  0.00     0.060 A 
BRANCH  75  76
ATOM     76  S   UNL A   1      33.468  34.707  28.588  1.00  0.00     0.124 S 
ATOM     77  O   UNL A   1      34.105  35.877  27.994  1.00  0.00    -0.237 OA
ATOM     78  O   UNL A   1      33.058  33.660  27.659  1.00  0.00    -0.237 OA
ATOM     79  O   UNL A   1      32.522  34.982  29.666  1.00  0.00    -0.744 OA
ENDBRANCH  75  76
ENDBRANCH  43  68
BRANCH  55  80
ATOM     80  C   UNL A   1      39.914  34.025  37.026  1.00  0.00     0.058 A 
ATOM     81  C   UNL A   1      40.444  35.321  36.927  1.00  0.00     0.135 A 
ATOM     82  C   UNL A   1      39.121  33.726  38.146  1.00  0.00     0.135 A 
ATOM     83  F   UNL A   1      41.212  35.658  35.878  1.00  0.00    -0.206 F 
ATOM     84  C   UNL A   1      40.237  36.270  37.923  1.00  0.00     0.059 A 
ATOM     85  C   UNL A   1      38.877  34.668  39.141  1.00  0.00     0.059 A 
ATOM     86  F   UNL A   1      38.577  32.506  38.284  1.00  0.00    -0.206 F 
ATOM     87  C   UNL A   1      39.458  35.930  39.031  1.00  0.00     0.060 A 
BRANCH  87  88
ATOM     88  S   UNL A   1      39.205  37.162  40.326  1.00  0.00     0.124 S 
ATOM     89  O   UNL A   1      38.375  36.426  41.273  1.00  0.00    -0.237 OA
ATOM     90  O   UNL A   1      40.568  37.444  40.764  1.00  0.00    -0.237 OA
ATOM     91  O   UNL A   1      38.540  38.258  39.626  1.00  0.00    -0.744 OA
ENDBRANCH  87  88
ENDBRANCH  55  80
ENDBRANCH  29  30
ENDBRANCH  21  24
ENDBRANCH  19  20
ENDBRANCH   1  19
TORSDOF 15
ENDMDL
MODEL 2
REMARK VINA RESULT:     -11.3      2.061      3.079
REMARK SMILES O=C(CSc1ccc2ccccc2c1)NCCCNC(=O)c1ccc(-c2c3nc(c(-c4c(F)cc(S(=O)(=O)[O-])cc4F)c4ccc([nH]4)c(-c4c(F)cc(S(=O)(=O)[O-])cc4F)c4nc(c(-c5c(F)cc(S(=O)(=O)[O-])cc5F)c5ccc2[nH]5)C=C4)C=C3)cc1
REMARK SMILES IDX 17 1 16 2 15 3 1 4 2 5 3 7 4 8 5 9 6 10 14 11 7 12 13 13
REMARK SMILES IDX 8 14 12 15 9 16 11 17 10 18 18 19 19 20 20 21 21 23 22 24
REMARK SMILES IDX 23 25 87 26 24 27 86 28 25 29 26 30 27 31 80 32 28 33 85 34
REMARK SMILES IDX 79 35 81 36 29 37 84 38 78 39 77 40 30 42 64 43 43 44 63 45
REMARK SMILES IDX 44 46 47 47 62 48 82 49 45 50 46 51 61 53 83 54 48 55 31 56
REMARK SMILES IDX 32 57 41 58 33 59 34 60 40 61 42 62 35 63 36 64 37 65 38 66
REMARK SMILES IDX 39 67 65 68 66 69 75 70 67 71 68 72 74 73 76 74 69 75 70 76
REMARK SMILES IDX 71 77 72 78 73 79 49 80 50 81 59 82 51 83 52 84 58 85 60 86
REMARK SMILES IDX 53 87 54 88 55 89 56 90 57 91
REMARK H PARENT 15 6 19 22 81 41 47 52
REMARK Flexibility Score: inf
ROOT
ATOM      1  C   UNL A   1      40.737  22.428  27.669  1.00  0.00     0.042 C 
ENDROOT
BRANCH   1   2
ATOM      2  C   UNL A   1      39.912  21.951  26.477  1.00  0.00     0.117 C 
BRANCH   2   3
ATOM      3  N   UNL A   1      38.718  22.744  26.265  1.00  0.00    -0.355 N 
ATOM      4  O   UNL A   1      37.769  21.368  24.686  1.00  0.00    -0.274 OA
ATOM      5  C   UNL A   1      37.710  22.364  25.402  1.00  0.00     0.230 C 
ATOM      6  H   UNL A   1      38.622  23.591  26.757  1.00  0.00     0.163 HD
BRANCH   5   7
ATOM      7  C   UNL A   1      36.538  23.328  25.327  1.00  0.00     0.174 C 
BRANCH   7   8
ATOM      8  S   UNL A   1      35.151  22.832  26.405  1.00  0.00    -0.116 SA
BRANCH   8   9
ATOM      9  C   UNL A   1      34.268  21.649  25.396  1.00  0.00     0.008 A 
ATOM     10  C   UNL A   1      33.203  22.125  24.625  1.00  0.00     0.016 A 
ATOM     11  C   UNL A   1      34.625  20.301  25.294  1.00  0.00     0.023 A 
ATOM     12  C   UNL A   1      32.495  21.268  23.778  1.00  0.00     0.010 A 
ATOM     13  C   UNL A   1      33.925  19.424  24.442  1.00  0.00    -0.017 A 
ATOM     14  C   UNL A   1      32.847  19.916  23.672  1.00  0.00    -0.018 A 
ATOM     15  C   UNL A   1      34.278  18.069  24.333  1.00  0.00     0.009 A 
ATOM     16  C   UNL A   1      32.155  19.045  22.815  1.00  0.00     0.009 A 
ATOM     17  C   UNL A   1      33.582  17.214  23.475  1.00  0.00     0.001 A 
ATOM     18  C   UNL A   1      32.523  17.702  22.717  1.00  0.00     0.001 A 
ENDBRANCH   8   9
ENDBRANCH   7   8
ENDBRANCH   5   7
ENDBRANCH   2   3
ENDBRANCH   1   2
BRANCH   1  19
ATOM     19  C   UNL A   1      42.078  23.069  27.316  1.00  0.00     0.118 C 
BRANCH  19  20
ATOM     20  N   UNL A   1      42.008  23.969  26.176  1.00  0.00    -0.352 N 
ATOM     21  C   UNL A   1      41.694  25.303  26.100  1.00  0.00     0.251 C 
ATOM     22  H   UNL A   1      42.221  23.550  25.311  1.00  0.00     0.163 HD
ATOM     23  O   UNL A   1      41.592  25.819  24.986  1.00  0.00    -0.269 OA
BRANCH  21  24
ATOM     24  C   UNL A   1      41.451  26.123  27.312  1.00  0.00     0.039 A 
ATOM     25  C   UNL A   1      42.414  27.076  27.665  1.00  0.00     0.014 A 
ATOM     26  C   UNL A   1      40.333  25.943  28.132  1.00  0.00     0.014 A 
ATOM     27  C   UNL A   1      42.230  27.876  28.797  1.00  0.00     0.010 A 
ATOM     28  C   UNL A   1      40.116  26.789  29.222  1.00  0.00     0.010 A 
ATOM     29  C   UNL A   1      41.062  27.765  29.569  1.00  0.00    -0.014 A 
BRANCH  29  30
ATOM     30  C   UNL A   1      40.827  28.681  30.720  1.00  0.00     0.031 A 
ATOM     31  C   UNL A   1      41.647  28.576  31.978  1.00  0.00     0.074 A 
ATOM     32  C   UNL A   1      39.844  29.601  30.640  1.00  0.00     0.049 A 
ATOM     33  N   UNL A   1      41.593  29.307  33.064  1.00  0.00    -0.248 NA
ATOM     34  C   UNL A   1      42.644  27.496  32.036  1.00  0.00     0.031 C 
ATOM     35  C   UNL A   1      38.931  29.766  29.505  1.00  0.00     0.029 A 
ATOM     36  N   UNL A   1      39.447  30.572  31.525  1.00  0.00    -0.354 N 
ATOM     37  C   UNL A   1      42.536  28.774  33.934  1.00  0.00     0.074 A 
ATOM     38  C   UNL A   1      43.114  27.624  33.270  1.00  0.00     0.031 C 
ATOM     39  C   UNL A   1      38.108  30.796  29.749  1.00  0.00     0.029 A 
ATOM     40  C   UNL A   1      38.412  31.351  31.064  1.00  0.00     0.049 A 
ATOM     41  H   UNL A   1      39.865  30.699  32.407  1.00  0.00     0.167 HD
ATOM     42  C   UNL A   1      42.906  29.213  35.162  1.00  0.00     0.037 A 
ATOM     43  C   UNL A   1      37.784  32.400  31.629  1.00  0.00     0.037 A 
ATOM     44  C   UNL A   1      42.346  30.371  35.813  1.00  0.00     0.049 A 
ATOM     45  C   UNL A   1      38.238  32.892  32.974  1.00  0.00     0.074 A 
ATOM     46  C   UNL A   1      42.694  30.928  37.032  1.00  0.00     0.029 A 
ATOM     47  N   UNL A   1      41.321  31.152  35.300  1.00  0.00    -0.354 N 
ATOM     48  N   UNL A   1      39.182  32.417  33.752  1.00  0.00    -0.248 NA
ATOM     49  C   UNL A   1      37.554  34.077  33.511  1.00  0.00     0.031 C 
ATOM     50  C   UNL A   1      41.856  32.023  37.273  1.00  0.00     0.029 A 
ATOM     51  C   UNL A   1      41.016  32.177  36.182  1.00  0.00     0.049 A 
ATOM     52  H   UNL A   1      40.874  31.000  34.436  1.00  0.00     0.167 HD
ATOM     53  C   UNL A   1      39.220  33.258  34.859  1.00  0.00     0.074 A 
ATOM     54  C   UNL A   1      38.218  34.281  34.641  1.00  0.00     0.031 C 
ATOM     55  C   UNL A   1      40.014  33.188  35.957  1.00  0.00     0.037 A 
BRANCH  42  56
ATOM     56  C   UNL A   1      43.979  28.442  35.883  1.00  0.00     0.058 A 
ATOM     57  C   UNL A   1      45.338  28.768  35.743  1.00  0.00     0.135 A 
ATOM     58  C   UNL A   1      43.647  27.390  36.751  1.00  0.00     0.135 A 
ATOM     59  F   UNL A   1      45.716  29.756  34.916  1.00  0.00    -0.206 F 
ATOM     60  C   UNL A   1      46.331  28.058  36.413  1.00  0.00     0.059 A 
ATOM     61  C   UNL A   1      44.621  26.684  37.453  1.00  0.00     0.059 A 
ATOM     62  F   UNL A   1      42.363  27.038  36.926  1.00  0.00    -0.206 F 
ATOM     63  C   UNL A   1      45.963  27.016  37.263  1.00  0.00     0.060 A 
BRANCH  63  64
ATOM     64  S   UNL A   1      47.260  26.103  38.127  1.00  0.00     0.124 S 
ATOM     65  O   UNL A   1      47.595  25.078  37.143  1.00  0.00    -0.237 OA
ATOM     66  O   UNL A   1      48.276  27.131  38.340  1.00  0.00    -0.237 OA
ATOM     67  O   UNL A   1      46.596  25.624  39.332  1.00  0.00    -0.744 OA
ENDBRANCH  63  64
ENDBRANCH  42  56
BRANCH  43  68
ATOM     68  C   UNL A   1      36.685  33.085  30.898  1.00  0.00     0.058 A 
ATOM     69  C   UNL A   1      35.342  32.843  31.224  1.00  0.00     0.135 A 
ATOM     70  C   UNL A   1      36.954  34.001  29.869  1.00  0.00     0.135 A 
ATOM     71  F   UNL A   1      35.035  31.971  32.197  1.00  0.00    -0.206 F 
ATOM     72  C   UNL A   1      34.303  33.472  30.547  1.00  0.00     0.059 A 
ATOM     73  C   UNL A   1      35.933  34.662  29.194  1.00  0.00     0.059 A 
ATOM     74  F   UNL A   1      38.223  34.280  29.533  1.00  0.00    -0.206 F 
ATOM     75  C   UNL A   1      34.609  34.382  29.533  1.00  0.00     0.060 A 
BRANCH  75  76
ATOM     76  S   UNL A   1      33.255  35.232  28.693  1.00  0.00     0.124 S 
ATOM     77  O   UNL A   1      33.980  36.183  27.858  1.00  0.00    -0.237 OA
ATOM     78  O   UNL A   1      32.593  34.138  27.992  1.00  0.00    -0.237 OA
ATOM     79  O   UNL A   1      32.491  35.812  29.795  1.00  0.00    -0.744 OA
ENDBRANCH  75  76
ENDBRANCH  43  68
BRANCH  55  80
ATOM     80  C   UNL A   1      39.847  34.270  36.989  1.00  0.00     0.058 A 
ATOM     81  C   UNL A   1      40.452  35.528  36.845  1.00  0.00     0.135 A 
ATOM     82  C   UNL A   1      39.074  34.043  38.139  1.00  0.00     0.135 A 
ATOM     83  F   UNL A   1      41.206  35.797  35.767  1.00  0.00    -0.206 F 
ATOM     84  C   UNL A   1      40.334  36.508  37.826  1.00  0.00     0.059 A 
ATOM     85  C   UNL A   1      38.919  35.018  39.120  1.00  0.00     0.059 A 
ATOM     86  F   UNL A   1      38.462  32.862  38.320  1.00  0.00    -0.206 F 
ATOM     87  C   UNL A   1      39.572  36.239  38.964  1.00  0.00     0.060 A 
BRANCH  87  88
ATOM     88  S   UNL A   1      39.436  37.510  40.239  1.00  0.00     0.124 S 
ATOM     89  O   UNL A   1      40.813  37.983  40.331  1.00  0.00    -0.237 OA
ATOM     90  O   UNL A   1      38.483  38.447  39.652  1.00  0.00    -0.237 OA
ATOM     91  O   UNL A   1      38.945  36.774  41.401  1.00  0.00    -0.744 OA
ENDBRANCH  87  88
ENDBRANCH  55  80
ENDBRANCH  29  30
ENDBRANCH  21  24
ENDBRANCH  19  20
ENDBRANCH   1  19
TORSDOF 15
ENDMDL
MODEL 3
REMARK VINA RESULT:     -11.2      2.290      3.608
REMARK SMILES O=C(CSc1ccc2ccccc2c1)NCCCNC(=O)c1ccc(-c2c3nc(c(-c4c(F)cc(S(=O)(=O)[O-])cc4F)c4ccc([nH]4)c(-c4c(F)cc(S(=O)(=O)[O-])cc4F)c4nc(c(-c5c(F)cc(S(=O)(=O)[O-])cc5F)c5ccc2[nH]5)C=C4)C=C3)cc1
REMARK SMILES IDX 17 1 16 2 15 3 1 4 2 5 3 7 4 8 5 9 6 10 14 11 7 12 13 13
REMARK SMILES IDX 8 14 12 15 9 16 11 17 10 18 18 19 19 20 20 21 21 23 22 24
REMARK SMILES IDX 23 25 87 26 24 27 86 28 25 29 26 30 27 31 80 32 28 33 85 34
REMARK SMILES IDX 79 35 81 36 29 37 84 38 78 39 77 40 30 42 64 43 43 44 63 45
REMARK SMILES IDX 44 46 47 47 62 48 82 49 45 50 46 51 61 53 83 54 48 55 31 56
REMARK SMILES IDX 32 57 41 58 33 59 34 60 40 61 42 62 35 63 36 64 37 65 38 66
REMARK SMILES IDX 39 67 65 68 66 69 75 70 67 71 68 72 74 73 76 74 69 75 70 76
REMARK SMILES IDX 71 77 72 78 73 79 49 80 50 81 59 82 51 83 52 84 58 85 60 86
REMARK SMILES IDX 53 87 54 88 55 89 56 90 57 91
REMARK H PARENT 15 6 19 22 81 41 47 52
REMARK Flexibility Score: inf
ROOT
ATOM      1  C   UNL A   1      40.355  22.356  27.489  1.00  0.00     0.042 C 
ENDROOT
BRANCH   1   2
ATOM      2  C   UNL A   1      39.565  22.117  26.206  1.00  0.00     0.117 C 
BRANCH   2   3
ATOM      3  N   UNL A   1      38.159  22.438  26.342  1.00  0.00    -0.355 N 
ATOM      4  O   UNL A   1      37.413  21.050  24.668  1.00  0.00    -0.274 OA
ATOM      5  C   UNL A   1      37.178  21.842  25.577  1.00  0.00     0.230 C 
ATOM      6  H   UNL A   1      37.892  23.111  27.008  1.00  0.00     0.163 HD
BRANCH   5   7
ATOM      7  C   UNL A   1      35.764  22.309  25.877  1.00  0.00     0.174 C 
BRANCH   7   8
ATOM      8  S   UNL A   1      34.935  23.021  24.414  1.00  0.00    -0.116 SA
BRANCH   8   9
ATOM      9  C   UNL A   1      33.964  24.349  25.115  1.00  0.00     0.008 A 
ATOM     10  C   UNL A   1      32.866  23.999  25.906  1.00  0.00     0.016 A 
ATOM     11  C   UNL A   1      34.283  25.702  24.964  1.00  0.00     0.023 A 
ATOM     12  C   UNL A   1      32.088  24.981  26.524  1.00  0.00     0.010 A 
ATOM     13  C   UNL A   1      33.511  26.706  25.582  1.00  0.00    -0.017 A 
ATOM     14  C   UNL A   1      32.401  26.339  26.375  1.00  0.00    -0.018 A 
ATOM     15  C   UNL A   1      33.824  28.067  25.435  1.00  0.00     0.009 A 
ATOM     16  C   UNL A   1      31.638  27.339  27.000  1.00  0.00     0.009 A 
ATOM     17  C   UNL A   1      33.058  29.051  26.064  1.00  0.00     0.001 A 
ATOM     18  C   UNL A   1      31.966  28.686  26.846  1.00  0.00     0.001 A 
ENDBRANCH   8   9
ENDBRANCH   7   8
ENDBRANCH   5   7
ENDBRANCH   2   3
ENDBRANCH   1   2
BRANCH   1  19
ATOM     19  C   UNL A   1      41.702  23.054  27.304  1.00  0.00     0.118 C 
BRANCH  19  20
ATOM     20  N   UNL A   1      41.728  23.973  26.176  1.00  0.00    -0.352 N 
ATOM     21  C   UNL A   1      41.512  25.327  26.114  1.00  0.00     0.251 C 
ATOM     22  H   UNL A   1      41.935  23.551  25.311  1.00  0.00     0.163 HD
ATOM     23  O   UNL A   1      41.478  25.864  25.006  1.00  0.00    -0.269 OA
BRANCH  21  24
ATOM     24  C   UNL A   1      41.295  26.145  27.332  1.00  0.00     0.039 A 
ATOM     25  C   UNL A   1      42.243  27.126  27.643  1.00  0.00     0.014 A 
ATOM     26  C   UNL A   1      40.217  25.936  28.197  1.00  0.00     0.014 A 
ATOM     27  C   UNL A   1      42.083  27.926  28.779  1.00  0.00     0.010 A 
ATOM     28  C   UNL A   1      40.020  26.781  29.292  1.00  0.00     0.010 A 
ATOM     29  C   UNL A   1      40.950  27.785  29.597  1.00  0.00    -0.014 A 
BRANCH  29  30
ATOM     30  C   UNL A   1      40.736  28.699  30.754  1.00  0.00     0.031 A 
ATOM     31  C   UNL A   1      41.569  28.583  32.003  1.00  0.00     0.074 A 
ATOM     32  C   UNL A   1      39.760  29.627  30.688  1.00  0.00     0.049 A 
ATOM     33  N   UNL A   1      41.533  29.311  33.091  1.00  0.00    -0.248 NA
ATOM     34  C   UNL A   1      42.558  27.494  32.046  1.00  0.00     0.031 C 
ATOM     35  C   UNL A   1      38.836  29.803  29.565  1.00  0.00     0.029 A 
ATOM     36  N   UNL A   1      39.381  30.599  31.581  1.00  0.00    -0.354 N 
ATOM     37  C   UNL A   1      42.482  28.767  33.949  1.00  0.00     0.074 A 
ATOM     38  C   UNL A   1      43.043  27.615  33.275  1.00  0.00     0.031 C 
ATOM     39  C   UNL A   1      38.023  30.840  29.820  1.00  0.00     0.029 A 
ATOM     40  C   UNL A   1      38.347  31.388  31.134  1.00  0.00     0.049 A 
ATOM     41  H   UNL A   1      39.810  30.719  32.459  1.00  0.00     0.167 HD
ATOM     42  C   UNL A   1      42.869  29.199  35.174  1.00  0.00     0.037 A 
ATOM     43  C   UNL A   1      37.734  32.440  31.709  1.00  0.00     0.037 A 
ATOM     44  C   UNL A   1      42.326  30.360  35.835  1.00  0.00     0.049 A 
ATOM     45  C   UNL A   1      38.207  32.924  33.051  1.00  0.00     0.074 A 
ATOM     46  C   UNL A   1      42.692  30.909  37.052  1.00  0.00     0.029 A 
ATOM     47  N   UNL A   1      41.302  31.151  35.336  1.00  0.00    -0.354 N 
ATOM     48  N   UNL A   1      39.156  32.439  33.816  1.00  0.00    -0.248 NA
ATOM     49  C   UNL A   1      37.539  34.113  33.600  1.00  0.00     0.031 C 
ATOM     50  C   UNL A   1      41.866  32.011  37.306  1.00  0.00     0.029 A 
ATOM     51  C   UNL A   1      41.015  32.176  36.225  1.00  0.00     0.049 A 
ATOM     52  H   UNL A   1      40.844  31.005  34.476  1.00  0.00     0.167 HD
ATOM     53  C   UNL A   1      39.214  33.275  34.926  1.00  0.00     0.074 A 
ATOM     54  C   UNL A   1      38.218  34.307  34.722  1.00  0.00     0.031 C 
ATOM     55  C   UNL A   1      40.019  33.195  36.014  1.00  0.00     0.037 A 
BRANCH  42  56
ATOM     56  C   UNL A   1      43.944  28.417  35.880  1.00  0.00     0.058 A 
ATOM     57  C   UNL A   1      43.632  27.364  36.755  1.00  0.00     0.135 A 
ATOM     58  C   UNL A   1      45.301  28.697  35.654  1.00  0.00     0.135 A 
ATOM     59  F   UNL A   1      42.352  27.060  37.019  1.00  0.00    -0.206 F 
ATOM     60  C   UNL A   1      44.626  26.637  37.405  1.00  0.00     0.059 A 
ATOM     61  C   UNL A   1      46.313  27.965  36.271  1.00  0.00     0.059 A 
ATOM     62  F   UNL A   1      45.657  29.691  34.825  1.00  0.00    -0.206 F 
ATOM     63  C   UNL A   1      45.964  26.947  37.159  1.00  0.00     0.060 A 
BRANCH  63  64
ATOM     64  S   UNL A   1      47.243  25.996  38.007  1.00  0.00     0.124 S 
ATOM     65  O   UNL A   1      46.509  25.493  39.165  1.00  0.00    -0.237 OA
ATOM     66  O   UNL A   1      47.606  24.996  37.005  1.00  0.00    -0.237 OA
ATOM     67  O   UNL A   1      48.270  26.989  38.298  1.00  0.00    -0.744 OA
ENDBRANCH  63  64
ENDBRANCH  42  56
BRANCH  43  68
ATOM     68  C   UNL A   1      36.632  33.137  30.993  1.00  0.00     0.058 A 
ATOM     69  C   UNL A   1      35.297  32.966  31.386  1.00  0.00     0.135 A 
ATOM     70  C   UNL A   1      36.894  33.993  29.912  1.00  0.00     0.135 A 
ATOM     71  F   UNL A   1      34.998  32.153  32.410  1.00  0.00    -0.206 F 
ATOM     72  C   UNL A   1      34.255  33.607  30.723  1.00  0.00     0.059 A 
ATOM     73  C   UNL A   1      35.871  34.664  29.249  1.00  0.00     0.059 A 
ATOM     74  F   UNL A   1      38.156  34.202  29.510  1.00  0.00    -0.206 F 
ATOM     75  C   UNL A   1      34.553  34.455  29.656  1.00  0.00     0.060 A 
BRANCH  75  76
ATOM     76  S   UNL A   1      33.199  35.323  28.833  1.00  0.00     0.124 S 
ATOM     77  O   UNL A   1      32.448  35.841  29.971  1.00  0.00    -0.237 OA
ATOM     78  O   UNL A   1      33.910  36.313  28.031  1.00  0.00    -0.237 OA
ATOM     79  O   UNL A   1      32.541  34.266  28.070  1.00  0.00    -0.744 OA
ENDBRANCH  75  76
ENDBRANCH  43  68
BRANCH  55  80
ATOM     80  C   UNL A   1      39.873  34.275  37.052  1.00  0.00     0.058 A 
ATOM     81  C   UNL A   1      39.089  34.093  38.202  1.00  0.00     0.135 A 
ATOM     82  C   UNL A   1      40.525  35.508  36.892  1.00  0.00     0.135 A 
ATOM     83  F   UNL A   1      38.441  32.934  38.403  1.00  0.00    -0.206 F 
ATOM     84  C   UNL A   1      38.919  35.112  39.135  1.00  0.00     0.059 A 
ATOM     85  C   UNL A   1      40.392  36.531  37.826  1.00  0.00     0.059 A 
ATOM     86  F   UNL A   1      41.299  35.730  35.818  1.00  0.00    -0.206 F 
ATOM     87  C   UNL A   1      39.569  36.331  38.933  1.00  0.00     0.060 A 
BRANCH  87  88
ATOM     88  S   UNL A   1      39.332  37.652  40.139  1.00  0.00     0.124 S 
ATOM     89  O   UNL A   1      39.031  36.895  41.349  1.00  0.00    -0.237 OA
ATOM     90  O   UNL A   1      40.624  38.332  40.122  1.00  0.00    -0.237 OA
ATOM     91  O   UNL A   1      38.221  38.421  39.586  1.00  0.00    -0.744 OA
ENDBRANCH  87  88
ENDBRANCH  55  80
ENDBRANCH  29  30
ENDBRANCH  21  24
ENDBRANCH  19  20
ENDBRANCH   1  19
TORSDOF 15
ENDMDL
