MODEL 1
REMARK VINA RESULT:     -12.1      0.000      0.000
REMARK SMILES C[NH+](CC(=O)NCCCNC(=O)c1ccc(-c2c3nc(c(-c4c(F)cc(S(=O)(=O)[O-])cc4F)c4ccc([nH]4)c(-c4c(F)cc(S(=O)(=O)[O-])cc4F)c4nc(c(-c5c(F)cc(S(=O)(=O)[O-])cc5F)c5ccc2[nH]5)C=C4)C=C3)cc1)Cc1noc(-c2ccccc2Cl)n1
REMARK SMILES IDX 7 1 6 2 4 3 5 4 3 6 2 7 1 8 79 10 80 11 81 12 91 13 82 14
REMARK SMILES IDX 83 15 84 16 85 17 89 18 86 19 88 20 90 21 87 22 8 23 9 24
REMARK SMILES IDX 10 25 11 26 12 28 13 29 14 30 78 31 15 32 77 33 16 34 17 35
REMARK SMILES IDX 18 36 71 37 19 38 76 39 70 40 72 41 20 42 75 43 69 44 68 45
REMARK SMILES IDX 21 47 55 48 34 49 54 50 35 51 38 52 53 53 73 54 36 55 37 56
REMARK SMILES IDX 52 58 74 59 39 60 22 61 23 62 32 63 24 64 25 65 31 66 33 67
REMARK SMILES IDX 26 68 27 69 28 70 29 71 30 72 56 73 57 74 66 75 58 76 59 77
REMARK SMILES IDX 65 78 67 79 60 80 61 81 62 82 63 83 64 84 40 85 41 86 50 87
REMARK SMILES IDX 42 88 43 89 49 90 51 91 44 92 45 93 46 94 47 95 48 96
REMARK H PARENT 6 5 2 9 10 27 72 46 38 57
REMARK Flexibility Score: inf
ROOT
ATOM      1  C   UNL A   1      37.299  22.448  24.559  1.00  0.00     0.118 C 
ENDROOT
BRANCH   1   2
ATOM      2  N   UNL A   1      36.321  23.185  23.779  1.00  0.00    -0.351 N 
ATOM      3  C   UNL A   1      34.985  22.957  23.601  1.00  0.00     0.275 C 
ATOM      4  O   UNL A   1      34.349  23.733  22.880  1.00  0.00    -0.269 OA
ATOM      5  H   UNL A   1      36.674  23.973  23.306  1.00  0.00     0.163 HD
BRANCH   3   6
ATOM      6  C   UNL A   1      34.287  21.796  24.309  1.00  0.00     0.363 C 
BRANCH   6   7
ATOM      7  N   UNL A   1      33.458  22.207  25.429  1.00  0.00    -0.323 N 
ATOM      8  C   UNL A   1      33.980  22.180  26.768  1.00  0.00     0.333 C 
ATOM      9  H   UNL A   1      33.987  22.942  24.961  1.00  0.00     0.348 HD
BRANCH   7  10
ATOM     10  C   UNL A   1      32.074  22.615  25.214  1.00  0.00     0.345 C 
BRANCH  10  11
ATOM     11  C   UNL A   1      31.689  23.953  25.779  1.00  0.00     0.226 A 
ATOM     12  N   UNL A   1      30.642  24.165  26.586  1.00  0.00    -0.056 NA
ATOM     13  N   UNL A   1      32.374  25.100  25.443  1.00  0.00    -0.186 NA
ATOM     14  O   UNL A   1      30.632  25.537  26.770  1.00  0.00    -0.334 OA
ATOM     15  C   UNL A   1      31.685  26.038  26.056  1.00  0.00     0.259 A 
BRANCH  15  16
ATOM     16  C   UNL A   1      31.826  27.487  26.083  1.00  0.00     0.058 A 
ATOM     17  C   UNL A   1      32.537  28.087  27.142  1.00  0.00     0.015 A 
ATOM     18  C   UNL A   1      31.265  28.321  25.104  1.00  0.00     0.053 A 
ATOM     19  C   UNL A   1      32.680  29.473  27.224  1.00  0.00     0.001 A 
ATOM     20  C   UNL A   1      31.411  29.712  25.190  1.00  0.00     0.021 A 
ATOM     21  Cl  UNL A   1      30.324  27.720  23.780  1.00  0.00    -0.083 Cl
ATOM     22  C   UNL A   1      32.117  30.286  26.246  1.00  0.00     0.002 A 
ENDBRANCH  15  16
ENDBRANCH  10  11
ENDBRANCH   7  10
ENDBRANCH   6   7
ENDBRANCH   3   6
ENDBRANCH   1   2
BRANCH   1  23
ATOM     23  C   UNL A   1      37.442  22.935  26.001  1.00  0.00     0.042 C 
BRANCH  23  24
ATOM     24  C   UNL A   1      38.254  24.214  26.177  1.00  0.00     0.118 C 
BRANCH  24  25
ATOM     25  N   UNL A   1      39.682  23.988  26.032  1.00  0.00    -0.352 N 
ATOM     26  C   UNL A   1      40.763  24.647  26.564  1.00  0.00     0.251 C 
ATOM     27  H   UNL A   1      39.916  23.229  25.449  1.00  0.00     0.163 HD
ATOM     28  O   UNL A   1      41.879  24.399  26.111  1.00  0.00    -0.269 OA
BRANCH  26  29
ATOM     29  C   UNL A   1      40.625  25.651  27.651  1.00  0.00     0.039 A 
ATOM     30  C   UNL A   1      41.588  26.664  27.740  1.00  0.00     0.014 A 
ATOM     31  C   UNL A   1      39.633  25.569  28.630  1.00  0.00     0.014 A 
ATOM     32  C   UNL A   1      41.530  27.609  28.772  1.00  0.00     0.010 A 
ATOM     33  C   UNL A   1      39.532  26.553  29.619  1.00  0.00     0.010 A 
ATOM     34  C   UNL A   1      40.485  27.580  29.709  1.00  0.00    -0.014 A 
BRANCH  34  35
ATOM     35  C   UNL A   1      40.390  28.603  30.788  1.00  0.00     0.031 A 
ATOM     36  C   UNL A   1      41.264  28.508  32.014  1.00  0.00     0.074 A 
ATOM     37  C   UNL A   1      39.486  29.598  30.690  1.00  0.00     0.049 A 
ATOM     38  N   UNL A   1      41.276  29.266  33.081  1.00  0.00    -0.248 NA
ATOM     39  C   UNL A   1      42.235  27.403  32.054  1.00  0.00     0.031 C 
ATOM     40  C   UNL A   1      38.554  29.788  29.577  1.00  0.00     0.029 A 
ATOM     41  N   UNL A   1      39.195  30.634  31.544  1.00  0.00    -0.354 N 
ATOM     42  C   UNL A   1      42.239  28.724  33.924  1.00  0.00     0.074 A 
ATOM     43  C   UNL A   1      42.758  27.545  33.263  1.00  0.00     0.031 C 
ATOM     44  C   UNL A   1      37.810  30.882  29.806  1.00  0.00     0.029 A 
ATOM     45  C   UNL A   1      38.183  31.452  31.098  1.00  0.00     0.049 A 
ATOM     46  H   UNL A   1      39.667  30.779  32.396  1.00  0.00     0.167 HD
ATOM     47  C   UNL A   1      42.669  29.176  35.128  1.00  0.00     0.037 A 
ATOM     48  C   UNL A   1      37.610  32.533  31.664  1.00  0.00     0.037 A 
ATOM     49  C   UNL A   1      42.176  30.367  35.771  1.00  0.00     0.049 A 
ATOM     50  C   UNL A   1      38.105  33.016  32.999  1.00  0.00     0.074 A 
ATOM     51  C   UNL A   1      42.590  30.935  36.965  1.00  0.00     0.029 A 
ATOM     52  N   UNL A   1      41.163  31.176  35.276  1.00  0.00    -0.354 N 
ATOM     53  N   UNL A   1      39.051  32.517  33.758  1.00  0.00    -0.248 NA
ATOM     54  C   UNL A   1      37.457  34.213  33.555  1.00  0.00     0.031 C 
ATOM     55  C   UNL A   1      41.802  32.064  37.210  1.00  0.00     0.029 A 
ATOM     56  C   UNL A   1      40.927  32.226  36.148  1.00  0.00     0.049 A 
ATOM     57  H   UNL A   1      40.684  31.026  34.430  1.00  0.00     0.167 HD
ATOM     58  C   UNL A   1      39.129  33.353  34.867  1.00  0.00     0.074 A 
ATOM     59  C   UNL A   1      38.143  34.395  34.676  1.00  0.00     0.031 C 
ATOM     60  C   UNL A   1      39.947  33.263  35.946  1.00  0.00     0.037 A 
BRANCH  47  61
ATOM     61  C   UNL A   1      43.732  28.378  35.834  1.00  0.00     0.058 A 
ATOM     62  C   UNL A   1      43.406  27.338  36.720  1.00  0.00     0.135 A 
ATOM     63  C   UNL A   1      45.093  28.630  35.595  1.00  0.00     0.135 A 
ATOM     64  F   UNL A   1      42.122  27.062  36.996  1.00  0.00    -0.206 F 
ATOM     65  C   UNL A   1      44.391  26.600  37.370  1.00  0.00     0.059 A 
ATOM     66  C   UNL A   1      46.095  27.885  36.212  1.00  0.00     0.059 A 
ATOM     67  F   UNL A   1      45.462  29.610  34.754  1.00  0.00    -0.206 F 
ATOM     68  C   UNL A   1      45.733  26.883  37.111  1.00  0.00     0.060 A 
BRANCH  68  69
ATOM     69  S   UNL A   1      46.999  25.920  37.965  1.00  0.00     0.124 S 
ATOM     70  O   UNL A   1      47.750  26.970  38.646  1.00  0.00    -0.237 OA
ATOM     71  O   UNL A   1      46.205  25.050  38.825  1.00  0.00    -0.237 OA
ATOM     72  O   UNL A   1      47.706  25.248  36.878  1.00  0.00    -0.744 OA
ENDBRANCH  68  69
ENDBRANCH  47  61
BRANCH  48  73
ATOM     73  C   UNL A   1      36.511  33.245  30.957  1.00  0.00     0.058 A 
ATOM     74  C   UNL A   1      35.178  33.102  31.369  1.00  0.00     0.135 A 
ATOM     75  C   UNL A   1      36.773  34.091  29.869  1.00  0.00     0.135 A 
ATOM     76  F   UNL A   1      34.877  32.296  32.399  1.00  0.00    -0.206 F 
ATOM     77  C   UNL A   1      34.140  33.761  30.719  1.00  0.00     0.059 A 
ATOM     78  C   UNL A   1      35.755  34.782  29.219  1.00  0.00     0.059 A 
ATOM     79  F   UNL A   1      38.034  34.274  29.447  1.00  0.00    -0.206 F 
ATOM     80  C   UNL A   1      34.440  34.602  29.647  1.00  0.00     0.060 A 
BRANCH  80  81
ATOM     81  S   UNL A   1      33.092  35.499  28.844  1.00  0.00     0.124 S 
ATOM     82  O   UNL A   1      32.440  34.435  28.090  1.00  0.00    -0.237 OA
ATOM     83  O   UNL A   1      32.348  36.021  29.987  1.00  0.00    -0.237 OA
ATOM     84  O   UNL A   1      33.788  36.505  28.047  1.00  0.00    -0.744 OA
ENDBRANCH  80  81
ENDBRANCH  48  73
BRANCH  60  85
ATOM     85  C   UNL A   1      39.834  34.338  36.992  1.00  0.00     0.058 A 
ATOM     86  C   UNL A   1      40.539  35.546  36.885  1.00  0.00     0.135 A 
ATOM     87  C   UNL A   1      38.973  34.174  38.088  1.00  0.00     0.135 A 
ATOM     88  F   UNL A   1      41.381  35.750  35.860  1.00  0.00    -0.206 F 
ATOM     89  C   UNL A   1      40.409  36.550  37.841  1.00  0.00     0.059 A 
ATOM     90  C   UNL A   1      38.808  35.173  39.043  1.00  0.00     0.059 A 
ATOM     91  F   UNL A   1      38.270  33.041  38.232  1.00  0.00    -0.206 F 
ATOM     92  C   UNL A   1      39.540  36.353  38.917  1.00  0.00     0.060 A 
BRANCH  92  93
ATOM     93  S   UNL A   1      39.352  37.676  40.132  1.00  0.00     0.124 S 
ATOM     94  O   UNL A   1      39.055  36.920  41.344  1.00  0.00    -0.237 OA
ATOM     95  O   UNL A   1      40.660  38.325  40.094  1.00  0.00    -0.237 OA
ATOM     96  O   UNL A   1      38.250  38.472  39.601  1.00  0.00    -0.744 OA
ENDBRANCH  92  93
ENDBRANCH  60  85
ENDBRANCH  34  35
ENDBRANCH  26  29
ENDBRANCH  24  25
ENDBRANCH  23  24
ENDBRANCH   1  23
TORSDOF 17
ENDMDL
MODEL 2
REMARK VINA RESULT:     -12.0      6.681     12.265
REMARK SMILES C[NH+](CC(=O)NCCCNC(=O)c1ccc(-c2c3nc(c(-c4c(F)cc(S(=O)(=O)[O-])cc4F)c4ccc([nH]4)c(-c4c(F)cc(S(=O)(=O)[O-])cc4F)c4nc(c(-c5c(F)cc(S(=O)(=O)[O-])cc5F)c5ccc2[nH]5)C=C4)C=C3)cc1)Cc1noc(-c2ccccc2Cl)n1
REMARK SMILES IDX 7 1 6 2 4 3 5 4 3 6 2 7 1 8 79 10 80 11 81 12 91 13 82 14
REMARK SMILES IDX 83 15 84 16 85 17 89 18 86 19 88 20 90 21 87 22 8 23 9 24
REMARK SMILES IDX 10 25 11 26 12 28 13 29 14 30 78 31 15 32 77 33 16 34 17 35
REMARK SMILES IDX 18 36 71 37 19 38 76 39 70 40 72 41 20 42 75 43 69 44 68 45
REMARK SMILES IDX 21 47 55 48 34 49 54 50 35 51 38 52 53 53 73 54 36 55 37 56
REMARK SMILES IDX 52 58 74 59 39 60 22 61 23 62 32 63 24 64 25 65 31 66 33 67
REMARK SMILES IDX 26 68 27 69 28 70 29 71 30 72 56 73 57 74 66 75 58 76 59 77
REMARK SMILES IDX 65 78 67 79 60 80 61 81 62 82 63 83 64 84 40 85 41 86 50 87
REMARK SMILES IDX 42 88 43 89 49 90 51 91 44 92 45 93 46 94 47 95 48 96
REMARK H PARENT 6 5 2 9 10 27 72 46 38 57
REMARK Flexibility Score: inf
ROOT
ATOM      1  C   UNL A   1      33.402  29.827  26.370  1.00  0.00     0.118 C 
ENDROOT
BRANCH   1   2
ATOM      2  N   UNL A   1      32.277  30.195  25.529  1.00  0.00    -0.351 N 
ATOM      3  C   UNL A   1      31.378  29.405  24.868  1.00  0.00     0.275 C 
ATOM      4  O   UNL A   1      30.494  29.954  24.203  1.00  0.00    -0.269 OA
ATOM      5  H   UNL A   1      32.140  31.163  25.418  1.00  0.00     0.163 HD
BRANCH   3   6
ATOM      6  C   UNL A   1      31.441  27.883  24.982  1.00  0.00     0.363 C 
BRANCH   6   7
ATOM      7  N   UNL A   1      31.510  27.201  23.700  1.00  0.00    -0.323 N 
ATOM      8  C   UNL A   1      30.364  26.500  23.187  1.00  0.00     0.333 C 
ATOM      9  H   UNL A   1      31.240  28.185  23.679  1.00  0.00     0.348 HD
BRANCH   7  10
ATOM     10  C   UNL A   1      32.751  27.189  22.934  1.00  0.00     0.345 C 
BRANCH  10  11
ATOM     11  C   UNL A   1      33.415  25.850  22.782  1.00  0.00     0.226 A 
ATOM     12  N   UNL A   1      33.436  25.136  21.650  1.00  0.00    -0.056 NA
ATOM     13  N   UNL A   1      34.015  25.219  23.850  1.00  0.00    -0.186 NA
ATOM     14  O   UNL A   1      34.069  23.958  22.008  1.00  0.00    -0.334 OA
ATOM     15  C   UNL A   1      34.382  24.066  23.335  1.00  0.00     0.259 A 
BRANCH  15  16
ATOM     16  C   UNL A   1      35.023  22.898  23.923  1.00  0.00     0.058 A 
ATOM     17  C   UNL A   1      36.431  22.837  23.965  1.00  0.00     0.015 A 
ATOM     18  C   UNL A   1      34.297  21.814  24.438  1.00  0.00     0.053 A 
ATOM     19  C   UNL A   1      37.092  21.729  24.499  1.00  0.00     0.001 A 
ATOM     20  C   UNL A   1      34.963  20.704  24.973  1.00  0.00     0.021 A 
ATOM     21  Cl  UNL A   1      32.567  21.737  24.402  1.00  0.00    -0.083 Cl
ATOM     22  C   UNL A   1      36.357  20.662  25.004  1.00  0.00     0.002 A 
ENDBRANCH  15  16
ENDBRANCH  10  11
ENDBRANCH   7  10
ENDBRANCH   6   7
ENDBRANCH   3   6
ENDBRANCH   1   2
BRANCH   1  23
ATOM     23  C   UNL A   1      33.793  30.894  27.392  1.00  0.00     0.042 C 
BRANCH  23  24
ATOM     24  C   UNL A   1      35.220  30.797  27.921  1.00  0.00     0.118 C 
BRANCH  24  25
ATOM     25  N   UNL A   1      35.283  30.910  29.369  1.00  0.00    -0.352 N 
ATOM     26  C   UNL A   1      36.253  30.537  30.265  1.00  0.00     0.251 C 
ATOM     27  H   UNL A   1      34.490  31.326  29.779  1.00  0.00     0.163 HD
ATOM     28  O   UNL A   1      35.973  30.538  31.463  1.00  0.00    -0.269 OA
BRANCH  26  29
ATOM     29  C   UNL A   1      37.614  30.123  29.837  1.00  0.00     0.039 A 
ATOM     30  C   UNL A   1      38.557  29.826  30.829  1.00  0.00     0.014 A 
ATOM     31  C   UNL A   1      38.010  30.109  28.497  1.00  0.00     0.014 A 
ATOM     32  C   UNL A   1      39.867  29.475  30.479  1.00  0.00     0.010 A 
ATOM     33  C   UNL A   1      39.297  29.690  28.145  1.00  0.00     0.010 A 
ATOM     34  C   UNL A   1      40.245  29.377  29.132  1.00  0.00    -0.014 A 
BRANCH  34  35
ATOM     35  C   UNL A   1      41.625  28.966  28.747  1.00  0.00     0.031 A 
ATOM     36  C   UNL A   1      42.741  29.978  28.697  1.00  0.00     0.074 A 
ATOM     37  C   UNL A   1      41.870  27.687  28.398  1.00  0.00     0.049 A 
ATOM     38  N   UNL A   1      43.986  29.820  28.325  1.00  0.00    -0.248 NA
ATOM     39  C   UNL A   1      42.409  31.354  29.099  1.00  0.00     0.031 C 
ATOM     40  C   UNL A   1      40.875  26.613  28.366  1.00  0.00     0.029 A 
ATOM     41  N   UNL A   1      43.030  27.073  27.993  1.00  0.00    -0.354 N 
ATOM     42  C   UNL A   1      44.580  31.072  28.430  1.00  0.00     0.074 A 
ATOM     43  C   UNL A   1      43.546  31.990  28.858  1.00  0.00     0.031 C 
ATOM     44  C   UNL A   1      41.470  25.471  27.984  1.00  0.00     0.029 A 
ATOM     45  C   UNL A   1      42.879  25.736  27.706  1.00  0.00     0.049 A 
ATOM     46  H   UNL A   1      43.891  27.545  27.916  1.00  0.00     0.167 HD
ATOM     47  C   UNL A   1      45.871  31.423  28.211  1.00  0.00     0.037 A 
ATOM     48  C   UNL A   1      43.767  24.826  27.261  1.00  0.00     0.037 A 
ATOM     49  C   UNL A   1      46.907  30.504  27.817  1.00  0.00     0.049 A 
ATOM     50  C   UNL A   1      45.194  25.238  27.027  1.00  0.00     0.074 A 
ATOM     51  C   UNL A   1      48.255  30.757  27.625  1.00  0.00     0.029 A 
ATOM     52  N   UNL A   1      46.714  29.155  27.554  1.00  0.00    -0.354 N 
ATOM     53  N   UNL A   1      45.746  26.418  27.180  1.00  0.00    -0.248 NA
ATOM     54  C   UNL A   1      46.122  24.196  26.564  1.00  0.00     0.031 C 
ATOM     55  C   UNL A   1      48.869  29.570  27.210  1.00  0.00     0.029 A 
ATOM     56  C   UNL A   1      47.914  28.568  27.186  1.00  0.00     0.049 A 
ATOM     57  H   UNL A   1      45.852  28.685  27.620  1.00  0.00     0.167 HD
ATOM     58  C   UNL A   1      47.090  26.254  26.856  1.00  0.00     0.074 A 
ATOM     59  C   UNL A   1      47.269  24.859  26.511  1.00  0.00     0.031 C 
ATOM     60  C   UNL A   1      48.084  27.177  26.849  1.00  0.00     0.037 A 
BRANCH  47  61
ATOM     61  C   UNL A   1      46.241  32.871  28.397  1.00  0.00     0.058 A 
ATOM     62  C   UNL A   1      46.781  33.344  29.603  1.00  0.00     0.135 A 
ATOM     63  C   UNL A   1      46.089  33.788  27.344  1.00  0.00     0.135 A 
ATOM     64  F   UNL A   1      46.936  32.514  30.646  1.00  0.00    -0.206 F 
ATOM     65  C   UNL A   1      47.125  34.682  29.771  1.00  0.00     0.059 A 
ATOM     66  C   UNL A   1      46.453  35.125  27.481  1.00  0.00     0.059 A 
ATOM     67  F   UNL A   1      45.580  33.389  26.167  1.00  0.00    -0.206 F 
ATOM     68  C   UNL A   1      46.955  35.566  28.704  1.00  0.00     0.060 A 
BRANCH  68  69
ATOM     69  S   UNL A   1      47.401  37.299  28.939  1.00  0.00     0.124 S 
ATOM     70  O   UNL A   1      48.853  37.209  29.064  1.00  0.00    -0.237 OA
ATOM     71  O   UNL A   1      46.908  37.920  27.715  1.00  0.00    -0.237 OA
ATOM     72  O   UNL A   1      46.689  37.671  30.159  1.00  0.00    -0.744 OA
ENDBRANCH  68  69
ENDBRANCH  47  61
BRANCH  48  73
ATOM     73  C   UNL A   1      43.334  23.422  27.023  1.00  0.00     0.058 A 
ATOM     74  C   UNL A   1      43.098  22.951  25.723  1.00  0.00     0.135 A 
ATOM     75  C   UNL A   1      43.162  22.523  28.087  1.00  0.00     0.135 A 
ATOM     76  F   UNL A   1      43.240  23.776  24.675  1.00  0.00    -0.206 F 
ATOM     77  C   UNL A   1      42.693  21.642  25.485  1.00  0.00     0.059 A 
ATOM     78  C   UNL A   1      42.783  21.202  27.872  1.00  0.00     0.059 A 
ATOM     79  F   UNL A   1      43.391  22.921  29.348  1.00  0.00    -0.206 F 
ATOM     80  C   UNL A   1      42.541  20.774  26.567  1.00  0.00     0.060 A 
BRANCH  80  81
ATOM     81  S   UNL A   1      42.070  19.060  26.245  1.00  0.00     0.124 S 
ATOM     82  O   UNL A   1      42.292  18.444  27.547  1.00  0.00    -0.237 OA
ATOM     83  O   UNL A   1      40.675  19.197  25.832  1.00  0.00    -0.237 OA
ATOM     84  O   UNL A   1      42.990  18.653  25.187  1.00  0.00    -0.744 OA
ENDBRANCH  80  81
ENDBRANCH  48  73
BRANCH  60  85
ATOM     85  C   UNL A   1      49.464  26.706  26.484  1.00  0.00     0.058 A 
ATOM     86  C   UNL A   1      50.307  26.095  27.426  1.00  0.00     0.135 A 
ATOM     87  C   UNL A   1      49.930  26.823  25.166  1.00  0.00     0.135 A 
ATOM     88  F   UNL A   1      49.912  25.964  28.702  1.00  0.00    -0.206 F 
ATOM     89  C   UNL A   1      51.572  25.633  27.077  1.00  0.00     0.059 A 
ATOM     90  C   UNL A   1      51.182  26.348  24.788  1.00  0.00     0.059 A 
ATOM     91  F   UNL A   1      49.160  27.392  24.225  1.00  0.00    -0.206 F 
ATOM     92  C   UNL A   1      52.001  25.764  25.753  1.00  0.00     0.060 A 
BRANCH  92  93
ATOM     93  S   UNL A   1      53.631  25.131  25.304  1.00  0.00     0.124 S 
ATOM     94  O   UNL A   1      54.433  25.546  26.450  1.00  0.00    -0.237 OA
ATOM     95  O   UNL A   1      53.389  23.696  25.186  1.00  0.00    -0.237 OA
ATOM     96  O   UNL A   1      53.927  25.815  24.048  1.00  0.00    -0.744 OA
ENDBRANCH  92  93
ENDBRANCH  60  85
ENDBRANCH  34  35
ENDBRANCH  26  29
ENDBRANCH  24  25
ENDBRANCH  23  24
ENDBRANCH   1  23
TORSDOF 17
ENDMDL
MODEL 3
REMARK VINA RESULT:     -11.8      1.072      1.895
REMARK SMILES C[NH+](CC(=O)NCCCNC(=O)c1ccc(-c2c3nc(c(-c4c(F)cc(S(=O)(=O)[O-])cc4F)c4ccc([nH]4)c(-c4c(F)cc(S(=O)(=O)[O-])cc4F)c4nc(c(-c5c(F)cc(S(=O)(=O)[O-])cc5F)c5ccc2[nH]5)C=C4)C=C3)cc1)Cc1noc(-c2ccccc2Cl)n1
REMARK SMILES IDX 7 1 6 2 4 3 5 4 3 6 2 7 1 8 79 10 80 11 81 12 91 13 82 14
REMARK SMILES IDX 83 15 84 16 85 17 89 18 86 19 88 20 90 21 87 22 8 23 9 24
REMARK SMILES IDX 10 25 11 26 12 28 13 29 14 30 78 31 15 32 77 33 16 34 17 35
REMARK SMILES IDX 18 36 71 37 19 38 76 39 70 40 72 41 20 42 75 43 69 44 68 45
REMARK SMILES IDX 21 47 55 48 34 49 54 50 35 51 38 52 53 53 73 54 36 55 37 56
REMARK SMILES IDX 52 58 74 59 39 60 22 61 23 62 32 63 24 64 25 65 31 66 33 67
REMARK SMILES IDX 26 68 27 69 28 70 29 71 30 72 56 73 57 74 66 75 58 76 59 77
REMARK SMILES IDX 65 78 67 79 60 80 61 81 62 82 63 83 64 84 40 85 41 86 50 87
REMARK SMILES IDX 42 88 43 89 49 90 51 91 44 92 45 93 46 94 47 95 48 96
REMARK H PARENT 6 5 2 9 10 27 72 46 38 57
REMARK Flexibility Score: inf
ROOT
ATOM      1  C   UNL A   1      37.005  23.195  25.614  1.00  0.00     0.118 C 
ENDROOT
BRANCH   1   2
ATOM      2  N   UNL A   1      35.983  22.842  26.584  1.00  0.00    -0.351 N 
ATOM      3  C   UNL A   1      34.950  21.953  26.490  1.00  0.00     0.275 C 
ATOM      4  O   UNL A   1      34.198  21.822  27.461  1.00  0.00    -0.269 OA
ATOM      5  H   UNL A   1      36.045  23.318  27.444  1.00  0.00     0.163 HD
BRANCH   3   6
ATOM      6  C   UNL A   1      34.755  21.111  25.229  1.00  0.00     0.363 C 
BRANCH   6   7
ATOM      7  N   UNL A   1      33.710  21.607  24.349  1.00  0.00    -0.323 N 
ATOM      8  C   UNL A   1      32.396  21.026  24.380  1.00  0.00     0.333 C 
ATOM      9  H   UNL A   1      33.807  22.074  25.250  1.00  0.00     0.348 HD
BRANCH   7  10
ATOM     10  C   UNL A   1      33.992  22.676  23.398  1.00  0.00     0.345 C 
BRANCH  10  11
ATOM     11  C   UNL A   1      33.311  23.989  23.665  1.00  0.00     0.226 A 
ATOM     12  N   UNL A   1      32.527  24.631  22.789  1.00  0.00    -0.056 NA
ATOM     13  N   UNL A   1      33.504  24.672  24.845  1.00  0.00    -0.186 NA
ATOM     14  O   UNL A   1      32.208  25.816  23.431  1.00  0.00    -0.334 OA
ATOM     15  C   UNL A   1      32.828  25.784  24.649  1.00  0.00     0.259 A 
BRANCH  15  16
ATOM     16  C   UNL A   1      32.650  26.971  25.472  1.00  0.00     0.058 A 
ATOM     17  C   UNL A   1      31.877  26.883  26.648  1.00  0.00     0.015 A 
ATOM     18  C   UNL A   1      33.204  28.216  25.136  1.00  0.00     0.053 A 
ATOM     19  C   UNL A   1      31.660  27.999  27.458  1.00  0.00     0.001 A 
ATOM     20  C   UNL A   1      32.984  29.334  25.951  1.00  0.00     0.021 A 
ATOM     21  Cl  UNL A   1      34.130  28.477  23.696  1.00  0.00    -0.083 Cl
ATOM     22  C   UNL A   1      32.214  29.225  27.109  1.00  0.00     0.002 A 
ENDBRANCH  15  16
ENDBRANCH  10  11
ENDBRANCH   7  10
ENDBRANCH   6   7
ENDBRANCH   3   6
ENDBRANCH   1   2
BRANCH   1  23
ATOM     23  C   UNL A   1      38.081  24.136  26.154  1.00  0.00     0.042 C 
BRANCH  23  24
ATOM     24  C   UNL A   1      39.277  23.451  26.807  1.00  0.00     0.118 C 
BRANCH  24  25
ATOM     25  N   UNL A   1      40.537  23.832  26.190  1.00  0.00    -0.352 N 
ATOM     26  C   UNL A   1      41.336  24.933  26.369  1.00  0.00     0.251 C 
ATOM     27  H   UNL A   1      40.876  23.187  25.527  1.00  0.00     0.163 HD
ATOM     28  O   UNL A   1      42.245  25.133  25.564  1.00  0.00    -0.269 OA
BRANCH  26  29
ATOM     29  C   UNL A   1      41.133  25.890  27.488  1.00  0.00     0.039 A 
ATOM     30  C   UNL A   1      42.037  26.951  27.623  1.00  0.00     0.014 A 
ATOM     31  C   UNL A   1      40.138  25.719  28.452  1.00  0.00     0.014 A 
ATOM     32  C   UNL A   1      41.917  27.855  28.685  1.00  0.00     0.010 A 
ATOM     33  C   UNL A   1      39.973  26.661  29.473  1.00  0.00     0.010 A 
ATOM     34  C   UNL A   1      40.867  27.735  29.608  1.00  0.00    -0.014 A 
BRANCH  34  35
ATOM     35  C   UNL A   1      40.705  28.714  30.721  1.00  0.00     0.031 A 
ATOM     36  C   UNL A   1      41.559  28.615  31.960  1.00  0.00     0.074 A 
ATOM     37  C   UNL A   1      39.758  29.670  30.640  1.00  0.00     0.049 A 
ATOM     38  N   UNL A   1      41.517  29.334  33.053  1.00  0.00    -0.248 NA
ATOM     39  C   UNL A   1      42.580  27.555  31.980  1.00  0.00     0.031 C 
ATOM     40  C   UNL A   1      38.838  29.857  29.516  1.00  0.00     0.029 A 
ATOM     41  N   UNL A   1      39.403  30.660  31.523  1.00  0.00    -0.354 N 
ATOM     42  C   UNL A   1      42.489  28.806  33.896  1.00  0.00     0.074 A 
ATOM     43  C   UNL A   1      43.073  27.677  33.204  1.00  0.00     0.031 C 
ATOM     44  C   UNL A   1      38.040  30.907  29.768  1.00  0.00     0.029 A 
ATOM     45  C   UNL A   1      38.362  31.447  31.086  1.00  0.00     0.049 A 
ATOM     46  H   UNL A   1      39.852  30.796  32.389  1.00  0.00     0.167 HD
ATOM     47  C   UNL A   1      42.875  29.234  35.123  1.00  0.00     0.037 A 
ATOM     48  C   UNL A   1      37.730  32.479  31.678  1.00  0.00     0.037 A 
ATOM     49  C   UNL A   1      42.316  30.378  35.797  1.00  0.00     0.049 A 
ATOM     50  C   UNL A   1      38.177  32.936  33.039  1.00  0.00     0.074 A 
ATOM     51  C   UNL A   1      42.681  30.921  37.018  1.00  0.00     0.029 A 
ATOM     52  N   UNL A   1      41.276  31.157  35.311  1.00  0.00    -0.354 N 
ATOM     53  N   UNL A   1      39.132  32.454  33.798  1.00  0.00    -0.248 NA
ATOM     54  C   UNL A   1      37.465  34.082  33.624  1.00  0.00     0.031 C 
ATOM     55  C   UNL A   1      41.837  32.003  37.287  1.00  0.00     0.029 A 
ATOM     56  C   UNL A   1      40.976  32.163  36.214  1.00  0.00     0.049 A 
ATOM     57  H   UNL A   1      40.820  31.015  34.450  1.00  0.00     0.167 HD
ATOM     58  C   UNL A   1      39.151  33.252  34.938  1.00  0.00     0.074 A 
ATOM     59  C   UNL A   1      38.121  34.255  34.763  1.00  0.00     0.031 C 
ATOM     60  C   UNL A   1      39.952  33.161  36.028  1.00  0.00     0.037 A 
BRANCH  47  61
ATOM     61  C   UNL A   1      43.961  28.461  35.821  1.00  0.00     0.058 A 
ATOM     62  C   UNL A   1      45.319  28.767  35.638  1.00  0.00     0.135 A 
ATOM     63  C   UNL A   1      43.640  27.425  36.714  1.00  0.00     0.135 A 
ATOM     64  F   UNL A   1      45.683  29.739  34.787  1.00  0.00    -0.206 F 
ATOM     65  C   UNL A   1      46.321  28.053  36.287  1.00  0.00     0.059 A 
ATOM     66  C   UNL A   1      44.625  26.715  37.395  1.00  0.00     0.059 A 
ATOM     67  F   UNL A   1      42.357  27.091  36.930  1.00  0.00    -0.206 F 
ATOM     68  C   UNL A   1      45.964  27.026  37.163  1.00  0.00     0.060 A 
BRANCH  68  69
ATOM     69  S   UNL A   1      47.276  26.105  37.993  1.00  0.00     0.124 S 
ATOM     70  O   UNL A   1      48.457  26.867  37.600  1.00  0.00    -0.237 OA
ATOM     71  O   UNL A   1      46.893  26.209  39.396  1.00  0.00    -0.237 OA
ATOM     72  O   UNL A   1      47.170  24.768  37.415  1.00  0.00    -0.744 OA
ENDBRANCH  68  69
ENDBRANCH  47  61
BRANCH  48  73
ATOM     73  C   UNL A   1      36.613  33.165  30.975  1.00  0.00     0.058 A 
ATOM     74  C   UNL A   1      35.281  32.957  31.364  1.00  0.00     0.135 A 
ATOM     75  C   UNL A   1      36.854  34.050  29.914  1.00  0.00     0.135 A 
ATOM     76  F   UNL A   1      35.000  32.113  32.368  1.00  0.00    -0.206 F 
ATOM     77  C   UNL A   1      34.226  33.592  30.717  1.00  0.00     0.059 A 
ATOM     78  C   UNL A   1      35.818  34.717  29.268  1.00  0.00     0.059 A 
ATOM     79  F   UNL A   1      38.112  34.295  29.514  1.00  0.00    -0.206 F 
ATOM     80  C   UNL A   1      34.505  34.473  29.672  1.00  0.00     0.060 A 
BRANCH  80  81
ATOM     81  S   UNL A   1      33.133  35.336  28.874  1.00  0.00     0.124 S 
ATOM     82  O   UNL A   1      32.342  35.756  30.024  1.00  0.00    -0.237 OA
ATOM     83  O   UNL A   1      33.820  36.400  28.147  1.00  0.00    -0.237 OA
ATOM     84  O   UNL A   1      32.532  34.303  28.035  1.00  0.00    -0.744 OA
ENDBRANCH  80  81
ENDBRANCH  48  73
BRANCH  60  85
ATOM     85  C   UNL A   1      39.771  34.191  37.109  1.00  0.00     0.058 A 
ATOM     86  C   UNL A   1      38.939  33.959  38.216  1.00  0.00     0.135 A 
ATOM     87  C   UNL A   1      40.475  35.404  37.060  1.00  0.00     0.135 A 
ATOM     88  F   UNL A   1      38.238  32.819  38.307  1.00  0.00    -0.206 F 
ATOM     89  C   UNL A   1      38.797  34.903  39.228  1.00  0.00     0.059 A 
ATOM     90  C   UNL A   1      40.368  36.353  38.073  1.00  0.00     0.059 A 
ATOM     91  F   UNL A   1      41.290  35.672  36.028  1.00  0.00    -0.206 F 
ATOM     92  C   UNL A   1      39.518  36.098  39.148  1.00  0.00     0.060 A 
BRANCH  92  93
ATOM     93  S   UNL A   1      39.352  37.301  40.485  1.00  0.00     0.124 S 
ATOM     94  O   UNL A   1      40.695  37.870  40.534  1.00  0.00    -0.237 OA
ATOM     95  O   UNL A   1      38.307  38.187  39.982  1.00  0.00    -0.237 OA
ATOM     96  O   UNL A   1      38.973  36.482  41.633  1.00  0.00    -0.744 OA
ENDBRANCH  92  93
ENDBRANCH  60  85
ENDBRANCH  34  35
ENDBRANCH  26  29
ENDBRANCH  24  25
ENDBRANCH  23  24
ENDBRANCH   1  23
TORSDOF 17
ENDMDL
