MODEL 1
REMARK VINA RESULT:     -11.3      0.000      0.000
REMARK SMILES [NH3+][C@@H](CCC1=c2ccccc2=NC1)C(=O)NCCCNC(=O)c1ccc(-c2c3nc(c(-c4c(F)cc(S(=O)(=O)[O-])cc4F)c4ccc([nH]4)c(-c4c(F)cc(S(=O)(=O)[O-])cc4F)c4nc(c(-c5c(F)cc(S(=O)(=O)[O-])cc5F)c5ccc2[nH]5)C=C4)C=C3)cc1
REMARK SMILES IDX 18 1 17 2 16 3 14 4 15 5 2 7 1 8 3 12 4 13 5 14 6 15 13 16
REMARK SMILES IDX 7 17 11 18 12 19 8 20 10 21 9 22 19 23 20 24 21 25 22 27
REMARK SMILES IDX 23 28 24 29 88 30 25 31 87 32 26 33 27 34 28 35 81 36 29 37
REMARK SMILES IDX 86 38 80 39 82 40 30 41 85 42 79 43 78 44 31 46 65 47 44 48
REMARK SMILES IDX 64 49 45 50 48 51 63 52 83 53 46 54 47 55 62 57 84 58 49 59
REMARK SMILES IDX 32 60 33 61 42 62 34 63 35 64 41 65 43 66 36 67 37 68 38 69
REMARK SMILES IDX 39 70 40 71 66 72 67 73 76 74 68 75 69 76 75 77 77 78 70 79
REMARK SMILES IDX 71 80 72 81 73 82 74 83 50 84 51 85 60 86 52 87 53 88 59 89
REMARK SMILES IDX 61 90 54 91 55 92 56 93 57 94 58 95
REMARK H PARENT 16 6 1 9 1 10 1 11 20 26 82 45 48 56
REMARK Flexibility Score: inf
ROOT
ATOM      1  C   UNL A   1      33.677  33.823  28.004  1.00  0.00     0.042 C 
ENDROOT
BRANCH   1   2
ATOM      2  C   UNL A   1      34.082  34.727  29.143  1.00  0.00     0.118 C 
BRANCH   2   3
ATOM      3  N   UNL A   1      32.931  35.136  29.900  1.00  0.00    -0.351 N 
ATOM      4  C   UNL A   1      32.897  35.747  31.111  1.00  0.00     0.278 C 
ATOM      5  O   UNL A   1      31.818  36.201  31.497  1.00  0.00    -0.268 OA
ATOM      6  H   UNL A   1      32.058  34.949  29.487  1.00  0.00     0.163 HD
BRANCH   4   7
ATOM      7  C   UNL A   1      34.165  35.841  31.974  1.00  0.00     0.271 C 
BRANCH   7   8
ATOM      8  N   UNL A   1      34.401  37.202  32.501  1.00  0.00    -0.347 N 
ATOM      9  H   UNL A   1      33.617  37.804  32.252  1.00  0.00     0.345 HD
ATOM     10  H   UNL A   1      35.260  37.579  32.099  1.00  0.00     0.345 HD
ATOM     11  H   UNL A   1      34.490  37.163  33.516  1.00  0.00     0.345 HD
ENDBRANCH   7   8
BRANCH   7  12
ATOM     12  C   UNL A   1      34.378  34.702  32.993  1.00  0.00     0.080 C 
BRANCH  12  13
ATOM     13  C   UNL A   1      35.562  34.638  34.018  1.00  0.00     0.040 C 
BRANCH  13  14
ATOM     14  C   UNL A   1      36.862  33.928  33.674  1.00  0.00    -0.039 C 
ATOM     15  C   UNL A   1      37.384  33.565  32.481  1.00  0.00     0.001 A 
ATOM     16  C   UNL A   1      37.857  33.680  34.838  1.00  0.00     0.174 C 
ATOM     17  C   UNL A   1      37.135  33.891  30.672  1.00  0.00     0.010 A 
ATOM     18  C   UNL A   1      39.180  33.343  33.087  1.00  0.00     0.065 A 
ATOM     19  N   UNL A   1      39.253  33.323  34.379  1.00  0.00    -0.280 NA
ATOM     20  C   UNL A   1      38.420  34.180  29.683  1.00  0.00     0.001 A 
ATOM     21  C   UNL A   1      40.579  33.589  31.802  1.00  0.00     0.028 A 
ATOM     22  C   UNL A   1      40.228  34.060  30.330  1.00  0.00     0.002 A 
ENDBRANCH  13  14
ENDBRANCH  12  13
ENDBRANCH   7  12
ENDBRANCH   4   7
ENDBRANCH   2   3
ENDBRANCH   1   2
BRANCH   1  23
ATOM     23  C   UNL A   1      34.572  32.305  28.012  1.00  0.00     0.118 C 
BRANCH  23  24
ATOM     24  N   UNL A   1      35.150  31.080  29.610  1.00  0.00    -0.352 N 
ATOM     25  C   UNL A   1      36.333  30.418  30.377  1.00  0.00     0.251 C 
ATOM     26  H   UNL A   1      34.324  30.806  30.071  1.00  0.00     0.163 HD
ATOM     27  O   UNL A   1      35.973  29.706  31.327  1.00  0.00    -0.269 OA
BRANCH  25  28
ATOM     28  C   UNL A   1      37.889  30.406  30.070  1.00  0.00     0.039 A 
ATOM     29  C   UNL A   1      38.444  30.459  28.795  1.00  0.00     0.014 A 
ATOM     30  C   UNL A   1      38.857  30.312  31.088  1.00  0.00     0.014 A 
ATOM     31  C   UNL A   1      39.711  29.951  28.498  1.00  0.00     0.010 A 
ATOM     32  C   UNL A   1      40.246  30.073  30.792  1.00  0.00     0.010 A 
ATOM     33  C   UNL A   1      40.680  29.804  29.480  1.00  0.00    -0.014 A 
BRANCH  33  34
ATOM     34  C   UNL A   1      42.060  29.384  29.023  1.00  0.00     0.031 A 
ATOM     35  C   UNL A   1      42.316  27.980  28.522  1.00  0.00     0.074 A 
ATOM     36  C   UNL A   1      43.042  30.310  28.855  1.00  0.00     0.049 A 
ATOM     37  N   UNL A   1      43.426  27.449  28.068  1.00  0.00    -0.248 NA
ATOM     38  C   UNL A   1      41.169  27.063  28.501  1.00  0.00     0.031 C 
ATOM     39  C   UNL A   1      42.914  31.740  29.166  1.00  0.00     0.029 A 
ATOM     40  N   UNL A   1      44.315  30.223  28.326  1.00  0.00    -0.354 N 
ATOM     41  C   UNL A   1      43.118  26.131  27.741  1.00  0.00     0.074 A 
ATOM     42  C   UNL A   1      41.718  25.941  28.052  1.00  0.00     0.031 C 
ATOM     43  C   UNL A   1      44.004  32.396  28.747  1.00  0.00     0.029 A 
ATOM     44  C   UNL A   1      44.982  31.432  28.265  1.00  0.00     0.049 A 
ATOM     45  H   UNL A   1      44.711  29.375  28.020  1.00  0.00     0.167 HD
ATOM     46  C   UNL A   1      43.926  25.169  27.227  1.00  0.00     0.037 A 
ATOM     47  C   UNL A   1      46.249  31.742  27.914  1.00  0.00     0.037 A 
ATOM     48  C   UNL A   1      45.312  25.373  26.890  1.00  0.00     0.049 A 
ATOM     49  C   UNL A   1      47.165  30.631  27.481  1.00  0.00     0.074 A 
ATOM     50  C   UNL A   1      46.226  24.447  26.415  1.00  0.00     0.029 A 
ATOM     51  N   UNL A   1      45.985  26.582  26.984  1.00  0.00    -0.354 N 
ATOM     52  N   UNL A   1      46.877  29.368  27.270  1.00  0.00    -0.248 NA
ATOM     53  C   UNL A   1      48.578  30.971  27.262  1.00  0.00     0.031 C 
ATOM     54  C   UNL A   1      47.464  25.082  26.283  1.00  0.00     0.029 A 
ATOM     55  C   UNL A   1      47.309  26.420  26.606  1.00  0.00     0.049 A 
ATOM     56  H   UNL A   1      45.581  27.432  27.275  1.00  0.00     0.167 HD
ATOM     57  C   UNL A   1      48.067  28.766  26.884  1.00  0.00     0.074 A 
ATOM     58  C   UNL A   1      49.075  29.806  26.864  1.00  0.00     0.031 C 
ATOM     59  C   UNL A   1      48.302  27.466  26.581  1.00  0.00     0.037 A 
BRANCH  46  60
ATOM     60  C   UNL A   1      43.352  23.786  27.051  1.00  0.00     0.058 A 
ATOM     61  C   UNL A   1      43.192  22.898  28.125  1.00  0.00     0.135 A 
ATOM     62  C   UNL A   1      42.912  23.362  25.784  1.00  0.00     0.135 A 
ATOM     63  F   UNL A   1      43.611  23.239  29.354  1.00  0.00    -0.206 F 
ATOM     64  C   UNL A   1      42.640  21.632  27.946  1.00  0.00     0.059 A 
ATOM     65  C   UNL A   1      42.330  22.114  25.587  1.00  0.00     0.059 A 
ATOM     66  F   UNL A   1      43.041  24.170  24.719  1.00  0.00    -0.206 F 
ATOM     67  C   UNL A   1      42.207  21.250  26.673  1.00  0.00     0.060 A 
BRANCH  67  68
ATOM     68  S   UNL A   1      41.492  19.607  26.465  1.00  0.00     0.124 S 
ATOM     69  O   UNL A   1      40.108  19.929  26.136  1.00  0.00    -0.237 OA
ATOM     70  O   UNL A   1      42.291  19.060  25.373  1.00  0.00    -0.237 OA
ATOM     71  O   UNL A   1      41.695  18.977  27.766  1.00  0.00    -0.744 OA
ENDBRANCH  67  68
ENDBRANCH  46  60
BRANCH  47  72
ATOM     72  C   UNL A   1      46.749  33.149  28.028  1.00  0.00     0.058 A 
ATOM     73  C   UNL A   1      47.421  33.603  29.173  1.00  0.00     0.135 A 
ATOM     74  C   UNL A   1      46.562  34.073  26.985  1.00  0.00     0.135 A 
ATOM     75  F   UNL A   1      47.611  32.776  30.213  1.00  0.00    -0.206 F 
ATOM     76  C   UNL A   1      47.888  34.913  29.280  1.00  0.00     0.059 A 
ATOM     77  C   UNL A   1      47.050  35.375  27.052  1.00  0.00     0.059 A 
ATOM     78  F   UNL A   1      45.921  33.703  25.864  1.00  0.00    -0.206 F 
ATOM     79  C   UNL A   1      47.707  35.789  28.207  1.00  0.00     0.060 A 
BRANCH  79  80
ATOM     80  S   UNL A   1      48.368  37.467  28.334  1.00  0.00     0.124 S 
ATOM     81  O   UNL A   1      48.059  38.006  27.014  1.00  0.00    -0.237 OA
ATOM     82  O   UNL A   1      47.593  38.012  29.444  1.00  0.00    -0.237 OA
ATOM     83  O   UNL A   1      49.785  37.252  28.611  1.00  0.00    -0.744 OA
ENDBRANCH  79  80
ENDBRANCH  47  72
BRANCH  59  84
ATOM     84  C   UNL A   1      49.698  27.083  26.175  1.00  0.00     0.058 A 
ATOM     85  C   UNL A   1      50.621  26.579  27.104  1.00  0.00     0.135 A 
ATOM     86  C   UNL A   1      50.085  27.134  24.825  1.00  0.00     0.135 A 
ATOM     87  F   UNL A   1      50.306  26.518  28.408  1.00  0.00    -0.206 F 
ATOM     88  C   UNL A   1      51.883  26.147  26.710  1.00  0.00     0.059 A 
ATOM     89  C   UNL A   1      51.329  26.676  24.405  1.00  0.00     0.059 A 
ATOM     90  F   UNL A   1      49.236  27.601  23.896  1.00  0.00    -0.206 F 
ATOM     91  C   UNL A   1      52.223  26.188  25.356  1.00  0.00     0.060 A 
BRANCH  91  92
ATOM     92  S   UNL A   1      53.843  25.567  24.857  1.00  0.00     0.124 S 
ATOM     93  O   UNL A   1      53.662  24.126  24.997  1.00  0.00    -0.237 OA
ATOM     94  O   UNL A   1      53.954  26.064  23.489  1.00  0.00    -0.237 OA
ATOM     95  O   UNL A   1      54.754  26.181  25.818  1.00  0.00    -0.744 OA
ENDBRANCH  91  92
ENDBRANCH  59  84
ENDBRANCH  33  34
ENDBRANCH  25  28
ENDBRANCH  23  24
ENDBRANCH   1  23
TORSDOF 17
ENDMDL
MODEL 2
REMARK VINA RESULT:     -11.2      0.647      8.417
REMARK SMILES [NH3+][C@@H](CCC1=c2ccccc2=NC1)C(=O)NCCCNC(=O)c1ccc(-c2c3nc(c(-c4c(F)cc(S(=O)(=O)[O-])cc4F)c4ccc([nH]4)c(-c4c(F)cc(S(=O)(=O)[O-])cc4F)c4nc(c(-c5c(F)cc(S(=O)(=O)[O-])cc5F)c5ccc2[nH]5)C=C4)C=C3)cc1
REMARK SMILES IDX 18 1 17 2 16 3 14 4 15 5 2 7 1 8 3 12 4 13 5 14 6 15 13 16
REMARK SMILES IDX 7 17 11 18 12 19 8 20 10 21 9 22 19 23 20 24 21 25 22 27
REMARK SMILES IDX 23 28 24 29 88 30 25 31 87 32 26 33 27 34 28 35 81 36 29 37
REMARK SMILES IDX 86 38 80 39 82 40 30 41 85 42 79 43 78 44 31 46 65 47 44 48
REMARK SMILES IDX 64 49 45 50 48 51 63 52 83 53 46 54 47 55 62 57 84 58 49 59
REMARK SMILES IDX 32 60 33 61 42 62 34 63 35 64 41 65 43 66 36 67 37 68 38 69
REMARK SMILES IDX 39 70 40 71 66 72 67 73 76 74 68 75 69 76 75 77 77 78 70 79
REMARK SMILES IDX 71 80 72 81 73 82 74 83 50 84 51 85 60 86 52 87 53 88 59 89
REMARK SMILES IDX 61 90 54 91 55 92 56 93 57 94 58 95
REMARK H PARENT 16 6 1 9 1 10 1 11 20 26 82 45 48 56
REMARK Flexibility Score: inf
ROOT
ATOM      1  C   UNL A   1      33.665  33.728  28.161  1.00  0.00     0.042 C 
ENDROOT
BRANCH   1   2
ATOM      2  C   UNL A   1      34.045  34.737  29.217  1.00  0.00     0.118 C 
BRANCH   2   3
ATOM      3  N   UNL A   1      32.879  35.209  29.911  1.00  0.00    -0.351 N 
ATOM      4  C   UNL A   1      32.816  35.856  31.102  1.00  0.00     0.278 C 
ATOM      5  O   UNL A   1      31.739  36.360  31.428  1.00  0.00    -0.268 OA
ATOM      6  H   UNL A   1      32.018  35.041  29.465  1.00  0.00     0.163 HD
BRANCH   4   7
ATOM      7  C   UNL A   1      34.048  35.930  32.016  1.00  0.00     0.271 C 
BRANCH   7   8
ATOM      8  N   UNL A   1      34.299  37.292  32.534  1.00  0.00    -0.347 N 
ATOM      9  H   UNL A   1      35.212  37.615  32.214  1.00  0.00     0.345 HD
ATOM     10  H   UNL A   1      34.281  37.278  33.554  1.00  0.00     0.345 HD
ATOM     11  H   UNL A   1      33.577  37.925  32.191  1.00  0.00     0.345 HD
ENDBRANCH   7   8
BRANCH   7  12
ATOM     12  C   UNL A   1      34.188  34.802  33.060  1.00  0.00     0.080 C 
BRANCH  12  13
ATOM     13  C   UNL A   1      35.324  34.723  34.135  1.00  0.00     0.040 C 
BRANCH  13  14
ATOM     14  C   UNL A   1      36.576  33.893  33.896  1.00  0.00    -0.039 C 
ATOM     15  C   UNL A   1      37.236  33.593  32.755  1.00  0.00     0.001 A 
ATOM     16  C   UNL A   1      37.342  33.399  35.152  1.00  0.00     0.174 C 
ATOM     17  C   UNL A   1      37.312  34.136  30.984  1.00  0.00     0.010 A 
ATOM     18  C   UNL A   1      38.878  33.082  33.581  1.00  0.00     0.065 A 
ATOM     19  N   UNL A   1      38.745  32.917  34.858  1.00  0.00    -0.280 NA
ATOM     20  C   UNL A   1      38.760  34.361  30.232  1.00  0.00     0.001 A 
ATOM     21  C   UNL A   1      40.481  33.281  32.550  1.00  0.00     0.028 A 
ATOM     22  C   UNL A   1      40.420  33.944  31.112  1.00  0.00     0.002 A 
ENDBRANCH  13  14
ENDBRANCH  12  13
ENDBRANCH   7  12
ENDBRANCH   4   7
ENDBRANCH   2   3
ENDBRANCH   1   2
BRANCH   1  23
ATOM     23  C   UNL A   1      34.568  32.223  28.326  1.00  0.00     0.118 C 
BRANCH  23  24
ATOM     24  N   UNL A   1      35.200  31.203  30.043  1.00  0.00    -0.352 N 
ATOM     25  C   UNL A   1      36.407  30.625  30.839  1.00  0.00     0.251 C 
ATOM     26  H   UNL A   1      34.392  31.004  30.568  1.00  0.00     0.163 HD
ATOM     27  O   UNL A   1      36.081  30.045  31.887  1.00  0.00    -0.269 OA
BRANCH  25  28
ATOM     28  C   UNL A   1      37.948  30.547  30.473  1.00  0.00     0.039 A 
ATOM     29  C   UNL A   1      38.486  30.893  29.237  1.00  0.00     0.014 A 
ATOM     30  C   UNL A   1      38.917  30.087  31.385  1.00  0.00     0.014 A 
ATOM     31  C   UNL A   1      39.689  30.367  28.759  1.00  0.00     0.010 A 
ATOM     32  C   UNL A   1      40.269  29.805  30.975  1.00  0.00     0.010 A 
ATOM     33  C   UNL A   1      40.652  29.864  29.622  1.00  0.00    -0.014 A 
BRANCH  33  34
ATOM     34  C   UNL A   1      41.974  29.455  29.009  1.00  0.00     0.031 A 
ATOM     35  C   UNL A   1      43.167  30.384  29.052  1.00  0.00     0.074 A 
ATOM     36  C   UNL A   1      42.177  28.175  28.598  1.00  0.00     0.049 A 
ATOM     37  N   UNL A   1      44.384  30.195  28.603  1.00  0.00    -0.248 NA
ATOM     38  C   UNL A   1      42.975  31.681  29.714  1.00  0.00     0.031 C 
ATOM     39  C   UNL A   1      41.162  27.114  28.615  1.00  0.00     0.029 A 
ATOM     40  N   UNL A   1      43.304  27.516  28.148  1.00  0.00    -0.354 N 
ATOM     41  C   UNL A   1      45.090  31.359  28.896  1.00  0.00     0.074 A 
ATOM     42  C   UNL A   1      44.164  32.251  29.559  1.00  0.00     0.031 C 
ATOM     43  C   UNL A   1      41.723  25.941  28.290  1.00  0.00     0.029 A 
ATOM     44  C   UNL A   1      43.106  26.171  27.897  1.00  0.00     0.049 A 
ATOM     45  H   UNL A   1      44.171  27.963  28.019  1.00  0.00     0.167 HD
ATOM     46  C   UNL A   1      46.389  31.656  28.639  1.00  0.00     0.037 A 
ATOM     47  C   UNL A   1      43.913  25.228  27.364  1.00  0.00     0.037 A 
ATOM     48  C   UNL A   1      47.315  30.751  28.005  1.00  0.00     0.049 A 
ATOM     49  C   UNL A   1      45.306  25.623  26.959  1.00  0.00     0.074 A 
ATOM     50  C   UNL A   1      48.635  30.980  27.654  1.00  0.00     0.029 A 
ATOM     51  N   UNL A   1      47.026  29.447  27.635  1.00  0.00    -0.354 N 
ATOM     52  N   UNL A   1      45.924  26.764  27.158  1.00  0.00    -0.248 NA
ATOM     53  C   UNL A   1      46.105  24.624  26.235  1.00  0.00     0.031 C 
ATOM     54  C   UNL A   1      49.122  29.837  27.014  1.00  0.00     0.029 A 
ATOM     55  C   UNL A   1      48.131  28.868  27.029  1.00  0.00     0.049 A 
ATOM     56  H   UNL A   1      46.162  28.996  27.780  1.00  0.00     0.167 HD
ATOM     57  C   UNL A   1      47.186  26.616  26.597  1.00  0.00     0.074 A 
ATOM     58  C   UNL A   1      47.254  25.268  26.071  1.00  0.00     0.031 C 
ATOM     59  C   UNL A   1      48.192  27.521  26.519  1.00  0.00     0.037 A 
BRANCH  46  60
ATOM     60  C   UNL A   1      46.878  33.039  28.987  1.00  0.00     0.058 A 
ATOM     61  C   UNL A   1      47.501  33.330  30.209  1.00  0.00     0.135 A 
ATOM     62  C   UNL A   1      46.758  34.083  28.053  1.00  0.00     0.135 A 
ATOM     63  F   UNL A   1      47.627  32.379  31.149  1.00  0.00    -0.206 F 
ATOM     64  C   UNL A   1      47.965  34.609  30.503  1.00  0.00     0.059 A 
ATOM     65  C   UNL A   1      47.241  35.362  28.312  1.00  0.00     0.059 A 
ATOM     66  F   UNL A   1      46.168  33.864  26.866  1.00  0.00    -0.206 F 
ATOM     67  C   UNL A   1      47.834  35.619  29.546  1.00  0.00     0.060 A 
BRANCH  67  68
ATOM     68  S   UNL A   1      48.445  37.269  29.947  1.00  0.00     0.124 S 
ATOM     69  O   UNL A   1      47.616  37.616  31.097  1.00  0.00    -0.237 OA
ATOM     70  O   UNL A   1      49.853  37.014  30.235  1.00  0.00    -0.237 OA
ATOM     71  O   UNL A   1      48.183  38.036  28.733  1.00  0.00    -0.744 OA
ENDBRANCH  67  68
ENDBRANCH  46  60
BRANCH  47  72
ATOM     72  C   UNL A   1      43.405  23.842  27.114  1.00  0.00     0.058 A 
ATOM     73  C   UNL A   1      43.367  22.875  28.130  1.00  0.00     0.135 A 
ATOM     74  C   UNL A   1      42.945  23.456  25.843  1.00  0.00     0.135 A 
ATOM     75  F   UNL A   1      43.813  23.174  29.360  1.00  0.00    -0.206 F 
ATOM     76  C   UNL A   1      42.893  21.583  27.898  1.00  0.00     0.059 A 
ATOM     77  C   UNL A   1      42.434  22.185  25.594  1.00  0.00     0.059 A 
ATOM     78  F   UNL A   1      42.961  24.332  24.826  1.00  0.00    -0.206 F 
ATOM     79  C   UNL A   1      42.417  21.252  26.627  1.00  0.00     0.060 A 
BRANCH  79  80
ATOM     80  S   UNL A   1      41.752  19.594  26.353  1.00  0.00     0.124 S 
ATOM     81  O   UNL A   1      42.131  18.915  27.587  1.00  0.00    -0.237 OA
ATOM     82  O   UNL A   1      40.328  19.865  26.185  1.00  0.00    -0.237 OA
ATOM     83  O   UNL A   1      42.446  19.147  25.149  1.00  0.00    -0.744 OA
ENDBRANCH  79  80
ENDBRANCH  47  72
BRANCH  59  84
ATOM     84  C   UNL A   1      49.473  27.088  25.862  1.00  0.00     0.058 A 
ATOM     85  C   UNL A   1      49.696  27.277  24.489  1.00  0.00     0.135 A 
ATOM     86  C   UNL A   1      50.525  26.563  26.632  1.00  0.00     0.135 A 
ATOM     87  F   UNL A   1      48.721  27.765  23.706  1.00  0.00    -0.206 F 
ATOM     88  C   UNL A   1      50.914  26.952  23.902  1.00  0.00     0.059 A 
ATOM     89  C   UNL A   1      51.761  26.265  26.072  1.00  0.00     0.059 A 
ATOM     90  F   UNL A   1      50.365  26.370  27.952  1.00  0.00    -0.206 F 
ATOM     91  C   UNL A   1      51.945  26.458  24.704  1.00  0.00     0.060 A 
BRANCH  91  92
ATOM     92  S   UNL A   1      53.537  26.100  23.933  1.00  0.00     0.124 S 
ATOM     93  O   UNL A   1      53.920  24.865  24.610  1.00  0.00    -0.237 OA
ATOM     94  O   UNL A   1      53.174  25.967  22.526  1.00  0.00    -0.237 OA
ATOM     95  O   UNL A   1      54.345  27.271  24.260  1.00  0.00    -0.744 OA
ENDBRANCH  91  92
ENDBRANCH  59  84
ENDBRANCH  33  34
ENDBRANCH  25  28
ENDBRANCH  23  24
ENDBRANCH   1  23
TORSDOF 17
ENDMDL
MODEL 3
REMARK VINA RESULT:     -11.1      3.632     10.136
REMARK SMILES [NH3+][C@@H](CCC1=c2ccccc2=NC1)C(=O)NCCCNC(=O)c1ccc(-c2c3nc(c(-c4c(F)cc(S(=O)(=O)[O-])cc4F)c4ccc([nH]4)c(-c4c(F)cc(S(=O)(=O)[O-])cc4F)c4nc(c(-c5c(F)cc(S(=O)(=O)[O-])cc5F)c5ccc2[nH]5)C=C4)C=C3)cc1
REMARK SMILES IDX 18 1 17 2 16 3 14 4 15 5 2 7 1 8 3 12 4 13 5 14 6 15 13 16
REMARK SMILES IDX 7 17 11 18 12 19 8 20 10 21 9 22 19 23 20 24 21 25 22 27
REMARK SMILES IDX 23 28 24 29 88 30 25 31 87 32 26 33 27 34 28 35 81 36 29 37
REMARK SMILES IDX 86 38 80 39 82 40 30 41 85 42 79 43 78 44 31 46 65 47 44 48
REMARK SMILES IDX 64 49 45 50 48 51 63 52 83 53 46 54 47 55 62 57 84 58 49 59
REMARK SMILES IDX 32 60 33 61 42 62 34 63 35 64 41 65 43 66 36 67 37 68 38 69
REMARK SMILES IDX 39 70 40 71 66 72 67 73 76 74 68 75 69 76 75 77 77 78 70 79
REMARK SMILES IDX 71 80 72 81 73 82 74 83 50 84 51 85 60 86 52 87 53 88 59 89
REMARK SMILES IDX 61 90 54 91 55 92 56 93 57 94 58 95
REMARK H PARENT 16 6 1 9 1 10 1 11 20 26 82 45 48 56
REMARK Flexibility Score: inf
ROOT
ATOM      1  C   UNL A   1      32.854  29.159  26.892  1.00  0.00     0.042 C 
ENDROOT
BRANCH   1   2
ATOM      2  C   UNL A   1      32.099  29.310  25.593  1.00  0.00     0.118 C 
BRANCH   2   3
ATOM      3  N   UNL A   1      32.859  28.772  24.499  1.00  0.00    -0.351 N 
ATOM      4  C   UNL A   1      32.520  28.722  23.186  1.00  0.00     0.278 C 
ATOM      5  O   UNL A   1      33.396  28.409  22.377  1.00  0.00    -0.268 OA
ATOM      6  H   UNL A   1      33.737  28.392  24.733  1.00  0.00     0.163 HD
BRANCH   4   7
ATOM      7  C   UNL A   1      31.082  29.025  22.740  1.00  0.00     0.271 C 
BRANCH   7   8
ATOM      8  N   UNL A   1      31.018  30.009  21.637  1.00  0.00    -0.347 N 
ATOM      9  H   UNL A   1      31.822  30.635  21.694  1.00  0.00     0.345 HD
ATOM     10  H   UNL A   1      30.158  30.552  21.714  1.00  0.00     0.345 HD
ATOM     11  H   UNL A   1      31.032  29.520  20.743  1.00  0.00     0.345 HD
ENDBRANCH   7   8
BRANCH   7  12
ATOM     12  C   UNL A   1      30.150  27.806  22.578  1.00  0.00     0.080 C 
BRANCH  12  13
ATOM     13  C   UNL A   1      29.540  26.992  23.769  1.00  0.00     0.040 C 
BRANCH  13  14
ATOM     14  C   UNL A   1      30.395  26.039  24.590  1.00  0.00    -0.039 C 
ATOM     15  C   UNL A   1      31.359  25.167  24.216  1.00  0.00     0.001 A 
ATOM     16  C   UNL A   1      30.280  26.144  26.134  1.00  0.00     0.174 C 
ATOM     17  C   UNL A   1      32.418  24.780  22.744  1.00  0.00     0.010 A 
ATOM     18  C   UNL A   1      32.155  24.970  25.939  1.00  0.00     0.065 A 
ATOM     19  N   UNL A   1      31.403  25.454  26.875  1.00  0.00    -0.280 NA
ATOM     20  C   UNL A   1      34.029  24.482  22.919  1.00  0.00     0.001 A 
ATOM     21  C   UNL A   1      34.011  24.501  26.002  1.00  0.00     0.028 A 
ATOM     22  C   UNL A   1      34.846  24.391  24.659  1.00  0.00     0.002 A 
ENDBRANCH  13  14
ENDBRANCH  12  13
ENDBRANCH   7  12
ENDBRANCH   4   7
ENDBRANCH   2   3
ENDBRANCH   1   2
BRANCH   1  23
ATOM     23  C   UNL A   1      33.551  30.685  27.433  1.00  0.00     0.118 C 
BRANCH  23  24
ATOM     24  N   UNL A   1      34.779  31.107  29.077  1.00  0.00    -0.352 N 
ATOM     25  C   UNL A   1      36.190  30.953  29.717  1.00  0.00     0.251 C 
ATOM     26  H   UNL A   1      34.232  31.619  29.716  1.00  0.00     0.163 HD
ATOM     27  O   UNL A   1      36.282  31.460  30.847  1.00  0.00    -0.269 OA
BRANCH  25  28
ATOM     28  C   UNL A   1      37.471  30.159  29.224  1.00  0.00     0.039 A 
ATOM     29  C   UNL A   1      38.426  29.597  30.067  1.00  0.00     0.014 A 
ATOM     30  C   UNL A   1      37.765  29.975  27.860  1.00  0.00     0.014 A 
ATOM     31  C   UNL A   1      39.745  29.366  29.670  1.00  0.00     0.010 A 
ATOM     32  C   UNL A   1      39.035  29.457  27.423  1.00  0.00     0.010 A 
ATOM     33  C   UNL A   1      40.083  29.222  28.333  1.00  0.00    -0.014 A 
BRANCH  33  34
ATOM     34  C   UNL A   1      41.512  28.830  28.026  1.00  0.00     0.031 A 
ATOM     35  C   UNL A   1      42.646  29.808  28.239  1.00  0.00     0.074 A 
ATOM     36  C   UNL A   1      41.830  27.535  27.757  1.00  0.00     0.049 A 
ATOM     37  N   UNL A   1      43.933  29.642  28.055  1.00  0.00    -0.248 NA
ATOM     38  C   UNL A   1      42.289  31.137  28.754  1.00  0.00     0.031 C 
ATOM     39  C   UNL A   1      40.863  26.435  27.649  1.00  0.00     0.029 A 
ATOM     40  N   UNL A   1      43.043  26.896  27.589  1.00  0.00    -0.354 N 
ATOM     41  C   UNL A   1      44.533  30.851  28.398  1.00  0.00     0.074 A 
ATOM     42  C   UNL A   1      43.468  31.745  28.797  1.00  0.00     0.031 C 
ATOM     43  C   UNL A   1      41.511  25.269  27.527  1.00  0.00     0.029 A 
ATOM     44  C   UNL A   1      42.938  25.530  27.401  1.00  0.00     0.049 A 
ATOM     45  H   UNL A   1      43.905  27.370  27.603  1.00  0.00     0.167 HD
ATOM     46  C   UNL A   1      45.848  31.185  28.383  1.00  0.00     0.037 A 
ATOM     47  C   UNL A   1      43.862  24.590  27.109  1.00  0.00     0.037 A 
ATOM     48  C   UNL A   1      46.908  30.281  28.013  1.00  0.00     0.049 A 
ATOM     49  C   UNL A   1      45.296  25.016  26.961  1.00  0.00     0.074 A 
ATOM     50  C   UNL A   1      48.265  30.542  27.915  1.00  0.00     0.029 A 
ATOM     51  N   UNL A   1      46.736  28.944  27.687  1.00  0.00    -0.354 N 
ATOM     52  N   UNL A   1      45.828  26.192  27.197  1.00  0.00    -0.248 NA
ATOM     53  C   UNL A   1      46.252  24.006  26.485  1.00  0.00     0.031 C 
ATOM     54  C   UNL A   1      48.903  29.381  27.469  1.00  0.00     0.029 A 
ATOM     55  C   UNL A   1      47.957  28.375  27.357  1.00  0.00     0.049 A 
ATOM     56  H   UNL A   1      45.874  28.468  27.690  1.00  0.00     0.167 HD
ATOM     57  C   UNL A   1      47.181  26.061  26.909  1.00  0.00     0.074 A 
ATOM     58  C   UNL A   1      47.392  24.686  26.507  1.00  0.00     0.031 C 
ATOM     59  C   UNL A   1      48.157  27.000  26.967  1.00  0.00     0.037 A 
BRANCH  46  60
ATOM     60  C   UNL A   1      46.218  32.607  28.720  1.00  0.00     0.058 A 
ATOM     61  C   UNL A   1      46.261  33.622  27.751  1.00  0.00     0.135 A 
ATOM     62  C   UNL A   1      46.491  32.968  30.052  1.00  0.00     0.135 A 
ATOM     63  F   UNL A   1      46.028  33.335  26.460  1.00  0.00    -0.206 F 
ATOM     64  C   UNL A   1      46.584  34.934  28.086  1.00  0.00     0.059 A 
ATOM     65  C   UNL A   1      46.787  34.278  30.414  1.00  0.00     0.059 A 
ATOM     66  F   UNL A   1      46.467  32.039  31.020  1.00  0.00    -0.206 F 
ATOM     67  C   UNL A   1      46.842  35.254  29.421  1.00  0.00     0.060 A 
BRANCH  67  68
ATOM     68  S   UNL A   1      47.256  36.961  29.832  1.00  0.00     0.124 S 
ATOM     69  O   UNL A   1      46.397  37.200  30.988  1.00  0.00    -0.237 OA
ATOM     70  O   UNL A   1      48.685  36.873  30.113  1.00  0.00    -0.237 OA
ATOM     71  O   UNL A   1      46.899  37.701  28.625  1.00  0.00    -0.744 OA
ENDBRANCH  67  68
ENDBRANCH  46  60
BRANCH  47  72
ATOM     72  C   UNL A   1      43.454  23.170  26.864  1.00  0.00     0.058 A 
ATOM     73  C   UNL A   1      43.414  22.626  25.571  1.00  0.00     0.135 A 
ATOM     74  C   UNL A   1      43.091  22.324  27.927  1.00  0.00     0.135 A 
ATOM     75  F   UNL A   1      43.727  23.388  24.512  1.00  0.00    -0.206 F 
ATOM     76  C   UNL A   1      43.035  21.304  25.342  1.00  0.00     0.059 A 
ATOM     77  C   UNL A   1      42.744  20.991  27.729  1.00  0.00     0.059 A 
ATOM     78  F   UNL A   1      43.102  22.786  29.189  1.00  0.00    -0.206 F 
ATOM     79  C   UNL A   1      42.713  20.490  26.430  1.00  0.00     0.060 A 
BRANCH  79  80
ATOM     80  S   UNL A   1      42.279  18.762  26.126  1.00  0.00     0.124 S 
ATOM     81  O   UNL A   1      40.873  18.871  25.751  1.00  0.00    -0.237 OA
ATOM     82  O   UNL A   1      43.201  18.405  25.052  1.00  0.00    -0.237 OA
ATOM     83  O   UNL A   1      42.541  18.117  27.409  1.00  0.00    -0.744 OA
ENDBRANCH  79  80
ENDBRANCH  47  72
BRANCH  59  84
ATOM     84  C   UNL A   1      49.555  26.580  26.611  1.00  0.00     0.058 A 
ATOM     85  C   UNL A   1      50.026  26.637  25.290  1.00  0.00     0.135 A 
ATOM     86  C   UNL A   1      50.463  26.206  27.617  1.00  0.00     0.135 A 
ATOM     87  F   UNL A   1      49.198  26.979  24.290  1.00  0.00    -0.206 F 
ATOM     88  C   UNL A   1      51.346  26.327  24.978  1.00  0.00     0.059 A 
ATOM     89  C   UNL A   1      51.794  25.926  27.331  1.00  0.00     0.059 A 
ATOM     90  F   UNL A   1      50.064  26.143  28.898  1.00  0.00    -0.206 F 
ATOM     91  C   UNL A   1      52.225  25.985  26.007  1.00  0.00     0.060 A 
BRANCH  91  92
ATOM     92  S   UNL A   1      53.947  25.645  25.588  1.00  0.00     0.124 S 
ATOM     93  O   UNL A   1      54.429  25.012  26.812  1.00  0.00    -0.237 OA
ATOM     94  O   UNL A   1      53.814  24.768  24.429  1.00  0.00    -0.237 OA
ATOM     95  O   UNL A   1      54.497  26.968  25.308  1.00  0.00    -0.744 OA
ENDBRANCH  91  92
ENDBRANCH  59  84
ENDBRANCH  33  34
ENDBRANCH  25  28
ENDBRANCH  23  24
ENDBRANCH   1  23
TORSDOF 17
ENDMDL
