MODEL 1
REMARK VINA RESULT:     -12.5      0.000      0.000
REMARK SMILES CC(C)CSc1cc2c(cc1Cl)C=C(C(=O)NCCCNC(=O)c1ccc(-c3c4nc(c(-c5c(F)cc(S(=O)(=O)[O-])cc5F)c5ccc([nH]5)c(-c5c(F)cc(S(=O)(=O)[O-])cc5F)c5nc(c(-c6c(F)cc(S(=O)(=O)[O-])cc6F)c6ccc3[nH]6)C=C5)C=C4)cc1)[C@@H](C(F)(F)F)O2
REMARK SMILES IDX 19 1 18 2 17 3 15 4 16 5 14 7 6 8 7 9 11 10 8 11 10 12 12 13
REMARK SMILES IDX 9 14 95 15 13 16 90 17 5 18 4 19 2 20 1 21 3 22 91 23 92 24
REMARK SMILES IDX 93 25 94 26 20 27 21 28 22 29 23 31 24 32 25 33 89 34 26 35
REMARK SMILES IDX 88 36 27 37 28 38 29 39 82 40 30 41 87 42 81 43 83 44 31 45
REMARK SMILES IDX 86 46 80 47 79 48 32 50 66 51 45 52 65 53 46 54 49 55 64 56
REMARK SMILES IDX 84 57 47 58 48 59 63 61 85 62 50 63 33 64 34 65 43 66 35 67
REMARK SMILES IDX 36 68 42 69 44 70 37 71 38 72 39 73 40 74 41 75 67 76 68 77
REMARK SMILES IDX 77 78 69 79 70 80 76 81 78 82 71 83 72 84 73 85 74 86 75 87
REMARK SMILES IDX 51 88 52 89 61 90 53 91 54 92 60 93 62 94 55 95 56 96 57 97
REMARK SMILES IDX 58 98 59 99
REMARK H PARENT 17 6 21 30 83 49 49 60
REMARK Flexibility Score: inf
ROOT
ATOM      1  C   UNL A   1      34.132  31.076  27.419  1.00  0.00     0.042 C 
ENDROOT
BRANCH   1   2
ATOM      2  C   UNL A   1      33.683  29.732  26.871  1.00  0.00     0.118 C 
BRANCH   2   3
ATOM      3  N   UNL A   1      33.585  29.737  25.416  1.00  0.00    -0.352 N 
ATOM      4  C   UNL A   1      33.296  28.854  24.433  1.00  0.00     0.251 C 
ATOM      5  O   UNL A   1      33.318  29.317  23.287  1.00  0.00    -0.270 OA
ATOM      6  H   UNL A   1      33.783  30.629  25.049  1.00  0.00     0.163 HD
BRANCH   4   7
ATOM      7  C   UNL A   1      32.960  27.416  24.639  1.00  0.00     0.067 C 
ATOM      8  C   UNL A   1      33.207  22.392  25.192  1.00  0.00     0.030 A 
ATOM      9  C   UNL A   1      32.231  23.370  25.389  1.00  0.00     0.063 A 
ATOM     10  C   UNL A   1      34.431  22.801  24.620  1.00  0.00     0.055 A 
ATOM     11  C   UNL A   1      32.499  24.714  25.150  1.00  0.00     0.129 A 
ATOM     12  C   UNL A   1      34.679  24.154  24.334  1.00  0.00     0.033 A 
ATOM     13  Cl  UNL A   1      35.705  21.686  24.249  1.00  0.00    -0.083 Cl
ATOM     14  C   UNL A   1      33.717  25.123  24.625  1.00  0.00     0.019 A 
ATOM     15  O   UNL A   1      31.524  25.579  25.544  1.00  0.00    -0.475 OA
ATOM     16  C   UNL A   1      33.969  26.546  24.442  1.00  0.00     0.025 C 
ATOM     17  C   UNL A   1      31.591  26.929  25.021  1.00  0.00     0.314 C 
BRANCH   8  18
ATOM     18  S   UNL A   1      32.917  20.691  25.690  1.00  0.00    -0.124 SA
BRANCH  18  19
ATOM     19  C   UNL A   1      32.530  19.788  24.134  1.00  0.00     0.078 C 
BRANCH  19  20
ATOM     20  C   UNL A   1      32.464  18.250  24.219  1.00  0.00    -0.007 C 
ATOM     21  C   UNL A   1      33.463  17.505  23.332  1.00  0.00     0.008 C 
ATOM     22  C   UNL A   1      32.703  17.827  25.674  1.00  0.00     0.008 C 
ENDBRANCH  19  20
ENDBRANCH  18  19
ENDBRANCH   8  18
BRANCH  17  23
ATOM     23  C   UNL A   1      30.570  27.036  23.875  1.00  0.00     0.429 C 
ATOM     24  F   UNL A   1      31.154  26.722  22.691  1.00  0.00    -0.167 F 
ATOM     25  F   UNL A   1      29.519  26.197  24.020  1.00  0.00    -0.167 F 
ATOM     26  F   UNL A   1      30.061  28.283  23.755  1.00  0.00    -0.167 F 
ENDBRANCH  17  23
ENDBRANCH   4   7
ENDBRANCH   2   3
ENDBRANCH   1   2
BRANCH   1  27
ATOM     27  C   UNL A   1      35.512  31.007  28.059  1.00  0.00     0.118 C 
BRANCH  27  28
ATOM     28  N   UNL A   1      35.440  30.763  29.499  1.00  0.00    -0.352 N 
ATOM     29  C   UNL A   1      36.382  30.260  30.366  1.00  0.00     0.251 C 
ATOM     30  H   UNL A   1      34.579  30.995  29.916  1.00  0.00     0.163 HD
ATOM     31  O   UNL A   1      36.045  29.917  31.496  1.00  0.00    -0.269 OA
BRANCH  29  32
ATOM     32  C   UNL A   1      37.785  30.113  29.928  1.00  0.00     0.039 A 
ATOM     33  C   UNL A   1      38.085  29.977  28.574  1.00  0.00     0.014 A 
ATOM     34  C   UNL A   1      38.811  30.102  30.878  1.00  0.00     0.014 A 
ATOM     35  C   UNL A   1      39.369  29.620  28.189  1.00  0.00     0.010 A 
ATOM     36  C   UNL A   1      40.127  29.856  30.472  1.00  0.00     0.010 A 
ATOM     37  C   UNL A   1      40.408  29.556  29.130  1.00  0.00    -0.014 A 
BRANCH  37  38
ATOM     38  C   UNL A   1      41.769  29.169  28.673  1.00  0.00     0.031 A 
ATOM     39  C   UNL A   1      42.909  30.154  28.725  1.00  0.00     0.074 A 
ATOM     40  C   UNL A   1      41.990  27.896  28.285  1.00  0.00     0.049 A 
ATOM     41  N   UNL A   1      44.159  29.981  28.376  1.00  0.00    -0.248 NA
ATOM     42  C   UNL A   1      42.614  31.508  29.223  1.00  0.00     0.031 C 
ATOM     43  C   UNL A   1      40.964  26.851  28.199  1.00  0.00     0.029 A 
ATOM     44  N   UNL A   1      43.145  27.251  27.923  1.00  0.00    -0.354 N 
ATOM     45  C   UNL A   1      44.789  31.203  28.586  1.00  0.00     0.074 A 
ATOM     46  C   UNL A   1      43.782  32.119  29.076  1.00  0.00     0.031 C 
ATOM     47  C   UNL A   1      41.545  25.688  27.872  1.00  0.00     0.029 A 
ATOM     48  C   UNL A   1      42.968  25.915  27.653  1.00  0.00     0.049 A 
ATOM     49  H   UNL A   1      44.018  27.703  27.864  1.00  0.00     0.167 HD
ATOM     50  C   UNL A   1      46.090  31.524  28.398  1.00  0.00     0.037 A 
ATOM     51  C   UNL A   1      43.847  24.977  27.252  1.00  0.00     0.037 A 
ATOM     52  C   UNL A   1      47.097  30.594  27.958  1.00  0.00     0.049 A 
ATOM     53  C   UNL A   1      45.282  25.367  27.044  1.00  0.00     0.074 A 
ATOM     54  C   UNL A   1      48.449  30.821  27.765  1.00  0.00     0.029 A 
ATOM     55  N   UNL A   1      46.868  29.260  27.657  1.00  0.00    -0.354 N 
ATOM     56  N   UNL A   1      45.852  26.532  27.240  1.00  0.00    -0.248 NA
ATOM     57  C   UNL A   1      46.190  24.325  26.546  1.00  0.00     0.031 C 
ATOM     58  C   UNL A   1      49.033  29.633  27.317  1.00  0.00     0.029 A 
ATOM     59  C   UNL A   1      48.051  28.656  27.266  1.00  0.00     0.049 A 
ATOM     60  H   UNL A   1      45.995  28.809  27.713  1.00  0.00     0.167 HD
ATOM     61  C   UNL A   1      47.186  26.362  26.889  1.00  0.00     0.074 A 
ATOM     62  C   UNL A   1      47.343  24.978  26.496  1.00  0.00     0.031 C 
ATOM     63  C   UNL A   1      48.187  27.275  26.881  1.00  0.00     0.037 A 
BRANCH  50  64
ATOM     64  C   UNL A   1      46.523  32.938  28.668  1.00  0.00     0.058 A 
ATOM     65  C   UNL A   1      47.033  33.324  29.916  1.00  0.00     0.135 A 
ATOM     66  C   UNL A   1      46.533  33.886  27.632  1.00  0.00     0.135 A 
ATOM     67  F   UNL A   1      47.027  32.462  30.945  1.00  0.00    -0.206 F 
ATOM     68  C   UNL A   1      47.546  34.600  30.126  1.00  0.00     0.059 A 
ATOM     69  C   UNL A   1      47.058  35.163  27.814  1.00  0.00     0.059 A 
ATOM     70  F   UNL A   1      46.051  33.568  26.420  1.00  0.00    -0.206 F 
ATOM     71  C   UNL A   1      47.564  35.509  29.065  1.00  0.00     0.060 A 
BRANCH  71  72
ATOM     72  S   UNL A   1      48.290  37.140  29.343  1.00  0.00     0.124 S 
ATOM     73  O   UNL A   1      48.442  37.148  30.794  1.00  0.00    -0.237 OA
ATOM     74  O   UNL A   1      49.529  37.063  28.576  1.00  0.00    -0.237 OA
ATOM     75  O   UNL A   1      47.284  38.055  28.814  1.00  0.00    -0.744 OA
ENDBRANCH  71  72
ENDBRANCH  50  64
BRANCH  51  76
ATOM     76  C   UNL A   1      43.386  23.589  26.990  1.00  0.00     0.058 A 
ATOM     77  C   UNL A   1      43.197  23.120  25.683  1.00  0.00     0.135 A 
ATOM     78  C   UNL A   1      43.132  22.700  28.047  1.00  0.00     0.135 A 
ATOM     79  F   UNL A   1      43.423  23.934  24.640  1.00  0.00    -0.206 F 
ATOM     80  C   UNL A   1      42.756  21.825  25.431  1.00  0.00     0.059 A 
ATOM     81  C   UNL A   1      42.717  21.393  27.820  1.00  0.00     0.059 A 
ATOM     82  F   UNL A   1      43.315  23.095  29.317  1.00  0.00    -0.206 F 
ATOM     83  C   UNL A   1      42.518  20.970  26.508  1.00  0.00     0.060 A 
BRANCH  83  84
ATOM     84  S   UNL A   1      41.979  19.279  26.175  1.00  0.00     0.124 S 
ATOM     85  O   UNL A   1      42.791  18.938  25.013  1.00  0.00    -0.237 OA
ATOM     86  O   UNL A   1      42.321  18.595  27.418  1.00  0.00    -0.237 OA
ATOM     87  O   UNL A   1      40.548  19.428  25.925  1.00  0.00    -0.744 OA
ENDBRANCH  83  84
ENDBRANCH  51  76
BRANCH  63  88
ATOM     88  C   UNL A   1      49.542  26.805  26.443  1.00  0.00     0.058 A 
ATOM     89  C   UNL A   1      50.429  26.197  27.345  1.00  0.00     0.135 A 
ATOM     90  C   UNL A   1      49.933  26.906  25.099  1.00  0.00     0.135 A 
ATOM     91  F   UNL A   1      50.102  26.086  28.642  1.00  0.00    -0.206 F 
ATOM     92  C   UNL A   1      51.665  25.716  26.931  1.00  0.00     0.059 A 
ATOM     93  C   UNL A   1      51.156  26.411  24.658  1.00  0.00     0.059 A 
ATOM     94  F   UNL A   1      49.115  27.471  24.197  1.00  0.00    -0.206 F 
ATOM     95  C   UNL A   1      52.018  25.825  25.584  1.00  0.00     0.060 A 
BRANCH  95  96
ATOM     96  S   UNL A   1      53.608  25.157  25.053  1.00  0.00     0.124 S 
ATOM     97  O   UNL A   1      53.693  25.653  23.684  1.00  0.00    -0.237 OA
ATOM     98  O   UNL A   1      54.534  25.762  26.005  1.00  0.00    -0.237 OA
ATOM     99  O   UNL A   1      53.433  23.714  25.189  1.00  0.00    -0.744 OA
ENDBRANCH  95  96
ENDBRANCH  63  88
ENDBRANCH  37  38
ENDBRANCH  29  32
ENDBRANCH  27  28
ENDBRANCH   1  27
TORSDOF 17
ENDMDL
MODEL 2
REMARK VINA RESULT:     -12.4      6.176      8.389
REMARK SMILES CC(C)CSc1cc2c(cc1Cl)C=C(C(=O)NCCCNC(=O)c1ccc(-c3c4nc(c(-c5c(F)cc(S(=O)(=O)[O-])cc5F)c5ccc([nH]5)c(-c5c(F)cc(S(=O)(=O)[O-])cc5F)c5nc(c(-c6c(F)cc(S(=O)(=O)[O-])cc6F)c6ccc3[nH]6)C=C5)C=C4)cc1)[C@@H](C(F)(F)F)O2
REMARK SMILES IDX 19 1 18 2 17 3 15 4 16 5 14 7 6 8 7 9 11 10 8 11 10 12 12 13
REMARK SMILES IDX 9 14 95 15 13 16 90 17 5 18 4 19 2 20 1 21 3 22 91 23 92 24
REMARK SMILES IDX 93 25 94 26 20 27 21 28 22 29 23 31 24 32 25 33 89 34 26 35
REMARK SMILES IDX 88 36 27 37 28 38 29 39 82 40 30 41 87 42 81 43 83 44 31 45
REMARK SMILES IDX 86 46 80 47 79 48 32 50 66 51 45 52 65 53 46 54 49 55 64 56
REMARK SMILES IDX 84 57 47 58 48 59 63 61 85 62 50 63 33 64 34 65 43 66 35 67
REMARK SMILES IDX 36 68 42 69 44 70 37 71 38 72 39 73 40 74 41 75 67 76 68 77
REMARK SMILES IDX 77 78 69 79 70 80 76 81 78 82 71 83 72 84 73 85 74 86 75 87
REMARK SMILES IDX 51 88 52 89 61 90 53 91 54 92 60 93 62 94 55 95 56 96 57 97
REMARK SMILES IDX 58 98 59 99
REMARK H PARENT 17 6 21 30 83 49 49 60
REMARK Flexibility Score: inf
ROOT
ATOM      1  C   UNL A   1      31.691  31.826  26.885  1.00  0.00     0.042 C 
ENDROOT
BRANCH   1   2
ATOM      2  C   UNL A   1      32.058  30.611  26.050  1.00  0.00     0.118 C 
BRANCH   2   3
ATOM      3  N   UNL A   1      31.063  30.329  25.023  1.00  0.00    -0.352 N 
ATOM      4  C   UNL A   1      30.744  29.307  24.197  1.00  0.00     0.251 C 
ATOM      5  O   UNL A   1      29.769  29.505  23.465  1.00  0.00    -0.270 OA
ATOM      6  H   UNL A   1      30.457  31.094  24.894  1.00  0.00     0.163 HD
BRANCH   4   7
ATOM      7  C   UNL A   1      31.464  28.002  24.124  1.00  0.00     0.067 C 
ATOM      8  C   UNL A   1      33.146  23.316  25.028  1.00  0.00     0.030 A 
ATOM      9  C   UNL A   1      33.243  24.224  23.972  1.00  0.00     0.063 A 
ATOM     10  C   UNL A   1      32.515  23.759  26.210  1.00  0.00     0.055 A 
ATOM     11  C   UNL A   1      32.628  25.471  24.035  1.00  0.00     0.129 A 
ATOM     12  C   UNL A   1      31.938  25.038  26.286  1.00  0.00     0.033 A 
ATOM     13  Cl  UNL A   1      32.388  22.767  27.626  1.00  0.00    -0.083 Cl
ATOM     14  C   UNL A   1      31.971  25.892  25.183  1.00  0.00     0.019 A 
ATOM     15  O   UNL A   1      32.652  26.189  22.879  1.00  0.00    -0.475 OA
ATOM     16  C   UNL A   1      31.300  27.184  25.181  1.00  0.00     0.025 C 
ATOM     17  C   UNL A   1      32.342  27.600  22.974  1.00  0.00     0.314 C 
BRANCH   8  18
ATOM     18  S   UNL A   1      33.770  21.641  24.859  1.00  0.00    -0.124 SA
BRANCH  18  19
ATOM     19  C   UNL A   1      35.486  21.692  25.522  1.00  0.00     0.078 C 
BRANCH  19  20
ATOM     20  C   UNL A   1      36.633  21.625  24.493  1.00  0.00    -0.007 C 
ATOM     21  C   UNL A   1      36.698  22.795  23.511  1.00  0.00     0.008 C 
ATOM     22  C   UNL A   1      37.967  21.555  25.249  1.00  0.00     0.008 C 
ENDBRANCH  19  20
ENDBRANCH  18  19
ENDBRANCH   8  18
BRANCH  17  23
ATOM     23  C   UNL A   1      33.672  28.373  22.930  1.00  0.00     0.429 C 
ATOM     24  F   UNL A   1      34.432  27.948  21.889  1.00  0.00    -0.167 F 
ATOM     25  F   UNL A   1      33.506  29.706  22.766  1.00  0.00    -0.167 F 
ATOM     26  F   UNL A   1      34.401  28.206  24.057  1.00  0.00    -0.167 F 
ENDBRANCH  17  23
ENDBRANCH   4   7
ENDBRANCH   2   3
ENDBRANCH   1   2
BRANCH   1  27
ATOM     27  C   UNL A   1      32.917  32.583  27.375  1.00  0.00     0.118 C 
BRANCH  27  28
ATOM     28  N   UNL A   1      32.622  33.988  27.656  1.00  0.00    -0.352 N 
ATOM     29  C   UNL A   1      33.089  34.816  28.650  1.00  0.00     0.251 C 
ATOM     30  H   UNL A   1      31.985  34.409  27.034  1.00  0.00     0.163 HD
ATOM     31  O   UNL A   1      32.540  35.897  28.847  1.00  0.00    -0.269 OA
BRANCH  29  32
ATOM     32  C   UNL A   1      34.230  34.394  29.487  1.00  0.00     0.039 A 
ATOM     33  C   UNL A   1      35.536  34.603  29.047  1.00  0.00     0.014 A 
ATOM     34  C   UNL A   1      33.997  33.775  30.719  1.00  0.00     0.014 A 
ATOM     35  C   UNL A   1      36.592  34.012  29.726  1.00  0.00     0.010 A 
ATOM     36  C   UNL A   1      35.075  33.280  31.460  1.00  0.00     0.010 A 
ATOM     37  C   UNL A   1      36.378  33.345  30.942  1.00  0.00    -0.014 A 
BRANCH  37  38
ATOM     38  C   UNL A   1      37.538  32.726  31.636  1.00  0.00     0.031 A 
ATOM     39  C   UNL A   1      37.960  33.198  33.003  1.00  0.00     0.074 A 
ATOM     40  C   UNL A   1      38.161  31.678  31.058  1.00  0.00     0.049 A 
ATOM     41  N   UNL A   1      38.940  32.764  33.755  1.00  0.00    -0.248 NA
ATOM     42  C   UNL A   1      37.194  34.302  33.607  1.00  0.00     0.031 C 
ATOM     43  C   UNL A   1      37.837  31.128  29.737  1.00  0.00     0.029 A 
ATOM     44  N   UNL A   1      39.169  30.866  31.512  1.00  0.00    -0.354 N 
ATOM     45  C   UNL A   1      38.925  33.553  34.900  1.00  0.00     0.074 A 
ATOM     46  C   UNL A   1      37.850  34.508  34.741  1.00  0.00     0.031 C 
ATOM     47  C   UNL A   1      38.584  30.037  29.517  1.00  0.00     0.029 A 
ATOM     48  C   UNL A   1      39.491  29.850  30.643  1.00  0.00     0.049 A 
ATOM     49  H   UNL A   1      39.618  30.998  32.378  1.00  0.00     0.167 HD
ATOM     50  C   UNL A   1      39.728  33.477  35.987  1.00  0.00     0.037 A 
ATOM     51  C   UNL A   1      40.427  28.886  30.729  1.00  0.00     0.037 A 
ATOM     52  C   UNL A   1      40.764  32.492  36.160  1.00  0.00     0.049 A 
ATOM     53  C   UNL A   1      41.308  28.834  31.944  1.00  0.00     0.074 A 
ATOM     54  C   UNL A   1      41.611  32.319  37.241  1.00  0.00     0.029 A 
ATOM     55  N   UNL A   1      41.084  31.506  35.239  1.00  0.00    -0.354 N 
ATOM     56  N   UNL A   1      41.281  29.599  33.010  1.00  0.00    -0.248 NA
ATOM     57  C   UNL A   1      42.355  27.805  31.964  1.00  0.00     0.031 C 
ATOM     58  C   UNL A   1      42.465  31.249  36.961  1.00  0.00     0.029 A 
ATOM     59  C   UNL A   1      42.125  30.732  35.721  1.00  0.00     0.049 A 
ATOM     60  H   UNL A   1      40.637  31.377  34.371  1.00  0.00     0.167 HD
ATOM     61  C   UNL A   1      42.307  29.140  33.828  1.00  0.00     0.074 A 
ATOM     62  C   UNL A   1      42.917  28.017  33.146  1.00  0.00     0.031 C 
ATOM     63  C   UNL A   1      42.715  29.616  35.028  1.00  0.00     0.037 A 
BRANCH  50  64
ATOM     64  C   UNL A   1      39.531  34.478  37.092  1.00  0.00     0.058 A 
ATOM     65  C   UNL A   1      38.841  34.148  38.267  1.00  0.00     0.135 A 
ATOM     66  C   UNL A   1      40.138  35.742  37.019  1.00  0.00     0.135 A 
ATOM     67  F   UNL A   1      38.226  32.960  38.378  1.00  0.00    -0.206 F 
ATOM     68  C   UNL A   1      38.766  35.033  39.336  1.00  0.00     0.059 A 
ATOM     69  C   UNL A   1      40.091  36.638  38.083  1.00  0.00     0.059 A 
ATOM     70  F   UNL A   1      40.806  36.109  35.913  1.00  0.00    -0.206 F 
ATOM     71  C   UNL A   1      39.404  36.273  39.240  1.00  0.00     0.060 A 
BRANCH  71  72
ATOM     72  S   UNL A   1      39.344  37.384  40.663  1.00  0.00     0.124 S 
ATOM     73  O   UNL A   1      38.791  36.509  41.692  1.00  0.00    -0.237 OA
ATOM     74  O   UNL A   1      40.747  37.749  40.829  1.00  0.00    -0.237 OA
ATOM     75  O   UNL A   1      38.467  38.461  40.217  1.00  0.00    -0.744 OA
ENDBRANCH  71  72
ENDBRANCH  50  64
BRANCH  51  76
ATOM     76  C   UNL A   1      40.598  27.915  29.618  1.00  0.00     0.058 A 
ATOM     77  C   UNL A   1      41.588  28.094  28.642  1.00  0.00     0.135 A 
ATOM     78  C   UNL A   1      39.777  26.781  29.516  1.00  0.00     0.135 A 
ATOM     79  F   UNL A   1      42.395  29.166  28.695  1.00  0.00    -0.206 F 
ATOM     80  C   UNL A   1      41.748  27.194  27.593  1.00  0.00     0.059 A 
ATOM     81  C   UNL A   1      39.935  25.853  28.493  1.00  0.00     0.059 A 
ATOM     82  F   UNL A   1      38.825  26.554  30.436  1.00  0.00    -0.206 F 
ATOM     83  C   UNL A   1      40.914  26.076  27.528  1.00  0.00     0.060 A 
BRANCH  83  84
ATOM     84  S   UNL A   1      41.148  24.893  26.185  1.00  0.00     0.124 S 
ATOM     85  O   UNL A   1      39.773  24.497  25.903  1.00  0.00    -0.237 OA
ATOM     86  O   UNL A   1      41.799  25.709  25.164  1.00  0.00    -0.237 OA
ATOM     87  O   UNL A   1      41.992  23.866  26.787  1.00  0.00    -0.744 OA
ENDBRANCH  83  84
ENDBRANCH  51  76
BRANCH  63  88
ATOM     88  C   UNL A   1      43.869  28.920  35.687  1.00  0.00     0.058 A 
ATOM     89  C   UNL A   1      43.668  27.814  36.527  1.00  0.00     0.135 A 
ATOM     90  C   UNL A   1      45.188  29.321  35.427  1.00  0.00     0.135 A 
ATOM     91  F   UNL A   1      42.423  27.398  36.811  1.00  0.00    -0.206 F 
ATOM     92  C   UNL A   1      44.738  27.136  37.099  1.00  0.00     0.059 A 
ATOM     93  C   UNL A   1      46.275  28.643  35.971  1.00  0.00     0.059 A 
ATOM     94  F   UNL A   1      45.431  30.368  34.623  1.00  0.00    -0.206 F 
ATOM     95  C   UNL A   1      46.038  27.557  36.812  1.00  0.00     0.060 A 
BRANCH  95  96
ATOM     96  S   UNL A   1      47.418  26.640  37.528  1.00  0.00     0.124 S 
ATOM     97  O   UNL A   1      47.269  25.338  36.887  1.00  0.00    -0.237 OA
ATOM     98  O   UNL A   1      48.570  27.428  37.101  1.00  0.00    -0.237 OA
ATOM     99  O   UNL A   1      47.141  26.671  38.960  1.00  0.00    -0.744 OA
ENDBRANCH  95  96
ENDBRANCH  63  88
ENDBRANCH  37  38
ENDBRANCH  29  32
ENDBRANCH  27  28
ENDBRANCH   1  27
TORSDOF 17
ENDMDL
MODEL 3
REMARK VINA RESULT:     -12.2      0.934      8.143
REMARK SMILES CC(C)CSc1cc2c(cc1Cl)C=C(C(=O)NCCCNC(=O)c1ccc(-c3c4nc(c(-c5c(F)cc(S(=O)(=O)[O-])cc5F)c5ccc([nH]5)c(-c5c(F)cc(S(=O)(=O)[O-])cc5F)c5nc(c(-c6c(F)cc(S(=O)(=O)[O-])cc6F)c6ccc3[nH]6)C=C5)C=C4)cc1)[C@@H](C(F)(F)F)O2
REMARK SMILES IDX 19 1 18 2 17 3 15 4 16 5 14 7 6 8 7 9 11 10 8 11 10 12 12 13
REMARK SMILES IDX 9 14 95 15 13 16 90 17 5 18 4 19 2 20 1 21 3 22 91 23 92 24
REMARK SMILES IDX 93 25 94 26 20 27 21 28 22 29 23 31 24 32 25 33 89 34 26 35
REMARK SMILES IDX 88 36 27 37 28 38 29 39 82 40 30 41 87 42 81 43 83 44 31 45
REMARK SMILES IDX 86 46 80 47 79 48 32 50 66 51 45 52 65 53 46 54 49 55 64 56
REMARK SMILES IDX 84 57 47 58 48 59 63 61 85 62 50 63 33 64 34 65 43 66 35 67
REMARK SMILES IDX 36 68 42 69 44 70 37 71 38 72 39 73 40 74 41 75 67 76 68 77
REMARK SMILES IDX 77 78 69 79 70 80 76 81 78 82 71 83 72 84 73 85 74 86 75 87
REMARK SMILES IDX 51 88 52 89 61 90 53 91 54 92 60 93 62 94 55 95 56 96 57 97
REMARK SMILES IDX 58 98 59 99
REMARK H PARENT 17 6 21 30 83 49 49 60
REMARK Flexibility Score: inf
ROOT
ATOM      1  C   UNL A   1      35.186  29.223  27.140  1.00  0.00     0.042 C 
ENDROOT
BRANCH   1   2
ATOM      2  C   UNL A   1      33.883  29.368  26.373  1.00  0.00     0.118 C 
BRANCH   2   3
ATOM      3  N   UNL A   1      32.723  29.038  27.192  1.00  0.00    -0.352 N 
ATOM      4  C   UNL A   1      31.807  28.046  27.271  1.00  0.00     0.251 C 
ATOM      5  O   UNL A   1      30.969  28.173  28.171  1.00  0.00    -0.270 OA
ATOM      6  H   UNL A   1      32.562  29.727  27.877  1.00  0.00     0.163 HD
BRANCH   4   7
ATOM      7  C   UNL A   1      31.752  26.852  26.378  1.00  0.00     0.067 C 
ATOM      8  C   UNL A   1      32.653  22.403  24.144  1.00  0.00     0.030 A 
ATOM      9  C   UNL A   1      31.630  23.351  24.100  1.00  0.00     0.063 A 
ATOM     10  C   UNL A   1      33.798  22.716  24.906  1.00  0.00     0.055 A 
ATOM     11  C   UNL A   1      31.680  24.503  24.880  1.00  0.00     0.129 A 
ATOM     12  C   UNL A   1      33.866  23.904  25.654  1.00  0.00     0.033 A 
ATOM     13  Cl  UNL A   1      35.176  21.668  24.991  1.00  0.00    -0.083 Cl
ATOM     14  C   UNL A   1      32.789  24.793  25.662  1.00  0.00     0.019 A 
ATOM     15  O   UNL A   1      30.547  25.257  24.876  1.00  0.00    -0.475 OA
ATOM     16  C   UNL A   1      32.774  25.983  26.501  1.00  0.00     0.025 C 
ATOM     17  C   UNL A   1      30.656  26.611  25.379  1.00  0.00     0.314 C 
BRANCH   8  18
ATOM     18  S   UNL A   1      32.486  20.832  23.289  1.00  0.00    -0.124 SA
BRANCH  18  19
ATOM     19  C   UNL A   1      32.624  19.548  24.599  1.00  0.00     0.078 C 
BRANCH  19  20
ATOM     20  C   UNL A   1      32.391  18.085  24.170  1.00  0.00    -0.007 C 
ATOM     21  C   UNL A   1      33.323  17.571  23.072  1.00  0.00     0.008 C 
ATOM     22  C   UNL A   1      32.549  17.181  25.399  1.00  0.00     0.008 C 
ENDBRANCH  19  20
ENDBRANCH  18  19
ENDBRANCH   8  18
BRANCH  17  23
ATOM     23  C   UNL A   1      30.726  27.555  24.166  1.00  0.00     0.429 C 
ATOM     24  F   UNL A   1      31.976  27.554  23.638  1.00  0.00    -0.167 F 
ATOM     25  F   UNL A   1      29.887  27.199  23.167  1.00  0.00    -0.167 F 
ATOM     26  F   UNL A   1      30.426  28.833  24.491  1.00  0.00    -0.167 F 
ENDBRANCH  17  23
ENDBRANCH   4   7
ENDBRANCH   2   3
ENDBRANCH   1   2
BRANCH   1  27
ATOM     27  C   UNL A   1      35.632  30.531  27.776  1.00  0.00     0.118 C 
BRANCH  27  28
ATOM     28  N   UNL A   1      35.497  30.511  29.232  1.00  0.00    -0.352 N 
ATOM     29  C   UNL A   1      36.406  30.174  30.207  1.00  0.00     0.251 C 
ATOM     30  H   UNL A   1      34.613  30.782  29.569  1.00  0.00     0.163 HD
ATOM     31  O   UNL A   1      36.023  30.002  31.361  1.00  0.00    -0.269 OA
BRANCH  29  32
ATOM     32  C   UNL A   1      37.831  29.998  29.859  1.00  0.00     0.039 A 
ATOM     33  C   UNL A   1      38.241  30.066  28.528  1.00  0.00     0.014 A 
ATOM     34  C   UNL A   1      38.768  29.755  30.868  1.00  0.00     0.014 A 
ATOM     35  C   UNL A   1      39.530  29.684  28.187  1.00  0.00     0.010 A 
ATOM     36  C   UNL A   1      40.097  29.483  30.528  1.00  0.00     0.010 A 
ATOM     37  C   UNL A   1      40.477  29.390  29.180  1.00  0.00    -0.014 A 
BRANCH  37  38
ATOM     38  C   UNL A   1      41.847  28.984  28.769  1.00  0.00     0.031 A 
ATOM     39  C   UNL A   1      42.125  27.583  28.291  1.00  0.00     0.074 A 
ATOM     40  C   UNL A   1      42.826  29.914  28.755  1.00  0.00     0.049 A 
ATOM     41  N   UNL A   1      43.257  27.064  27.886  1.00  0.00    -0.248 NA
ATOM     42  C   UNL A   1      40.997  26.637  28.267  1.00  0.00     0.031 C 
ATOM     43  C   UNL A   1      42.673  31.306  29.192  1.00  0.00     0.029 A 
ATOM     44  N   UNL A   1      44.128  29.844  28.331  1.00  0.00    -0.354 N 
ATOM     45  C   UNL A   1      42.985  25.733  27.588  1.00  0.00     0.074 A 
ATOM     46  C   UNL A   1      41.584  25.514  27.873  1.00  0.00     0.031 C 
ATOM     47  C   UNL A   1      43.813  31.970  28.955  1.00  0.00     0.029 A 
ATOM     48  C   UNL A   1      44.800  31.041  28.419  1.00  0.00     0.049 A 
ATOM     49  H   UNL A   1      44.542  29.017  27.994  1.00  0.00     0.167 HD
ATOM     50  C   UNL A   1      43.826  24.788  27.107  1.00  0.00     0.037 A 
ATOM     51  C   UNL A   1      46.076  31.354  28.124  1.00  0.00     0.037 A 
ATOM     52  C   UNL A   1      45.207  25.026  26.778  1.00  0.00     0.049 A 
ATOM     53  C   UNL A   1      46.986  30.280  27.602  1.00  0.00     0.074 A 
ATOM     54  C   UNL A   1      46.131  24.136  26.259  1.00  0.00     0.029 A 
ATOM     55  N   UNL A   1      45.859  26.242  26.920  1.00  0.00    -0.354 N 
ATOM     56  N   UNL A   1      46.707  29.026  27.337  1.00  0.00    -0.248 NA
ATOM     57  C   UNL A   1      48.384  30.655  27.354  1.00  0.00     0.031 C 
ATOM     58  C   UNL A   1      47.351  24.803  26.117  1.00  0.00     0.029 A 
ATOM     59  C   UNL A   1      47.177  26.120  26.512  1.00  0.00     0.049 A 
ATOM     60  H   UNL A   1      45.446  27.068  27.260  1.00  0.00     0.167 HD
ATOM     61  C   UNL A   1      47.897  28.463  26.890  1.00  0.00     0.074 A 
ATOM     62  C   UNL A   1      48.888  29.518  26.895  1.00  0.00     0.031 C 
ATOM     63  C   UNL A   1      48.147  27.184  26.522  1.00  0.00     0.037 A 
BRANCH  50  64
ATOM     64  C   UNL A   1      43.293  23.398  26.897  1.00  0.00     0.058 A 
ATOM     65  C   UNL A   1      43.053  22.891  25.612  1.00  0.00     0.135 A 
ATOM     66  C   UNL A   1      43.130  22.528  27.988  1.00  0.00     0.135 A 
ATOM     67  F   UNL A   1      43.174  23.687  24.537  1.00  0.00    -0.206 F 
ATOM     68  C   UNL A   1      42.676  21.567  25.414  1.00  0.00     0.059 A 
ATOM     69  C   UNL A   1      42.772  21.195  27.813  1.00  0.00     0.059 A 
ATOM     70  F   UNL A   1      43.342  22.967  29.239  1.00  0.00    -0.206 F 
ATOM     71  C   UNL A   1      42.549  20.723  26.520  1.00  0.00     0.060 A 
BRANCH  71  72
ATOM     72  S   UNL A   1      42.118  18.991  26.236  1.00  0.00     0.124 S 
ATOM     73  O   UNL A   1      43.068  18.623  25.191  1.00  0.00    -0.237 OA
ATOM     74  O   UNL A   1      42.354  18.395  27.547  1.00  0.00    -0.237 OA
ATOM     75  O   UNL A   1      40.721  19.052  25.820  1.00  0.00    -0.744 OA
ENDBRANCH  71  72
ENDBRANCH  50  64
BRANCH  51  76
ATOM     76  C   UNL A   1      46.573  32.736  28.348  1.00  0.00     0.058 A 
ATOM     77  C   UNL A   1      46.499  33.707  27.340  1.00  0.00     0.135 A 
ATOM     78  C   UNL A   1      47.124  33.115  29.582  1.00  0.00     0.135 A 
ATOM     79  F   UNL A   1      45.984  33.392  26.141  1.00  0.00    -0.206 F 
ATOM     80  C   UNL A   1      46.972  35.000  27.539  1.00  0.00     0.059 A 
ATOM     81  C   UNL A   1      47.577  34.408  29.815  1.00  0.00     0.059 A 
ATOM     82  F   UNL A   1      47.201  32.227  30.586  1.00  0.00    -0.206 F 
ATOM     83  C   UNL A   1      47.510  35.340  28.782  1.00  0.00     0.060 A 
BRANCH  83  84
ATOM     84  S   UNL A   1      48.089  37.029  29.047  1.00  0.00     0.124 S 
ATOM     85  O   UNL A   1      47.290  37.767  28.076  1.00  0.00    -0.237 OA
ATOM     86  O   UNL A   1      47.757  37.253  30.451  1.00  0.00    -0.237 OA
ATOM     87  O   UNL A   1      49.517  36.942  28.757  1.00  0.00    -0.744 OA
ENDBRANCH  83  84
ENDBRANCH  51  76
BRANCH  63  88
ATOM     88  C   UNL A   1      49.544  26.855  26.086  1.00  0.00     0.058 A 
ATOM     89  C   UNL A   1      50.481  26.324  26.985  1.00  0.00     0.135 A 
ATOM     90  C   UNL A   1      49.929  27.011  24.746  1.00  0.00     0.135 A 
ATOM     91  F   UNL A   1      50.160  26.164  28.279  1.00  0.00    -0.206 F 
ATOM     92  C   UNL A   1      51.761  25.971  26.573  1.00  0.00     0.059 A 
ATOM     93  C   UNL A   1      51.197  26.643  24.306  1.00  0.00     0.059 A 
ATOM     94  F   UNL A   1      49.064  27.506  23.846  1.00  0.00    -0.206 F 
ATOM     95  C   UNL A   1      52.107  26.131  25.230  1.00  0.00     0.060 A 
BRANCH  95  96
ATOM     96  S   UNL A   1      53.758  25.628  24.700  1.00  0.00     0.124 S 
ATOM     97  O   UNL A   1      53.842  26.242  23.379  1.00  0.00    -0.237 OA
ATOM     98  O   UNL A   1      54.609  26.218  25.728  1.00  0.00    -0.237 OA
ATOM     99  O   UNL A   1      53.689  24.170  24.712  1.00  0.00    -0.744 OA
ENDBRANCH  95  96
ENDBRANCH  63  88
ENDBRANCH  37  38
ENDBRANCH  29  32
ENDBRANCH  27  28
ENDBRANCH   1  27
TORSDOF 17
ENDMDL
