MODEL 1
REMARK VINA RESULT:     -13.5      0.000      0.000
REMARK SMILES O=C(NCCCNC(=O)c1cc(NC(=O)c2cccc(Cl)c2)ccc1N1CC[NH+](CC(=O)N2CCOCC2)CC1)c1ccc(-c2c3nc(c(-c4c(F)cc(S(=O)(=O)[O-])cc4F)c4ccc([nH]4)c(-c4c(F)cc(S(=O)(=O)[O-])cc4F)c4nc(c(-c5c(F)cc(S(=O)(=O)[O-])cc5F)c5ccc2[nH]5)C=C4)C=C3)cc1
REMARK SMILES IDX 5 1 4 2 3 3 1 4 2 5 41 7 42 8 106 9 43 10 105 11 44 12 45 13
REMARK SMILES IDX 46 14 99 15 47 16 104 17 98 18 100 19 48 20 103 21 97 22
REMARK SMILES IDX 96 23 49 25 83 26 62 27 82 28 63 29 66 30 81 31 101 32 64 33
REMARK SMILES IDX 65 34 80 36 102 37 67 38 50 39 51 40 60 41 52 42 53 43 59 44
REMARK SMILES IDX 61 45 54 46 55 47 56 48 57 49 58 50 84 51 85 52 94 53 86 54
REMARK SMILES IDX 87 55 93 56 95 57 88 58 89 59 90 60 91 61 92 62 68 63 69 64
REMARK SMILES IDX 78 65 70 66 71 67 77 68 79 69 72 70 73 71 74 72 75 73 76 74
REMARK SMILES IDX 6 75 7 76 8 77 9 79 10 80 11 81 25 82 12 83 24 84 23 85
REMARK SMILES IDX 26 86 27 87 40 88 28 89 39 90 29 91 30 93 31 94 32 95 33 96
REMARK SMILES IDX 34 97 38 98 35 99 37 100 36 101 13 102 14 103 15 105 16 106
REMARK SMILES IDX 17 107 22 108 18 109 20 110 19 111 21 112
REMARK H PARENT 3 6 100 24 66 35 7 78 29 92 13 104
REMARK Flexibility Score: inf
ROOT
ATOM      1  C   UNL A   1      38.155  23.977  26.111  1.00  0.00     0.042 C 
ENDROOT
BRANCH   1   2
ATOM      2  C   UNL A   1      39.450  23.377  26.678  1.00  0.00     0.118 C 
BRANCH   2   3
ATOM      3  N   UNL A   1      40.705  23.892  26.151  1.00  0.00    -0.352 N 
ATOM      4  O   UNL A   1      42.571  25.109  25.890  1.00  0.00    -0.269 OA
ATOM      5  C   UNL A   1      41.511  24.958  26.480  1.00  0.00     0.251 C 
ATOM      6  H   UNL A   1      41.053  23.366  25.395  1.00  0.00     0.163 HD
BRANCH   5   7
ATOM      7  C   UNL A   1      41.079  25.960  27.476  1.00  0.00     0.039 A 
ATOM      8  C   UNL A   1      41.602  27.244  27.502  1.00  0.00     0.014 A 
ATOM      9  C   UNL A   1      40.129  25.582  28.432  1.00  0.00     0.014 A 
ATOM     10  C   UNL A   1      41.401  28.042  28.615  1.00  0.00     0.010 A 
ATOM     11  C   UNL A   1      39.802  26.454  29.474  1.00  0.00     0.010 A 
ATOM     12  C   UNL A   1      40.495  27.663  29.616  1.00  0.00    -0.014 A 
BRANCH  12  13
ATOM     13  C   UNL A   1      40.316  28.558  30.787  1.00  0.00     0.031 A 
ATOM     14  C   UNL A   1      41.278  28.513  31.945  1.00  0.00     0.074 A 
ATOM     15  C   UNL A   1      39.334  29.483  30.749  1.00  0.00     0.049 A 
ATOM     16  N   UNL A   1      41.307  29.261  33.018  1.00  0.00    -0.248 NA
ATOM     17  C   UNL A   1      42.335  27.488  31.908  1.00  0.00     0.031 C 
ATOM     18  C   UNL A   1      38.339  29.608  29.678  1.00  0.00     0.029 A 
ATOM     19  N   UNL A   1      39.042  30.523  31.591  1.00  0.00    -0.354 N 
ATOM     20  C   UNL A   1      42.343  28.766  33.803  1.00  0.00     0.074 A 
ATOM     21  C   UNL A   1      42.916  27.647  33.090  1.00  0.00     0.031 C 
ATOM     22  C   UNL A   1      37.620  30.722  29.871  1.00  0.00     0.029 A 
ATOM     23  C   UNL A   1      38.039  31.340  31.123  1.00  0.00     0.049 A 
ATOM     24  H   UNL A   1      39.504  30.671  32.447  1.00  0.00     0.167 HD
ATOM     25  C   UNL A   1      42.776  29.210  35.008  1.00  0.00     0.037 A 
ATOM     26  C   UNL A   1      37.509  32.460  31.646  1.00  0.00     0.037 A 
ATOM     27  C   UNL A   1      42.232  30.363  35.678  1.00  0.00     0.049 A 
ATOM     28  C   UNL A   1      38.038  32.957  32.957  1.00  0.00     0.074 A 
ATOM     29  C   UNL A   1      42.613  30.918  36.888  1.00  0.00     0.029 A 
ATOM     30  N   UNL A   1      41.197  31.147  35.188  1.00  0.00    -0.354 N 
ATOM     31  N   UNL A   1      39.009  32.466  33.691  1.00  0.00    -0.248 NA
ATOM     32  C   UNL A   1      37.394  34.148  33.522  1.00  0.00     0.031 C 
ATOM     33  C   UNL A   1      41.789  32.020  37.142  1.00  0.00     0.029 A 
ATOM     34  C   UNL A   1      40.921  32.176  36.073  1.00  0.00     0.049 A 
ATOM     35  H   UNL A   1      40.729  30.995  34.336  1.00  0.00     0.167 HD
ATOM     36  C   UNL A   1      39.095  33.290  34.804  1.00  0.00     0.074 A 
ATOM     37  C   UNL A   1      38.095  34.325  34.634  1.00  0.00     0.031 C 
ATOM     38  C   UNL A   1      39.918  33.193  35.877  1.00  0.00     0.037 A 
BRANCH  25  39
ATOM     39  C   UNL A   1      43.868  28.432  35.691  1.00  0.00     0.058 A 
ATOM     40  C   UNL A   1      45.227  28.707  35.477  1.00  0.00     0.135 A 
ATOM     41  C   UNL A   1      43.543  27.407  36.595  1.00  0.00     0.135 A 
ATOM     42  F   UNL A   1      45.596  29.661  34.608  1.00  0.00    -0.206 F 
ATOM     43  C   UNL A   1      46.227  27.977  36.116  1.00  0.00     0.059 A 
ATOM     44  C   UNL A   1      44.524  26.681  37.263  1.00  0.00     0.059 A 
ATOM     45  F   UNL A   1      42.258  27.101  36.836  1.00  0.00    -0.206 F 
ATOM     46  C   UNL A   1      45.865  26.963  37.005  1.00  0.00     0.060 A 
BRANCH  46  47
ATOM     47  S   UNL A   1      47.169  26.021  37.825  1.00  0.00     0.124 S 
ATOM     48  O   UNL A   1      46.590  25.813  39.148  1.00  0.00    -0.237 OA
ATOM     49  O   UNL A   1      47.274  24.832  36.987  1.00  0.00    -0.237 OA
ATOM     50  O   UNL A   1      48.318  26.921  37.778  1.00  0.00    -0.744 OA
ENDBRANCH  46  47
ENDBRANCH  25  39
BRANCH  26  51
ATOM     51  C   UNL A   1      36.422  33.171  30.923  1.00  0.00     0.058 A 
ATOM     52  C   UNL A   1      35.097  33.128  31.382  1.00  0.00     0.135 A 
ATOM     53  C   UNL A   1      36.694  33.948  29.786  1.00  0.00     0.135 A 
ATOM     54  F   UNL A   1      34.786  32.396  32.464  1.00  0.00    -0.206 F 
ATOM     55  C   UNL A   1      34.081  33.827  30.739  1.00  0.00     0.059 A 
ATOM     56  C   UNL A   1      35.701  34.679  29.144  1.00  0.00     0.059 A 
ATOM     57  F   UNL A   1      37.950  34.038  29.319  1.00  0.00    -0.206 F 
ATOM     58  C   UNL A   1      34.394  34.604  29.623  1.00  0.00     0.060 A 
BRANCH  58  59
ATOM     59  S   UNL A   1      33.086  35.567  28.834  1.00  0.00     0.124 S 
ATOM     60  O   UNL A   1      33.859  36.560  28.098  1.00  0.00    -0.237 OA
ATOM     61  O   UNL A   1      32.404  34.560  28.026  1.00  0.00    -0.237 OA
ATOM     62  O   UNL A   1      32.316  36.075  29.966  1.00  0.00    -0.744 OA
ENDBRANCH  58  59
ENDBRANCH  26  51
BRANCH  38  63
ATOM     63  C   UNL A   1      39.780  34.252  36.929  1.00  0.00     0.058 A 
ATOM     64  C   UNL A   1      39.014  34.041  38.086  1.00  0.00     0.135 A 
ATOM     65  C   UNL A   1      40.432  35.486  36.784  1.00  0.00     0.135 A 
ATOM     66  F   UNL A   1      38.365  32.879  38.264  1.00  0.00    -0.206 F 
ATOM     67  C   UNL A   1      38.872  35.032  39.050  1.00  0.00     0.059 A 
ATOM     68  C   UNL A   1      40.323  36.483  37.746  1.00  0.00     0.059 A 
ATOM     69  F   UNL A   1      41.183  35.731  35.699  1.00  0.00    -0.206 F 
ATOM     70  C   UNL A   1      39.526  36.252  38.869  1.00  0.00     0.060 A 
BRANCH  70  71
ATOM     71  S   UNL A   1      39.343  37.532  40.127  1.00  0.00     0.124 S 
ATOM     72  O   UNL A   1      39.007  36.738  41.304  1.00  0.00    -0.237 OA
ATOM     73  O   UNL A   1      40.664  38.154  40.138  1.00  0.00    -0.237 OA
ATOM     74  O   UNL A   1      38.268  38.369  39.604  1.00  0.00    -0.744 OA
ENDBRANCH  70  71
ENDBRANCH  38  63
ENDBRANCH  12  13
ENDBRANCH   5   7
ENDBRANCH   2   3
ENDBRANCH   1   2
BRANCH   1  75
ATOM     75  C   UNL A   1      37.098  22.955  25.682  1.00  0.00     0.118 C 
BRANCH  75  76
ATOM     76  N   UNL A   1      36.435  23.330  24.441  1.00  0.00    -0.352 N 
ATOM     77  C   UNL A   1      35.118  23.552  24.159  1.00  0.00     0.253 C 
ATOM     78  H   UNL A   1      37.042  23.444  23.672  1.00  0.00     0.163 HD
ATOM     79  O   UNL A   1      34.822  24.000  23.050  1.00  0.00    -0.269 OA
BRANCH  77  80
ATOM     80  C   UNL A   1      34.037  23.151  25.095  1.00  0.00     0.065 A 
ATOM     81  C   UNL A   1      33.989  21.769  25.285  1.00  0.00     0.042 A 
ATOM     82  C   UNL A   1      33.101  23.998  25.717  1.00  0.00     0.050 A 
ATOM     83  C   UNL A   1      33.223  21.195  26.281  1.00  0.00     0.042 A 
ATOM     84  C   UNL A   1      32.290  23.408  26.699  1.00  0.00     0.029 A 
ATOM     85  C   UNL A   1      32.357  22.028  26.987  1.00  0.00     0.028 A 
BRANCH  82  86
ATOM     86  N   UNL A   1      32.907  25.301  25.293  1.00  0.00    -0.360 N 
ATOM     87  C   UNL A   1      33.180  26.525  26.070  1.00  0.00     0.178 C 
ATOM     88  C   UNL A   1      31.813  25.479  24.341  1.00  0.00     0.178 C 
ATOM     89  C   UNL A   1      33.281  27.782  25.130  1.00  0.00     0.284 C 
ATOM     90  C   UNL A   1      32.226  26.540  23.327  1.00  0.00     0.284 C 
ATOM     91  N   UNL A   1      32.422  27.856  23.923  1.00  0.00    -0.324 N 
ATOM     92  H   UNL A   1      32.964  28.417  23.266  1.00  0.00     0.348 HD
BRANCH  91  93
ATOM     93  C   UNL A   1      31.200  28.668  24.019  1.00  0.00     0.363 C 
BRANCH  93  94
ATOM     94  C   UNL A   1      30.633  29.203  22.698  1.00  0.00     0.277 C 
ATOM     95  O   UNL A   1      31.062  28.755  21.628  1.00  0.00    -0.268 OA
ATOM     96  N   UNL A   1      29.614  30.165  22.719  1.00  0.00    -0.333 N 
ATOM     97  C   UNL A   1      29.371  31.128  23.805  1.00  0.00     0.148 C 
ATOM     98  C   UNL A   1      29.051  30.556  21.425  1.00  0.00     0.148 C 
ATOM     99  C   UNL A   1      27.994  31.795  23.784  1.00  0.00     0.181 C 
ATOM    100  C   UNL A   1      27.642  31.133  21.564  1.00  0.00     0.181 C 
ATOM    101  O   UNL A   1      27.637  32.241  22.472  1.00  0.00    -0.378 OA
ENDBRANCH  93  94
ENDBRANCH  91  93
ENDBRANCH  82  86
BRANCH  83 102
ATOM    102  N   UNL A   1      33.283  19.821  26.588  1.00  0.00    -0.322 N 
ATOM    103  C   UNL A   1      33.001  18.705  25.814  1.00  0.00     0.255 C 
ATOM    104  H   UNL A   1      33.575  19.619  27.507  1.00  0.00     0.170 HD
ATOM    105  O   UNL A   1      32.896  17.598  26.338  1.00  0.00    -0.269 OA
BRANCH 103 106
ATOM    106  C   UNL A   1      32.847  18.806  24.341  1.00  0.00     0.041 A 
ATOM    107  C   UNL A   1      32.902  17.631  23.579  1.00  0.00     0.014 A 
ATOM    108  C   UNL A   1      32.527  20.029  23.738  1.00  0.00     0.034 A 
ATOM    109  C   UNL A   1      32.550  17.666  22.227  1.00  0.00     0.002 A 
ATOM    110  C   UNL A   1      32.154  20.046  22.395  1.00  0.00     0.041 A 
ATOM    111  C   UNL A   1      32.156  18.872  21.641  1.00  0.00     0.020 A 
ATOM    112  Cl  UNL A   1      31.602  21.512  21.683  1.00  0.00    -0.084 Cl
ENDBRANCH 103 106
ENDBRANCH  83 102
ENDBRANCH  77  80
ENDBRANCH  75  76
ENDBRANCH   1  75
TORSDOF 18
ENDMDL
MODEL 2
REMARK VINA RESULT:     -13.0      4.826      8.097
REMARK SMILES O=C(NCCCNC(=O)c1cc(NC(=O)c2cccc(Cl)c2)ccc1N1CC[NH+](CC(=O)N2CCOCC2)CC1)c1ccc(-c2c3nc(c(-c4c(F)cc(S(=O)(=O)[O-])cc4F)c4ccc([nH]4)c(-c4c(F)cc(S(=O)(=O)[O-])cc4F)c4nc(c(-c5c(F)cc(S(=O)(=O)[O-])cc5F)c5ccc2[nH]5)C=C4)C=C3)cc1
REMARK SMILES IDX 5 1 4 2 3 3 1 4 2 5 41 7 42 8 106 9 43 10 105 11 44 12 45 13
REMARK SMILES IDX 46 14 99 15 47 16 104 17 98 18 100 19 48 20 103 21 97 22
REMARK SMILES IDX 96 23 49 25 83 26 62 27 82 28 63 29 66 30 81 31 101 32 64 33
REMARK SMILES IDX 65 34 80 36 102 37 67 38 50 39 51 40 60 41 52 42 53 43 59 44
REMARK SMILES IDX 61 45 54 46 55 47 56 48 57 49 58 50 84 51 85 52 94 53 86 54
REMARK SMILES IDX 87 55 93 56 95 57 88 58 89 59 90 60 91 61 92 62 68 63 69 64
REMARK SMILES IDX 78 65 70 66 71 67 77 68 79 69 72 70 73 71 74 72 75 73 76 74
REMARK SMILES IDX 6 75 7 76 8 77 9 79 10 80 11 81 25 82 12 83 24 84 23 85
REMARK SMILES IDX 26 86 27 87 40 88 28 89 39 90 29 91 30 93 31 94 32 95 33 96
REMARK SMILES IDX 34 97 38 98 35 99 37 100 36 101 13 102 14 103 15 105 16 106
REMARK SMILES IDX 17 107 22 108 18 109 20 110 19 111 21 112
REMARK H PARENT 3 6 100 24 66 35 7 78 29 92 13 104
REMARK Flexibility Score: inf
ROOT
ATOM      1  C   UNL A   1      35.554  23.892  25.522  1.00  0.00     0.042 C 
ENDROOT
BRANCH   1   2
ATOM      2  C   UNL A   1      36.787  23.571  24.666  1.00  0.00     0.118 C 
BRANCH   2   3
ATOM      3  N   UNL A   1      37.748  22.626  25.218  1.00  0.00    -0.352 N 
ATOM      4  O   UNL A   1      39.388  21.730  26.456  1.00  0.00    -0.269 OA
ATOM      5  C   UNL A   1      38.779  22.736  26.122  1.00  0.00     0.251 C 
ATOM      6  H   UNL A   1      37.637  21.712  24.870  1.00  0.00     0.163 HD
BRANCH   5   7
ATOM      7  C   UNL A   1      39.209  24.054  26.631  1.00  0.00     0.039 A 
ATOM      8  C   UNL A   1      39.848  24.983  25.823  1.00  0.00     0.014 A 
ATOM      9  C   UNL A   1      38.979  24.355  27.979  1.00  0.00     0.014 A 
ATOM     10  C   UNL A   1      40.495  26.062  26.400  1.00  0.00     0.010 A 
ATOM     11  C   UNL A   1      39.496  25.530  28.530  1.00  0.00     0.010 A 
ATOM     12  C   UNL A   1      40.325  26.356  27.761  1.00  0.00    -0.014 A 
BRANCH  12  13
ATOM     13  C   UNL A   1      41.040  27.527  28.328  1.00  0.00     0.031 A 
ATOM     14  C   UNL A   1      42.524  27.693  28.132  1.00  0.00     0.074 A 
ATOM     15  C   UNL A   1      40.318  28.493  28.935  1.00  0.00     0.049 A 
ATOM     16  N   UNL A   1      43.297  28.680  28.507  1.00  0.00    -0.248 NA
ATOM     17  C   UNL A   1      43.242  26.606  27.445  1.00  0.00     0.031 C 
ATOM     18  C   UNL A   1      38.874  28.430  29.186  1.00  0.00     0.029 A 
ATOM     19  N   UNL A   1      40.677  29.731  29.397  1.00  0.00    -0.354 N 
ATOM     20  C   UNL A   1      44.590  28.312  28.150  1.00  0.00     0.074 A 
ATOM     21  C   UNL A   1      44.504  27.006  27.537  1.00  0.00     0.031 C 
ATOM     22  C   UNL A   1      38.455  29.613  29.654  1.00  0.00     0.029 A 
ATOM     23  C   UNL A   1      39.609  30.486  29.823  1.00  0.00     0.049 A 
ATOM     24  H   UNL A   1      41.608  30.049  29.423  1.00  0.00     0.167 HD
ATOM     25  C   UNL A   1      45.742  29.005  28.319  1.00  0.00     0.037 A 
ATOM     26  C   UNL A   1      39.563  31.742  30.302  1.00  0.00     0.037 A 
ATOM     27  C   UNL A   1      45.804  30.331  28.879  1.00  0.00     0.049 A 
ATOM     28  C   UNL A   1      40.846  32.505  30.434  1.00  0.00     0.074 A 
ATOM     29  C   UNL A   1      46.913  31.136  29.070  1.00  0.00     0.029 A 
ATOM     30  N   UNL A   1      44.705  31.052  29.326  1.00  0.00    -0.354 N 
ATOM     31  N   UNL A   1      42.061  32.133  30.105  1.00  0.00    -0.248 NA
ATOM     32  C   UNL A   1      40.760  33.849  31.015  1.00  0.00     0.031 C 
ATOM     33  C   UNL A   1      46.488  32.332  29.659  1.00  0.00     0.029 A 
ATOM     34  C   UNL A   1      45.110  32.288  29.800  1.00  0.00     0.049 A 
ATOM     35  H   UNL A   1      43.775  30.731  29.309  1.00  0.00     0.167 HD
ATOM     36  C   UNL A   1      42.885  33.199  30.437  1.00  0.00     0.074 A 
ATOM     37  C   UNL A   1      42.027  34.240  30.968  1.00  0.00     0.031 C 
ATOM     38  C   UNL A   1      44.232  33.305  30.323  1.00  0.00     0.037 A 
BRANCH  25  39
ATOM     39  C   UNL A   1      47.029  28.334  27.922  1.00  0.00     0.058 A 
ATOM     40  C   UNL A   1      47.579  28.471  26.638  1.00  0.00     0.135 A 
ATOM     41  C   UNL A   1      47.735  27.557  28.856  1.00  0.00     0.135 A 
ATOM     42  F   UNL A   1      46.936  29.185  25.701  1.00  0.00    -0.206 F 
ATOM     43  C   UNL A   1      48.770  27.842  26.286  1.00  0.00     0.059 A 
ATOM     44  C   UNL A   1      48.940  26.939  28.532  1.00  0.00     0.059 A 
ATOM     45  F   UNL A   1      47.254  27.389  30.097  1.00  0.00    -0.206 F 
ATOM     46  C   UNL A   1      49.442  27.075  27.239  1.00  0.00     0.060 A 
BRANCH  46  47
ATOM     47  S   UNL A   1      50.984  26.262  26.769  1.00  0.00     0.124 S 
ATOM     48  O   UNL A   1      51.973  27.116  27.421  1.00  0.00    -0.237 OA
ATOM     49  O   UNL A   1      50.825  24.929  27.341  1.00  0.00    -0.237 OA
ATOM     50  O   UNL A   1      50.969  26.321  25.311  1.00  0.00    -0.744 OA
ENDBRANCH  46  47
ENDBRANCH  25  39
BRANCH  26  51
ATOM     51  C   UNL A   1      38.257  32.338  30.688  1.00  0.00     0.058 A 
ATOM     52  C   UNL A   1      37.724  32.147  31.971  1.00  0.00     0.135 A 
ATOM     53  C   UNL A   1      37.540  33.153  29.797  1.00  0.00     0.135 A 
ATOM     54  F   UNL A   1      38.371  31.375  32.858  1.00  0.00    -0.206 F 
ATOM     55  C   UNL A   1      36.525  32.739  32.357  1.00  0.00     0.059 A 
ATOM     56  C   UNL A   1      36.356  33.778  30.170  1.00  0.00     0.059 A 
ATOM     57  F   UNL A   1      38.019  33.384  28.564  1.00  0.00    -0.206 F 
ATOM     58  C   UNL A   1      35.851  33.557  31.450  1.00  0.00     0.060 A 
BRANCH  58  59
ATOM     59  S   UNL A   1      34.333  34.381  31.977  1.00  0.00     0.124 S 
ATOM     60  O   UNL A   1      33.755  33.385  32.870  1.00  0.00    -0.237 OA
ATOM     61  O   UNL A   1      34.843  35.593  32.614  1.00  0.00    -0.237 OA
ATOM     62  O   UNL A   1      33.619  34.599  30.723  1.00  0.00    -0.744 OA
ENDBRANCH  58  59
ENDBRANCH  26  51
BRANCH  38  63
ATOM     63  C   UNL A   1      44.844  34.601  30.762  1.00  0.00     0.058 A 
ATOM     64  C   UNL A   1      44.991  35.680  29.876  1.00  0.00     0.135 A 
ATOM     65  C   UNL A   1      45.274  34.771  32.087  1.00  0.00     0.135 A 
ATOM     66  F   UNL A   1      44.601  35.561  28.596  1.00  0.00    -0.206 F 
ATOM     67  C   UNL A   1      45.575  36.874  30.280  1.00  0.00     0.059 A 
ATOM     68  C   UNL A   1      45.841  35.965  32.519  1.00  0.00     0.059 A 
ATOM     69  F   UNL A   1      45.146  33.772  32.972  1.00  0.00    -0.206 F 
ATOM     70  C   UNL A   1      46.002  37.005  31.603  1.00  0.00     0.060 A 
BRANCH  70  71
ATOM     71  S   UNL A   1      46.754  38.560  32.124  1.00  0.00     0.124 S 
ATOM     72  O   UNL A   1      47.643  38.844  31.001  1.00  0.00    -0.237 OA
ATOM     73  O   UNL A   1      45.598  39.442  32.255  1.00  0.00    -0.237 OA
ATOM     74  O   UNL A   1      47.415  38.213  33.378  1.00  0.00    -0.744 OA
ENDBRANCH  70  71
ENDBRANCH  38  63
ENDBRANCH  12  13
ENDBRANCH   5   7
ENDBRANCH   2   3
ENDBRANCH   1   2
BRANCH   1  75
ATOM     75  C   UNL A   1      34.852  25.211  25.182  1.00  0.00     0.118 C 
BRANCH  75  76
ATOM     76  N   UNL A   1      34.796  25.457  23.749  1.00  0.00    -0.352 N 
ATOM     77  C   UNL A   1      33.810  25.988  22.968  1.00  0.00     0.253 C 
ATOM     78  H   UNL A   1      35.609  25.193  23.257  1.00  0.00     0.163 HD
ATOM     79  O   UNL A   1      34.061  26.222  21.784  1.00  0.00    -0.269 OA
BRANCH  77  80
ATOM     80  C   UNL A   1      32.424  26.169  23.467  1.00  0.00     0.065 A 
ATOM     81  C   UNL A   1      32.094  27.515  23.633  1.00  0.00     0.042 A 
ATOM     82  C   UNL A   1      31.508  25.155  23.804  1.00  0.00     0.050 A 
ATOM     83  C   UNL A   1      30.795  27.925  23.863  1.00  0.00     0.042 A 
ATOM     84  C   UNL A   1      30.197  25.572  24.082  1.00  0.00     0.029 A 
ATOM     85  C   UNL A   1      29.841  26.937  24.100  1.00  0.00     0.028 A 
BRANCH  82  86
ATOM     86  N   UNL A   1      31.910  23.841  23.974  1.00  0.00    -0.360 N 
ATOM     87  C   UNL A   1      32.456  22.950  22.933  1.00  0.00     0.178 C 
ATOM     88  C   UNL A   1      31.184  23.108  25.009  1.00  0.00     0.178 C 
ATOM     89  C   UNL A   1      33.213  21.729  23.572  1.00  0.00     0.284 C 
ATOM     90  C   UNL A   1      32.165  22.181  25.718  1.00  0.00     0.284 C 
ATOM     91  N   UNL A   1      32.714  21.152  24.843  1.00  0.00    -0.324 N 
ATOM     92  H   UNL A   1      33.550  20.777  25.292  1.00  0.00     0.348 HD
BRANCH  91  93
ATOM     93  C   UNL A   1      31.895  19.934  24.750  1.00  0.00     0.363 C 
BRANCH  93  94
ATOM     94  C   UNL A   1      32.351  18.882  23.730  1.00  0.00     0.277 C 
ATOM     95  O   UNL A   1      32.117  19.061  22.530  1.00  0.00    -0.268 OA
ATOM     96  N   UNL A   1      33.056  17.753  24.166  1.00  0.00    -0.333 N 
ATOM     97  C   UNL A   1      32.967  17.156  25.508  1.00  0.00     0.148 C 
ATOM     98  C   UNL A   1      33.548  16.843  23.129  1.00  0.00     0.148 C 
ATOM     99  C   UNL A   1      34.101  16.191  25.865  1.00  0.00     0.181 C 
ATOM    100  C   UNL A   1      34.729  16.005  23.616  1.00  0.00     0.181 C 
ATOM    101  O   UNL A   1      34.380  15.278  24.800  1.00  0.00    -0.378 OA
ENDBRANCH  93  94
ENDBRANCH  91  93
ENDBRANCH  82  86
BRANCH  83 102
ATOM    102  N   UNL A   1      30.419  29.284  23.877  1.00  0.00    -0.322 N 
ATOM    103  C   UNL A   1      30.616  30.270  24.832  1.00  0.00     0.255 C 
ATOM    104  H   UNL A   1      29.936  29.583  23.073  1.00  0.00     0.170 HD
ATOM    105  O   UNL A   1      30.011  31.338  24.754  1.00  0.00    -0.269 OA
BRANCH 103 106
ATOM    106  C   UNL A   1      31.575  30.082  25.949  1.00  0.00     0.041 A 
ATOM    107  C   UNL A   1      31.700  28.807  26.518  1.00  0.00     0.014 A 
ATOM    108  C   UNL A   1      32.427  31.122  26.344  1.00  0.00     0.034 A 
ATOM    109  C   UNL A   1      32.737  28.550  27.419  1.00  0.00     0.002 A 
ATOM    110  C   UNL A   1      33.472  30.846  27.224  1.00  0.00     0.041 A 
ATOM    111  C   UNL A   1      33.635  29.566  27.755  1.00  0.00     0.020 A 
ATOM    112  Cl  UNL A   1      34.623  32.071  27.590  1.00  0.00    -0.084 Cl
ENDBRANCH 103 106
ENDBRANCH  83 102
ENDBRANCH  77  80
ENDBRANCH  75  76
ENDBRANCH   1  75
TORSDOF 18
ENDMDL
MODEL 3
REMARK VINA RESULT:     -12.6      7.951     16.084
REMARK SMILES O=C(NCCCNC(=O)c1cc(NC(=O)c2cccc(Cl)c2)ccc1N1CC[NH+](CC(=O)N2CCOCC2)CC1)c1ccc(-c2c3nc(c(-c4c(F)cc(S(=O)(=O)[O-])cc4F)c4ccc([nH]4)c(-c4c(F)cc(S(=O)(=O)[O-])cc4F)c4nc(c(-c5c(F)cc(S(=O)(=O)[O-])cc5F)c5ccc2[nH]5)C=C4)C=C3)cc1
REMARK SMILES IDX 5 1 4 2 3 3 1 4 2 5 41 7 42 8 106 9 43 10 105 11 44 12 45 13
REMARK SMILES IDX 46 14 99 15 47 16 104 17 98 18 100 19 48 20 103 21 97 22
REMARK SMILES IDX 96 23 49 25 83 26 62 27 82 28 63 29 66 30 81 31 101 32 64 33
REMARK SMILES IDX 65 34 80 36 102 37 67 38 50 39 51 40 60 41 52 42 53 43 59 44
REMARK SMILES IDX 61 45 54 46 55 47 56 48 57 49 58 50 84 51 85 52 94 53 86 54
REMARK SMILES IDX 87 55 93 56 95 57 88 58 89 59 90 60 91 61 92 62 68 63 69 64
REMARK SMILES IDX 78 65 70 66 71 67 77 68 79 69 72 70 73 71 74 72 75 73 76 74
REMARK SMILES IDX 6 75 7 76 8 77 9 79 10 80 11 81 25 82 12 83 24 84 23 85
REMARK SMILES IDX 26 86 27 87 40 88 28 89 39 90 29 91 30 93 31 94 32 95 33 96
REMARK SMILES IDX 34 97 38 98 35 99 37 100 36 101 13 102 14 103 15 105 16 106
REMARK SMILES IDX 17 107 22 108 18 109 20 110 19 111 21 112
REMARK H PARENT 3 6 100 24 66 35 7 78 29 92 13 104
REMARK Flexibility Score: inf
ROOT
ATOM      1  C   UNL A   1      47.259  39.081  31.398  1.00  0.00     0.042 C 
ENDROOT
BRANCH   1   2
ATOM      2  C   UNL A   1      47.509  37.676  30.834  1.00  0.00     0.118 C 
BRANCH   2   3
ATOM      3  N   UNL A   1      48.341  37.579  29.642  1.00  0.00    -0.352 N 
ATOM      4  O   UNL A   1      49.190  36.896  27.684  1.00  0.00    -0.269 OA
ATOM      5  C   UNL A   1      48.422  36.676  28.609  1.00  0.00     0.251 C 
ATOM      6  H   UNL A   1      48.983  38.321  29.558  1.00  0.00     0.163 HD
BRANCH   5   7
ATOM      7  C   UNL A   1      47.657  35.413  28.639  1.00  0.00     0.039 A 
ATOM      8  C   UNL A   1      47.612  34.606  29.766  1.00  0.00     0.014 A 
ATOM      9  C   UNL A   1      46.980  35.016  27.479  1.00  0.00     0.014 A 
ATOM     10  C   UNL A   1      47.144  33.308  29.661  1.00  0.00     0.010 A 
ATOM     11  C   UNL A   1      46.366  33.763  27.424  1.00  0.00     0.010 A 
ATOM     12  C   UNL A   1      46.510  32.867  28.490  1.00  0.00    -0.014 A 
BRANCH  12  13
ATOM     13  C   UNL A   1      46.026  31.464  28.432  1.00  0.00     0.031 A 
ATOM     14  C   UNL A   1      44.569  31.143  28.632  1.00  0.00     0.074 A 
ATOM     15  C   UNL A   1      46.901  30.493  28.095  1.00  0.00     0.049 A 
ATOM     16  N   UNL A   1      43.965  29.984  28.557  1.00  0.00    -0.248 NA
ATOM     17  C   UNL A   1      43.671  32.257  28.980  1.00  0.00     0.031 C 
ATOM     18  C   UNL A   1      48.339  30.693  27.886  1.00  0.00     0.029 A 
ATOM     19  N   UNL A   1      46.710  29.167  27.811  1.00  0.00    -0.354 N 
ATOM     20  C   UNL A   1      42.637  30.220  28.897  1.00  0.00     0.074 A 
ATOM     21  C   UNL A   1      42.520  31.631  29.190  1.00  0.00     0.031 C 
ATOM     22  C   UNL A   1      48.877  29.564  27.407  1.00  0.00     0.029 A 
ATOM     23  C   UNL A   1      47.846  28.535  27.360  1.00  0.00     0.049 A 
ATOM     24  H   UNL A   1      45.845  28.710  27.921  1.00  0.00     0.167 HD
ATOM     25  C   UNL A   1      41.611  29.337  28.957  1.00  0.00     0.037 A 
ATOM     26  C   UNL A   1      48.039  27.266  26.958  1.00  0.00     0.037 A 
ATOM     27  C   UNL A   1      41.731  27.946  28.605  1.00  0.00     0.049 A 
ATOM     28  C   UNL A   1      46.876  26.321  26.988  1.00  0.00     0.074 A 
ATOM     29  C   UNL A   1      40.751  26.968  28.602  1.00  0.00     0.029 A 
ATOM     30  N   UNL A   1      42.905  27.336  28.182  1.00  0.00    -0.354 N 
ATOM     31  N   UNL A   1      45.631  26.561  27.327  1.00  0.00    -0.248 NA
ATOM     32  C   UNL A   1      47.142  24.933  26.597  1.00  0.00     0.031 C 
ATOM     33  C   UNL A   1      41.338  25.762  28.204  1.00  0.00     0.029 A 
ATOM     34  C   UNL A   1      42.674  25.995  27.922  1.00  0.00     0.049 A 
ATOM     35  H   UNL A   1      43.771  27.790  28.080  1.00  0.00     0.167 HD
ATOM     36  C   UNL A   1      44.963  25.353  27.189  1.00  0.00     0.074 A 
ATOM     37  C   UNL A   1      45.936  24.391  26.710  1.00  0.00     0.031 C 
ATOM     38  C   UNL A   1      43.664  25.061  27.446  1.00  0.00     0.037 A 
BRANCH  25  39
ATOM     39  C   UNL A   1      40.280  29.841  29.445  1.00  0.00     0.058 A 
ATOM     40  C   UNL A   1      39.202  30.069  28.576  1.00  0.00     0.135 A 
ATOM     41  C   UNL A   1      40.076  30.077  30.815  1.00  0.00     0.135 A 
ATOM     42  F   UNL A   1      39.347  29.880  27.255  1.00  0.00    -0.206 F 
ATOM     43  C   UNL A   1      37.977  30.537  29.043  1.00  0.00     0.059 A 
ATOM     44  C   UNL A   1      38.852  30.522  31.308  1.00  0.00     0.059 A 
ATOM     45  F   UNL A   1      41.073  29.878  31.691  1.00  0.00    -0.206 F 
ATOM     46  C   UNL A   1      37.812  30.764  30.412  1.00  0.00     0.060 A 
BRANCH  46  47
ATOM     47  S   UNL A   1      36.220  31.374  31.005  1.00  0.00     0.124 S 
ATOM     48  O   UNL A   1      35.929  30.428  32.079  1.00  0.00    -0.237 OA
ATOM     49  O   UNL A   1      36.540  32.732  31.429  1.00  0.00    -0.237 OA
ATOM     50  O   UNL A   1      35.359  31.274  29.831  1.00  0.00    -0.744 OA
ENDBRANCH  46  47
ENDBRANCH  25  39
BRANCH  26  51
ATOM     51  C   UNL A   1      49.385  26.833  26.500  1.00  0.00     0.058 A 
ATOM     52  C   UNL A   1      50.312  26.280  27.396  1.00  0.00     0.135 A 
ATOM     53  C   UNL A   1      49.753  26.916  25.148  1.00  0.00     0.135 A 
ATOM     54  F   UNL A   1      50.008  26.181  28.700  1.00  0.00    -0.206 F 
ATOM     55  C   UNL A   1      51.557  25.829  26.969  1.00  0.00     0.059 A 
ATOM     56  C   UNL A   1      50.979  26.445  24.693  1.00  0.00     0.059 A 
ATOM     57  F   UNL A   1      48.893  27.418  24.247  1.00  0.00    -0.206 F 
ATOM     58  C   UNL A   1      51.880  25.911  25.614  1.00  0.00     0.060 A 
BRANCH  58  59
ATOM     59  S   UNL A   1      53.467  25.259  25.052  1.00  0.00     0.124 S 
ATOM     60  O   UNL A   1      53.269  23.825  25.216  1.00  0.00    -0.237 OA
ATOM     61  O   UNL A   1      53.531  25.744  23.675  1.00  0.00    -0.237 OA
ATOM     62  O   UNL A   1      54.423  25.877  25.967  1.00  0.00    -0.744 OA
ENDBRANCH  58  59
ENDBRANCH  26  51
BRANCH  38  63
ATOM     63  C   UNL A   1      43.227  23.650  27.186  1.00  0.00     0.058 A 
ATOM     64  C   UNL A   1      43.000  22.748  28.236  1.00  0.00     0.135 A 
ATOM     65  C   UNL A   1      43.020  23.202  25.872  1.00  0.00     0.135 A 
ATOM     66  F   UNL A   1      43.194  23.130  29.509  1.00  0.00    -0.206 F 
ATOM     67  C   UNL A   1      42.614  21.436  27.991  1.00  0.00     0.059 A 
ATOM     68  C   UNL A   1      42.612  21.900  25.605  1.00  0.00     0.059 A 
ATOM     69  F   UNL A   1      43.215  24.032  24.836  1.00  0.00    -0.206 F 
ATOM     70  C   UNL A   1      42.428  21.019  26.672  1.00  0.00     0.060 A 
BRANCH  70  71
ATOM     71  S   UNL A   1      41.921  19.316  26.361  1.00  0.00     0.124 S 
ATOM     72  O   UNL A   1      40.466  19.436  26.383  1.00  0.00    -0.237 OA
ATOM     73  O   UNL A   1      42.514  19.044  25.054  1.00  0.00    -0.237 OA
ATOM     74  O   UNL A   1      42.509  18.579  27.474  1.00  0.00    -0.744 OA
ENDBRANCH  70  71
ENDBRANCH  38  63
ENDBRANCH  12  13
ENDBRANCH   5   7
ENDBRANCH   2   3
ENDBRANCH   1   2
BRANCH   1  75
ATOM     75  C   UNL A   1      46.613  39.120  32.787  1.00  0.00     0.118 C 
BRANCH  75  76
ATOM     76  N   UNL A   1      45.240  39.604  32.748  1.00  0.00    -0.352 N 
ATOM     77  C   UNL A   1      44.083  38.989  32.362  1.00  0.00     0.253 C 
ATOM     78  H   UNL A   1      45.127  40.535  33.050  1.00  0.00     0.163 HD
ATOM     79  O   UNL A   1      43.016  39.575  32.554  1.00  0.00    -0.269 OA
BRANCH  77  80
ATOM     80  C   UNL A   1      44.087  37.709  31.611  1.00  0.00     0.065 A 
ATOM     81  C   UNL A   1      44.314  36.610  32.442  1.00  0.00     0.042 A 
ATOM     82  C   UNL A   1      43.936  37.544  30.222  1.00  0.00     0.050 A 
ATOM     83  C   UNL A   1      44.131  35.314  32.003  1.00  0.00     0.042 A 
ATOM     84  C   UNL A   1      43.793  36.223  29.767  1.00  0.00     0.029 A 
ATOM     85  C   UNL A   1      43.878  35.123  30.646  1.00  0.00     0.028 A 
BRANCH  82  86
ATOM     86  N   UNL A   1      44.050  38.611  29.348  1.00  0.00    -0.360 N 
ATOM     87  C   UNL A   1      42.964  39.516  28.925  1.00  0.00     0.178 C 
ATOM     88  C   UNL A   1      45.075  38.452  28.319  1.00  0.00     0.178 C 
ATOM     89  C   UNL A   1      43.542  40.847  28.316  1.00  0.00     0.284 C 
ATOM     90  C   UNL A   1      45.727  39.810  28.079  1.00  0.00     0.284 C 
ATOM     91  N   UNL A   1      44.804  40.801  27.539  1.00  0.00    -0.324 N 
ATOM     92  H   UNL A   1      45.218  41.722  27.682  1.00  0.00     0.348 HD
BRANCH  91  93
ATOM     93  C   UNL A   1      44.687  40.788  26.073  1.00  0.00     0.363 C 
BRANCH  93  94
ATOM     94  C   UNL A   1      44.842  42.140  25.365  1.00  0.00     0.277 C 
ATOM     95  O   UNL A   1      45.818  42.853  25.627  1.00  0.00    -0.268 OA
ATOM     96  N   UNL A   1      43.898  42.535  24.408  1.00  0.00    -0.333 N 
ATOM     97  C   UNL A   1      42.496  42.092  24.358  1.00  0.00     0.148 C 
ATOM     98  C   UNL A   1      44.163  43.790  23.700  1.00  0.00     0.148 C 
ATOM     99  C   UNL A   1      41.785  42.339  23.026  1.00  0.00     0.181 C 
ATOM    100  C   UNL A   1      43.444  43.850  22.353  1.00  0.00     0.181 C 
ATOM    101  O   UNL A   1      42.035  43.655  22.523  1.00  0.00    -0.378 OA
ENDBRANCH  93  94
ENDBRANCH  91  93
ENDBRANCH  82  86
BRANCH  83 102
ATOM    102  N   UNL A   1      44.202  34.202  32.868  1.00  0.00    -0.322 N 
ATOM    103  C   UNL A   1      43.210  33.533  33.570  1.00  0.00     0.255 C 
ATOM    104  H   UNL A   1      45.109  33.839  32.995  1.00  0.00     0.170 HD
ATOM    105  O   UNL A   1      43.508  32.728  34.449  1.00  0.00    -0.269 OA
BRANCH 103 106
ATOM    106  C   UNL A   1      41.773  33.745  33.265  1.00  0.00     0.041 A 
ATOM    107  C   UNL A   1      40.947  34.278  34.264  1.00  0.00     0.014 A 
ATOM    108  C   UNL A   1      41.278  33.536  31.971  1.00  0.00     0.034 A 
ATOM    109  C   UNL A   1      39.649  34.685  33.944  1.00  0.00     0.002 A 
ATOM    110  C   UNL A   1      39.990  33.970  31.659  1.00  0.00     0.041 A 
ATOM    111  C   UNL A   1      39.179  34.549  32.635  1.00  0.00     0.020 A 
ATOM    112  Cl  UNL A   1      39.428  33.870  30.036  1.00  0.00    -0.084 Cl
ENDBRANCH 103 106
ENDBRANCH  83 102
ENDBRANCH  77  80
ENDBRANCH  75  76
ENDBRANCH   1  75
TORSDOF 18
ENDMDL
