MODEL 1
REMARK VINA RESULT:     -12.5      0.000      0.000
REMARK SMILES CC(C)N(c1cc2c(cc1Cl)C=C(C(=O)NCCCNC(=O)c1ccc(-c3c4nc(c(-c5c(F)cc(S(=O)(=O)[O-])cc5F)c5ccc([nH]5)c(-c5c(F)cc(S(=O)(=O)[O-])cc5F)c5nc(c(-c6c(F)cc(S(=O)(=O)[O-])cc6F)c6ccc3[nH]6)C=C5)C=C4)cc1)[C@@H](C(F)(F)F)O2)C(C)C
REMARK SMILES IDX 18 1 17 2 16 3 14 4 15 5 13 7 5 8 6 9 10 10 7 11 9 12 11 13
REMARK SMILES IDX 8 14 94 15 12 16 89 17 4 18 2 19 1 20 3 21 95 22 96 23 97 24
REMARK SMILES IDX 90 25 91 26 92 27 93 28 19 29 20 30 21 31 22 33 23 34 24 35
REMARK SMILES IDX 88 36 25 37 87 38 26 39 27 40 28 41 81 42 29 43 86 44 80 45
REMARK SMILES IDX 82 46 30 47 85 48 79 49 78 50 31 52 65 53 44 54 64 55 45 56
REMARK SMILES IDX 48 57 63 58 83 59 46 60 47 61 62 63 84 64 49 65 32 66 33 67
REMARK SMILES IDX 42 68 34 69 35 70 41 71 43 72 36 73 37 74 38 75 39 76 40 77
REMARK SMILES IDX 66 78 67 79 76 80 68 81 69 82 75 83 77 84 70 85 71 86 72 87
REMARK SMILES IDX 73 88 74 89 50 90 51 91 60 92 52 93 53 94 59 95 61 96 54 97
REMARK SMILES IDX 55 98 56 99 57 100 58 101
REMARK H PARENT 16 6 20 32 82 51 48 62
REMARK Flexibility Score: inf
ROOT
ATOM      1  C   UNL A   1      33.974  30.350  26.869  1.00  0.00     0.042 C 
ENDROOT
BRANCH   1   2
ATOM      2  C   UNL A   1      32.530  30.027  27.225  1.00  0.00     0.118 C 
BRANCH   2   3
ATOM      3  N   UNL A   1      31.634  30.216  26.092  1.00  0.00    -0.352 N 
ATOM      4  C   UNL A   1      31.226  29.506  25.016  1.00  0.00     0.251 C 
ATOM      5  O   UNL A   1      30.422  30.090  24.282  1.00  0.00    -0.270 OA
ATOM      6  H   UNL A   1      31.210  31.104  26.116  1.00  0.00     0.163 HD
BRANCH   4   7
ATOM      7  C   UNL A   1      31.655  28.118  24.682  1.00  0.00     0.067 C 
ATOM      8  C   UNL A   1      32.914  23.213  24.880  1.00  0.00     0.060 A 
ATOM      9  C   UNL A   1      32.630  24.132  23.853  1.00  0.00     0.074 A 
ATOM     10  C   UNL A   1      32.728  23.669  26.209  1.00  0.00     0.065 A 
ATOM     11  C   UNL A   1      32.230  25.439  24.131  1.00  0.00     0.130 A 
ATOM     12  C   UNL A   1      32.265  24.967  26.481  1.00  0.00     0.034 A 
ATOM     13  Cl  UNL A   1      33.148  22.716  27.596  1.00  0.00    -0.082 Cl
ATOM     14  C   UNL A   1      32.027  25.860  25.440  1.00  0.00     0.019 A 
ATOM     15  O   UNL A   1      32.037  26.272  23.062  1.00  0.00    -0.475 OA
ATOM     16  C   UNL A   1      31.569  27.222  25.685  1.00  0.00     0.025 C 
ATOM     17  C   UNL A   1      32.202  27.691  23.349  1.00  0.00     0.314 C 
BRANCH   8  18
ATOM     18  N   UNL A   1      33.379  21.925  24.542  1.00  0.00    -0.365 N 
BRANCH  18  19
ATOM     19  C   UNL A   1      32.349  20.908  24.232  1.00  0.00     0.076 C 
ATOM     20  C   UNL A   1      32.171  20.671  22.733  1.00  0.00     0.030 C 
ATOM     21  C   UNL A   1      32.571  19.589  24.968  1.00  0.00     0.030 C 
ENDBRANCH  18  19
BRANCH  18  22
ATOM     22  C   UNL A   1      34.839  21.786  24.338  1.00  0.00     0.076 C 
ATOM     23  C   UNL A   1      35.446  22.985  23.614  1.00  0.00     0.030 C 
ATOM     24  C   UNL A   1      35.613  21.458  25.611  1.00  0.00     0.030 C 
ENDBRANCH  18  22
ENDBRANCH   8  18
BRANCH  17  25
ATOM     25  C   UNL A   1      33.682  28.091  23.169  1.00  0.00     0.429 C 
ATOM     26  F   UNL A   1      34.274  27.326  22.220  1.00  0.00    -0.167 F 
ATOM     27  F   UNL A   1      33.826  29.377  22.770  1.00  0.00    -0.167 F 
ATOM     28  F   UNL A   1      34.405  27.958  24.305  1.00  0.00    -0.167 F 
ENDBRANCH  17  25
ENDBRANCH   4   7
ENDBRANCH   2   3
ENDBRANCH   1   2
BRANCH   1  29
ATOM     29  C   UNL A   1      34.967  29.724  27.842  1.00  0.00     0.118 C 
BRANCH  29  30
ATOM     30  N   UNL A   1      35.234  30.589  28.991  1.00  0.00    -0.352 N 
ATOM     31  C   UNL A   1      36.363  30.707  29.770  1.00  0.00     0.251 C 
ATOM     32  H   UNL A   1      34.489  31.179  29.250  1.00  0.00     0.163 HD
ATOM     33  O   UNL A   1      36.313  31.332  30.826  1.00  0.00    -0.269 OA
BRANCH  31  34
ATOM     34  C   UNL A   1      37.621  30.062  29.344  1.00  0.00     0.039 A 
ATOM     35  C   UNL A   1      38.534  29.615  30.300  1.00  0.00     0.014 A 
ATOM     36  C   UNL A   1      37.906  29.926  27.983  1.00  0.00     0.014 A 
ATOM     37  C   UNL A   1      39.808  29.234  29.902  1.00  0.00     0.010 A 
ATOM     38  C   UNL A   1      39.154  29.439  27.583  1.00  0.00     0.010 A 
ATOM     39  C   UNL A   1      40.139  29.149  28.540  1.00  0.00    -0.014 A 
BRANCH  39  40
ATOM     40  C   UNL A   1      41.530  28.790  28.157  1.00  0.00     0.031 A 
ATOM     41  C   UNL A   1      42.643  29.798  28.274  1.00  0.00     0.074 A 
ATOM     42  C   UNL A   1      41.803  27.521  27.792  1.00  0.00     0.049 A 
ATOM     43  N   UNL A   1      43.917  29.652  28.008  1.00  0.00    -0.248 NA
ATOM     44  C   UNL A   1      42.285  31.146  28.745  1.00  0.00     0.031 C 
ATOM     45  C   UNL A   1      40.812  26.449  27.665  1.00  0.00     0.029 A 
ATOM     46  N   UNL A   1      42.993  26.904  27.503  1.00  0.00    -0.354 N 
ATOM     47  C   UNL A   1      44.505  30.889  28.255  1.00  0.00     0.074 A 
ATOM     48  C   UNL A   1      43.446  31.783  28.669  1.00  0.00     0.031 C 
ATOM     49  C   UNL A   1      41.441  25.296  27.400  1.00  0.00     0.029 A 
ATOM     50  C   UNL A   1      42.870  25.557  27.264  1.00  0.00     0.049 A 
ATOM     51  H   UNL A   1      43.854  27.382  27.471  1.00  0.00     0.167 HD
ATOM     52  C   UNL A   1      45.808  31.242  28.156  1.00  0.00     0.037 A 
ATOM     53  C   UNL A   1      43.800  24.632  26.958  1.00  0.00     0.037 A 
ATOM     54  C   UNL A   1      46.864  30.338  27.779  1.00  0.00     0.049 A 
ATOM     55  C   UNL A   1      45.233  25.055  26.825  1.00  0.00     0.074 A 
ATOM     56  C   UNL A   1      48.218  30.598  27.657  1.00  0.00     0.029 A 
ATOM     57  N   UNL A   1      46.686  28.996  27.473  1.00  0.00    -0.354 N 
ATOM     58  N   UNL A   1      45.761  26.237  27.029  1.00  0.00    -0.248 NA
ATOM     59  C   UNL A   1      46.192  24.027  26.401  1.00  0.00     0.031 C 
ATOM     60  C   UNL A   1      48.855  29.421  27.249  1.00  0.00     0.029 A 
ATOM     61  C   UNL A   1      47.903  28.419  27.151  1.00  0.00     0.049 A 
ATOM     62  H   UNL A   1      45.823  28.524  27.484  1.00  0.00     0.167 HD
ATOM     63  C   UNL A   1      47.116  26.099  26.753  1.00  0.00     0.074 A 
ATOM     64  C   UNL A   1      47.329  24.711  26.394  1.00  0.00     0.031 C 
ATOM     65  C   UNL A   1      48.092  27.038  26.785  1.00  0.00     0.037 A 
BRANCH  52  66
ATOM     66  C   UNL A   1      46.172  32.671  28.450  1.00  0.00     0.058 A 
ATOM     67  C   UNL A   1      46.557  33.084  29.736  1.00  0.00     0.135 A 
ATOM     68  C   UNL A   1      46.180  33.630  27.425  1.00  0.00     0.135 A 
ATOM     69  F   UNL A   1      46.548  32.212  30.756  1.00  0.00    -0.206 F 
ATOM     70  C   UNL A   1      46.921  34.400  29.997  1.00  0.00     0.059 A 
ATOM     71  C   UNL A   1      46.561  34.949  27.659  1.00  0.00     0.059 A 
ATOM     72  F   UNL A   1      45.818  33.288  26.178  1.00  0.00    -0.206 F 
ATOM     73  C   UNL A   1      46.919  35.327  28.952  1.00  0.00     0.060 A 
BRANCH  73  74
ATOM     74  S   UNL A   1      47.400  37.030  29.308  1.00  0.00     0.124 S 
ATOM     75  O   UNL A   1      47.297  37.642  27.986  1.00  0.00    -0.237 OA
ATOM     76  O   UNL A   1      46.391  37.444  30.277  1.00  0.00    -0.237 OA
ATOM     77  O   UNL A   1      48.755  36.899  29.834  1.00  0.00    -0.744 OA
ENDBRANCH  73  74
ENDBRANCH  52  66
BRANCH  53  78
ATOM     78  C   UNL A   1      43.389  23.220  26.746  1.00  0.00     0.058 A 
ATOM     79  C   UNL A   1      43.348  22.666  25.459  1.00  0.00     0.135 A 
ATOM     80  C   UNL A   1      43.079  22.384  27.830  1.00  0.00     0.135 A 
ATOM     81  F   UNL A   1      43.629  23.428  24.391  1.00  0.00    -0.206 F 
ATOM     82  C   UNL A   1      43.018  21.331  25.253  1.00  0.00     0.059 A 
ATOM     83  C   UNL A   1      42.770  21.040  27.651  1.00  0.00     0.059 A 
ATOM     84  F   UNL A   1      43.118  22.865  29.082  1.00  0.00    -0.206 F 
ATOM     85  C   UNL A   1      42.738  20.524  26.357  1.00  0.00     0.060 A 
BRANCH  85  86
ATOM     86  S   UNL A   1      42.388  18.772  26.086  1.00  0.00     0.124 S 
ATOM     87  O   UNL A   1      40.996  18.814  25.657  1.00  0.00    -0.237 OA
ATOM     88  O   UNL A   1      43.364  18.420  25.060  1.00  0.00    -0.237 OA
ATOM     89  O   UNL A   1      42.629  18.177  27.398  1.00  0.00    -0.744 OA
ENDBRANCH  85  86
ENDBRANCH  53  78
BRANCH  65  90
ATOM     90  C   UNL A   1      49.478  26.598  26.414  1.00  0.00     0.058 A 
ATOM     91  C   UNL A   1      50.286  25.900  27.324  1.00  0.00     0.135 A 
ATOM     92  C   UNL A   1      49.981  26.828  25.125  1.00  0.00     0.135 A 
ATOM     93  F   UNL A   1      49.852  25.665  28.572  1.00  0.00    -0.206 F 
ATOM     94  C   UNL A   1      51.556  25.456  26.972  1.00  0.00     0.059 A 
ATOM     95  C   UNL A   1      51.240  26.374  24.745  1.00  0.00     0.059 A 
ATOM     96  F   UNL A   1      49.242  27.485  24.217  1.00  0.00    -0.206 F 
ATOM     97  C   UNL A   1      52.023  25.696  25.679  1.00  0.00     0.060 A 
BRANCH  97  98
ATOM     98  S   UNL A   1      53.657  25.079  25.222  1.00  0.00     0.124 S 
ATOM     99  O   UNL A   1      54.503  25.723  26.222  1.00  0.00    -0.237 OA
ATOM    100  O   UNL A   1      53.497  23.635  25.363  1.00  0.00    -0.237 OA
ATOM    101  O   UNL A   1      53.830  25.555  23.853  1.00  0.00    -0.744 OA
ENDBRANCH  97  98
ENDBRANCH  65  90
ENDBRANCH  39  40
ENDBRANCH  31  34
ENDBRANCH  29  30
ENDBRANCH   1  29
TORSDOF 17
ENDMDL
MODEL 2
REMARK VINA RESULT:     -12.4      6.116      8.221
REMARK SMILES CC(C)N(c1cc2c(cc1Cl)C=C(C(=O)NCCCNC(=O)c1ccc(-c3c4nc(c(-c5c(F)cc(S(=O)(=O)[O-])cc5F)c5ccc([nH]5)c(-c5c(F)cc(S(=O)(=O)[O-])cc5F)c5nc(c(-c6c(F)cc(S(=O)(=O)[O-])cc6F)c6ccc3[nH]6)C=C5)C=C4)cc1)[C@@H](C(F)(F)F)O2)C(C)C
REMARK SMILES IDX 18 1 17 2 16 3 14 4 15 5 13 7 5 8 6 9 10 10 7 11 9 12 11 13
REMARK SMILES IDX 8 14 94 15 12 16 89 17 4 18 2 19 1 20 3 21 95 22 96 23 97 24
REMARK SMILES IDX 90 25 91 26 92 27 93 28 19 29 20 30 21 31 22 33 23 34 24 35
REMARK SMILES IDX 88 36 25 37 87 38 26 39 27 40 28 41 81 42 29 43 86 44 80 45
REMARK SMILES IDX 82 46 30 47 85 48 79 49 78 50 31 52 65 53 44 54 64 55 45 56
REMARK SMILES IDX 48 57 63 58 83 59 46 60 47 61 62 63 84 64 49 65 32 66 33 67
REMARK SMILES IDX 42 68 34 69 35 70 41 71 43 72 36 73 37 74 38 75 39 76 40 77
REMARK SMILES IDX 66 78 67 79 76 80 68 81 69 82 75 83 77 84 70 85 71 86 72 87
REMARK SMILES IDX 73 88 74 89 50 90 51 91 60 92 52 93 53 94 59 95 61 96 54 97
REMARK SMILES IDX 55 98 56 99 57 100 58 101
REMARK H PARENT 16 6 20 32 82 51 48 62
REMARK Flexibility Score: inf
ROOT
ATOM      1  C   UNL A   1      31.795  31.666  27.004  1.00  0.00     0.042 C 
ENDROOT
BRANCH   1   2
ATOM      2  C   UNL A   1      32.153  30.622  25.957  1.00  0.00     0.118 C 
BRANCH   2   3
ATOM      3  N   UNL A   1      31.079  30.429  24.991  1.00  0.00    -0.352 N 
ATOM      4  C   UNL A   1      30.652  29.451  24.160  1.00  0.00     0.251 C 
ATOM      5  O   UNL A   1      29.653  29.738  23.489  1.00  0.00    -0.270 OA
ATOM      6  H   UNL A   1      30.508  31.228  24.927  1.00  0.00     0.163 HD
BRANCH   4   7
ATOM      7  C   UNL A   1      31.272  28.104  24.017  1.00  0.00     0.067 C 
ATOM      8  C   UNL A   1      32.859  23.351  24.774  1.00  0.00     0.060 A 
ATOM      9  C   UNL A   1      32.776  24.213  23.664  1.00  0.00     0.074 A 
ATOM     10  C   UNL A   1      32.292  23.819  25.985  1.00  0.00     0.065 A 
ATOM     11  C   UNL A   1      32.204  25.481  23.765  1.00  0.00     0.130 A 
ATOM     12  C   UNL A   1      31.662  25.072  26.064  1.00  0.00     0.034 A 
ATOM     13  Cl  UNL A   1      32.414  22.946  27.479  1.00  0.00    -0.082 Cl
ATOM     14  C   UNL A   1      31.628  25.913  24.954  1.00  0.00     0.019 A 
ATOM     15  O   UNL A   1      32.227  26.265  22.643  1.00  0.00    -0.475 OA
ATOM     16  C   UNL A   1      31.005  27.229  25.005  1.00  0.00     0.025 C 
ATOM     17  C   UNL A   1      32.186  27.700  22.893  1.00  0.00     0.314 C 
BRANCH   8  18
ATOM     18  N   UNL A   1      33.507  22.106  24.631  1.00  0.00    -0.365 N 
BRANCH  18  19
ATOM     19  C   UNL A   1      34.983  22.112  24.729  1.00  0.00     0.076 C 
ATOM     20  C   UNL A   1      35.668  22.617  23.459  1.00  0.00     0.030 C 
ATOM     21  C   UNL A   1      35.499  22.856  25.957  1.00  0.00     0.030 C 
ENDBRANCH  18  19
BRANCH  18  22
ATOM     22  C   UNL A   1      32.634  20.911  24.601  1.00  0.00     0.076 C 
ATOM     23  C   UNL A   1      32.321  20.450  23.180  1.00  0.00     0.030 C 
ATOM     24  C   UNL A   1      33.138  19.755  25.459  1.00  0.00     0.030 C 
ENDBRANCH  18  22
ENDBRANCH   8  18
BRANCH  17  25
ATOM     25  C   UNL A   1      33.620  28.237  23.084  1.00  0.00     0.429 C 
ATOM     26  F   UNL A   1      34.134  27.821  24.267  1.00  0.00    -0.167 F 
ATOM     27  F   UNL A   1      34.469  27.800  22.122  1.00  0.00    -0.167 F 
ATOM     28  F   UNL A   1      33.683  29.588  23.067  1.00  0.00    -0.167 F 
ENDBRANCH  17  25
ENDBRANCH   4   7
ENDBRANCH   2   3
ENDBRANCH   1   2
BRANCH   1  29
ATOM     29  C   UNL A   1      33.007  32.470  27.462  1.00  0.00     0.118 C 
BRANCH  29  30
ATOM     30  N   UNL A   1      32.688  33.883  27.665  1.00  0.00    -0.352 N 
ATOM     31  C   UNL A   1      33.159  34.773  28.603  1.00  0.00     0.251 C 
ATOM     32  H   UNL A   1      32.032  34.256  27.033  1.00  0.00     0.163 HD
ATOM     33  O   UNL A   1      32.603  35.859  28.748  1.00  0.00    -0.269 OA
BRANCH  31  34
ATOM     34  C   UNL A   1      34.315  34.410  29.447  1.00  0.00     0.039 A 
ATOM     35  C   UNL A   1      35.613  34.587  28.966  1.00  0.00     0.014 A 
ATOM     36  C   UNL A   1      34.104  33.865  30.716  1.00  0.00     0.014 A 
ATOM     37  C   UNL A   1      36.680  34.026  29.656  1.00  0.00     0.010 A 
ATOM     38  C   UNL A   1      35.194  33.397  31.458  1.00  0.00     0.010 A 
ATOM     39  C   UNL A   1      36.484  33.416  30.905  1.00  0.00    -0.014 A 
BRANCH  39  40
ATOM     40  C   UNL A   1      37.643  32.780  31.586  1.00  0.00     0.031 A 
ATOM     41  C   UNL A   1      38.085  33.248  32.949  1.00  0.00     0.074 A 
ATOM     42  C   UNL A   1      38.238  31.715  31.012  1.00  0.00     0.049 A 
ATOM     43  N   UNL A   1      39.057  32.795  33.700  1.00  0.00    -0.248 NA
ATOM     44  C   UNL A   1      37.346  34.372  33.547  1.00  0.00     0.031 C 
ATOM     45  C   UNL A   1      37.883  31.155  29.705  1.00  0.00     0.029 A 
ATOM     46  N   UNL A   1      39.232  30.887  31.466  1.00  0.00    -0.354 N 
ATOM     47  C   UNL A   1      39.062  33.589  34.841  1.00  0.00     0.074 A 
ATOM     48  C   UNL A   1      38.012  34.570  34.677  1.00  0.00     0.031 C 
ATOM     49  C   UNL A   1      38.592  30.037  29.498  1.00  0.00     0.029 A 
ATOM     50  C   UNL A   1      39.503  29.839  30.619  1.00  0.00     0.049 A 
ATOM     51  H   UNL A   1      39.706  31.030  32.317  1.00  0.00     0.167 HD
ATOM     52  C   UNL A   1      39.861  33.500  35.931  1.00  0.00     0.037 A 
ATOM     53  C   UNL A   1      40.395  28.835  30.723  1.00  0.00     0.037 A 
ATOM     54  C   UNL A   1      40.881  32.498  36.106  1.00  0.00     0.049 A 
ATOM     55  C   UNL A   1      41.289  28.777  31.927  1.00  0.00     0.074 A 
ATOM     56  C   UNL A   1      41.738  32.320  37.178  1.00  0.00     0.029 A 
ATOM     57  N   UNL A   1      41.173  31.497  35.190  1.00  0.00    -0.354 N 
ATOM     58  N   UNL A   1      41.301  29.559  32.979  1.00  0.00    -0.248 NA
ATOM     59  C   UNL A   1      42.304  27.716  31.949  1.00  0.00     0.031 C 
ATOM     60  C   UNL A   1      42.569  31.230  36.898  1.00  0.00     0.029 A 
ATOM     61  C   UNL A   1      42.206  30.707  35.666  1.00  0.00     0.049 A 
ATOM     62  H   UNL A   1      40.714  31.368  34.329  1.00  0.00     0.167 HD
ATOM     63  C   UNL A   1      42.327  29.089  33.788  1.00  0.00     0.074 A 
ATOM     64  C   UNL A   1      42.895  27.938  33.116  1.00  0.00     0.031 C 
ATOM     65  C   UNL A   1      42.765  29.572  34.976  1.00  0.00     0.037 A 
BRANCH  52  66
ATOM     66  C   UNL A   1      39.677  34.519  37.021  1.00  0.00     0.058 A 
ATOM     67  C   UNL A   1      38.942  34.231  38.183  1.00  0.00     0.135 A 
ATOM     68  C   UNL A   1      40.279  35.784  36.924  1.00  0.00     0.135 A 
ATOM     69  F   UNL A   1      38.330  33.044  38.318  1.00  0.00    -0.206 F 
ATOM     70  C   UNL A   1      38.799  35.166  39.202  1.00  0.00     0.059 A 
ATOM     71  C   UNL A   1      40.166  36.728  37.941  1.00  0.00     0.059 A 
ATOM     72  F   UNL A   1      40.990  36.111  35.833  1.00  0.00    -0.206 F 
ATOM     73  C   UNL A   1      39.414  36.414  39.072  1.00  0.00     0.060 A 
BRANCH  73  74
ATOM     74  S   UNL A   1      39.222  37.614  40.407  1.00  0.00     0.124 S 
ATOM     75  O   UNL A   1      38.867  36.747  41.527  1.00  0.00    -0.237 OA
ATOM     76  O   UNL A   1      40.547  38.222  40.473  1.00  0.00    -0.237 OA
ATOM     77  O   UNL A   1      38.156  38.489  39.929  1.00  0.00    -0.744 OA
ENDBRANCH  73  74
ENDBRANCH  52  66
BRANCH  53  78
ATOM     78  C   UNL A   1      40.484  27.817  29.646  1.00  0.00     0.058 A 
ATOM     79  C   UNL A   1      39.561  26.764  29.570  1.00  0.00     0.135 A 
ATOM     80  C   UNL A   1      41.462  27.906  28.642  1.00  0.00     0.135 A 
ATOM     81  F   UNL A   1      38.614  26.634  30.511  1.00  0.00    -0.206 F 
ATOM     82  C   UNL A   1      39.601  25.836  28.535  1.00  0.00     0.059 A 
ATOM     83  C   UNL A   1      41.506  27.005  27.584  1.00  0.00     0.059 A 
ATOM     84  F   UNL A   1      42.358  28.905  28.664  1.00  0.00    -0.206 F 
ATOM     85  C   UNL A   1      40.573  25.970  27.542  1.00  0.00     0.060 A 
BRANCH  85  86
ATOM     86  S   UNL A   1      40.568  24.808  26.159  1.00  0.00     0.124 S 
ATOM     87  O   UNL A   1      41.043  25.648  25.067  1.00  0.00    -0.237 OA
ATOM     88  O   UNL A   1      41.491  23.777  26.621  1.00  0.00    -0.237 OA
ATOM     89  O   UNL A   1      39.170  24.393  26.077  1.00  0.00    -0.744 OA
ENDBRANCH  85  86
ENDBRANCH  53  78
BRANCH  65  90
ATOM     90  C   UNL A   1      43.920  28.863  35.621  1.00  0.00     0.058 A 
ATOM     91  C   UNL A   1      45.243  29.265  35.383  1.00  0.00     0.135 A 
ATOM     92  C   UNL A   1      43.700  27.811  36.523  1.00  0.00     0.135 A 
ATOM     93  F   UNL A   1      45.503  30.260  34.522  1.00  0.00    -0.206 F 
ATOM     94  C   UNL A   1      46.314  28.636  36.010  1.00  0.00     0.059 A 
ATOM     95  C   UNL A   1      44.755  27.182  37.176  1.00  0.00     0.059 A 
ATOM     96  F   UNL A   1      42.451  27.397  36.787  1.00  0.00    -0.206 F 
ATOM     97  C   UNL A   1      46.059  27.598  36.907  1.00  0.00     0.060 A 
BRANCH  97  98
ATOM     98  S   UNL A   1      47.455  26.816  37.743  1.00  0.00     0.124 S 
ATOM     99  O   UNL A   1      46.806  25.697  38.416  1.00  0.00    -0.237 OA
ATOM    100  O   UNL A   1      48.329  26.464  36.628  1.00  0.00    -0.237 OA
ATOM    101  O   UNL A   1      47.959  27.869  38.619  1.00  0.00    -0.744 OA
ENDBRANCH  97  98
ENDBRANCH  65  90
ENDBRANCH  39  40
ENDBRANCH  31  34
ENDBRANCH  29  30
ENDBRANCH   1  29
TORSDOF 17
ENDMDL
MODEL 3
REMARK VINA RESULT:     -12.4      6.153     10.752
REMARK SMILES CC(C)N(c1cc2c(cc1Cl)C=C(C(=O)NCCCNC(=O)c1ccc(-c3c4nc(c(-c5c(F)cc(S(=O)(=O)[O-])cc5F)c5ccc([nH]5)c(-c5c(F)cc(S(=O)(=O)[O-])cc5F)c5nc(c(-c6c(F)cc(S(=O)(=O)[O-])cc6F)c6ccc3[nH]6)C=C5)C=C4)cc1)[C@@H](C(F)(F)F)O2)C(C)C
REMARK SMILES IDX 18 1 17 2 16 3 14 4 15 5 13 7 5 8 6 9 10 10 7 11 9 12 11 13
REMARK SMILES IDX 8 14 94 15 12 16 89 17 4 18 2 19 1 20 3 21 95 22 96 23 97 24
REMARK SMILES IDX 90 25 91 26 92 27 93 28 19 29 20 30 21 31 22 33 23 34 24 35
REMARK SMILES IDX 88 36 25 37 87 38 26 39 27 40 28 41 81 42 29 43 86 44 80 45
REMARK SMILES IDX 82 46 30 47 85 48 79 49 78 50 31 52 65 53 44 54 64 55 45 56
REMARK SMILES IDX 48 57 63 58 83 59 46 60 47 61 62 63 84 64 49 65 32 66 33 67
REMARK SMILES IDX 42 68 34 69 35 70 41 71 43 72 36 73 37 74 38 75 39 76 40 77
REMARK SMILES IDX 66 78 67 79 76 80 68 81 69 82 75 83 77 84 70 85 71 86 72 87
REMARK SMILES IDX 73 88 74 89 50 90 51 91 60 92 52 93 53 94 59 95 61 96 54 97
REMARK SMILES IDX 55 98 56 99 57 100 58 101
REMARK H PARENT 16 6 20 32 82 51 48 62
REMARK Flexibility Score: inf
ROOT
ATOM      1  C   UNL A   1      31.764  31.768  27.014  1.00  0.00     0.042 C 
ENDROOT
BRANCH   1   2
ATOM      2  C   UNL A   1      32.104  30.634  26.057  1.00  0.00     0.118 C 
BRANCH   2   3
ATOM      3  N   UNL A   1      31.055  30.422  25.069  1.00  0.00    -0.352 N 
ATOM      4  C   UNL A   1      30.685  29.452  24.202  1.00  0.00     0.251 C 
ATOM      5  O   UNL A   1      29.686  29.714  23.523  1.00  0.00    -0.270 OA
ATOM      6  H   UNL A   1      30.450  31.197  25.018  1.00  0.00     0.163 HD
BRANCH   4   7
ATOM      7  C   UNL A   1      31.368  28.138  24.031  1.00  0.00     0.067 C 
ATOM      8  C   UNL A   1      33.192  23.457  24.697  1.00  0.00     0.060 A 
ATOM      9  C   UNL A   1      33.050  24.329  23.601  1.00  0.00     0.074 A 
ATOM     10  C   UNL A   1      32.622  23.881  25.923  1.00  0.00     0.065 A 
ATOM     11  C   UNL A   1      32.420  25.566  23.728  1.00  0.00     0.130 A 
ATOM     12  C   UNL A   1      31.934  25.101  26.029  1.00  0.00     0.034 A 
ATOM     13  Cl  UNL A   1      32.809  22.995  27.402  1.00  0.00    -0.082 Cl
ATOM     14  C   UNL A   1      31.842  25.954  24.932  1.00  0.00     0.019 A 
ATOM     15  O   UNL A   1      32.388  26.366  22.618  1.00  0.00    -0.475 OA
ATOM     16  C   UNL A   1      31.158  27.238  25.010  1.00  0.00     0.025 C 
ATOM     17  C   UNL A   1      32.282  27.793  22.888  1.00  0.00     0.314 C 
BRANCH   8  18
ATOM     18  N   UNL A   1      33.897  22.247  24.527  1.00  0.00    -0.365 N 
BRANCH  18  19
ATOM     19  C   UNL A   1      33.132  21.105  23.978  1.00  0.00     0.076 C 
ATOM     20  C   UNL A   1      32.309  20.370  25.035  1.00  0.00     0.030 C 
ATOM     21  C   UNL A   1      32.264  21.486  22.782  1.00  0.00     0.030 C 
ENDBRANCH  18  19
BRANCH  18  22
ATOM     22  C   UNL A   1      35.363  22.308  24.725  1.00  0.00     0.076 C 
ATOM     23  C   UNL A   1      35.927  21.020  25.319  1.00  0.00     0.030 C 
ATOM     24  C   UNL A   1      36.138  22.729  23.480  1.00  0.00     0.030 C 
ENDBRANCH  18  22
ENDBRANCH   8  18
BRANCH  17  25
ATOM     25  C   UNL A   1      33.691  28.396  23.065  1.00  0.00     0.429 C 
ATOM     26  F   UNL A   1      34.135  28.215  24.333  1.00  0.00    -0.167 F 
ATOM     27  F   UNL A   1      34.609  27.818  22.252  1.00  0.00    -0.167 F 
ATOM     28  F   UNL A   1      33.733  29.724  22.807  1.00  0.00    -0.167 F 
ENDBRANCH  17  25
ENDBRANCH   4   7
ENDBRANCH   2   3
ENDBRANCH   1   2
BRANCH   1  29
ATOM     29  C   UNL A   1      32.994  32.565  27.432  1.00  0.00     0.118 C 
BRANCH  29  30
ATOM     30  N   UNL A   1      32.685  33.974  27.670  1.00  0.00    -0.352 N 
ATOM     31  C   UNL A   1      33.119  34.823  28.662  1.00  0.00     0.251 C 
ATOM     32  H   UNL A   1      32.069  34.380  27.018  1.00  0.00     0.163 HD
ATOM     33  O   UNL A   1      32.572  35.912  28.817  1.00  0.00    -0.269 OA
BRANCH  31  34
ATOM     34  C   UNL A   1      34.224  34.412  29.552  1.00  0.00     0.039 A 
ATOM     35  C   UNL A   1      35.543  34.471  29.100  1.00  0.00     0.014 A 
ATOM     36  C   UNL A   1      33.942  33.938  30.836  1.00  0.00     0.014 A 
ATOM     37  C   UNL A   1      36.547  33.863  29.840  1.00  0.00     0.010 A 
ATOM     38  C   UNL A   1      34.975  33.423  31.625  1.00  0.00     0.010 A 
ATOM     39  C   UNL A   1      36.276  33.323  31.108  1.00  0.00    -0.014 A 
BRANCH  39  40
ATOM     40  C   UNL A   1      37.367  32.633  31.846  1.00  0.00     0.031 A 
ATOM     41  C   UNL A   1      38.094  31.467  31.227  1.00  0.00     0.074 A 
ATOM     42  C   UNL A   1      37.764  33.120  33.038  1.00  0.00     0.049 A 
ATOM     43  N   UNL A   1      39.084  30.762  31.714  1.00  0.00    -0.248 NA
ATOM     44  C   UNL A   1      37.653  31.030  29.892  1.00  0.00     0.031 C 
ATOM     45  C   UNL A   1      37.153  34.260  33.728  1.00  0.00     0.029 A 
ATOM     46  N   UNL A   1      38.798  32.754  33.861  1.00  0.00    -0.354 N 
ATOM     47  C   UNL A   1      39.367  29.788  30.762  1.00  0.00     0.074 A 
ATOM     48  C   UNL A   1      38.428  29.975  29.677  1.00  0.00     0.031 C 
ATOM     49  C   UNL A   1      37.866  34.545  34.826  1.00  0.00     0.029 A 
ATOM     50  C   UNL A   1      38.940  33.567  34.960  1.00  0.00     0.049 A 
ATOM     51  H   UNL A   1      39.383  31.983  33.681  1.00  0.00     0.167 HD
ATOM     52  C   UNL A   1      40.328  28.834  30.785  1.00  0.00     0.037 A 
ATOM     53  C   UNL A   1      39.827  33.526  35.973  1.00  0.00     0.037 A 
ATOM     54  C   UNL A   1      41.283  28.675  31.852  1.00  0.00     0.049 A 
ATOM     55  C   UNL A   1      40.863  32.440  35.990  1.00  0.00     0.074 A 
ATOM     56  C   UNL A   1      42.300  27.744  31.965  1.00  0.00     0.029 A 
ATOM     57  N   UNL A   1      41.346  29.475  32.984  1.00  0.00    -0.354 N 
ATOM     58  N   UNL A   1      41.091  31.509  35.096  1.00  0.00    -0.248 NA
ATOM     59  C   UNL A   1      41.748  32.386  37.161  1.00  0.00     0.031 C 
ATOM     60  C   UNL A   1      42.960  27.961  33.179  1.00  0.00     0.029 A 
ATOM     61  C   UNL A   1      42.376  29.051  33.806  1.00  0.00     0.049 A 
ATOM     62  H   UNL A   1      40.748  30.233  33.174  1.00  0.00     0.167 HD
ATOM     63  C   UNL A   1      42.142  30.752  35.598  1.00  0.00     0.074 A 
ATOM     64  C   UNL A   1      42.523  31.352  36.861  1.00  0.00     0.031 C 
ATOM     65  C   UNL A   1      42.732  29.654  35.066  1.00  0.00     0.037 A 
BRANCH  52  66
ATOM     66  C   UNL A   1      40.392  27.876  29.629  1.00  0.00     0.058 A 
ATOM     67  C   UNL A   1      41.331  28.029  28.596  1.00  0.00     0.135 A 
ATOM     68  C   UNL A   1      39.536  26.764  29.575  1.00  0.00     0.135 A 
ATOM     69  F   UNL A   1      42.160  29.084  28.589  1.00  0.00    -0.206 F 
ATOM     70  C   UNL A   1      41.408  27.123  27.544  1.00  0.00     0.059 A 
ATOM     71  C   UNL A   1      39.609  25.833  28.542  1.00  0.00     0.059 A 
ATOM     72  F   UNL A   1      38.618  26.572  30.537  1.00  0.00    -0.206 F 
ATOM     73  C   UNL A   1      40.541  26.028  27.524  1.00  0.00     0.060 A 
BRANCH  73  74
ATOM     74  S   UNL A   1      40.658  24.859  26.154  1.00  0.00     0.124 S 
ATOM     75  O   UNL A   1      41.602  23.882  26.686  1.00  0.00    -0.237 OA
ATOM     76  O   UNL A   1      39.280  24.398  26.018  1.00  0.00    -0.237 OA
ATOM     77  O   UNL A   1      41.155  25.675  25.051  1.00  0.00    -0.744 OA
ENDBRANCH  73  74
ENDBRANCH  52  66
BRANCH  53  78
ATOM     78  C   UNL A   1      39.757  34.543  37.053  1.00  0.00     0.058 A 
ATOM     79  C   UNL A   1      40.409  35.777  36.925  1.00  0.00     0.135 A 
ATOM     80  C   UNL A   1      38.993  34.321  38.210  1.00  0.00     0.135 A 
ATOM     81  F   UNL A   1      41.157  36.031  35.841  1.00  0.00    -0.206 F 
ATOM     82  C   UNL A   1      40.306  36.758  37.905  1.00  0.00     0.059 A 
ATOM     83  C   UNL A   1      38.855  35.296  39.192  1.00  0.00     0.059 A 
ATOM     84  F   UNL A   1      38.338  33.161  38.370  1.00  0.00    -0.206 F 
ATOM     85  C   UNL A   1      39.519  36.511  39.032  1.00  0.00     0.060 A 
BRANCH  85  86
ATOM     86  S   UNL A   1      39.326  37.820  40.260  1.00  0.00     0.124 S 
ATOM     87  O   UNL A   1      40.639  38.452  40.225  1.00  0.00    -0.237 OA
ATOM     88  O   UNL A   1      38.225  38.602  39.706  1.00  0.00    -0.237 OA
ATOM     89  O   UNL A   1      39.009  37.087  41.483  1.00  0.00    -0.744 OA
ENDBRANCH  85  86
ENDBRANCH  53  78
BRANCH  65  90
ATOM     90  C   UNL A   1      43.845  29.026  35.851  1.00  0.00     0.058 A 
ATOM     91  C   UNL A   1      45.157  29.517  35.771  1.00  0.00     0.135 A 
ATOM     92  C   UNL A   1      43.591  27.962  36.729  1.00  0.00     0.135 A 
ATOM     93  F   UNL A   1      45.451  30.528  34.938  1.00  0.00    -0.206 F 
ATOM     94  C   UNL A   1      46.185  28.964  36.527  1.00  0.00     0.059 A 
ATOM     95  C   UNL A   1      44.600  27.406  37.509  1.00  0.00     0.059 A 
ATOM     96  F   UNL A   1      42.350  27.463  36.844  1.00  0.00    -0.206 F 
ATOM     97  C   UNL A   1      45.895  27.910  37.395  1.00  0.00     0.060 A 
BRANCH  97  98
ATOM     98  S   UNL A   1      47.231  27.226  38.399  1.00  0.00     0.124 S 
ATOM     99  O   UNL A   1      46.886  25.809  38.420  1.00  0.00    -0.237 OA
ATOM    100  O   UNL A   1      48.416  27.579  37.624  1.00  0.00    -0.237 OA
ATOM    101  O   UNL A   1      47.090  27.925  39.673  1.00  0.00    -0.744 OA
ENDBRANCH  97  98
ENDBRANCH  65  90
ENDBRANCH  39  40
ENDBRANCH  31  34
ENDBRANCH  29  30
ENDBRANCH   1  29
TORSDOF 17
ENDMDL
