MODEL 1
REMARK VINA RESULT:     -12.5      0.000      0.000
REMARK SMILES Cc1cnc(NC(=O)[C@H]2[C@H]3CC[C@H](CC3)[C@H]2C(=O)NCCCNC(=O)c2ccc(-c3c4nc(c(-c5c(F)cc(S(=O)(=O)[O-])cc5F)c5ccc([nH]5)c(-c5c(F)cc(S(=O)(=O)[O-])cc5F)c5nc(c(-c6c(F)cc(S(=O)(=O)[O-])cc6F)c6ccc3[nH]6)C=C5)C=C4)cc2)s1
REMARK SMILES IDX 21 1 20 2 19 3 17 4 18 5 16 7 9 8 10 9 15 10 11 11 13 12
REMARK SMILES IDX 14 13 12 14 7 15 6 16 8 18 5 19 1 20 2 21 3 22 92 23 4 24
REMARK SMILES IDX 22 25 23 26 24 27 25 29 26 30 27 31 91 32 28 33 90 34 29 35
REMARK SMILES IDX 30 36 31 37 84 38 32 39 89 40 83 41 85 42 33 43 88 44 82 45
REMARK SMILES IDX 81 46 34 48 68 49 47 50 67 51 48 52 51 53 66 54 86 55 49 56
REMARK SMILES IDX 50 57 65 59 87 60 52 61 35 62 36 63 45 64 37 65 38 66 44 67
REMARK SMILES IDX 46 68 39 69 40 70 41 71 42 72 43 73 69 74 70 75 79 76 71 77
REMARK SMILES IDX 72 78 78 79 80 80 73 81 74 82 75 83 76 84 77 85 53 86 54 87
REMARK SMILES IDX 63 88 55 89 56 90 62 91 64 92 57 93 58 94 59 95 60 96 61 97
REMARK H PARENT 19 6 6 17 23 28 85 47 51 58
REMARK Flexibility Score: inf
ROOT
ATOM      1  C   UNL A   1      37.470  22.949  25.731  1.00  0.00     0.042 C 
ENDROOT
BRANCH   1   2
ATOM      2  C   UNL A   1      36.231  23.451  25.032  1.00  0.00     0.117 C 
BRANCH   2   3
ATOM      3  N   UNL A   1      35.694  24.714  25.462  1.00  0.00    -0.356 N 
ATOM      4  C   UNL A   1      34.390  25.102  25.444  1.00  0.00     0.224 C 
ATOM      5  O   UNL A   1      34.067  25.997  26.235  1.00  0.00    -0.275 OA
ATOM      6  H   UNL A   1      36.342  25.369  25.808  1.00  0.00     0.163 HD
BRANCH   4   7
ATOM      7  C   UNL A   1      33.317  24.503  24.507  1.00  0.00     0.094 C 
ATOM      8  C   UNL A   1      32.322  23.429  25.010  1.00  0.00     0.094 C 
ATOM      9  C   UNL A   1      30.856  23.871  24.657  1.00  0.00     0.002 C 
ATOM     10  C   UNL A   1      30.496  25.345  24.958  1.00  0.00     0.005 C 
ATOM     11  C   UNL A   1      30.758  23.772  23.117  1.00  0.00     0.005 C 
ATOM     12  C   UNL A   1      32.586  25.495  23.568  1.00  0.00     0.002 C 
ATOM     13  C   UNL A   1      31.510  26.299  24.304  1.00  0.00     0.005 C 
ATOM     14  C   UNL A   1      31.851  24.658  22.480  1.00  0.00     0.005 C 
BRANCH   8  15
ATOM     15  C   UNL A   1      32.559  22.821  26.396  1.00  0.00     0.230 C 
ATOM     16  N   UNL A   1      32.949  21.516  26.559  1.00  0.00    -0.302 N 
ATOM     17  H   UNL A   1      33.184  21.266  27.482  1.00  0.00     0.172 HD
ATOM     18  O   UNL A   1      32.429  23.520  27.404  1.00  0.00    -0.274 OA
BRANCH  16  19
ATOM     19  C   UNL A   1      33.062  20.507  25.640  1.00  0.00     0.189 A 
ATOM     20  C   UNL A   1      34.703  17.455  24.003  1.00  0.00     0.058 C 
ATOM     21  C   UNL A   1      33.858  18.600  24.423  1.00  0.00     0.023 A 
ATOM     22  C   UNL A   1      32.485  18.722  24.509  1.00  0.00     0.128 A 
ATOM     23  S   UNL A   1      34.565  20.060  24.964  1.00  0.00    -0.102 S 
ATOM     24  N   UNL A   1      32.030  19.875  25.133  1.00  0.00    -0.228 NA
ENDBRANCH  16  19
ENDBRANCH   8  15
ENDBRANCH   4   7
ENDBRANCH   2   3
ENDBRANCH   1   2
BRANCH   1  25
ATOM     25  C   UNL A   1      38.273  24.026  26.417  1.00  0.00     0.118 C 
BRANCH  25  26
ATOM     26  N   UNL A   1      39.706  23.918  26.167  1.00  0.00    -0.352 N 
ATOM     27  C   UNL A   1      40.762  24.705  26.570  1.00  0.00     0.251 C 
ATOM     28  H   UNL A   1      39.963  23.146  25.613  1.00  0.00     0.163 HD
ATOM     29  O   UNL A   1      41.866  24.523  26.071  1.00  0.00    -0.269 OA
BRANCH  27  30
ATOM     30  C   UNL A   1      40.567  25.779  27.571  1.00  0.00     0.039 A 
ATOM     31  C   UNL A   1      39.577  25.637  28.548  1.00  0.00     0.014 A 
ATOM     32  C   UNL A   1      41.352  26.930  27.550  1.00  0.00     0.014 A 
ATOM     33  C   UNL A   1      39.438  26.613  29.540  1.00  0.00     0.010 A 
ATOM     34  C   UNL A   1      41.318  27.813  28.619  1.00  0.00     0.010 A 
ATOM     35  C   UNL A   1      40.341  27.685  29.612  1.00  0.00    -0.014 A 
BRANCH  35  36
ATOM     36  C   UNL A   1      40.267  28.710  30.685  1.00  0.00     0.031 A 
ATOM     37  C   UNL A   1      41.131  28.575  31.913  1.00  0.00     0.074 A 
ATOM     38  C   UNL A   1      39.362  29.706  30.599  1.00  0.00     0.049 A 
ATOM     39  N   UNL A   1      41.146  29.302  32.999  1.00  0.00    -0.248 NA
ATOM     40  C   UNL A   1      42.073  27.442  31.944  1.00  0.00     0.031 C 
ATOM     41  C   UNL A   1      38.413  29.896  29.499  1.00  0.00     0.029 A 
ATOM     42  N   UNL A   1      39.078  30.736  31.460  1.00  0.00    -0.354 N 
ATOM     43  C   UNL A   1      42.065  28.697  33.849  1.00  0.00     0.074 A 
ATOM     44  C   UNL A   1      42.535  27.504  33.183  1.00  0.00     0.031 C 
ATOM     45  C   UNL A   1      37.671  30.988  29.741  1.00  0.00     0.029 A 
ATOM     46  C   UNL A   1      38.057  31.550  31.031  1.00  0.00     0.049 A 
ATOM     47  H   UNL A   1      39.561  30.878  32.307  1.00  0.00     0.167 HD
ATOM     48  C   UNL A   1      42.501  29.111  35.062  1.00  0.00     0.037 A 
ATOM     49  C   UNL A   1      37.487  32.622  31.615  1.00  0.00     0.037 A 
ATOM     50  C   UNL A   1      42.055  30.323  35.696  1.00  0.00     0.049 A 
ATOM     51  C   UNL A   1      38.011  33.091  32.944  1.00  0.00     0.074 A 
ATOM     52  C   UNL A   1      42.499  30.889  36.877  1.00  0.00     0.029 A 
ATOM     53  N   UNL A   1      41.058  31.152  35.202  1.00  0.00    -0.354 N 
ATOM     54  N   UNL A   1      38.952  32.561  33.691  1.00  0.00    -0.248 NA
ATOM     55  C   UNL A   1      37.409  34.307  33.505  1.00  0.00     0.031 C 
ATOM     56  C   UNL A   1      41.728  32.029  37.129  1.00  0.00     0.029 A 
ATOM     57  C   UNL A   1      40.849  32.210  36.072  1.00  0.00     0.049 A 
ATOM     58  H   UNL A   1      40.570  31.010  34.359  1.00  0.00     0.167 HD
ATOM     59  C   UNL A   1      39.068  33.389  34.802  1.00  0.00     0.074 A 
ATOM     60  C   UNL A   1      38.113  34.463  34.620  1.00  0.00     0.031 C 
ATOM     61  C   UNL A   1      39.891  33.271  35.874  1.00  0.00     0.037 A 
BRANCH  48  62
ATOM     62  C   UNL A   1      43.505  28.244  35.778  1.00  0.00     0.058 A 
ATOM     63  C   UNL A   1      44.887  28.377  35.571  1.00  0.00     0.135 A 
ATOM     64  C   UNL A   1      43.074  27.264  36.689  1.00  0.00     0.135 A 
ATOM     65  F   UNL A   1      45.358  29.286  34.703  1.00  0.00    -0.206 F 
ATOM     66  C   UNL A   1      45.804  27.542  36.202  1.00  0.00     0.059 A 
ATOM     67  C   UNL A   1      43.976  26.441  37.359  1.00  0.00     0.059 A 
ATOM     68  F   UNL A   1      41.765  27.091  36.929  1.00  0.00    -0.206 F 
ATOM     69  C   UNL A   1      45.337  26.573  37.093  1.00  0.00     0.060 A 
BRANCH  69  70
ATOM     70  S   UNL A   1      46.537  25.486  37.890  1.00  0.00     0.124 S 
ATOM     71  O   UNL A   1      45.669  24.650  38.714  1.00  0.00    -0.237 OA
ATOM     72  O   UNL A   1      47.161  24.821  36.751  1.00  0.00    -0.237 OA
ATOM     73  O   UNL A   1      47.398  26.409  38.623  1.00  0.00    -0.744 OA
ENDBRANCH  69  70
ENDBRANCH  48  62
BRANCH  49  74
ATOM     74  C   UNL A   1      36.370  33.325  30.926  1.00  0.00     0.058 A 
ATOM     75  C   UNL A   1      35.063  33.283  31.432  1.00  0.00     0.135 A 
ATOM     76  C   UNL A   1      36.602  34.099  29.778  1.00  0.00     0.135 A 
ATOM     77  F   UNL A   1      34.789  32.553  32.524  1.00  0.00    -0.206 F 
ATOM     78  C   UNL A   1      34.023  33.979  30.823  1.00  0.00     0.059 A 
ATOM     79  C   UNL A   1      35.584  34.826  29.167  1.00  0.00     0.059 A 
ATOM     80  F   UNL A   1      37.839  34.187  29.264  1.00  0.00    -0.206 F 
ATOM     81  C   UNL A   1      34.297  34.756  29.695  1.00  0.00     0.060 A 
BRANCH  81  82
ATOM     82  S   UNL A   1      32.955  35.716  28.960  1.00  0.00     0.124 S 
ATOM     83  O   UNL A   1      33.685  36.808  28.325  1.00  0.00    -0.237 OA
ATOM     84  O   UNL A   1      32.345  34.746  28.056  1.00  0.00    -0.237 OA
ATOM     85  O   UNL A   1      32.137  36.088  30.110  1.00  0.00    -0.744 OA
ENDBRANCH  81  82
ENDBRANCH  49  74
BRANCH  61  86
ATOM     86  C   UNL A   1      39.817  34.343  36.926  1.00  0.00     0.058 A 
ATOM     87  C   UNL A   1      40.493  35.565  36.787  1.00  0.00     0.135 A 
ATOM     88  C   UNL A   1      39.009  34.167  38.061  1.00  0.00     0.135 A 
ATOM     89  F   UNL A   1      41.283  35.783  35.723  1.00  0.00    -0.206 F 
ATOM     90  C   UNL A   1      40.387  36.566  37.746  1.00  0.00     0.059 A 
ATOM     91  C   UNL A   1      38.863  35.166  39.017  1.00  0.00     0.059 A 
ATOM     92  F   UNL A   1      38.332  33.021  38.238  1.00  0.00    -0.206 F 
ATOM     93  C   UNL A   1      39.566  36.359  38.857  1.00  0.00     0.060 A 
BRANCH  93  94
ATOM     94  S   UNL A   1      39.410  37.681  40.075  1.00  0.00     0.124 S 
ATOM     95  O   UNL A   1      40.688  38.369  39.929  1.00  0.00    -0.237 OA
ATOM     96  O   UNL A   1      38.239  38.409  39.597  1.00  0.00    -0.237 OA
ATOM     97  O   UNL A   1      39.224  36.964  41.333  1.00  0.00    -0.744 OA
ENDBRANCH  93  94
ENDBRANCH  61  86
ENDBRANCH  35  36
ENDBRANCH  27  30
ENDBRANCH  25  26
ENDBRANCH   1  25
TORSDOF 15
ENDMDL
MODEL 2
REMARK VINA RESULT:     -12.5      6.786     12.358
REMARK SMILES Cc1cnc(NC(=O)[C@H]2[C@H]3CC[C@H](CC3)[C@H]2C(=O)NCCCNC(=O)c2ccc(-c3c4nc(c(-c5c(F)cc(S(=O)(=O)[O-])cc5F)c5ccc([nH]5)c(-c5c(F)cc(S(=O)(=O)[O-])cc5F)c5nc(c(-c6c(F)cc(S(=O)(=O)[O-])cc6F)c6ccc3[nH]6)C=C5)C=C4)cc2)s1
REMARK SMILES IDX 21 1 20 2 19 3 17 4 18 5 16 7 9 8 10 9 15 10 11 11 13 12
REMARK SMILES IDX 14 13 12 14 7 15 6 16 8 18 5 19 1 20 2 21 3 22 92 23 4 24
REMARK SMILES IDX 22 25 23 26 24 27 25 29 26 30 27 31 91 32 28 33 90 34 29 35
REMARK SMILES IDX 30 36 31 37 84 38 32 39 89 40 83 41 85 42 33 43 88 44 82 45
REMARK SMILES IDX 81 46 34 48 68 49 47 50 67 51 48 52 51 53 66 54 86 55 49 56
REMARK SMILES IDX 50 57 65 59 87 60 52 61 35 62 36 63 45 64 37 65 38 66 44 67
REMARK SMILES IDX 46 68 39 69 40 70 41 71 42 72 43 73 69 74 70 75 79 76 71 77
REMARK SMILES IDX 72 78 78 79 80 80 73 81 74 82 75 83 76 84 77 85 53 86 54 87
REMARK SMILES IDX 63 88 55 89 56 90 62 91 64 92 57 93 58 94 59 95 60 96 61 97
REMARK H PARENT 19 6 6 17 23 28 85 47 51 58
REMARK Flexibility Score: inf
ROOT
ATOM      1  C   UNL A   1      33.826  30.212  27.231  1.00  0.00     0.042 C 
ENDROOT
BRANCH   1   2
ATOM      2  C   UNL A   1      33.302  29.154  26.291  1.00  0.00     0.117 C 
BRANCH   2   3
ATOM      3  N   UNL A   1      34.069  28.882  25.106  1.00  0.00    -0.356 N 
ATOM      4  C   UNL A   1      33.892  27.859  24.228  1.00  0.00     0.224 C 
ATOM      5  O   UNL A   1      34.324  28.030  23.082  1.00  0.00    -0.275 OA
ATOM      6  H   UNL A   1      34.804  29.507  24.909  1.00  0.00     0.163 HD
BRANCH   4   7
ATOM      7  C   UNL A   1      33.201  26.521  24.579  1.00  0.00     0.094 C 
ATOM      8  C   UNL A   1      32.613  25.608  23.475  1.00  0.00     0.094 C 
ATOM      9  C   UNL A   1      33.162  24.148  23.661  1.00  0.00     0.002 C 
ATOM     10  C   UNL A   1      34.679  24.017  23.935  1.00  0.00     0.005 C 
ATOM     11  C   UNL A   1      32.504  23.626  24.960  1.00  0.00     0.005 C 
ATOM     12  C   UNL A   1      33.881  25.655  25.669  1.00  0.00     0.002 C 
ATOM     13  C   UNL A   1      35.096  24.897  25.126  1.00  0.00     0.005 C 
ATOM     14  C   UNL A   1      32.852  24.579  26.124  1.00  0.00     0.005 C 
BRANCH   8  15
ATOM     15  C   UNL A   1      32.546  26.158  22.047  1.00  0.00     0.230 C 
ATOM     16  N   UNL A   1      31.628  27.107  21.677  1.00  0.00    -0.302 N 
ATOM     17  H   UNL A   1      31.750  27.471  20.770  1.00  0.00     0.172 HD
ATOM     18  O   UNL A   1      33.353  25.769  21.199  1.00  0.00    -0.274 OA
BRANCH  16  19
ATOM     19  C   UNL A   1      30.567  27.627  22.371  1.00  0.00     0.189 A 
ATOM     20  C   UNL A   1      27.597  29.979  22.943  1.00  0.00     0.058 C 
ATOM     21  C   UNL A   1      28.670  28.957  22.991  1.00  0.00     0.023 A 
ATOM     22  C   UNL A   1      28.645  27.645  23.422  1.00  0.00     0.128 A 
ATOM     23  S   UNL A   1      30.238  29.303  22.401  1.00  0.00    -0.102 S 
ATOM     24  N   UNL A   1      29.787  26.907  23.141  1.00  0.00    -0.228 NA
ENDBRANCH  16  19
ENDBRANCH   8  15
ENDBRANCH   4   7
ENDBRANCH   2   3
ENDBRANCH   1   2
BRANCH   1  25
ATOM     25  C   UNL A   1      35.146  29.868  27.875  1.00  0.00     0.118 C 
BRANCH  25  26
ATOM     26  N   UNL A   1      35.292  30.425  29.215  1.00  0.00    -0.352 N 
ATOM     27  C   UNL A   1      36.338  30.382  30.110  1.00  0.00     0.251 C 
ATOM     28  H   UNL A   1      34.502  30.918  29.536  1.00  0.00     0.163 HD
ATOM     29  O   UNL A   1      36.154  30.761  31.260  1.00  0.00    -0.269 OA
BRANCH  27  30
ATOM     30  C   UNL A   1      37.662  29.861  29.702  1.00  0.00     0.039 A 
ATOM     31  C   UNL A   1      38.059  29.961  28.365  1.00  0.00     0.014 A 
ATOM     32  C   UNL A   1      38.515  29.266  30.629  1.00  0.00     0.014 A 
ATOM     33  C   UNL A   1      39.338  29.537  27.988  1.00  0.00     0.010 A 
ATOM     34  C   UNL A   1      39.832  28.994  30.287  1.00  0.00     0.010 A 
ATOM     35  C   UNL A   1      40.252  29.096  28.956  1.00  0.00    -0.014 A 
BRANCH  35  36
ATOM     36  C   UNL A   1      41.640  28.694  28.608  1.00  0.00     0.031 A 
ATOM     37  C   UNL A   1      42.729  29.735  28.545  1.00  0.00     0.074 A 
ATOM     38  C   UNL A   1      41.901  27.419  28.260  1.00  0.00     0.049 A 
ATOM     39  N   UNL A   1      43.974  29.609  28.167  1.00  0.00    -0.248 NA
ATOM     40  C   UNL A   1      42.356  31.113  28.911  1.00  0.00     0.031 C 
ATOM     41  C   UNL A   1      40.915  26.337  28.202  1.00  0.00     0.029 A 
ATOM     42  N   UNL A   1      43.072  26.817  27.870  1.00  0.00    -0.354 N 
ATOM     43  C   UNL A   1      44.517  30.889  28.217  1.00  0.00     0.074 A 
ATOM     44  C   UNL A   1      43.450  31.787  28.592  1.00  0.00     0.031 C 
ATOM     45  C   UNL A   1      41.525  25.203  27.825  1.00  0.00     0.029 A 
ATOM     46  C   UNL A   1      42.934  25.483  27.570  1.00  0.00     0.049 A 
ATOM     47  H   UNL A   1      43.929  27.298  27.811  1.00  0.00     0.167 HD
ATOM     48  C   UNL A   1      45.795  31.277  27.999  1.00  0.00     0.037 A 
ATOM     49  C   UNL A   1      43.837  24.587  27.127  1.00  0.00     0.037 A 
ATOM     50  C   UNL A   1      46.858  30.366  27.666  1.00  0.00     0.049 A 
ATOM     51  C   UNL A   1      45.262  25.028  26.928  1.00  0.00     0.074 A 
ATOM     52  C   UNL A   1      48.206  30.635  27.518  1.00  0.00     0.029 A 
ATOM     53  N   UNL A   1      46.689  29.010  27.425  1.00  0.00    -0.354 N 
ATOM     54  N   UNL A   1      45.781  26.225  27.074  1.00  0.00    -0.248 NA
ATOM     55  C   UNL A   1      46.226  24.000  26.517  1.00  0.00     0.031 C 
ATOM     56  C   UNL A   1      48.844  29.453  27.127  1.00  0.00     0.029 A 
ATOM     57  C   UNL A   1      47.905  28.433  27.096  1.00  0.00     0.049 A 
ATOM     58  H   UNL A   1      45.833  28.528  27.479  1.00  0.00     0.167 HD
ATOM     59  C   UNL A   1      47.135  26.091  26.791  1.00  0.00     0.074 A 
ATOM     60  C   UNL A   1      47.357  24.692  26.482  1.00  0.00     0.031 C 
ATOM     61  C   UNL A   1      48.106  27.038  26.789  1.00  0.00     0.037 A 
BRANCH  48  62
ATOM     62  C   UNL A   1      46.108  32.748  28.109  1.00  0.00     0.058 A 
ATOM     63  C   UNL A   1      45.969  33.623  27.019  1.00  0.00     0.135 A 
ATOM     64  C   UNL A   1      46.551  33.290  29.327  1.00  0.00     0.135 A 
ATOM     65  F   UNL A   1      45.563  33.161  25.826  1.00  0.00    -0.206 F 
ATOM     66  C   UNL A   1      46.304  34.970  27.118  1.00  0.00     0.059 A 
ATOM     67  C   UNL A   1      46.857  34.642  29.458  1.00  0.00     0.059 A 
ATOM     68  F   UNL A   1      46.702  32.503  30.404  1.00  0.00    -0.206 F 
ATOM     69  C   UNL A   1      46.750  35.470  28.343  1.00  0.00     0.060 A 
BRANCH  69  70
ATOM     70  S   UNL A   1      47.196  37.215  28.450  1.00  0.00     0.124 S 
ATOM     71  O   UNL A   1      46.580  37.747  27.238  1.00  0.00    -0.237 OA
ATOM     72  O   UNL A   1      46.573  37.620  29.706  1.00  0.00    -0.237 OA
ATOM     73  O   UNL A   1      48.655  37.195  28.456  1.00  0.00    -0.744 OA
ENDBRANCH  69  70
ENDBRANCH  48  62
BRANCH  49  74
ATOM     74  C   UNL A   1      43.413  23.185  26.864  1.00  0.00     0.058 A 
ATOM     75  C   UNL A   1      43.322  22.685  25.557  1.00  0.00     0.135 A 
ATOM     76  C   UNL A   1      43.144  22.301  27.921  1.00  0.00     0.135 A 
ATOM     77  F   UNL A   1      43.564  23.492  24.512  1.00  0.00    -0.206 F 
ATOM     78  C   UNL A   1      42.975  21.361  25.305  1.00  0.00     0.059 A 
ATOM     79  C   UNL A   1      42.821  20.966  27.696  1.00  0.00     0.059 A 
ATOM     80  F   UNL A   1      43.234  22.725  29.192  1.00  0.00    -0.206 F 
ATOM     81  C   UNL A   1      42.735  20.507  26.384  1.00  0.00     0.060 A 
BRANCH  81  82
ATOM     82  S   UNL A   1      42.362  18.772  26.046  1.00  0.00     0.124 S 
ATOM     83  O   UNL A   1      40.950  18.838  25.686  1.00  0.00    -0.237 OA
ATOM     84  O   UNL A   1      43.285  18.468  24.957  1.00  0.00    -0.237 OA
ATOM     85  O   UNL A   1      42.660  18.110  27.312  1.00  0.00    -0.744 OA
ENDBRANCH  81  82
ENDBRANCH  49  74
BRANCH  61  86
ATOM     86  C   UNL A   1      49.507  26.594  26.467  1.00  0.00     0.058 A 
ATOM     87  C   UNL A   1      50.321  25.961  27.419  1.00  0.00     0.135 A 
ATOM     88  C   UNL A   1      50.018  26.750  25.168  1.00  0.00     0.135 A 
ATOM     89  F   UNL A   1      49.883  25.792  28.677  1.00  0.00    -0.206 F 
ATOM     90  C   UNL A   1      51.600  25.519  27.102  1.00  0.00     0.059 A 
ATOM     91  C   UNL A   1      51.282  26.288  24.819  1.00  0.00     0.059 A 
ATOM     92  F   UNL A   1      49.277  27.338  24.215  1.00  0.00    -0.206 F 
ATOM     93  C   UNL A   1      52.071  25.683  25.796  1.00  0.00     0.060 A 
BRANCH  93  94
ATOM     94  S   UNL A   1      53.719  25.071  25.389  1.00  0.00     0.124 S 
ATOM     95  O   UNL A   1      53.502  23.629  25.373  1.00  0.00    -0.237 OA
ATOM     96  O   UNL A   1      53.969  25.690  24.091  1.00  0.00    -0.237 OA
ATOM     97  O   UNL A   1      54.547  25.569  26.483  1.00  0.00    -0.744 OA
ENDBRANCH  93  94
ENDBRANCH  61  86
ENDBRANCH  35  36
ENDBRANCH  27  30
ENDBRANCH  25  26
ENDBRANCH   1  25
TORSDOF 15
ENDMDL
MODEL 3
REMARK VINA RESULT:     -12.2      6.642     12.058
REMARK SMILES Cc1cnc(NC(=O)[C@H]2[C@H]3CC[C@H](CC3)[C@H]2C(=O)NCCCNC(=O)c2ccc(-c3c4nc(c(-c5c(F)cc(S(=O)(=O)[O-])cc5F)c5ccc([nH]5)c(-c5c(F)cc(S(=O)(=O)[O-])cc5F)c5nc(c(-c6c(F)cc(S(=O)(=O)[O-])cc6F)c6ccc3[nH]6)C=C5)C=C4)cc2)s1
REMARK SMILES IDX 21 1 20 2 19 3 17 4 18 5 16 7 9 8 10 9 15 10 11 11 13 12
REMARK SMILES IDX 14 13 12 14 7 15 6 16 8 18 5 19 1 20 2 21 3 22 92 23 4 24
REMARK SMILES IDX 22 25 23 26 24 27 25 29 26 30 27 31 91 32 28 33 90 34 29 35
REMARK SMILES IDX 30 36 31 37 84 38 32 39 89 40 83 41 85 42 33 43 88 44 82 45
REMARK SMILES IDX 81 46 34 48 68 49 47 50 67 51 48 52 51 53 66 54 86 55 49 56
REMARK SMILES IDX 50 57 65 59 87 60 52 61 35 62 36 63 45 64 37 65 38 66 44 67
REMARK SMILES IDX 46 68 39 69 40 70 41 71 42 72 43 73 69 74 70 75 79 76 71 77
REMARK SMILES IDX 72 78 78 79 80 80 73 81 74 82 75 83 76 84 77 85 53 86 54 87
REMARK SMILES IDX 63 88 55 89 56 90 62 91 64 92 57 93 58 94 59 95 60 96 61 97
REMARK H PARENT 19 6 6 17 23 28 85 47 51 58
REMARK Flexibility Score: inf
ROOT
ATOM      1  C   UNL A   1      34.078  30.417  27.407  1.00  0.00     0.042 C 
ENDROOT
BRANCH   1   2
ATOM      2  C   UNL A   1      33.804  28.933  27.442  1.00  0.00     0.117 C 
BRANCH   2   3
ATOM      3  N   UNL A   1      32.429  28.515  27.496  1.00  0.00    -0.356 N 
ATOM      4  C   UNL A   1      31.842  27.525  26.771  1.00  0.00     0.224 C 
ATOM      5  O   UNL A   1      30.819  27.020  27.248  1.00  0.00    -0.275 OA
ATOM      6  H   UNL A   1      31.851  28.998  28.129  1.00  0.00     0.163 HD
BRANCH   4   7
ATOM      7  C   UNL A   1      32.368  27.015  25.410  1.00  0.00     0.094 C 
ATOM      8  C   UNL A   1      31.478  26.158  24.477  1.00  0.00     0.094 C 
ATOM      9  C   UNL A   1      31.477  26.786  23.037  1.00  0.00     0.002 C 
ATOM     10  C   UNL A   1      31.288  28.319  22.959  1.00  0.00     0.005 C 
ATOM     11  C   UNL A   1      32.907  26.560  22.492  1.00  0.00     0.005 C 
ATOM     12  C   UNL A   1      33.197  28.016  24.568  1.00  0.00     0.002 C 
ATOM     13  C   UNL A   1      32.311  29.041  23.853  1.00  0.00     0.005 C 
ATOM     14  C   UNL A   1      33.926  27.206  23.457  1.00  0.00     0.005 C 
BRANCH   8  15
ATOM     15  C   UNL A   1      30.140  25.651  25.024  1.00  0.00     0.230 C 
ATOM     16  N   UNL A   1      30.059  24.555  25.844  1.00  0.00    -0.302 N 
ATOM     17  H   UNL A   1      29.168  24.390  26.229  1.00  0.00     0.172 HD
ATOM     18  O   UNL A   1      29.097  26.253  24.754  1.00  0.00    -0.274 OA
BRANCH  16  19
ATOM     19  C   UNL A   1      31.024  23.655  26.212  1.00  0.00     0.189 A 
ATOM     20  C   UNL A   1      34.077  21.405  25.666  1.00  0.00     0.058 C 
ATOM     21  C   UNL A   1      32.908  22.172  26.160  1.00  0.00     0.023 A 
ATOM     22  C   UNL A   1      32.709  22.842  27.351  1.00  0.00     0.128 A 
ATOM     23  S   UNL A   1      31.523  22.389  25.180  1.00  0.00    -0.102 S 
ATOM     24  N   UNL A   1      31.565  23.626  27.407  1.00  0.00    -0.228 NA
ENDBRANCH  16  19
ENDBRANCH   8  15
ENDBRANCH   4   7
ENDBRANCH   2   3
ENDBRANCH   1   2
BRANCH   1  25
ATOM     25  C   UNL A   1      35.416  30.812  27.981  1.00  0.00     0.118 C 
BRANCH  25  26
ATOM     26  N   UNL A   1      35.424  30.852  29.438  1.00  0.00    -0.352 N 
ATOM     27  C   UNL A   1      36.330  30.371  30.357  1.00  0.00     0.251 C 
ATOM     28  H   UNL A   1      34.644  31.303  29.835  1.00  0.00     0.163 HD
ATOM     29  O   UNL A   1      36.023  30.353  31.544  1.00  0.00    -0.269 OA
BRANCH  27  30
ATOM     30  C   UNL A   1      37.647  29.854  29.922  1.00  0.00     0.039 A 
ATOM     31  C   UNL A   1      38.001  29.920  28.572  1.00  0.00     0.014 A 
ATOM     32  C   UNL A   1      38.537  29.297  30.838  1.00  0.00     0.014 A 
ATOM     33  C   UNL A   1      39.272  29.501  28.166  1.00  0.00     0.010 A 
ATOM     34  C   UNL A   1      39.846  29.031  30.463  1.00  0.00     0.010 A 
ATOM     35  C   UNL A   1      40.223  29.099  29.117  1.00  0.00    -0.014 A 
BRANCH  35  36
ATOM     36  C   UNL A   1      41.604  28.705  28.736  1.00  0.00     0.031 A 
ATOM     37  C   UNL A   1      42.688  29.750  28.659  1.00  0.00     0.074 A 
ATOM     38  C   UNL A   1      41.861  27.433  28.372  1.00  0.00     0.049 A 
ATOM     39  N   UNL A   1      43.925  29.631  28.253  1.00  0.00    -0.248 NA
ATOM     40  C   UNL A   1      42.319  31.124  29.043  1.00  0.00     0.031 C 
ATOM     41  C   UNL A   1      40.877  26.349  28.328  1.00  0.00     0.029 A 
ATOM     42  N   UNL A   1      43.025  26.838  27.953  1.00  0.00    -0.354 N 
ATOM     43  C   UNL A   1      44.465  30.911  28.301  1.00  0.00     0.074 A 
ATOM     44  C   UNL A   1      43.404  31.803  28.705  1.00  0.00     0.031 C 
ATOM     45  C   UNL A   1      41.482  25.219  27.929  1.00  0.00     0.029 A 
ATOM     46  C   UNL A   1      42.885  25.506  27.646  1.00  0.00     0.049 A 
ATOM     47  H   UNL A   1      43.880  27.322  27.880  1.00  0.00     0.167 HD
ATOM     48  C   UNL A   1      45.737  31.306  28.059  1.00  0.00     0.037 A 
ATOM     49  C   UNL A   1      43.782  24.616  27.177  1.00  0.00     0.037 A 
ATOM     50  C   UNL A   1      46.796  30.401  27.697  1.00  0.00     0.049 A 
ATOM     51  C   UNL A   1      45.200  25.063  26.951  1.00  0.00     0.074 A 
ATOM     52  C   UNL A   1      48.139  30.675  27.522  1.00  0.00     0.029 A 
ATOM     53  N   UNL A   1      46.626  29.046  27.448  1.00  0.00    -0.354 N 
ATOM     54  N   UNL A   1      45.718  26.261  27.095  1.00  0.00    -0.248 NA
ATOM     55  C   UNL A   1      46.158  24.041  26.512  1.00  0.00     0.031 C 
ATOM     56  C   UNL A   1      48.772  29.498  27.109  1.00  0.00     0.029 A 
ATOM     57  C   UNL A   1      47.836  28.476  27.089  1.00  0.00     0.049 A 
ATOM     58  H   UNL A   1      45.772  28.561  27.517  1.00  0.00     0.167 HD
ATOM     59  C   UNL A   1      47.067  26.133  26.783  1.00  0.00     0.074 A 
ATOM     60  C   UNL A   1      47.286  24.738  26.459  1.00  0.00     0.031 C 
ATOM     61  C   UNL A   1      48.035  27.083  26.768  1.00  0.00     0.037 A 
BRANCH  48  62
ATOM     62  C   UNL A   1      46.048  32.776  28.174  1.00  0.00     0.058 A 
ATOM     63  C   UNL A   1      45.934  33.650  27.080  1.00  0.00     0.135 A 
ATOM     64  C   UNL A   1      46.462  33.321  29.401  1.00  0.00     0.135 A 
ATOM     65  F   UNL A   1      45.556  33.186  25.879  1.00  0.00    -0.206 F 
ATOM     66  C   UNL A   1      46.267  34.997  27.184  1.00  0.00     0.059 A 
ATOM     67  C   UNL A   1      46.766  34.673  29.537  1.00  0.00     0.059 A 
ATOM     68  F   UNL A   1      46.588  32.535  30.482  1.00  0.00    -0.206 F 
ATOM     69  C   UNL A   1      46.685  35.499  28.418  1.00  0.00     0.060 A 
BRANCH  69  70
ATOM     70  S   UNL A   1      47.129  37.244  28.533  1.00  0.00     0.124 S 
ATOM     71  O   UNL A   1      48.328  37.294  27.701  1.00  0.00    -0.237 OA
ATOM     72  O   UNL A   1      45.948  37.903  27.982  1.00  0.00    -0.237 OA
ATOM     73  O   UNL A   1      47.348  37.448  29.961  1.00  0.00    -0.744 OA
ENDBRANCH  69  70
ENDBRANCH  48  62
BRANCH  49  74
ATOM     74  C   UNL A   1      43.356  23.215  26.913  1.00  0.00     0.058 A 
ATOM     75  C   UNL A   1      43.267  22.716  25.605  1.00  0.00     0.135 A 
ATOM     76  C   UNL A   1      43.083  22.331  27.969  1.00  0.00     0.135 A 
ATOM     77  F   UNL A   1      43.512  23.523  24.561  1.00  0.00    -0.206 F 
ATOM     78  C   UNL A   1      42.918  21.393  25.352  1.00  0.00     0.059 A 
ATOM     79  C   UNL A   1      42.759  20.996  27.742  1.00  0.00     0.059 A 
ATOM     80  F   UNL A   1      43.172  22.754  29.240  1.00  0.00    -0.206 F 
ATOM     81  C   UNL A   1      42.676  20.538  26.429  1.00  0.00     0.060 A 
BRANCH  81  82
ATOM     82  S   UNL A   1      42.301  18.804  26.089  1.00  0.00     0.124 S 
ATOM     83  O   UNL A   1      42.597  18.180  27.374  1.00  0.00    -0.237 OA
ATOM     84  O   UNL A   1      40.890  18.864  25.719  1.00  0.00    -0.237 OA
ATOM     85  O   UNL A   1      43.212  18.469  24.999  1.00  0.00    -0.744 OA
ENDBRANCH  81  82
ENDBRANCH  49  74
BRANCH  61  86
ATOM     86  C   UNL A   1      49.430  26.646  26.413  1.00  0.00     0.058 A 
ATOM     87  C   UNL A   1      50.272  26.026  27.348  1.00  0.00     0.135 A 
ATOM     88  C   UNL A   1      49.906  26.796  25.100  1.00  0.00     0.135 A 
ATOM     89  F   UNL A   1      49.868  25.862  28.618  1.00  0.00    -0.206 F 
ATOM     90  C   UNL A   1      51.546  25.590  27.000  1.00  0.00     0.059 A 
ATOM     91  C   UNL A   1      51.163  26.340  24.722  1.00  0.00     0.059 A 
ATOM     92  F   UNL A   1      49.136  27.373  24.163  1.00  0.00    -0.206 F 
ATOM     93  C   UNL A   1      51.981  25.747  25.682  1.00  0.00     0.060 A 
BRANCH  93  94
ATOM     94  S   UNL A   1      53.623  25.144  25.236  1.00  0.00     0.124 S 
ATOM     95  O   UNL A   1      53.451  23.701  25.366  1.00  0.00    -0.237 OA
ATOM     96  O   UNL A   1      53.780  25.644  23.874  1.00  0.00    -0.237 OA
ATOM     97  O   UNL A   1      54.494  25.763  26.229  1.00  0.00    -0.744 OA
ENDBRANCH  93  94
ENDBRANCH  61  86
ENDBRANCH  35  36
ENDBRANCH  27  30
ENDBRANCH  25  26
ENDBRANCH   1  25
TORSDOF 15
ENDMDL
