MODEL 1
REMARK VINA RESULT:     -11.4      0.000      0.000
REMARK SMILES COc1ccc(C2=NO[C@](C)(C(=O)NCCCNC(=O)c3ccc(-c4c5nc(c(-c6c(F)cc(S(=O)(=O)[O-])cc6F)c6ccc([nH]6)c(-c6c(F)cc(S(=O)(=O)[O-])cc6F)c6nc(c(-c7c(F)cc(S(=O)(=O)[O-])cc7F)c7ccc4[nH]7)C=C6)C=C5)cc3)C2)c(OC)c1OC
REMARK SMILES IDX 16 1 15 2 14 3 12 4 13 5 10 7 7 8 8 9 87 10 9 11 11 12 6 13
REMARK SMILES IDX 3 14 4 15 91 16 5 17 88 18 2 19 1 20 92 21 93 22 89 23 90 24
REMARK SMILES IDX 17 25 18 26 19 27 20 29 21 30 22 31 86 32 23 33 85 34 24 35
REMARK SMILES IDX 25 36 26 37 79 38 27 39 84 40 78 41 80 42 28 43 83 44 77 45
REMARK SMILES IDX 76 46 29 48 63 49 42 50 62 51 43 52 46 53 61 54 81 55 44 56
REMARK SMILES IDX 45 57 60 59 82 60 47 61 30 62 31 63 40 64 32 65 33 66 39 67
REMARK SMILES IDX 41 68 34 69 35 70 36 71 37 72 38 73 64 74 65 75 74 76 66 77
REMARK SMILES IDX 67 78 73 79 75 80 68 81 69 82 70 83 71 84 72 85 48 86 49 87
REMARK SMILES IDX 58 88 50 89 51 90 57 91 59 92 52 93 53 94 54 95 55 96 56 97
REMARK H PARENT 14 6 18 28 80 47 46 58
REMARK Flexibility Score: inf
ROOT
ATOM      1  C   UNL A   1      32.297  27.786  26.931  1.00  0.00     0.042 C 
ENDROOT
BRANCH   1   2
ATOM      2  C   UNL A   1      31.675  27.816  25.535  1.00  0.00     0.118 C 
BRANCH   2   3
ATOM      3  N   UNL A   1      32.608  28.330  24.548  1.00  0.00    -0.352 N 
ATOM      4  C   UNL A   1      33.258  27.730  23.504  1.00  0.00     0.267 C 
ATOM      5  O   UNL A   1      34.078  28.439  22.911  1.00  0.00    -0.270 OA
ATOM      6  H   UNL A   1      32.812  29.287  24.650  1.00  0.00     0.163 HD
BRANCH   4   7
ATOM      7  C   UNL A   1      32.896  26.308  23.013  1.00  0.00     0.217 C 
ATOM      8  C   UNL A   1      33.627  24.137  23.156  1.00  0.00     0.095 C 
ATOM      9  N   UNL A   1      34.012  24.536  21.990  1.00  0.00    -0.089 NA
ATOM     10  C   UNL A   1      33.081  25.204  24.029  1.00  0.00     0.122 C 
ATOM     11  O   UNL A   1      33.789  25.940  21.941  1.00  0.00    -0.379 OA
ATOM     12  C   UNL A   1      31.485  26.359  22.421  1.00  0.00     0.071 C 
BRANCH   8  13
ATOM     13  C   UNL A   1      33.712  22.752  23.661  1.00  0.00     0.046 A 
ATOM     14  C   UNL A   1      33.748  20.138  24.610  1.00  0.00     0.164 A 
ATOM     15  C   UNL A   1      32.662  20.590  23.853  1.00  0.00     0.051 A 
ATOM     16  C   UNL A   1      34.843  20.981  24.889  1.00  0.00     0.203 A 
ATOM     17  C   UNL A   1      32.643  21.894  23.374  1.00  0.00     0.018 A 
ATOM     18  C   UNL A   1      34.811  22.320  24.432  1.00  0.00     0.173 A 
BRANCH  14  19
ATOM     19  O   UNL A   1      33.762  18.808  24.947  1.00  0.00    -0.493 OA
ATOM     20  C   UNL A   1      33.197  17.989  23.916  1.00  0.00     0.278 C 
ENDBRANCH  14  19
BRANCH  16  21
ATOM     21  O   UNL A   1      35.998  20.554  25.493  1.00  0.00    -0.490 OA
ATOM     22  C   UNL A   1      37.085  20.151  24.670  1.00  0.00     0.278 C 
ENDBRANCH  16  21
BRANCH  18  23
ATOM     23  O   UNL A   1      35.740  23.300  24.676  1.00  0.00    -0.492 OA
ATOM     24  C   UNL A   1      35.940  23.780  25.995  1.00  0.00     0.278 C 
ENDBRANCH  18  23
ENDBRANCH   8  13
ENDBRANCH   4   7
ENDBRANCH   2   3
ENDBRANCH   1   2
BRANCH   1  25
ATOM     25  C   UNL A   1      33.677  28.434  26.993  1.00  0.00     0.118 C 
BRANCH  25  26
ATOM     26  N   UNL A   1      33.606  29.820  27.439  1.00  0.00    -0.352 N 
ATOM     27  C   UNL A   1      34.508  30.559  28.161  1.00  0.00     0.251 C 
ATOM     28  H   UNL A   1      32.786  30.300  27.180  1.00  0.00     0.163 HD
ATOM     29  O   UNL A   1      34.152  31.638  28.640  1.00  0.00    -0.269 OA
BRANCH  27  30
ATOM     30  C   UNL A   1      35.884  30.068  28.384  1.00  0.00     0.039 A 
ATOM     31  C   UNL A   1      36.791  30.091  27.321  1.00  0.00     0.014 A 
ATOM     32  C   UNL A   1      36.278  29.564  29.627  1.00  0.00     0.014 A 
ATOM     33  C   UNL A   1      38.110  29.678  27.525  1.00  0.00     0.010 A 
ATOM     34  C   UNL A   1      37.611  29.223  29.848  1.00  0.00     0.010 A 
ATOM     35  C   UNL A   1      38.543  29.282  28.801  1.00  0.00    -0.014 A 
BRANCH  35  36
ATOM     36  C   UNL A   1      39.967  28.961  29.070  1.00  0.00     0.031 A 
ATOM     37  C   UNL A   1      40.900  30.015  29.603  1.00  0.00     0.074 A 
ATOM     38  C   UNL A   1      40.438  27.737  28.757  1.00  0.00     0.049 A 
ATOM     39  N   UNL A   1      42.189  29.946  29.810  1.00  0.00    -0.248 NA
ATOM     40  C   UNL A   1      40.309  31.324  29.922  1.00  0.00     0.031 C 
ATOM     41  C   UNL A   1      39.641  26.644  28.194  1.00  0.00     0.029 A 
ATOM     42  N   UNL A   1      41.702  27.208  28.850  1.00  0.00    -0.354 N 
ATOM     43  C   UNL A   1      42.567  31.202  30.271  1.00  0.00     0.074 A 
ATOM     44  C   UNL A   1      41.379  32.027  30.267  1.00  0.00     0.031 C 
ATOM     45  C   UNL A   1      40.428  25.573  28.006  1.00  0.00     0.029 A 
ATOM     46  C   UNL A   1      41.795  25.915  28.389  1.00  0.00     0.049 A 
ATOM     47  H   UNL A   1      42.469  27.707  29.212  1.00  0.00     0.167 HD
ATOM     48  C   UNL A   1      43.790  31.620  30.679  1.00  0.00     0.037 A 
ATOM     49  C   UNL A   1      42.862  25.101  28.268  1.00  0.00     0.037 A 
ATOM     50  C   UNL A   1      44.964  30.786  30.692  1.00  0.00     0.049 A 
ATOM     51  C   UNL A   1      44.214  25.598  28.700  1.00  0.00     0.074 A 
ATOM     52  C   UNL A   1      46.234  31.098  31.144  1.00  0.00     0.029 A 
ATOM     53  N   UNL A   1      45.016  29.480  30.224  1.00  0.00    -0.354 N 
ATOM     54  N   UNL A   1      44.539  26.766  29.202  1.00  0.00    -0.248 NA
ATOM     55  C   UNL A   1      45.344  24.672  28.550  1.00  0.00     0.031 C 
ATOM     56  C   UNL A   1      47.067  30.003  30.897  1.00  0.00     0.029 A 
ATOM     57  C   UNL A   1      46.304  28.986  30.346  1.00  0.00     0.049 A 
ATOM     58  H   UNL A   1      44.251  28.980  29.860  1.00  0.00     0.167 HD
ATOM     59  C   UNL A   1      45.907  26.708  29.447  1.00  0.00     0.074 A 
ATOM     60  C   UNL A   1      46.344  25.383  29.055  1.00  0.00     0.031 C 
ATOM     61  C   UNL A   1      46.726  27.663  29.951  1.00  0.00     0.037 A 
BRANCH  48  62
ATOM     62  C   UNL A   1      43.924  33.046  31.144  1.00  0.00     0.058 A 
ATOM     63  C   UNL A   1      44.215  34.090  30.251  1.00  0.00     0.135 A 
ATOM     64  C   UNL A   1      43.714  33.380  32.493  1.00  0.00     0.135 A 
ATOM     65  F   UNL A   1      44.437  33.828  28.953  1.00  0.00    -0.206 F 
ATOM     66  C   UNL A   1      44.320  35.409  30.680  1.00  0.00     0.059 A 
ATOM     67  C   UNL A   1      43.785  34.697  32.940  1.00  0.00     0.059 A 
ATOM     68  F   UNL A   1      43.433  32.424  33.390  1.00  0.00    -0.206 F 
ATOM     69  C   UNL A   1      44.102  35.702  32.028  1.00  0.00     0.060 A 
BRANCH  69  70
ATOM     70  S   UNL A   1      44.236  37.421  32.566  1.00  0.00     0.124 S 
ATOM     71  O   UNL A   1      45.605  37.461  33.071  1.00  0.00    -0.237 OA
ATOM     72  O   UNL A   1      43.997  38.154  31.327  1.00  0.00    -0.237 OA
ATOM     73  O   UNL A   1      43.191  37.544  33.577  1.00  0.00    -0.744 OA
ENDBRANCH  69  70
ENDBRANCH  48  62
BRANCH  49  74
ATOM     74  C   UNL A   1      42.692  23.731  27.713  1.00  0.00     0.058 A 
ATOM     75  C   UNL A   1      42.467  22.632  28.554  1.00  0.00     0.135 A 
ATOM     76  C   UNL A   1      42.730  23.495  26.330  1.00  0.00     0.135 A 
ATOM     77  F   UNL A   1      42.429  22.804  29.885  1.00  0.00    -0.206 F 
ATOM     78  C   UNL A   1      42.296  21.347  28.048  1.00  0.00     0.059 A 
ATOM     79  C   UNL A   1      42.535  22.225  25.797  1.00  0.00     0.059 A 
ATOM     80  F   UNL A   1      42.925  24.514  25.478  1.00  0.00    -0.206 F 
ATOM     81  C   UNL A   1      42.326  21.155  26.666  1.00  0.00     0.060 A 
BRANCH  81  82
ATOM     82  S   UNL A   1      42.038  19.496  26.014  1.00  0.00     0.124 S 
ATOM     83  O   UNL A   1      40.598  19.513  25.789  1.00  0.00    -0.237 OA
ATOM     84  O   UNL A   1      42.875  19.489  24.817  1.00  0.00    -0.237 OA
ATOM     85  O   UNL A   1      42.500  18.627  27.092  1.00  0.00    -0.744 OA
ENDBRANCH  81  82
ENDBRANCH  49  74
BRANCH  61  86
ATOM     86  C   UNL A   1      48.178  27.312  30.129  1.00  0.00     0.058 A 
ATOM     87  C   UNL A   1      49.139  27.644  29.162  1.00  0.00     0.135 A 
ATOM     88  C   UNL A   1      48.623  26.699  31.312  1.00  0.00     0.135 A 
ATOM     89  F   UNL A   1      48.767  28.222  28.009  1.00  0.00    -0.206 F 
ATOM     90  C   UNL A   1      50.489  27.368  29.355  1.00  0.00     0.059 A 
ATOM     91  C   UNL A   1      49.970  26.440  31.538  1.00  0.00     0.059 A 
ATOM     92  F   UNL A   1      47.745  26.366  32.272  1.00  0.00    -0.206 F 
ATOM     93  C   UNL A   1      50.895  26.772  30.551  1.00  0.00     0.060 A 
BRANCH  93  94
ATOM     94  S   UNL A   1      52.657  26.470  30.810  1.00  0.00     0.124 S 
ATOM     95  O   UNL A   1      53.079  27.716  31.441  1.00  0.00    -0.237 OA
ATOM     96  O   UNL A   1      52.646  25.293  31.673  1.00  0.00    -0.237 OA
ATOM     97  O   UNL A   1      53.166  26.246  29.460  1.00  0.00    -0.744 OA
ENDBRANCH  93  94
ENDBRANCH  61  86
ENDBRANCH  35  36
ENDBRANCH  27  30
ENDBRANCH  25  26
ENDBRANCH   1  25
TORSDOF 17
ENDMDL
MODEL 2
REMARK VINA RESULT:     -11.3      3.525      7.202
REMARK SMILES COc1ccc(C2=NO[C@](C)(C(=O)NCCCNC(=O)c3ccc(-c4c5nc(c(-c6c(F)cc(S(=O)(=O)[O-])cc6F)c6ccc([nH]6)c(-c6c(F)cc(S(=O)(=O)[O-])cc6F)c6nc(c(-c7c(F)cc(S(=O)(=O)[O-])cc7F)c7ccc4[nH]7)C=C6)C=C5)cc3)C2)c(OC)c1OC
REMARK SMILES IDX 16 1 15 2 14 3 12 4 13 5 10 7 7 8 8 9 87 10 9 11 11 12 6 13
REMARK SMILES IDX 3 14 4 15 91 16 5 17 88 18 2 19 1 20 92 21 93 22 89 23 90 24
REMARK SMILES IDX 17 25 18 26 19 27 20 29 21 30 22 31 86 32 23 33 85 34 24 35
REMARK SMILES IDX 25 36 26 37 79 38 27 39 84 40 78 41 80 42 28 43 83 44 77 45
REMARK SMILES IDX 76 46 29 48 63 49 42 50 62 51 43 52 46 53 61 54 81 55 44 56
REMARK SMILES IDX 45 57 60 59 82 60 47 61 30 62 31 63 40 64 32 65 33 66 39 67
REMARK SMILES IDX 41 68 34 69 35 70 36 71 37 72 38 73 64 74 65 75 74 76 66 77
REMARK SMILES IDX 67 78 73 79 75 80 68 81 69 82 70 83 71 84 72 85 48 86 49 87
REMARK SMILES IDX 58 88 50 89 51 90 57 91 59 92 52 93 53 94 54 95 55 96 56 97
REMARK H PARENT 14 6 18 28 80 47 46 58
REMARK Flexibility Score: inf
ROOT
ATOM      1  C   UNL A   1      33.723  33.507  28.639  1.00  0.00     0.042 C 
ENDROOT
BRANCH   1   2
ATOM      2  C   UNL A   1      34.578  34.428  29.510  1.00  0.00     0.118 C 
BRANCH   2   3
ATOM      3  N   UNL A   1      33.944  35.721  29.698  1.00  0.00    -0.352 N 
ATOM      4  C   UNL A   1      33.405  36.325  30.800  1.00  0.00     0.267 C 
ATOM      5  O   UNL A   1      32.843  37.405  30.592  1.00  0.00    -0.270 OA
ATOM      6  H   UNL A   1      33.894  36.264  28.878  1.00  0.00     0.163 HD
BRANCH   4   7
ATOM      7  C   UNL A   1      33.601  35.763  32.229  1.00  0.00     0.217 C 
ATOM      8  C   UNL A   1      34.744  34.120  33.352  1.00  0.00     0.095 C 
ATOM      9  N   UNL A   1      33.539  33.667  33.247  1.00  0.00    -0.089 NA
ATOM     10  C   UNL A   1      35.014  35.353  32.575  1.00  0.00     0.122 C 
ATOM     11  O   UNL A   1      32.848  34.539  32.360  1.00  0.00    -0.379 OA
ATOM     12  C   UNL A   1      32.999  36.766  33.216  1.00  0.00     0.071 C 
BRANCH   8  13
ATOM     13  C   UNL A   1      35.826  33.502  34.144  1.00  0.00     0.046 A 
ATOM     14  C   UNL A   1      37.878  32.445  35.696  1.00  0.00     0.164 A 
ATOM     15  C   UNL A   1      37.111  33.508  36.184  1.00  0.00     0.051 A 
ATOM     16  C   UNL A   1      37.619  31.880  34.430  1.00  0.00     0.203 A 
ATOM     17  C   UNL A   1      36.082  34.035  35.413  1.00  0.00     0.018 A 
ATOM     18  C   UNL A   1      36.595  32.438  33.628  1.00  0.00     0.173 A 
BRANCH  14  19
ATOM     19  O   UNL A   1      38.795  31.892  36.555  1.00  0.00    -0.493 OA
ATOM     20  C   UNL A   1      38.902  32.637  37.773  1.00  0.00     0.278 C 
ENDBRANCH  14  19
BRANCH  16  21
ATOM     21  O   UNL A   1      38.233  30.747  33.962  1.00  0.00    -0.490 OA
ATOM     22  C   UNL A   1      39.594  30.830  33.560  1.00  0.00     0.278 C 
ENDBRANCH  16  21
BRANCH  18  23
ATOM     23  O   UNL A   1      36.258  32.076  32.348  1.00  0.00    -0.492 OA
ATOM     24  C   UNL A   1      37.090  32.443  31.261  1.00  0.00     0.278 C 
ENDBRANCH  18  23
ENDBRANCH   8  13
ENDBRANCH   4   7
ENDBRANCH   2   3
ENDBRANCH   1   2
BRANCH   1  25
ATOM     25  C   UNL A   1      34.543  32.504  27.833  1.00  0.00     0.118 C 
BRANCH  25  26
ATOM     26  N   UNL A   1      33.918  31.188  27.806  1.00  0.00    -0.352 N 
ATOM     27  C   UNL A   1      34.489  29.941  27.838  1.00  0.00     0.251 C 
ATOM     28  H   UNL A   1      32.934  31.194  27.757  1.00  0.00     0.163 HD
ATOM     29  O   UNL A   1      33.798  28.958  27.563  1.00  0.00    -0.269 OA
BRANCH  27  30
ATOM     30  C   UNL A   1      35.917  29.770  28.181  1.00  0.00     0.039 A 
ATOM     31  C   UNL A   1      36.259  29.384  29.479  1.00  0.00     0.014 A 
ATOM     32  C   UNL A   1      36.918  30.013  27.237  1.00  0.00     0.014 A 
ATOM     33  C   UNL A   1      37.600  29.168  29.808  1.00  0.00     0.010 A 
ATOM     34  C   UNL A   1      38.247  29.727  27.545  1.00  0.00     0.010 A 
ATOM     35  C   UNL A   1      38.602  29.295  28.831  1.00  0.00    -0.014 A 
BRANCH  35  36
ATOM     36  C   UNL A   1      40.016  28.950  29.124  1.00  0.00     0.031 A 
ATOM     37  C   UNL A   1      40.953  29.983  29.689  1.00  0.00     0.074 A 
ATOM     38  C   UNL A   1      40.475  27.723  28.804  1.00  0.00     0.049 A 
ATOM     39  N   UNL A   1      42.237  29.892  29.920  1.00  0.00    -0.248 NA
ATOM     40  C   UNL A   1      40.375  31.297  30.013  1.00  0.00     0.031 C 
ATOM     41  C   UNL A   1      39.674  26.649  28.211  1.00  0.00     0.029 A 
ATOM     42  N   UNL A   1      41.729  27.174  28.916  1.00  0.00    -0.354 N 
ATOM     43  C   UNL A   1      42.623  31.137  30.406  1.00  0.00     0.074 A 
ATOM     44  C   UNL A   1      41.447  31.979  30.389  1.00  0.00     0.031 C 
ATOM     45  C   UNL A   1      40.449  25.570  28.026  1.00  0.00     0.029 A 
ATOM     46  C   UNL A   1      41.813  25.887  28.440  1.00  0.00     0.049 A 
ATOM     47  H   UNL A   1      42.495  27.657  29.299  1.00  0.00     0.167 HD
ATOM     48  C   UNL A   1      43.843  31.532  30.843  1.00  0.00     0.037 A 
ATOM     49  C   UNL A   1      42.870  25.059  28.329  1.00  0.00     0.037 A 
ATOM     50  C   UNL A   1      45.005  30.681  30.868  1.00  0.00     0.049 A 
ATOM     51  C   UNL A   1      44.221  25.530  28.794  1.00  0.00     0.074 A 
ATOM     52  C   UNL A   1      46.270  30.968  31.349  1.00  0.00     0.029 A 
ATOM     53  N   UNL A   1      45.047  29.380  30.384  1.00  0.00    -0.354 N 
ATOM     54  N   UNL A   1      44.552  26.687  29.318  1.00  0.00    -0.248 NA
ATOM     55  C   UNL A   1      45.340  24.590  28.654  1.00  0.00     0.031 C 
ATOM     56  C   UNL A   1      47.092  29.864  31.105  1.00  0.00     0.029 A 
ATOM     57  C   UNL A   1      46.326  28.865  30.525  1.00  0.00     0.049 A 
ATOM     58  H   UNL A   1      44.282  28.896  29.999  1.00  0.00     0.167 HD
ATOM     59  C   UNL A   1      45.914  26.605  29.589  1.00  0.00     0.074 A 
ATOM     60  C   UNL A   1      46.340  25.279  29.188  1.00  0.00     0.031 C 
ATOM     61  C   UNL A   1      46.736  27.542  30.121  1.00  0.00     0.037 A 
BRANCH  48  62
ATOM     62  C   UNL A   1      43.989  32.950  31.329  1.00  0.00     0.058 A 
ATOM     63  C   UNL A   1      43.708  33.307  32.658  1.00  0.00     0.135 A 
ATOM     64  C   UNL A   1      44.459  33.955  30.468  1.00  0.00     0.135 A 
ATOM     65  F   UNL A   1      43.244  32.389  33.521  1.00  0.00    -0.206 F 
ATOM     66  C   UNL A   1      43.861  34.614  33.109  1.00  0.00     0.059 A 
ATOM     67  C   UNL A   1      44.648  35.264  30.905  1.00  0.00     0.059 A 
ATOM     68  F   UNL A   1      44.743  33.671  29.188  1.00  0.00    -0.206 F 
ATOM     69  C   UNL A   1      44.333  35.586  32.224  1.00  0.00     0.060 A 
BRANCH  69  70
ATOM     70  S   UNL A   1      44.531  37.275  32.830  1.00  0.00     0.124 S 
ATOM     71  O   UNL A   1      43.943  37.176  34.163  1.00  0.00    -0.237 OA
ATOM     72  O   UNL A   1      45.979  37.452  32.789  1.00  0.00    -0.237 OA
ATOM     73  O   UNL A   1      43.776  38.073  31.869  1.00  0.00    -0.744 OA
ENDBRANCH  69  70
ENDBRANCH  48  62
BRANCH  49  74
ATOM     74  C   UNL A   1      42.691  23.698  27.753  1.00  0.00     0.058 A 
ATOM     75  C   UNL A   1      42.691  23.494  26.365  1.00  0.00     0.135 A 
ATOM     76  C   UNL A   1      42.538  22.572  28.577  1.00  0.00     0.135 A 
ATOM     77  F   UNL A   1      42.827  24.538  25.534  1.00  0.00    -0.206 F 
ATOM     78  C   UNL A   1      42.535  22.226  25.814  1.00  0.00     0.059 A 
ATOM     79  C   UNL A   1      42.407  21.291  28.051  1.00  0.00     0.059 A 
ATOM     80  F   UNL A   1      42.547  22.709  29.913  1.00  0.00    -0.206 F 
ATOM     81  C   UNL A   1      42.399  21.129  26.666  1.00  0.00     0.060 A 
BRANCH  81  82
ATOM     82  S   UNL A   1      42.263  19.480  25.944  1.00  0.00     0.124 S 
ATOM     83  O   UNL A   1      40.844  19.419  25.614  1.00  0.00    -0.237 OA
ATOM     84  O   UNL A   1      43.181  19.565  24.812  1.00  0.00    -0.237 OA
ATOM     85  O   UNL A   1      42.700  18.603  27.026  1.00  0.00    -0.744 OA
ENDBRANCH  81  82
ENDBRANCH  49  74
BRANCH  61  86
ATOM     86  C   UNL A   1      48.179  27.168  30.323  1.00  0.00     0.058 A 
ATOM     87  C   UNL A   1      49.162  27.483  29.373  1.00  0.00     0.135 A 
ATOM     88  C   UNL A   1      48.594  26.548  31.514  1.00  0.00     0.135 A 
ATOM     89  F   UNL A   1      48.818  28.067  28.213  1.00  0.00    -0.206 F 
ATOM     90  C   UNL A   1      50.503  27.186  29.588  1.00  0.00     0.059 A 
ATOM     91  C   UNL A   1      49.933  26.267  31.762  1.00  0.00     0.059 A 
ATOM     92  F   UNL A   1      47.695  26.229  32.459  1.00  0.00    -0.206 F 
ATOM     93  C   UNL A   1      50.880  26.584  30.790  1.00  0.00     0.060 A 
BRANCH  93  94
ATOM     94  S   UNL A   1      52.632  26.253  31.078  1.00  0.00     0.124 S 
ATOM     95  O   UNL A   1      53.130  26.098  29.715  1.00  0.00    -0.237 OA
ATOM     96  O   UNL A   1      53.064  27.458  31.779  1.00  0.00    -0.237 OA
ATOM     97  O   UNL A   1      52.620  25.036  31.883  1.00  0.00    -0.744 OA
ENDBRANCH  93  94
ENDBRANCH  61  86
ENDBRANCH  35  36
ENDBRANCH  27  30
ENDBRANCH  25  26
ENDBRANCH   1  25
TORSDOF 17
ENDMDL
MODEL 3
REMARK VINA RESULT:     -11.1      3.647      6.938
REMARK SMILES COc1ccc(C2=NO[C@](C)(C(=O)NCCCNC(=O)c3ccc(-c4c5nc(c(-c6c(F)cc(S(=O)(=O)[O-])cc6F)c6ccc([nH]6)c(-c6c(F)cc(S(=O)(=O)[O-])cc6F)c6nc(c(-c7c(F)cc(S(=O)(=O)[O-])cc7F)c7ccc4[nH]7)C=C6)C=C5)cc3)C2)c(OC)c1OC
REMARK SMILES IDX 16 1 15 2 14 3 12 4 13 5 10 7 7 8 8 9 87 10 9 11 11 12 6 13
REMARK SMILES IDX 3 14 4 15 91 16 5 17 88 18 2 19 1 20 92 21 93 22 89 23 90 24
REMARK SMILES IDX 17 25 18 26 19 27 20 29 21 30 22 31 86 32 23 33 85 34 24 35
REMARK SMILES IDX 25 36 26 37 79 38 27 39 84 40 78 41 80 42 28 43 83 44 77 45
REMARK SMILES IDX 76 46 29 48 63 49 42 50 62 51 43 52 46 53 61 54 81 55 44 56
REMARK SMILES IDX 45 57 60 59 82 60 47 61 30 62 31 63 40 64 32 65 33 66 39 67
REMARK SMILES IDX 41 68 34 69 35 70 36 71 37 72 38 73 64 74 65 75 74 76 66 77
REMARK SMILES IDX 67 78 73 79 75 80 68 81 69 82 70 83 71 84 72 85 48 86 49 87
REMARK SMILES IDX 58 88 50 89 51 90 57 91 59 92 52 93 53 94 54 95 55 96 56 97
REMARK H PARENT 14 6 18 28 80 47 46 58
REMARK Flexibility Score: inf
ROOT
ATOM      1  C   UNL A   1      35.060  33.816  29.246  1.00  0.00     0.042 C 
ENDROOT
BRANCH   1   2
ATOM      2  C   UNL A   1      33.642  34.294  29.560  1.00  0.00     0.118 C 
BRANCH   2   3
ATOM      3  N   UNL A   1      33.636  35.671  30.023  1.00  0.00    -0.352 N 
ATOM      4  C   UNL A   1      33.744  36.216  31.273  1.00  0.00     0.267 C 
ATOM      5  O   UNL A   1      33.594  37.441  31.332  1.00  0.00    -0.270 OA
ATOM      6  H   UNL A   1      33.535  36.334  29.303  1.00  0.00     0.163 HD
BRANCH   4   7
ATOM      7  C   UNL A   1      34.158  35.380  32.506  1.00  0.00     0.217 C 
ATOM      8  C   UNL A   1      35.142  33.378  33.048  1.00  0.00     0.095 C 
ATOM      9  N   UNL A   1      33.879  33.182  33.232  1.00  0.00    -0.089 NA
ATOM     10  C   UNL A   1      35.482  34.660  32.386  1.00  0.00     0.122 C 
ATOM     11  O   UNL A   1      33.205  34.312  32.692  1.00  0.00    -0.379 OA
ATOM     12  C   UNL A   1      34.065  36.281  33.740  1.00  0.00     0.071 C 
BRANCH   8  13
ATOM     13  C   UNL A   1      36.219  32.438  33.420  1.00  0.00     0.046 A 
ATOM     14  C   UNL A   1      38.182  30.577  34.068  1.00  0.00     0.164 A 
ATOM     15  C   UNL A   1      37.332  30.345  32.982  1.00  0.00     0.051 A 
ATOM     16  C   UNL A   1      38.075  31.755  34.839  1.00  0.00     0.203 A 
ATOM     17  C   UNL A   1      36.354  31.275  32.653  1.00  0.00     0.018 A 
ATOM     18  C   UNL A   1      37.057  32.687  34.528  1.00  0.00     0.173 A 
BRANCH  14  19
ATOM     19  O   UNL A   1      39.203  29.682  34.264  1.00  0.00    -0.493 OA
ATOM     20  C   UNL A   1      39.764  29.233  33.026  1.00  0.00     0.278 C 
ENDBRANCH  14  19
BRANCH  16  21
ATOM     21  O   UNL A   1      38.969  32.108  35.816  1.00  0.00    -0.490 OA
ATOM     22  C   UNL A   1      40.097  32.894  35.452  1.00  0.00     0.278 C 
ENDBRANCH  16  21
BRANCH  18  23
ATOM     23  O   UNL A   1      36.752  33.837  35.210  1.00  0.00    -0.492 OA
ATOM     24  C   UNL A   1      36.299  33.770  36.552  1.00  0.00     0.278 C 
ENDBRANCH  18  23
ENDBRANCH   8  13
ENDBRANCH   4   7
ENDBRANCH   2   3
ENDBRANCH   1   2
BRANCH   1  25
ATOM     25  C   UNL A   1      35.168  33.078  27.914  1.00  0.00     0.118 C 
BRANCH  25  26
ATOM     26  N   UNL A   1      34.264  31.937  27.850  1.00  0.00    -0.352 N 
ATOM     27  C   UNL A   1      34.542  30.594  27.828  1.00  0.00     0.251 C 
ATOM     28  H   UNL A   1      33.307  32.164  27.818  1.00  0.00     0.163 HD
ATOM     29  O   UNL A   1      33.648  29.801  27.529  1.00  0.00    -0.269 OA
BRANCH  27  30
ATOM     30  C   UNL A   1      35.899  30.096  28.141  1.00  0.00     0.039 A 
ATOM     31  C   UNL A   1      36.884  30.152  27.151  1.00  0.00     0.014 A 
ATOM     32  C   UNL A   1      36.198  29.555  29.393  1.00  0.00     0.014 A 
ATOM     33  C   UNL A   1      38.185  29.734  27.442  1.00  0.00     0.010 A 
ATOM     34  C   UNL A   1      37.511  29.208  29.706  1.00  0.00     0.010 A 
ATOM     35  C   UNL A   1      38.520  29.300  28.736  1.00  0.00    -0.014 A 
BRANCH  35  36
ATOM     36  C   UNL A   1      39.921  28.971  29.103  1.00  0.00     0.031 A 
ATOM     37  C   UNL A   1      40.810  30.012  29.728  1.00  0.00     0.074 A 
ATOM     38  C   UNL A   1      40.415  27.754  28.797  1.00  0.00     0.049 A 
ATOM     39  N   UNL A   1      42.081  29.937  30.030  1.00  0.00    -0.248 NA
ATOM     40  C   UNL A   1      40.196  31.314  30.033  1.00  0.00     0.031 C 
ATOM     41  C   UNL A   1      39.664  26.676  28.150  1.00  0.00     0.029 A 
ATOM     42  N   UNL A   1      41.669  27.223  28.972  1.00  0.00    -0.354 N 
ATOM     43  C   UNL A   1      42.421  31.181  30.548  1.00  0.00     0.074 A 
ATOM     44  C   UNL A   1      41.236  32.007  30.474  1.00  0.00     0.031 C 
ATOM     45  C   UNL A   1      40.464  25.610  27.997  1.00  0.00     0.029 A 
ATOM     46  C   UNL A   1      41.798  25.942  28.489  1.00  0.00     0.049 A 
ATOM     47  H   UNL A   1      42.406  27.713  29.402  1.00  0.00     0.167 HD
ATOM     48  C   UNL A   1      43.610  31.589  31.056  1.00  0.00     0.037 A 
ATOM     49  C   UNL A   1      42.872  25.130  28.428  1.00  0.00     0.037 A 
ATOM     50  C   UNL A   1      44.780  30.754  31.137  1.00  0.00     0.049 A 
ATOM     51  C   UNL A   1      44.188  25.615  28.972  1.00  0.00     0.074 A 
ATOM     52  C   UNL A   1      46.012  31.055  31.689  1.00  0.00     0.029 A 
ATOM     53  N   UNL A   1      44.869  29.460  30.643  1.00  0.00    -0.354 N 
ATOM     54  N   UNL A   1      44.473  26.771  29.525  1.00  0.00    -0.248 NA
ATOM     55  C   UNL A   1      45.327  24.692  28.885  1.00  0.00     0.031 C 
ATOM     56  C   UNL A   1      46.863  29.965  31.480  1.00  0.00     0.029 A 
ATOM     57  C   UNL A   1      46.145  28.962  30.849  1.00  0.00     0.049 A 
ATOM     58  H   UNL A   1      44.133  28.969  30.211  1.00  0.00     0.167 HD
ATOM     59  C   UNL A   1      45.818  26.706  29.870  1.00  0.00     0.074 A 
ATOM     60  C   UNL A   1      46.285  25.391  29.480  1.00  0.00     0.031 C 
ATOM     61  C   UNL A   1      46.596  27.649  30.456  1.00  0.00     0.037 A 
BRANCH  48  62
ATOM     62  C   UNL A   1      43.707  33.004  31.563  1.00  0.00     0.058 A 
ATOM     63  C   UNL A   1      44.148  34.054  30.742  1.00  0.00     0.135 A 
ATOM     64  C   UNL A   1      43.311  33.321  32.873  1.00  0.00     0.135 A 
ATOM     65  F   UNL A   1      44.550  33.807  29.485  1.00  0.00    -0.206 F 
ATOM     66  C   UNL A   1      44.219  35.363  31.208  1.00  0.00     0.059 A 
ATOM     67  C   UNL A   1      43.346  34.628  33.352  1.00  0.00     0.059 A 
ATOM     68  F   UNL A   1      42.882  32.358  33.702  1.00  0.00    -0.206 F 
ATOM     69  C   UNL A   1      43.815  35.640  32.516  1.00  0.00     0.060 A 
BRANCH  69  70
ATOM     70  S   UNL A   1      43.908  37.346  33.101  1.00  0.00     0.124 S 
ATOM     71  O   UNL A   1      45.214  37.358  33.753  1.00  0.00    -0.237 OA
ATOM     72  O   UNL A   1      43.814  38.106  31.858  1.00  0.00    -0.237 OA
ATOM     73  O   UNL A   1      42.760  37.463  33.994  1.00  0.00    -0.744 OA
ENDBRANCH  69  70
ENDBRANCH  48  62
BRANCH  49  74
ATOM     74  C   UNL A   1      42.745  23.773  27.830  1.00  0.00     0.058 A 
ATOM     75  C   UNL A   1      42.529  22.645  28.634  1.00  0.00     0.135 A 
ATOM     76  C   UNL A   1      42.817  23.580  26.441  1.00  0.00     0.135 A 
ATOM     77  F   UNL A   1      42.459  22.776  29.967  1.00  0.00    -0.206 F 
ATOM     78  C   UNL A   1      42.398  21.372  28.086  1.00  0.00     0.059 A 
ATOM     79  C   UNL A   1      42.663  22.321  25.868  1.00  0.00     0.059 A 
ATOM     80  F   UNL A   1      43.006  24.628  25.624  1.00  0.00    -0.206 F 
ATOM     81  C   UNL A   1      42.461  21.222  26.700  1.00  0.00     0.060 A 
BRANCH  81  82
ATOM     82  S   UNL A   1      42.226  19.577  25.994  1.00  0.00     0.124 S 
ATOM     83  O   UNL A   1      43.113  19.623  24.838  1.00  0.00    -0.237 OA
ATOM     84  O   UNL A   1      42.647  18.710  27.090  1.00  0.00    -0.237 OA
ATOM     85  O   UNL A   1      40.797  19.541  25.695  1.00  0.00    -0.744 OA
ENDBRANCH  81  82
ENDBRANCH  49  74
BRANCH  61  86
ATOM     86  C   UNL A   1      48.031  27.293  30.734  1.00  0.00     0.058 A 
ATOM     87  C   UNL A   1      48.392  26.482  31.820  1.00  0.00     0.135 A 
ATOM     88  C   UNL A   1      49.050  27.710  29.861  1.00  0.00     0.135 A 
ATOM     89  F   UNL A   1      47.459  26.064  32.690  1.00  0.00    -0.206 F 
ATOM     90  C   UNL A   1      49.713  26.109  32.042  1.00  0.00     0.059 A 
ATOM     91  C   UNL A   1      50.374  27.326  30.047  1.00  0.00     0.059 A 
ATOM     92  F   UNL A   1      48.759  28.483  28.802  1.00  0.00    -0.206 F 
ATOM     93  C   UNL A   1      50.696  26.530  31.144  1.00  0.00     0.060 A 
BRANCH  93  94
ATOM     94  S   UNL A   1      52.399  25.992  31.414  1.00  0.00     0.124 S 
ATOM     95  O   UNL A   1      52.945  26.053  30.062  1.00  0.00    -0.237 OA
ATOM     96  O   UNL A   1      52.898  26.999  32.346  1.00  0.00    -0.237 OA
ATOM     97  O   UNL A   1      52.249  24.651  31.970  1.00  0.00    -0.744 OA
ENDBRANCH  93  94
ENDBRANCH  61  86
ENDBRANCH  35  36
ENDBRANCH  27  30
ENDBRANCH  25  26
ENDBRANCH   1  25
TORSDOF 17
ENDMDL
