MODEL 1
REMARK VINA RESULT:     -12.5      0.000      0.000
REMARK SMILES O=C(CSc1cc(-c2ccccc2)nc(-c2ccccc2F)n1)NCCCNC(=O)c1ccc(-c2c3nc(c(-c4c(F)cc(S(=O)(=O)[O-])cc4F)c4ccc([nH]4)c(-c4c(F)cc(S(=O)(=O)[O-])cc4F)c4nc(c(-c5c(F)cc(S(=O)(=O)[O-])cc5F)c5ccc2[nH]5)C=C4)C=C3)cc1
REMARK SMILES IDX 26 1 25 2 24 3 1 4 2 5 3 7 4 8 5 9 6 10 23 11 7 12 15 13
REMARK SMILES IDX 14 14 8 15 9 16 13 17 10 18 12 19 11 20 16 21 17 22 21 23
REMARK SMILES IDX 18 24 20 25 22 26 19 27 27 28 28 29 29 30 30 32 31 33 32 34
REMARK SMILES IDX 96 35 33 36 95 37 34 38 35 39 36 40 89 41 37 42 94 43 88 44
REMARK SMILES IDX 90 45 38 46 93 47 87 48 86 49 39 51 73 52 52 53 72 54 53 55
REMARK SMILES IDX 56 56 71 57 91 58 54 59 55 60 70 62 92 63 57 64 40 65 41 66
REMARK SMILES IDX 50 67 42 68 43 69 49 70 51 71 44 72 45 73 46 74 47 75 48 76
REMARK SMILES IDX 74 77 75 78 84 79 76 80 77 81 83 82 85 83 78 84 79 85 80 86
REMARK SMILES IDX 81 87 82 88 58 89 59 90 68 91 60 92 61 93 67 94 69 95 62 96
REMARK SMILES IDX 63 97 64 98 65 99 66 100
REMARK H PARENT 24 6 28 31 90 50 56 61
REMARK Flexibility Score: inf
ROOT
ATOM      1  C   UNL A   1      32.996  27.547  25.602  1.00  0.00     0.042 C 
ENDROOT
BRANCH   1   2
ATOM      2  C   UNL A   1      33.653  27.203  24.268  1.00  0.00     0.117 C 
BRANCH   2   3
ATOM      3  N   UNL A   1      33.254  25.906  23.763  1.00  0.00    -0.355 N 
ATOM      4  O   UNL A   1      33.746  26.338  21.563  1.00  0.00    -0.274 OA
ATOM      5  C   UNL A   1      33.395  25.550  22.438  1.00  0.00     0.230 C 
ATOM      6  H   UNL A   1      32.867  25.252  24.389  1.00  0.00     0.163 HD
BRANCH   5   7
ATOM      7  C   UNL A   1      32.964  24.134  22.090  1.00  0.00     0.176 C 
BRANCH   7   8
ATOM      8  S   UNL A   1      31.958  23.324  23.375  1.00  0.00    -0.096 SA
BRANCH   8   9
ATOM      9  C   UNL A   1      33.136  22.119  23.946  1.00  0.00     0.101 A 
ATOM     10  C   UNL A   1      32.802  20.784  23.967  1.00  0.00     0.064 A 
ATOM     11  N   UNL A   1      34.303  22.593  24.405  1.00  0.00    -0.222 NA
ATOM     12  C   UNL A   1      33.751  19.928  24.486  1.00  0.00     0.075 A 
ATOM     13  C   UNL A   1      35.181  21.683  24.857  1.00  0.00     0.163 A 
ATOM     14  N   UNL A   1      34.943  20.364  24.939  1.00  0.00    -0.228 NA
BRANCH  12  15
ATOM     15  C   UNL A   1      33.510  18.485  24.619  1.00  0.00     0.000 A 
ATOM     16  C   UNL A   1      34.135  17.577  23.749  1.00  0.00     0.010 A 
ATOM     17  C   UNL A   1      32.660  17.971  25.612  1.00  0.00     0.010 A 
ATOM     18  C   UNL A   1      33.933  16.200  23.877  1.00  0.00     0.001 A 
ATOM     19  C   UNL A   1      32.449  16.594  25.734  1.00  0.00     0.001 A 
ATOM     20  C   UNL A   1      33.091  15.710  24.870  1.00  0.00     0.000 A 
ENDBRANCH  12  15
BRANCH  13  21
ATOM     21  C   UNL A   1      36.457  22.180  25.359  1.00  0.00     0.055 A 
ATOM     22  C   UNL A   1      36.574  23.483  25.877  1.00  0.00     0.015 A 
ATOM     23  C   UNL A   1      37.608  21.384  25.338  1.00  0.00     0.134 A 
ATOM     24  C   UNL A   1      37.794  23.959  26.366  1.00  0.00     0.001 A 
ATOM     25  C   UNL A   1      38.831  21.855  25.813  1.00  0.00     0.040 A 
ATOM     26  F   UNL A   1      37.568  20.143  24.827  1.00  0.00    -0.206 F 
ATOM     27  C   UNL A   1      38.924  23.145  26.332  1.00  0.00     0.003 A 
ENDBRANCH  13  21
ENDBRANCH   8   9
ENDBRANCH   7   8
ENDBRANCH   5   7
ENDBRANCH   2   3
ENDBRANCH   1   2
BRANCH   1  28
ATOM     28  C   UNL A   1      33.960  27.980  26.705  1.00  0.00     0.118 C 
BRANCH  28  29
ATOM     29  N   UNL A   1      33.733  29.342  27.163  1.00  0.00    -0.352 N 
ATOM     30  C   UNL A   1      34.534  30.205  27.868  1.00  0.00     0.251 C 
ATOM     31  H   UNL A   1      32.849  29.708  26.926  1.00  0.00     0.163 HD
ATOM     32  O   UNL A   1      34.049  31.268  28.253  1.00  0.00    -0.269 OA
BRANCH  30  33
ATOM     33  C   UNL A   1      35.949  29.889  28.185  1.00  0.00     0.039 A 
ATOM     34  C   UNL A   1      36.901  30.041  27.170  1.00  0.00     0.014 A 
ATOM     35  C   UNL A   1      36.346  29.380  29.424  1.00  0.00     0.014 A 
ATOM     36  C   UNL A   1      38.242  29.718  27.405  1.00  0.00     0.010 A 
ATOM     37  C   UNL A   1      37.697  29.124  29.681  1.00  0.00     0.010 A 
ATOM     38  C   UNL A   1      38.657  29.273  28.669  1.00  0.00    -0.014 A 
BRANCH  38  39
ATOM     39  C   UNL A   1      40.084  28.935  28.927  1.00  0.00     0.031 A 
ATOM     40  C   UNL A   1      41.007  29.949  29.551  1.00  0.00     0.074 A 
ATOM     41  C   UNL A   1      40.561  27.724  28.577  1.00  0.00     0.049 A 
ATOM     42  N   UNL A   1      42.280  29.842  29.842  1.00  0.00    -0.248 NA
ATOM     43  C   UNL A   1      40.432  31.266  29.869  1.00  0.00     0.031 C 
ATOM     44  C   UNL A   1      39.788  26.668  27.921  1.00  0.00     0.029 A 
ATOM     45  N   UNL A   1      41.811  27.176  28.724  1.00  0.00    -0.354 N 
ATOM     46  C   UNL A   1      42.659  31.075  30.361  1.00  0.00     0.074 A 
ATOM     47  C   UNL A   1      41.495  31.931  30.299  1.00  0.00     0.031 C 
ATOM     48  C   UNL A   1      40.573  25.592  27.744  1.00  0.00     0.029 A 
ATOM     49  C   UNL A   1      41.910  25.889  28.252  1.00  0.00     0.049 A 
ATOM     50  H   UNL A   1      42.566  27.660  29.129  1.00  0.00     0.167 HD
ATOM     51  C   UNL A   1      43.859  31.454  30.866  1.00  0.00     0.037 A 
ATOM     52  C   UNL A   1      42.956  25.038  28.235  1.00  0.00     0.037 A 
ATOM     53  C   UNL A   1      45.009  30.592  30.958  1.00  0.00     0.049 A 
ATOM     54  C   UNL A   1      44.266  25.468  28.836  1.00  0.00     0.074 A 
ATOM     55  C   UNL A   1      46.255  30.871  31.495  1.00  0.00     0.029 A 
ATOM     56  N   UNL A   1      45.054  29.281  30.508  1.00  0.00    -0.354 N 
ATOM     57  N   UNL A   1      44.589  26.621  29.373  1.00  0.00    -0.248 NA
ATOM     58  C   UNL A   1      45.349  24.474  28.848  1.00  0.00     0.031 C 
ATOM     59  C   UNL A   1      47.061  29.736  31.345  1.00  0.00     0.029 A 
ATOM     60  C   UNL A   1      46.305  28.738  30.752  1.00  0.00     0.049 A 
ATOM     61  H   UNL A   1      44.306  28.805  30.079  1.00  0.00     0.167 HD
ATOM     62  C   UNL A   1      45.900  26.480  29.815  1.00  0.00     0.074 A 
ATOM     63  C   UNL A   1      46.307  25.128  29.491  1.00  0.00     0.031 C 
ATOM     64  C   UNL A   1      46.693  27.387  30.438  1.00  0.00     0.037 A 
BRANCH  51  65
ATOM     65  C   UNL A   1      43.984  32.867  31.369  1.00  0.00     0.058 A 
ATOM     66  C   UNL A   1      43.662  33.207  32.693  1.00  0.00     0.135 A 
ATOM     67  C   UNL A   1      44.454  33.888  30.528  1.00  0.00     0.135 A 
ATOM     68  F   UNL A   1      43.195  32.273  33.536  1.00  0.00    -0.206 F 
ATOM     69  C   UNL A   1      43.769  34.515  33.154  1.00  0.00     0.059 A 
ATOM     70  C   UNL A   1      44.594  35.199  30.976  1.00  0.00     0.059 A 
ATOM     71  F   UNL A   1      44.779  33.619  29.253  1.00  0.00    -0.206 F 
ATOM     72  C   UNL A   1      44.232  35.505  32.287  1.00  0.00     0.060 A 
BRANCH  72  73
ATOM     73  S   UNL A   1      44.359  37.201  32.896  1.00  0.00     0.124 S 
ATOM     74  O   UNL A   1      43.949  37.962  31.719  1.00  0.00    -0.237 OA
ATOM     75  O   UNL A   1      43.414  37.205  34.010  1.00  0.00    -0.237 OA
ATOM     76  O   UNL A   1      45.762  37.325  33.268  1.00  0.00    -0.744 OA
ENDBRANCH  72  73
ENDBRANCH  51  65
BRANCH  52  77
ATOM     77  C   UNL A   1      42.792  23.674  27.668  1.00  0.00     0.058 A 
ATOM     78  C   UNL A   1      42.451  22.589  28.489  1.00  0.00     0.135 A 
ATOM     79  C   UNL A   1      42.963  23.429  26.297  1.00  0.00     0.135 A 
ATOM     80  F   UNL A   1      42.283  22.773  29.807  1.00  0.00    -0.206 F 
ATOM     81  C   UNL A   1      42.305  21.305  27.976  1.00  0.00     0.059 A 
ATOM     82  C   UNL A   1      42.799  22.157  25.757  1.00  0.00     0.059 A 
ATOM     83  F   UNL A   1      43.273  24.438  25.468  1.00  0.00    -0.206 F 
ATOM     84  C   UNL A   1      42.481  21.099  26.606  1.00  0.00     0.060 A 
BRANCH  84  85
ATOM     85  S   UNL A   1      42.242  19.436  25.942  1.00  0.00     0.124 S 
ATOM     86  O   UNL A   1      43.054  19.486  24.732  1.00  0.00    -0.237 OA
ATOM     87  O   UNL A   1      42.753  18.596  27.019  1.00  0.00    -0.237 OA
ATOM     88  O   UNL A   1      40.800  19.366  25.732  1.00  0.00    -0.744 OA
ENDBRANCH  84  85
ENDBRANCH  52  77
BRANCH  64  89
ATOM     89  C   UNL A   1      48.063  26.931  30.857  1.00  0.00     0.058 A 
ATOM     90  C   UNL A   1      49.195  27.154  30.058  1.00  0.00     0.135 A 
ATOM     91  C   UNL A   1      48.248  26.284  32.090  1.00  0.00     0.135 A 
ATOM     92  F   UNL A   1      49.074  27.764  28.869  1.00  0.00    -0.206 F 
ATOM     93  C   UNL A   1      50.458  26.720  30.451  1.00  0.00     0.059 A 
ATOM     94  C   UNL A   1      49.504  25.865  32.514  1.00  0.00     0.059 A 
ATOM     95  F   UNL A   1      47.199  26.059  32.898  1.00  0.00    -0.206 F 
ATOM     96  C   UNL A   1      50.601  26.071  31.680  1.00  0.00     0.060 A 
BRANCH  96  97
ATOM     97  S   UNL A   1      52.244  25.519  32.186  1.00  0.00     0.124 S 
ATOM     98  O   UNL A   1      53.031  25.807  30.990  1.00  0.00    -0.237 OA
ATOM     99  O   UNL A   1      52.520  26.364  33.343  1.00  0.00    -0.237 OA
ATOM    100  O   UNL A   1      52.048  24.103  32.484  1.00  0.00    -0.744 OA
ENDBRANCH  96  97
ENDBRANCH  64  89
ENDBRANCH  38  39
ENDBRANCH  30  33
ENDBRANCH  28  29
ENDBRANCH   1  28
TORSDOF 17
ENDMDL
MODEL 2
REMARK VINA RESULT:     -12.4      2.592      3.383
REMARK SMILES O=C(CSc1cc(-c2ccccc2)nc(-c2ccccc2F)n1)NCCCNC(=O)c1ccc(-c2c3nc(c(-c4c(F)cc(S(=O)(=O)[O-])cc4F)c4ccc([nH]4)c(-c4c(F)cc(S(=O)(=O)[O-])cc4F)c4nc(c(-c5c(F)cc(S(=O)(=O)[O-])cc5F)c5ccc2[nH]5)C=C4)C=C3)cc1
REMARK SMILES IDX 26 1 25 2 24 3 1 4 2 5 3 7 4 8 5 9 6 10 23 11 7 12 15 13
REMARK SMILES IDX 14 14 8 15 9 16 13 17 10 18 12 19 11 20 16 21 17 22 21 23
REMARK SMILES IDX 18 24 20 25 22 26 19 27 27 28 28 29 29 30 30 32 31 33 32 34
REMARK SMILES IDX 96 35 33 36 95 37 34 38 35 39 36 40 89 41 37 42 94 43 88 44
REMARK SMILES IDX 90 45 38 46 93 47 87 48 86 49 39 51 73 52 52 53 72 54 53 55
REMARK SMILES IDX 56 56 71 57 91 58 54 59 55 60 70 62 92 63 57 64 40 65 41 66
REMARK SMILES IDX 50 67 42 68 43 69 49 70 51 71 44 72 45 73 46 74 47 75 48 76
REMARK SMILES IDX 74 77 75 78 84 79 76 80 77 81 83 82 85 83 78 84 79 85 80 86
REMARK SMILES IDX 81 87 82 88 58 89 59 90 68 91 60 92 61 93 67 94 69 95 62 96
REMARK SMILES IDX 63 97 64 98 65 99 66 100
REMARK H PARENT 24 6 28 31 90 50 56 61
REMARK Flexibility Score: inf
ROOT
ATOM      1  C   UNL A   1      34.016  28.264  24.277  1.00  0.00     0.042 C 
ENDROOT
BRANCH   1   2
ATOM      2  C   UNL A   1      32.743  27.728  23.627  1.00  0.00     0.117 C 
BRANCH   2   3
ATOM      3  N   UNL A   1      32.781  26.297  23.410  1.00  0.00    -0.355 N 
ATOM      4  O   UNL A   1      33.639  26.393  21.284  1.00  0.00    -0.274 OA
ATOM      5  C   UNL A   1      33.294  25.733  22.262  1.00  0.00     0.230 C 
ATOM      6  H   UNL A   1      32.427  25.703  24.111  1.00  0.00     0.163 HD
BRANCH   5   7
ATOM      7  C   UNL A   1      33.294  24.214  22.220  1.00  0.00     0.176 C 
BRANCH   7   8
ATOM      8  S   UNL A   1      32.311  23.433  23.540  1.00  0.00    -0.096 SA
BRANCH   8   9
ATOM      9  C   UNL A   1      33.491  22.226  24.104  1.00  0.00     0.101 A 
ATOM     10  C   UNL A   1      33.160  20.890  24.117  1.00  0.00     0.064 A 
ATOM     11  N   UNL A   1      34.657  22.700  24.565  1.00  0.00    -0.222 NA
ATOM     12  C   UNL A   1      34.111  20.033  24.630  1.00  0.00     0.075 A 
ATOM     13  C   UNL A   1      35.537  21.788  25.011  1.00  0.00     0.163 A 
ATOM     14  N   UNL A   1      35.302  20.469  25.085  1.00  0.00    -0.228 NA
BRANCH  12  15
ATOM     15  C   UNL A   1      33.872  18.589  24.755  1.00  0.00     0.000 A 
ATOM     16  C   UNL A   1      32.717  18.112  25.397  1.00  0.00     0.010 A 
ATOM     17  C   UNL A   1      34.778  17.647  24.240  1.00  0.00     0.010 A 
ATOM     18  C   UNL A   1      32.464  16.742  25.504  1.00  0.00     0.001 A 
ATOM     19  C   UNL A   1      34.532  16.276  24.356  1.00  0.00     0.001 A 
ATOM     20  C   UNL A   1      33.373  15.825  24.983  1.00  0.00     0.000 A 
ENDBRANCH  12  15
BRANCH  13  21
ATOM     21  C   UNL A   1      36.813  22.285  25.516  1.00  0.00     0.055 A 
ATOM     22  C   UNL A   1      36.933  23.594  26.018  1.00  0.00     0.015 A 
ATOM     23  C   UNL A   1      37.959  21.482  25.513  1.00  0.00     0.134 A 
ATOM     24  C   UNL A   1      38.153  24.070  26.508  1.00  0.00     0.001 A 
ATOM     25  C   UNL A   1      39.182  21.953  25.991  1.00  0.00     0.040 A 
ATOM     26  F   UNL A   1      37.916  20.235  25.019  1.00  0.00    -0.206 F 
ATOM     27  C   UNL A   1      39.279  23.249  26.494  1.00  0.00     0.003 A 
ENDBRANCH  13  21
ENDBRANCH   8   9
ENDBRANCH   7   8
ENDBRANCH   5   7
ENDBRANCH   2   3
ENDBRANCH   1   2
BRANCH   1  28
ATOM     28  C   UNL A   1      33.973  28.355  25.802  1.00  0.00     0.118 C 
BRANCH  28  29
ATOM     29  N   UNL A   1      33.654  29.689  26.287  1.00  0.00    -0.352 N 
ATOM     30  C   UNL A   1      34.267  30.480  27.226  1.00  0.00     0.251 C 
ATOM     31  H   UNL A   1      32.859  30.094  25.870  1.00  0.00     0.163 HD
ATOM     32  O   UNL A   1      33.714  31.528  27.558  1.00  0.00    -0.269 OA
BRANCH  30  33
ATOM     33  C   UNL A   1      35.559  30.105  27.854  1.00  0.00     0.039 A 
ATOM     34  C   UNL A   1      35.541  29.659  29.181  1.00  0.00     0.014 A 
ATOM     35  C   UNL A   1      36.784  30.253  27.199  1.00  0.00     0.014 A 
ATOM     36  C   UNL A   1      36.735  29.333  29.832  1.00  0.00     0.010 A 
ATOM     37  C   UNL A   1      37.971  29.860  27.826  1.00  0.00     0.010 A 
ATOM     38  C   UNL A   1      37.962  29.413  29.156  1.00  0.00    -0.014 A 
BRANCH  38  39
ATOM     39  C   UNL A   1      39.235  29.059  29.842  1.00  0.00     0.031 A 
ATOM     40  C   UNL A   1      39.659  29.793  31.088  1.00  0.00     0.074 A 
ATOM     41  C   UNL A   1      40.026  28.093  29.334  1.00  0.00     0.049 A 
ATOM     42  N   UNL A   1      40.735  29.633  31.817  1.00  0.00    -0.248 NA
ATOM     43  C   UNL A   1      38.769  30.863  31.565  1.00  0.00     0.031 C 
ATOM     44  C   UNL A   1      39.758  27.339  28.107  1.00  0.00     0.029 A 
ATOM     45  N   UNL A   1      41.217  27.581  29.784  1.00  0.00    -0.354 N 
ATOM     46  C   UNL A   1      40.659  30.587  32.825  1.00  0.00     0.074 A 
ATOM     47  C   UNL A   1      39.457  31.355  32.585  1.00  0.00     0.031 C 
ATOM     48  C   UNL A   1      40.742  26.445  27.917  1.00  0.00     0.029 A 
ATOM     49  C   UNL A   1      41.723  26.577  28.992  1.00  0.00     0.049 A 
ATOM     50  H   UNL A   1      41.668  27.903  30.598  1.00  0.00     0.167 HD
ATOM     51  C   UNL A   1      41.499  30.792  33.870  1.00  0.00     0.037 A 
ATOM     52  C   UNL A   1      42.844  25.840  29.119  1.00  0.00     0.037 A 
ATOM     53  C   UNL A   1      42.679  30.007  34.128  1.00  0.00     0.049 A 
ATOM     54  C   UNL A   1      43.741  26.059  30.307  1.00  0.00     0.074 A 
ATOM     55  C   UNL A   1      43.568  30.108  35.184  1.00  0.00     0.029 A 
ATOM     56  N   UNL A   1      43.131  28.970  33.325  1.00  0.00    -0.354 N 
ATOM     57  N   UNL A   1      43.623  26.931  31.280  1.00  0.00    -0.248 NA
ATOM     58  C   UNL A   1      44.913  25.180  30.425  1.00  0.00     0.031 C 
ATOM     59  C   UNL A   1      44.573  29.150  35.005  1.00  0.00     0.029 A 
ATOM     60  C   UNL A   1      44.287  28.426  33.859  1.00  0.00     0.049 A 
ATOM     61  H   UNL A   1      42.695  28.666  32.496  1.00  0.00     0.167 HD
ATOM     62  C   UNL A   1      44.686  26.683  32.142  1.00  0.00     0.074 A 
ATOM     63  C   UNL A   1      45.431  25.576  31.580  1.00  0.00     0.031 C 
ATOM     64  C   UNL A   1      45.012  27.314  33.298  1.00  0.00     0.037 A 
BRANCH  51  65
ATOM     65  C   UNL A   1      41.164  31.909  34.821  1.00  0.00     0.058 A 
ATOM     66  C   UNL A   1      41.705  33.195  34.664  1.00  0.00     0.135 A 
ATOM     67  C   UNL A   1      40.275  31.700  35.887  1.00  0.00     0.135 A 
ATOM     68  F   UNL A   1      42.572  33.447  33.670  1.00  0.00    -0.206 F 
ATOM     69  C   UNL A   1      41.403  34.225  35.549  1.00  0.00     0.059 A 
ATOM     70  C   UNL A   1      39.937  32.722  36.770  1.00  0.00     0.059 A 
ATOM     71  F   UNL A   1      39.726  30.490  36.083  1.00  0.00    -0.206 F 
ATOM     72  C   UNL A   1      40.522  33.978  36.602  1.00  0.00     0.060 A 
BRANCH  72  73
ATOM     73  S   UNL A   1      40.144  35.320  37.750  1.00  0.00     0.124 S 
ATOM     74  O   UNL A   1      38.904  34.843  38.354  1.00  0.00    -0.237 OA
ATOM     75  O   UNL A   1      41.313  35.322  38.626  1.00  0.00    -0.237 OA
ATOM     76  O   UNL A   1      40.014  36.483  36.882  1.00  0.00    -0.744 OA
ENDBRANCH  72  73
ENDBRANCH  51  65
BRANCH  52  77
ATOM     77  C   UNL A   1      43.158  24.791  28.113  1.00  0.00     0.058 A 
ATOM     78  C   UNL A   1      43.989  25.069  27.018  1.00  0.00     0.135 A 
ATOM     79  C   UNL A   1      42.642  23.491  28.231  1.00  0.00     0.135 A 
ATOM     80  F   UNL A   1      44.501  26.299  26.860  1.00  0.00    -0.206 F 
ATOM     81  C   UNL A   1      44.284  24.103  26.063  1.00  0.00     0.059 A 
ATOM     82  C   UNL A   1      42.942  22.501  27.301  1.00  0.00     0.059 A 
ATOM     83  F   UNL A   1      41.856  23.172  29.270  1.00  0.00    -0.206 F 
ATOM     84  C   UNL A   1      43.754  22.819  26.214  1.00  0.00     0.060 A 
BRANCH  84  85
ATOM     85  S   UNL A   1      44.181  21.557  24.994  1.00  0.00     0.124 S 
ATOM     86  O   UNL A   1      43.127  20.573  25.211  1.00  0.00    -0.237 OA
ATOM     87  O   UNL A   1      44.111  22.301  23.741  1.00  0.00    -0.237 OA
ATOM     88  O   UNL A   1      45.522  21.145  25.396  1.00  0.00    -0.744 OA
ENDBRANCH  84  85
ENDBRANCH  52  77
BRANCH  64  89
ATOM     89  C   UNL A   1      46.196  26.787  34.060  1.00  0.00     0.058 A 
ATOM     90  C   UNL A   1      47.494  27.274  33.841  1.00  0.00     0.135 A 
ATOM     91  C   UNL A   1      46.024  25.798  35.042  1.00  0.00     0.135 A 
ATOM     92  F   UNL A   1      47.715  28.217  32.912  1.00  0.00    -0.206 F 
ATOM     93  C   UNL A   1      48.586  26.773  34.544  1.00  0.00     0.059 A 
ATOM     94  C   UNL A   1      47.096  25.302  35.774  1.00  0.00     0.059 A 
ATOM     95  F   UNL A   1      44.801  25.308  35.299  1.00  0.00    -0.206 F 
ATOM     96  C   UNL A   1      48.377  25.782  35.506  1.00  0.00     0.060 A 
BRANCH  96  97
ATOM     97  S   UNL A   1      49.797  25.145  36.421  1.00  0.00     0.124 S 
ATOM     98  O   UNL A   1      49.507  23.715  36.452  1.00  0.00    -0.237 OA
ATOM     99  O   UNL A   1      50.921  25.545  35.581  1.00  0.00    -0.237 OA
ATOM    100  O   UNL A   1      49.707  25.833  37.706  1.00  0.00    -0.744 OA
ENDBRANCH  96  97
ENDBRANCH  64  89
ENDBRANCH  38  39
ENDBRANCH  30  33
ENDBRANCH  28  29
ENDBRANCH   1  28
TORSDOF 17
ENDMDL
MODEL 3
REMARK VINA RESULT:     -12.3      2.587      4.187
REMARK SMILES O=C(CSc1cc(-c2ccccc2)nc(-c2ccccc2F)n1)NCCCNC(=O)c1ccc(-c2c3nc(c(-c4c(F)cc(S(=O)(=O)[O-])cc4F)c4ccc([nH]4)c(-c4c(F)cc(S(=O)(=O)[O-])cc4F)c4nc(c(-c5c(F)cc(S(=O)(=O)[O-])cc5F)c5ccc2[nH]5)C=C4)C=C3)cc1
REMARK SMILES IDX 26 1 25 2 24 3 1 4 2 5 3 7 4 8 5 9 6 10 23 11 7 12 15 13
REMARK SMILES IDX 14 14 8 15 9 16 13 17 10 18 12 19 11 20 16 21 17 22 21 23
REMARK SMILES IDX 18 24 20 25 22 26 19 27 27 28 28 29 29 30 30 32 31 33 32 34
REMARK SMILES IDX 96 35 33 36 95 37 34 38 35 39 36 40 89 41 37 42 94 43 88 44
REMARK SMILES IDX 90 45 38 46 93 47 87 48 86 49 39 51 73 52 52 53 72 54 53 55
REMARK SMILES IDX 56 56 71 57 91 58 54 59 55 60 70 62 92 63 57 64 40 65 41 66
REMARK SMILES IDX 50 67 42 68 43 69 49 70 51 71 44 72 45 73 46 74 47 75 48 76
REMARK SMILES IDX 74 77 75 78 84 79 76 80 77 81 83 82 85 83 78 84 79 85 80 86
REMARK SMILES IDX 81 87 82 88 58 89 59 90 68 91 60 92 61 93 67 94 69 95 62 96
REMARK SMILES IDX 63 97 64 98 65 99 66 100
REMARK H PARENT 24 6 28 31 90 50 56 61
REMARK Flexibility Score: inf
ROOT
ATOM      1  C   UNL A   1      33.970  27.634  24.929  1.00  0.00     0.042 C 
ENDROOT
BRANCH   1   2
ATOM      2  C   UNL A   1      32.764  27.338  24.042  1.00  0.00     0.117 C 
BRANCH   2   3
ATOM      3  N   UNL A   1      32.721  25.962  23.592  1.00  0.00    -0.355 N 
ATOM      4  O   UNL A   1      33.656  26.348  21.532  1.00  0.00    -0.274 OA
ATOM      5  C   UNL A   1      33.237  25.561  22.379  1.00  0.00     0.230 C 
ATOM      6  H   UNL A   1      32.306  25.287  24.176  1.00  0.00     0.163 HD
BRANCH   5   7
ATOM      7  C   UNL A   1      33.144  24.072  22.086  1.00  0.00     0.176 C 
BRANCH   7   8
ATOM      8  S   UNL A   1      32.082  23.150  23.244  1.00  0.00    -0.096 SA
BRANCH   8   9
ATOM      9  C   UNL A   1      33.317  22.127  24.016  1.00  0.00     0.101 A 
ATOM     10  C   UNL A   1      34.478  22.689  24.495  1.00  0.00     0.064 A 
ATOM     11  N   UNL A   1      33.075  20.809  24.035  1.00  0.00    -0.222 NA
ATOM     12  C   UNL A   1      35.407  21.814  25.018  1.00  0.00     0.075 A 
ATOM     13  C   UNL A   1      34.019  20.037  24.597  1.00  0.00     0.163 A 
ATOM     14  N   UNL A   1      35.192  20.485  25.072  1.00  0.00    -0.228 NA
BRANCH  12  15
ATOM     15  C   UNL A   1      36.712  22.268  25.515  1.00  0.00     0.000 A 
ATOM     16  C   UNL A   1      36.899  23.605  25.905  1.00  0.00     0.010 A 
ATOM     17  C   UNL A   1      37.805  21.391  25.620  1.00  0.00     0.010 A 
ATOM     18  C   UNL A   1      38.128  24.047  26.401  1.00  0.00     0.001 A 
ATOM     19  C   UNL A   1      39.038  21.835  26.106  1.00  0.00     0.001 A 
ATOM     20  C   UNL A   1      39.196  23.161  26.501  1.00  0.00     0.000 A 
ENDBRANCH  12  15
BRANCH  13  21
ATOM     21  C   UNL A   1      33.774  18.599  24.628  1.00  0.00     0.055 A 
ATOM     22  C   UNL A   1      34.258  17.760  23.608  1.00  0.00     0.015 A 
ATOM     23  C   UNL A   1      33.045  18.007  25.665  1.00  0.00     0.134 A 
ATOM     24  C   UNL A   1      34.031  16.381  23.638  1.00  0.00     0.001 A 
ATOM     25  C   UNL A   1      32.804  16.633  25.697  1.00  0.00     0.040 A 
ATOM     26  F   UNL A   1      32.529  18.759  26.651  1.00  0.00    -0.206 F 
ATOM     27  C   UNL A   1      33.301  15.817  24.683  1.00  0.00     0.003 A 
ENDBRANCH  13  21
ENDBRANCH   8   9
ENDBRANCH   7   8
ENDBRANCH   5   7
ENDBRANCH   2   3
ENDBRANCH   1   2
BRANCH   1  28
ATOM     28  C   UNL A   1      33.635  28.016  26.370  1.00  0.00     0.118 C 
BRANCH  28  29
ATOM     29  N   UNL A   1      33.472  29.449  26.560  1.00  0.00    -0.352 N 
ATOM     30  C   UNL A   1      34.224  30.360  27.258  1.00  0.00     0.251 C 
ATOM     31  H   UNL A   1      32.683  29.831  26.111  1.00  0.00     0.163 HD
ATOM     32  O   UNL A   1      33.790  31.505  27.378  1.00  0.00    -0.269 OA
BRANCH  30  33
ATOM     33  C   UNL A   1      35.525  30.003  27.876  1.00  0.00     0.039 A 
ATOM     34  C   UNL A   1      35.534  29.634  29.227  1.00  0.00     0.014 A 
ATOM     35  C   UNL A   1      36.736  30.096  27.186  1.00  0.00     0.014 A 
ATOM     36  C   UNL A   1      36.739  29.328  29.867  1.00  0.00     0.010 A 
ATOM     37  C   UNL A   1      37.932  29.722  27.806  1.00  0.00     0.010 A 
ATOM     38  C   UNL A   1      37.949  29.351  29.159  1.00  0.00    -0.014 A 
BRANCH  38  39
ATOM     39  C   UNL A   1      39.234  29.019  29.835  1.00  0.00     0.031 A 
ATOM     40  C   UNL A   1      39.669  29.778  31.062  1.00  0.00     0.074 A 
ATOM     41  C   UNL A   1      40.025  28.050  29.333  1.00  0.00     0.049 A 
ATOM     42  N   UNL A   1      40.756  29.639  31.779  1.00  0.00    -0.248 NA
ATOM     43  C   UNL A   1      38.778  30.851  31.531  1.00  0.00     0.031 C 
ATOM     44  C   UNL A   1      39.747  27.271  28.124  1.00  0.00     0.029 A 
ATOM     45  N   UNL A   1      41.226  27.554  29.777  1.00  0.00    -0.354 N 
ATOM     46  C   UNL A   1      40.687  30.611  32.771  1.00  0.00     0.074 A 
ATOM     47  C   UNL A   1      39.476  31.366  32.533  1.00  0.00     0.031 C 
ATOM     48  C   UNL A   1      40.735  26.381  27.937  1.00  0.00     0.029 A 
ATOM     49  C   UNL A   1      41.729  26.540  28.997  1.00  0.00     0.049 A 
ATOM     50  H   UNL A   1      41.686  27.894  30.578  1.00  0.00     0.167 HD
ATOM     51  C   UNL A   1      41.538  30.840  33.800  1.00  0.00     0.037 A 
ATOM     52  C   UNL A   1      42.857  25.813  29.121  1.00  0.00     0.037 A 
ATOM     53  C   UNL A   1      42.727  30.068  34.056  1.00  0.00     0.049 A 
ATOM     54  C   UNL A   1      43.768  26.060  30.293  1.00  0.00     0.074 A 
ATOM     55  C   UNL A   1      43.629  30.195  35.099  1.00  0.00     0.029 A 
ATOM     56  N   UNL A   1      43.176  29.021  33.266  1.00  0.00    -0.354 N 
ATOM     57  N   UNL A   1      43.656  26.948  31.252  1.00  0.00    -0.248 NA
ATOM     58  C   UNL A   1      44.947  25.192  30.411  1.00  0.00     0.031 C 
ATOM     59  C   UNL A   1      44.639  29.242  34.923  1.00  0.00     0.029 A 
ATOM     60  C   UNL A   1      44.344  28.494  33.795  1.00  0.00     0.049 A 
ATOM     61  H   UNL A   1      42.732  28.698  32.449  1.00  0.00     0.167 HD
ATOM     62  C   UNL A   1      44.732  26.724  32.105  1.00  0.00     0.074 A 
ATOM     63  C   UNL A   1      45.477  25.612  31.553  1.00  0.00     0.031 C 
ATOM     64  C   UNL A   1      45.068  27.378  33.244  1.00  0.00     0.037 A 
BRANCH  51  65
ATOM     65  C   UNL A   1      41.208  31.972  34.735  1.00  0.00     0.058 A 
ATOM     66  C   UNL A   1      40.339  31.795  35.825  1.00  0.00     0.135 A 
ATOM     67  C   UNL A   1      41.783  33.240  34.558  1.00  0.00     0.135 A 
ATOM     68  F   UNL A   1      39.751  30.607  36.034  1.00  0.00    -0.206 F 
ATOM     69  C   UNL A   1      40.026  32.843  36.683  1.00  0.00     0.059 A 
ATOM     70  C   UNL A   1      41.504  34.298  35.420  1.00  0.00     0.059 A 
ATOM     71  F   UNL A   1      42.622  33.465  33.534  1.00  0.00    -0.206 F 
ATOM     72  C   UNL A   1      40.610  34.093  36.470  1.00  0.00     0.060 A 
BRANCH  72  73
ATOM     73  S   UNL A   1      40.189  35.448  37.587  1.00  0.00     0.124 S 
ATOM     74  O   UNL A   1      39.678  36.445  36.651  1.00  0.00    -0.237 OA
ATOM     75  O   UNL A   1      39.192  34.835  38.463  1.00  0.00    -0.237 OA
ATOM     76  O   UNL A   1      41.460  35.773  38.221  1.00  0.00    -0.744 OA
ENDBRANCH  72  73
ENDBRANCH  51  65
BRANCH  52  77
ATOM     77  C   UNL A   1      43.166  24.749  28.131  1.00  0.00     0.058 A 
ATOM     78  C   UNL A   1      43.886  25.038  26.963  1.00  0.00     0.135 A 
ATOM     79  C   UNL A   1      42.754  23.422  28.335  1.00  0.00     0.135 A 
ATOM     80  F   UNL A   1      44.295  26.293  26.721  1.00  0.00    -0.206 F 
ATOM     81  C   UNL A   1      44.173  24.056  26.021  1.00  0.00     0.059 A 
ATOM     82  C   UNL A   1      43.051  22.418  27.419  1.00  0.00     0.059 A 
ATOM     83  F   UNL A   1      42.077  23.092  29.445  1.00  0.00    -0.206 F 
ATOM     84  C   UNL A   1      43.750  22.747  26.259  1.00  0.00     0.060 A 
BRANCH  84  85
ATOM     85  S   UNL A   1      44.169  21.468  25.053  1.00  0.00     0.124 S 
ATOM     86  O   UNL A   1      44.063  22.203  23.799  1.00  0.00    -0.237 OA
ATOM     87  O   UNL A   1      45.518  21.090  25.460  1.00  0.00    -0.237 OA
ATOM     88  O   UNL A   1      43.147  20.451  25.278  1.00  0.00    -0.744 OA
ENDBRANCH  84  85
ENDBRANCH  52  77
BRANCH  64  89
ATOM     89  C   UNL A   1      46.266  26.873  34.000  1.00  0.00     0.058 A 
ATOM     90  C   UNL A   1      47.556  27.378  33.768  1.00  0.00     0.135 A 
ATOM     91  C   UNL A   1      46.117  25.887  34.988  1.00  0.00     0.135 A 
ATOM     92  F   UNL A   1      47.755  28.318  32.831  1.00  0.00    -0.206 F 
ATOM     93  C   UNL A   1      48.660  26.898  34.465  1.00  0.00     0.059 A 
ATOM     94  C   UNL A   1      47.202  25.411  35.715  1.00  0.00     0.059 A 
ATOM     95  F   UNL A   1      44.904  25.380  35.258  1.00  0.00    -0.206 F 
ATOM     96  C   UNL A   1      48.474  25.909  35.434  1.00  0.00     0.060 A 
BRANCH  96  97
ATOM     97  S   UNL A   1      49.910  25.299  36.341  1.00  0.00     0.124 S 
ATOM     98  O   UNL A   1      49.953  26.217  37.475  1.00  0.00    -0.237 OA
ATOM     99  O   UNL A   1      49.529  23.925  36.652  1.00  0.00    -0.237 OA
ATOM    100  O   UNL A   1      51.001  25.437  35.380  1.00  0.00    -0.744 OA
ENDBRANCH  96  97
ENDBRANCH  64  89
ENDBRANCH  38  39
ENDBRANCH  30  33
ENDBRANCH  28  29
ENDBRANCH   1  28
TORSDOF 17
ENDMDL
