MODEL 1
REMARK VINA RESULT:     -12.7      0.000      0.000
REMARK SMILES NC(=O)[C@@H]1CCC[N@H+]1[C@H](C(=O)NCCCNC(=O)c1ccc(-c2c3nc(c(-c4c(F)cc(S(=O)(=O)[O-])cc4F)c4ccc([nH]4)c(-c4c(F)cc(S(=O)(=O)[O-])cc4F)c4nc(c(-c5c(F)cc(S(=O)(=O)[O-])cc5F)c5ccc2[nH]5)C=C4)C=C3)cc1)c1c[nH]c2cc(NC(=O)c3ccccc3)ccc12
REMARK SMILES IDX 14 1 13 2 12 3 10 4 11 5 9 7 8 8 4 9 5 10 6 11 7 12 2 14
REMARK SMILES IDX 1 15 3 18 85 19 86 20 102 21 87 22 88 23 101 24 89 26 100 27
REMARK SMILES IDX 90 28 91 29 92 30 93 32 94 33 95 34 99 35 96 36 98 37 97 38
REMARK SMILES IDX 15 39 16 40 17 41 18 43 19 44 20 45 84 46 21 47 83 48 22 49
REMARK SMILES IDX 23 50 24 51 77 52 25 53 82 54 76 55 78 56 26 57 81 58 75 59
REMARK SMILES IDX 74 60 27 62 61 63 40 64 60 65 41 66 44 67 59 68 79 69 42 70
REMARK SMILES IDX 43 71 58 73 80 74 45 75 28 76 29 77 38 78 30 79 31 80 37 81
REMARK SMILES IDX 39 82 32 83 33 84 34 85 35 86 36 87 62 88 63 89 72 90 64 91
REMARK SMILES IDX 65 92 71 93 73 94 66 95 67 96 68 97 69 98 70 99 46 100
REMARK SMILES IDX 47 101 56 102 48 103 49 104 55 105 57 106 50 107 51 108
REMARK SMILES IDX 52 109 53 110 54 111
REMARK H PARENT 12 6 8 13 1 16 1 17 87 25 91 31 16 42 78 61 44 72
REMARK Flexibility Score: inf
ROOT
ATOM      1  C   UNL A   1      35.872  23.068  23.638  1.00  0.00     0.042 C 
ENDROOT
BRANCH   1   2
ATOM      2  C   UNL A   1      34.473  23.632  23.286  1.00  0.00     0.118 C 
BRANCH   2   3
ATOM      3  N   UNL A   1      33.480  22.645  22.833  1.00  0.00    -0.351 N 
ATOM      4  C   UNL A   1      32.467  21.848  23.282  1.00  0.00     0.283 C 
ATOM      5  O   UNL A   1      31.810  21.471  22.289  1.00  0.00    -0.268 OA
ATOM      6  H   UNL A   1      33.584  22.511  21.863  1.00  0.00     0.163 HD
BRANCH   4   7
ATOM      7  C   UNL A   1      31.938  21.450  24.764  1.00  0.00     0.308 C 
BRANCH   7   8
ATOM      8  N   UNL A   1      32.788  20.333  25.290  1.00  0.00    -0.311 N 
ATOM      9  C   UNL A   1      33.247  19.274  24.352  1.00  0.00     0.275 C 
ATOM     10  C   UNL A   1      34.753  19.121  24.583  1.00  0.00     0.081 C 
ATOM     11  C   UNL A   1      35.156  20.384  25.312  1.00  0.00     0.068 C 
ATOM     12  C   UNL A   1      33.921  20.722  26.121  1.00  0.00     0.264 C 
ATOM     13  H   UNL A   1      32.059  19.911  25.866  1.00  0.00     0.349 HD
BRANCH   9  14
ATOM     14  C   UNL A   1      32.512  17.943  24.562  1.00  0.00     0.275 C 
ATOM     15  N   UNL A   1      32.453  17.151  23.452  1.00  0.00    -0.365 N 
ATOM     16  H   UNL A   1      32.000  16.278  23.494  1.00  0.00     0.159 HD
ATOM     17  H   UNL A   1      32.865  17.453  22.610  1.00  0.00     0.159 HD
ATOM     18  O   UNL A   1      32.048  17.543  25.632  1.00  0.00    -0.268 OA
ENDBRANCH   9  14
ENDBRANCH   7   8
BRANCH   7  19
ATOM     19  C   UNL A   1      31.764  22.597  25.798  1.00  0.00     0.044 A 
ATOM     20  C   UNL A   1      30.528  22.762  26.412  1.00  0.00     0.094 A 
ATOM     21  C   UNL A   1      32.166  23.961  25.658  1.00  0.00     0.009 A 
ATOM     22  N   UNL A   1      30.042  23.874  25.737  1.00  0.00    -0.361 N 
ATOM     23  C   UNL A   1      31.065  24.458  25.008  1.00  0.00     0.048 A 
ATOM     24  C   UNL A   1      33.036  24.961  26.119  1.00  0.00     0.013 A 
ATOM     25  H   UNL A   1      29.113  24.198  25.770  1.00  0.00     0.166 HD
ATOM     26  C   UNL A   1      31.180  25.461  24.051  1.00  0.00     0.052 A 
ATOM     27  C   UNL A   1      33.064  26.153  25.351  1.00  0.00     0.027 A 
ATOM     28  C   UNL A   1      32.291  26.281  24.185  1.00  0.00     0.043 A 
BRANCH  28  29
ATOM     29  N   UNL A   1      32.531  27.344  23.297  1.00  0.00    -0.322 N 
ATOM     30  C   UNL A   1      32.984  28.634  23.513  1.00  0.00     0.255 C 
ATOM     31  H   UNL A   1      32.342  27.133  22.355  1.00  0.00     0.170 HD
ATOM     32  O   UNL A   1      33.267  29.360  22.562  1.00  0.00    -0.269 OA
BRANCH  30  33
ATOM     33  C   UNL A   1      33.024  29.250  24.860  1.00  0.00     0.040 A 
ATOM     34  C   UNL A   1      34.142  29.072  25.679  1.00  0.00     0.014 A 
ATOM     35  C   UNL A   1      31.884  29.845  25.396  1.00  0.00     0.014 A 
ATOM     36  C   UNL A   1      34.145  29.590  26.981  1.00  0.00     0.001 A 
ATOM     37  C   UNL A   1      31.898  30.404  26.676  1.00  0.00     0.001 A 
ATOM     38  C   UNL A   1      33.040  30.293  27.463  1.00  0.00     0.000 A 
ENDBRANCH  30  33
ENDBRANCH  28  29
ENDBRANCH   7  19
ENDBRANCH   4   7
ENDBRANCH   2   3
ENDBRANCH   1   2
BRANCH   1  39
ATOM     39  C   UNL A   1      36.788  23.702  24.689  1.00  0.00     0.118 C 
BRANCH  39  40
ATOM     40  N   UNL A   1      37.686  22.731  25.312  1.00  0.00    -0.352 N 
ATOM     41  C   UNL A   1      38.785  22.819  26.144  1.00  0.00     0.251 C 
ATOM     42  H   UNL A   1      37.455  21.800  25.086  1.00  0.00     0.163 HD
ATOM     43  O   UNL A   1      39.384  21.768  26.380  1.00  0.00    -0.269 OA
BRANCH  41  44
ATOM     44  C   UNL A   1      39.315  24.083  26.741  1.00  0.00     0.039 A 
ATOM     45  C   UNL A   1      40.055  24.943  25.915  1.00  0.00     0.014 A 
ATOM     46  C   UNL A   1      39.229  24.402  28.094  1.00  0.00     0.014 A 
ATOM     47  C   UNL A   1      40.646  26.112  26.425  1.00  0.00     0.010 A 
ATOM     48  C   UNL A   1      39.737  25.622  28.588  1.00  0.00     0.010 A 
ATOM     49  C   UNL A   1      40.477  26.490  27.767  1.00  0.00    -0.014 A 
BRANCH  49  50
ATOM     50  C   UNL A   1      41.120  27.743  28.290  1.00  0.00     0.031 A 
ATOM     51  C   UNL A   1      42.613  27.968  28.174  1.00  0.00     0.074 A 
ATOM     52  C   UNL A   1      40.366  28.716  28.849  1.00  0.00     0.049 A 
ATOM     53  N   UNL A   1      43.316  29.036  28.471  1.00  0.00    -0.248 NA
ATOM     54  C   UNL A   1      43.425  26.851  27.671  1.00  0.00     0.031 C 
ATOM     55  C   UNL A   1      38.923  28.635  29.085  1.00  0.00     0.029 A 
ATOM     56  N   UNL A   1      40.700  29.973  29.305  1.00  0.00    -0.354 N 
ATOM     57  C   UNL A   1      44.643  28.714  28.200  1.00  0.00     0.074 A 
ATOM     58  C   UNL A   1      44.655  27.334  27.770  1.00  0.00     0.031 C 
ATOM     59  C   UNL A   1      38.491  29.803  29.593  1.00  0.00     0.029 A 
ATOM     60  C   UNL A   1      39.626  30.710  29.751  1.00  0.00     0.049 A 
ATOM     61  H   UNL A   1      41.625  30.312  29.312  1.00  0.00     0.167 HD
ATOM     62  C   UNL A   1      45.753  29.493  28.270  1.00  0.00     0.037 A 
ATOM     63  C   UNL A   1      39.548  31.973  30.221  1.00  0.00     0.037 A 
ATOM     64  C   UNL A   1      45.756  30.874  28.678  1.00  0.00     0.049 A 
ATOM     65  C   UNL A   1      40.790  32.826  30.288  1.00  0.00     0.074 A 
ATOM     66  C   UNL A   1      46.823  31.757  28.718  1.00  0.00     0.029 A 
ATOM     67  N   UNL A   1      44.647  31.572  29.129  1.00  0.00    -0.354 N 
ATOM     68  N   UNL A   1      42.017  32.524  29.934  1.00  0.00    -0.248 NA
ATOM     69  C   UNL A   1      40.636  34.193  30.807  1.00  0.00     0.031 C 
ATOM     70  C   UNL A   1      46.368  32.974  29.237  1.00  0.00     0.029 A 
ATOM     71  C   UNL A   1      45.007  32.867  29.470  1.00  0.00     0.049 A 
ATOM     72  H   UNL A   1      43.737  31.203  29.196  1.00  0.00     0.167 HD
ATOM     73  C   UNL A   1      42.773  33.671  30.165  1.00  0.00     0.074 A 
ATOM     74  C   UNL A   1      41.863  34.676  30.673  1.00  0.00     0.031 C 
ATOM     75  C   UNL A   1      44.100  33.869  29.972  1.00  0.00     0.037 A 
BRANCH  62  76
ATOM     76  C   UNL A   1      47.070  28.870  27.880  1.00  0.00     0.058 A 
ATOM     77  C   UNL A   1      47.505  28.844  26.546  1.00  0.00     0.135 A 
ATOM     78  C   UNL A   1      47.925  28.331  28.856  1.00  0.00     0.135 A 
ATOM     79  F   UNL A   1      46.726  29.338  25.570  1.00  0.00    -0.206 F 
ATOM     80  C   UNL A   1      48.722  28.273  26.186  1.00  0.00     0.059 A 
ATOM     81  C   UNL A   1      49.161  27.780  28.523  1.00  0.00     0.059 A 
ATOM     82  F   UNL A   1      47.566  28.338  30.149  1.00  0.00    -0.206 F 
ATOM     83  C   UNL A   1      49.542  27.741  27.183  1.00  0.00     0.060 A 
BRANCH  83  84
ATOM     84  S   UNL A   1      51.117  27.003  26.697  1.00  0.00     0.124 S 
ATOM     85  O   UNL A   1      50.699  25.664  26.293  1.00  0.00    -0.237 OA
ATOM     86  O   UNL A   1      51.556  27.881  25.618  1.00  0.00    -0.237 OA
ATOM     87  O   UNL A   1      51.916  27.068  27.917  1.00  0.00    -0.744 OA
ENDBRANCH  83  84
ENDBRANCH  62  76
BRANCH  63  88
ATOM     88  C   UNL A   1      38.233  32.530  30.647  1.00  0.00     0.058 A 
ATOM     89  C   UNL A   1      37.768  32.375  31.962  1.00  0.00     0.135 A 
ATOM     90  C   UNL A   1      37.416  33.232  29.747  1.00  0.00     0.135 A 
ATOM     91  F   UNL A   1      38.505  31.701  32.859  1.00  0.00    -0.206 F 
ATOM     92  C   UNL A   1      36.537  32.882  32.367  1.00  0.00     0.059 A 
ATOM     93  C   UNL A   1      36.193  33.771  30.134  1.00  0.00     0.059 A 
ATOM     94  F   UNL A   1      37.818  33.421  28.480  1.00  0.00    -0.206 F 
ATOM     95  C   UNL A   1      35.757  33.584  31.446  1.00  0.00     0.060 A 
BRANCH  95  96
ATOM     96  S   UNL A   1      34.188  34.291  31.994  1.00  0.00     0.124 S 
ATOM     97  O   UNL A   1      33.494  34.488  30.727  1.00  0.00    -0.237 OA
ATOM     98  O   UNL A   1      33.663  33.236  32.855  1.00  0.00    -0.237 OA
ATOM     99  O   UNL A   1      34.595  35.509  32.689  1.00  0.00    -0.744 OA
ENDBRANCH  95  96
ENDBRANCH  63  88
BRANCH  75 100
ATOM    100  C   UNL A   1      44.660  35.233  30.280  1.00  0.00     0.058 A 
ATOM    101  C   UNL A   1      45.201  35.544  31.538  1.00  0.00     0.135 A 
ATOM    102  C   UNL A   1      44.708  36.224  29.286  1.00  0.00     0.135 A 
ATOM    103  F   UNL A   1      45.176  34.636  32.528  1.00  0.00    -0.206 F 
ATOM    104  C   UNL A   1      45.749  36.795  31.806  1.00  0.00     0.059 A 
ATOM    105  C   UNL A   1      45.277  37.473  29.523  1.00  0.00     0.059 A 
ATOM    106  F   UNL A   1      44.215  35.978  28.062  1.00  0.00    -0.206 F 
ATOM    107  C   UNL A   1      45.784  37.753  30.791  1.00  0.00     0.060 A 
BRANCH 107 108
ATOM    108  S   UNL A   1      46.528  39.361  31.141  1.00  0.00     0.124 S 
ATOM    109  O   UNL A   1      45.953  40.188  30.087  1.00  0.00    -0.237 OA
ATOM    110  O   UNL A   1      46.054  39.637  32.494  1.00  0.00    -0.237 OA
ATOM    111  O   UNL A   1      47.961  39.105  31.027  1.00  0.00    -0.744 OA
ENDBRANCH 107 108
ENDBRANCH  75 100
ENDBRANCH  49  50
ENDBRANCH  41  44
ENDBRANCH  39  40
ENDBRANCH   1  39
TORSDOF 18
ENDMDL
MODEL 2
REMARK VINA RESULT:     -12.5      3.207      8.925
REMARK SMILES NC(=O)[C@@H]1CCC[N@H+]1[C@H](C(=O)NCCCNC(=O)c1ccc(-c2c3nc(c(-c4c(F)cc(S(=O)(=O)[O-])cc4F)c4ccc([nH]4)c(-c4c(F)cc(S(=O)(=O)[O-])cc4F)c4nc(c(-c5c(F)cc(S(=O)(=O)[O-])cc5F)c5ccc2[nH]5)C=C4)C=C3)cc1)c1c[nH]c2cc(NC(=O)c3ccccc3)ccc12
REMARK SMILES IDX 14 1 13 2 12 3 10 4 11 5 9 7 8 8 4 9 5 10 6 11 7 12 2 14
REMARK SMILES IDX 1 15 3 18 85 19 86 20 102 21 87 22 88 23 101 24 89 26 100 27
REMARK SMILES IDX 90 28 91 29 92 30 93 32 94 33 95 34 99 35 96 36 98 37 97 38
REMARK SMILES IDX 15 39 16 40 17 41 18 43 19 44 20 45 84 46 21 47 83 48 22 49
REMARK SMILES IDX 23 50 24 51 77 52 25 53 82 54 76 55 78 56 26 57 81 58 75 59
REMARK SMILES IDX 74 60 27 62 61 63 40 64 60 65 41 66 44 67 59 68 79 69 42 70
REMARK SMILES IDX 43 71 58 73 80 74 45 75 28 76 29 77 38 78 30 79 31 80 37 81
REMARK SMILES IDX 39 82 32 83 33 84 34 85 35 86 36 87 62 88 63 89 72 90 64 91
REMARK SMILES IDX 65 92 71 93 73 94 66 95 67 96 68 97 69 98 70 99 46 100
REMARK SMILES IDX 47 101 56 102 48 103 49 104 55 105 57 106 50 107 51 108
REMARK SMILES IDX 52 109 53 110 54 111
REMARK H PARENT 12 6 8 13 1 16 1 17 87 25 91 31 16 42 78 61 44 72
REMARK Flexibility Score: inf
ROOT
ATOM      1  C   UNL A   1      34.143  30.445  26.886  1.00  0.00     0.042 C 
ENDROOT
BRANCH   1   2
ATOM      2  C   UNL A   1      32.633  30.110  26.801  1.00  0.00     0.118 C 
BRANCH   2   3
ATOM      3  N   UNL A   1      32.287  28.683  26.892  1.00  0.00    -0.351 N 
ATOM      4  C   UNL A   1      31.970  27.598  26.126  1.00  0.00     0.283 C 
ATOM      5  O   UNL A   1      32.096  26.580  26.838  1.00  0.00    -0.268 OA
ATOM      6  H   UNL A   1      32.280  28.417  27.839  1.00  0.00     0.163 HD
BRANCH   4   7
ATOM      7  C   UNL A   1      31.618  27.412  24.553  1.00  0.00     0.308 C 
BRANCH   7   8
ATOM      8  N   UNL A   1      32.897  27.196  23.800  1.00  0.00    -0.311 N 
ATOM      9  C   UNL A   1      32.883  27.280  22.316  1.00  0.00     0.275 C 
ATOM     10  C   UNL A   1      34.041  28.205  21.928  1.00  0.00     0.081 C 
ATOM     11  C   UNL A   1      34.380  28.944  23.205  1.00  0.00     0.068 C 
ATOM     12  C   UNL A   1      34.061  27.931  24.283  1.00  0.00     0.264 C 
ATOM     13  H   UNL A   1      32.987  26.206  24.031  1.00  0.00     0.349 HD
BRANCH   9  14
ATOM     14  C   UNL A   1      33.018  25.906  21.647  1.00  0.00     0.275 C 
ATOM     15  N   UNL A   1      32.220  25.731  20.553  1.00  0.00    -0.365 N 
ATOM     16  H   UNL A   1      32.241  24.879  20.061  1.00  0.00     0.159 HD
ATOM     17  H   UNL A   1      31.625  26.458  20.257  1.00  0.00     0.159 HD
ATOM     18  O   UNL A   1      33.805  25.020  21.985  1.00  0.00    -0.268 OA
ENDBRANCH   9  14
ENDBRANCH   7   8
BRANCH   7  19
ATOM     19  C   UNL A   1      30.529  26.369  24.178  1.00  0.00     0.044 A 
ATOM     20  C   UNL A   1      29.257  26.505  24.721  1.00  0.00     0.094 A 
ATOM     21  C   UNL A   1      30.655  24.945  24.173  1.00  0.00     0.009 A 
ATOM     22  N   UNL A   1      29.272  25.508  25.688  1.00  0.00    -0.361 N 
ATOM     23  C   UNL A   1      30.368  24.686  25.490  1.00  0.00     0.048 A 
ATOM     24  C   UNL A   1      30.683  23.792  23.375  1.00  0.00     0.013 A 
ATOM     25  H   UNL A   1      28.605  25.403  26.405  1.00  0.00     0.166 HD
ATOM     26  C   UNL A   1      30.994  23.651  26.177  1.00  0.00     0.052 A 
ATOM     27  C   UNL A   1      31.078  22.598  24.032  1.00  0.00     0.027 A 
ATOM     28  C   UNL A   1      31.452  22.608  25.386  1.00  0.00     0.043 A 
BRANCH  28  29
ATOM     29  N   UNL A   1      32.094  21.489  25.944  1.00  0.00    -0.322 N 
ATOM     30  C   UNL A   1      33.431  21.224  26.183  1.00  0.00     0.255 C 
ATOM     31  H   UNL A   1      31.483  20.765  26.211  1.00  0.00     0.170 HD
ATOM     32  O   UNL A   1      33.761  20.229  26.827  1.00  0.00    -0.269 OA
BRANCH  30  33
ATOM     33  C   UNL A   1      34.523  22.024  25.581  1.00  0.00     0.040 A 
ATOM     34  C   UNL A   1      34.621  23.392  25.851  1.00  0.00     0.014 A 
ATOM     35  C   UNL A   1      35.339  21.472  24.596  1.00  0.00     0.014 A 
ATOM     36  C   UNL A   1      35.607  24.160  25.220  1.00  0.00     0.001 A 
ATOM     37  C   UNL A   1      36.354  22.223  23.999  1.00  0.00     0.001 A 
ATOM     38  C   UNL A   1      36.500  23.567  24.327  1.00  0.00     0.000 A 
ENDBRANCH  30  33
ENDBRANCH  28  29
ENDBRANCH   7  19
ENDBRANCH   4   7
ENDBRANCH   2   3
ENDBRANCH   1   2
BRANCH   1  39
ATOM     39  C   UNL A   1      35.108  29.716  27.826  1.00  0.00     0.118 C 
BRANCH  39  40
ATOM     40  N   UNL A   1      35.220  30.364  29.132  1.00  0.00    -0.352 N 
ATOM     41  C   UNL A   1      36.254  30.585  30.021  1.00  0.00     0.251 C 
ATOM     42  H   UNL A   1      34.362  30.727  29.451  1.00  0.00     0.163 HD
ATOM     43  O   UNL A   1      35.949  31.075  31.110  1.00  0.00    -0.269 OA
BRANCH  41  44
ATOM     44  C   UNL A   1      37.689  30.246  29.776  1.00  0.00     0.039 A 
ATOM     45  C   UNL A   1      38.168  30.319  28.459  1.00  0.00     0.014 A 
ATOM     46  C   UNL A   1      38.548  29.742  30.749  1.00  0.00     0.014 A 
ATOM     47  C   UNL A   1      39.485  29.946  28.142  1.00  0.00     0.010 A 
ATOM     48  C   UNL A   1      39.898  29.459  30.452  1.00  0.00     0.010 A 
ATOM     49  C   UNL A   1      40.387  29.533  29.137  1.00  0.00    -0.014 A 
BRANCH  49  50
ATOM     50  C   UNL A   1      41.789  29.136  28.774  1.00  0.00     0.031 A 
ATOM     51  C   UNL A   1      42.119  27.724  28.335  1.00  0.00     0.074 A 
ATOM     52  C   UNL A   1      42.787  30.048  28.801  1.00  0.00     0.049 A 
ATOM     53  N   UNL A   1      43.251  27.240  27.880  1.00  0.00    -0.248 NA
ATOM     54  C   UNL A   1      41.046  26.724  28.426  1.00  0.00     0.031 C 
ATOM     55  C   UNL A   1      42.650  31.435  29.251  1.00  0.00     0.029 A 
ATOM     56  N   UNL A   1      44.109  29.957  28.426  1.00  0.00    -0.354 N 
ATOM     57  C   UNL A   1      43.027  25.887  27.644  1.00  0.00     0.074 A 
ATOM     58  C   UNL A   1      41.669  25.614  28.057  1.00  0.00     0.031 C 
ATOM     59  C   UNL A   1      43.820  32.073  29.081  1.00  0.00     0.029 A 
ATOM     60  C   UNL A   1      44.805  31.140  28.539  1.00  0.00     0.049 A 
ATOM     61  H   UNL A   1      44.520  29.120  28.108  1.00  0.00     0.167 HD
ATOM     62  C   UNL A   1      43.855  24.955  27.104  1.00  0.00     0.037 A 
ATOM     63  C   UNL A   1      46.082  31.453  28.233  1.00  0.00     0.037 A 
ATOM     64  C   UNL A   1      45.203  25.215  26.671  1.00  0.00     0.049 A 
ATOM     65  C   UNL A   1      46.987  30.407  27.631  1.00  0.00     0.074 A 
ATOM     66  C   UNL A   1      46.091  24.348  26.055  1.00  0.00     0.029 A 
ATOM     67  N   UNL A   1      45.865  26.424  26.814  1.00  0.00    -0.354 N 
ATOM     68  N   UNL A   1      46.717  29.159  27.329  1.00  0.00    -0.248 NA
ATOM     69  C   UNL A   1      48.365  30.814  27.318  1.00  0.00     0.031 C 
ATOM     70  C   UNL A   1      47.305  25.018  25.870  1.00  0.00     0.029 A 
ATOM     71  C   UNL A   1      47.156  26.319  26.321  1.00  0.00     0.049 A 
ATOM     72  H   UNL A   1      45.475  27.238  27.208  1.00  0.00     0.167 HD
ATOM     73  C   UNL A   1      47.883  28.642  26.770  1.00  0.00     0.074 A 
ATOM     74  C   UNL A   1      48.854  29.715  26.760  1.00  0.00     0.031 C 
ATOM     75  C   UNL A   1      48.122  27.390  26.307  1.00  0.00     0.037 A 
BRANCH  62  76
ATOM     76  C   UNL A   1      43.318  23.556  26.939  1.00  0.00     0.058 A 
ATOM     77  C   UNL A   1      42.957  23.050  25.680  1.00  0.00     0.135 A 
ATOM     78  C   UNL A   1      43.203  22.695  28.044  1.00  0.00     0.135 A 
ATOM     79  F   UNL A   1      43.038  23.830  24.589  1.00  0.00    -0.206 F 
ATOM     80  C   UNL A   1      42.465  21.758  25.526  1.00  0.00     0.059 A 
ATOM     81  C   UNL A   1      42.741  21.388  27.909  1.00  0.00     0.059 A 
ATOM     82  F   UNL A   1      43.544  23.121  29.270  1.00  0.00    -0.206 F 
ATOM     83  C   UNL A   1      42.359  20.935  26.648  1.00  0.00     0.060 A 
BRANCH  83  84
ATOM     84  S   UNL A   1      41.718  19.261  26.429  1.00  0.00     0.124 S 
ATOM     85  O   UNL A   1      40.308  19.522  26.155  1.00  0.00    -0.237 OA
ATOM     86  O   UNL A   1      42.501  18.770  25.300  1.00  0.00    -0.237 OA
ATOM     87  O   UNL A   1      41.999  18.617  27.709  1.00  0.00    -0.744 OA
ENDBRANCH  83  84
ENDBRANCH  62  76
BRANCH  63  88
ATOM     88  C   UNL A   1      46.587  32.836  28.465  1.00  0.00     0.058 A 
ATOM     89  C   UNL A   1      47.145  33.210  29.696  1.00  0.00     0.135 A 
ATOM     90  C   UNL A   1      46.523  33.811  27.457  1.00  0.00     0.135 A 
ATOM     91  F   UNL A   1      47.219  32.320  30.698  1.00  0.00    -0.206 F 
ATOM     92  C   UNL A   1      47.610  34.502  29.926  1.00  0.00     0.059 A 
ATOM     93  C   UNL A   1      47.005  35.102  27.653  1.00  0.00     0.059 A 
ATOM     94  F   UNL A   1      46.010  33.503  26.254  1.00  0.00    -0.206 F 
ATOM     95  C   UNL A   1      47.540  35.441  28.896  1.00  0.00     0.060 A 
BRANCH  95  96
ATOM     96  S   UNL A   1      48.199  37.098  29.182  1.00  0.00     0.124 S 
ATOM     97  O   UNL A   1      48.107  37.206  30.633  1.00  0.00    -0.237 OA
ATOM     98  O   UNL A   1      49.546  36.990  28.632  1.00  0.00    -0.237 OA
ATOM     99  O   UNL A   1      47.290  37.954  28.425  1.00  0.00    -0.744 OA
ENDBRANCH  95  96
ENDBRANCH  63  88
BRANCH  75 100
ATOM    100  C   UNL A   1      49.479  27.106  25.719  1.00  0.00     0.058 A 
ATOM    101  C   UNL A   1      49.757  27.326  24.360  1.00  0.00     0.135 A 
ATOM    102  C   UNL A   1      50.531  26.661  26.536  1.00  0.00     0.135 A 
ATOM    103  F   UNL A   1      48.788  27.745  23.530  1.00  0.00    -0.206 F 
ATOM    104  C   UNL A   1      51.023  27.094  23.829  1.00  0.00     0.059 A 
ATOM    105  C   UNL A   1      51.812  26.450  26.033  1.00  0.00     0.059 A 
ATOM    106  F   UNL A   1      50.324  26.445  27.845  1.00  0.00    -0.206 F 
ATOM    107  C   UNL A   1      52.045  26.658  24.674  1.00  0.00     0.060 A 
BRANCH 107 108
ATOM    108  S   UNL A   1      53.691  26.394  23.980  1.00  0.00     0.124 S 
ATOM    109  O   UNL A   1      54.301  27.707  24.157  1.00  0.00    -0.237 OA
ATOM    110  O   UNL A   1      54.221  25.329  24.827  1.00  0.00    -0.237 OA
ATOM    111  O   UNL A   1      53.420  26.008  22.598  1.00  0.00    -0.744 OA
ENDBRANCH 107 108
ENDBRANCH  75 100
ENDBRANCH  49  50
ENDBRANCH  41  44
ENDBRANCH  39  40
ENDBRANCH   1  39
TORSDOF 18
ENDMDL
MODEL 3
REMARK VINA RESULT:     -12.4      3.171      8.207
REMARK SMILES NC(=O)[C@@H]1CCC[N@H+]1[C@H](C(=O)NCCCNC(=O)c1ccc(-c2c3nc(c(-c4c(F)cc(S(=O)(=O)[O-])cc4F)c4ccc([nH]4)c(-c4c(F)cc(S(=O)(=O)[O-])cc4F)c4nc(c(-c5c(F)cc(S(=O)(=O)[O-])cc5F)c5ccc2[nH]5)C=C4)C=C3)cc1)c1c[nH]c2cc(NC(=O)c3ccccc3)ccc12
REMARK SMILES IDX 14 1 13 2 12 3 10 4 11 5 9 7 8 8 4 9 5 10 6 11 7 12 2 14
REMARK SMILES IDX 1 15 3 18 85 19 86 20 102 21 87 22 88 23 101 24 89 26 100 27
REMARK SMILES IDX 90 28 91 29 92 30 93 32 94 33 95 34 99 35 96 36 98 37 97 38
REMARK SMILES IDX 15 39 16 40 17 41 18 43 19 44 20 45 84 46 21 47 83 48 22 49
REMARK SMILES IDX 23 50 24 51 77 52 25 53 82 54 76 55 78 56 26 57 81 58 75 59
REMARK SMILES IDX 74 60 27 62 61 63 40 64 60 65 41 66 44 67 59 68 79 69 42 70
REMARK SMILES IDX 43 71 58 73 80 74 45 75 28 76 29 77 38 78 30 79 31 80 37 81
REMARK SMILES IDX 39 82 32 83 33 84 34 85 35 86 36 87 62 88 63 89 72 90 64 91
REMARK SMILES IDX 65 92 71 93 73 94 66 95 67 96 68 97 69 98 70 99 46 100
REMARK SMILES IDX 47 101 56 102 48 103 49 104 55 105 57 106 50 107 51 108
REMARK SMILES IDX 52 109 53 110 54 111
REMARK H PARENT 12 6 8 13 1 16 1 17 87 25 91 31 16 42 78 61 44 72
REMARK Flexibility Score: inf
ROOT
ATOM      1  C   UNL A   1      35.535  23.717  24.089  1.00  0.00     0.042 C 
ENDROOT
BRANCH   1   2
ATOM      2  C   UNL A   1      34.128  24.341  23.916  1.00  0.00     0.118 C 
BRANCH   2   3
ATOM      3  N   UNL A   1      33.050  23.404  23.564  1.00  0.00    -0.351 N 
ATOM      4  C   UNL A   1      31.939  22.796  24.075  1.00  0.00     0.283 C 
ATOM      5  O   UNL A   1      31.282  22.339  23.117  1.00  0.00    -0.268 OA
ATOM      6  H   UNL A   1      33.173  23.111  22.633  1.00  0.00     0.163 HD
BRANCH   4   7
ATOM      7  C   UNL A   1      31.316  22.690  25.570  1.00  0.00     0.308 C 
BRANCH   7   8
ATOM      8  N   UNL A   1      32.155  21.739  26.370  1.00  0.00    -0.311 N 
ATOM      9  C   UNL A   1      33.203  20.944  25.677  1.00  0.00     0.275 C 
ATOM     10  C   UNL A   1      34.483  21.112  26.500  1.00  0.00     0.081 C 
ATOM     11  C   UNL A   1      34.224  22.329  27.361  1.00  0.00     0.068 C 
ATOM     12  C   UNL A   1      32.730  22.267  27.602  1.00  0.00     0.264 C 
ATOM     13  H   UNL A   1      31.397  21.090  26.586  1.00  0.00     0.349 HD
BRANCH   9  14
ATOM     14  C   UNL A   1      32.821  19.464  25.534  1.00  0.00     0.275 C 
ATOM     15  N   UNL A   1      32.894  18.750  26.695  1.00  0.00    -0.365 N 
ATOM     16  H   UNL A   1      32.667  17.791  26.698  1.00  0.00     0.159 HD
ATOM     17  H   UNL A   1      33.173  19.193  27.529  1.00  0.00     0.159 HD
ATOM     18  O   UNL A   1      32.417  18.926  24.502  1.00  0.00    -0.268 OA
ENDBRANCH   9  14
ENDBRANCH   7   8
BRANCH   7  19
ATOM     19  C   UNL A   1      31.039  24.016  26.330  1.00  0.00     0.044 A 
ATOM     20  C   UNL A   1      29.767  24.241  26.843  1.00  0.00     0.094 A 
ATOM     21  C   UNL A   1      31.389  25.340  25.921  1.00  0.00     0.009 A 
ATOM     22  N   UNL A   1      29.269  25.159  25.929  1.00  0.00    -0.361 N 
ATOM     23  C   UNL A   1      30.302  25.631  25.136  1.00  0.00     0.048 A 
ATOM     24  C   UNL A   1      32.189  26.460  26.195  1.00  0.00     0.013 A 
ATOM     25  H   UNL A   1      28.326  25.433  25.855  1.00  0.00     0.166 HD
ATOM     26  C   UNL A   1      30.422  26.416  23.994  1.00  0.00     0.052 A 
ATOM     27  C   UNL A   1      32.205  27.465  25.195  1.00  0.00     0.027 A 
ATOM     28  C   UNL A   1      31.488  27.304  23.997  1.00  0.00     0.043 A 
BRANCH  28  29
ATOM     29  N   UNL A   1      31.727  28.169  22.915  1.00  0.00    -0.322 N 
ATOM     30  C   UNL A   1      31.047  29.288  22.468  1.00  0.00     0.255 C 
ATOM     31  H   UNL A   1      32.519  27.936  22.379  1.00  0.00     0.170 HD
ATOM     32  O   UNL A   1      31.523  29.991  21.579  1.00  0.00    -0.269 OA
BRANCH  30  33
ATOM     33  C   UNL A   1      29.678  29.624  22.925  1.00  0.00     0.040 A 
ATOM     34  C   UNL A   1      28.610  28.773  22.624  1.00  0.00     0.014 A 
ATOM     35  C   UNL A   1      29.408  30.870  23.485  1.00  0.00     0.014 A 
ATOM     36  C   UNL A   1      27.306  29.130  22.990  1.00  0.00     0.001 A 
ATOM     37  C   UNL A   1      28.116  31.211  23.893  1.00  0.00     0.001 A 
ATOM     38  C   UNL A   1      27.066  30.329  23.662  1.00  0.00     0.000 A 
ENDBRANCH  30  33
ENDBRANCH  28  29
ENDBRANCH   7  19
ENDBRANCH   4   7
ENDBRANCH   2   3
ENDBRANCH   1   2
BRANCH   1  39
ATOM     39  C   UNL A   1      36.477  24.087  25.238  1.00  0.00     0.118 C 
BRANCH  39  40
ATOM     40  N   UNL A   1      37.563  23.123  25.407  1.00  0.00    -0.352 N 
ATOM     41  C   UNL A   1      38.815  23.163  25.990  1.00  0.00     0.251 C 
ATOM     42  H   UNL A   1      37.356  22.243  25.016  1.00  0.00     0.163 HD
ATOM     43  O   UNL A   1      39.528  22.170  25.836  1.00  0.00    -0.269 OA
BRANCH  41  44
ATOM     44  C   UNL A   1      39.374  24.321  26.752  1.00  0.00     0.039 A 
ATOM     45  C   UNL A   1      38.965  24.493  28.084  1.00  0.00     0.014 A 
ATOM     46  C   UNL A   1      40.177  25.310  26.190  1.00  0.00     0.014 A 
ATOM     47  C   UNL A   1      39.391  25.598  28.840  1.00  0.00     0.010 A 
ATOM     48  C   UNL A   1      40.685  26.368  26.975  1.00  0.00     0.010 A 
ATOM     49  C   UNL A   1      40.283  26.546  28.309  1.00  0.00    -0.014 A 
BRANCH  49  50
ATOM     50  C   UNL A   1      40.723  27.720  29.135  1.00  0.00     0.031 A 
ATOM     51  C   UNL A   1      39.825  28.924  29.333  1.00  0.00     0.074 A 
ATOM     52  C   UNL A   1      41.927  27.710  29.750  1.00  0.00     0.049 A 
ATOM     53  N   UNL A   1      40.001  29.973  30.103  1.00  0.00    -0.248 NA
ATOM     54  C   UNL A   1      38.575  28.964  28.562  1.00  0.00     0.031 C 
ATOM     55  C   UNL A   1      42.932  26.654  29.621  1.00  0.00     0.029 A 
ATOM     56  N   UNL A   1      42.506  28.605  30.624  1.00  0.00    -0.354 N 
ATOM     57  C   UNL A   1      38.895  30.793  29.900  1.00  0.00     0.074 A 
ATOM     58  C   UNL A   1      38.082  30.149  28.893  1.00  0.00     0.031 C 
ATOM     59  C   UNL A   1      43.976  26.935  30.419  1.00  0.00     0.029 A 
ATOM     60  C   UNL A   1      43.737  28.207  31.098  1.00  0.00     0.049 A 
ATOM     61  H   UNL A   1      42.079  29.454  30.884  1.00  0.00     0.167 HD
ATOM     62  C   UNL A   1      38.561  31.959  30.509  1.00  0.00     0.037 A 
ATOM     63  C   UNL A   1      44.576  28.782  31.985  1.00  0.00     0.037 A 
ATOM     64  C   UNL A   1      39.351  32.604  31.526  1.00  0.00     0.049 A 
ATOM     65  C   UNL A   1      44.186  30.075  32.655  1.00  0.00     0.074 A 
ATOM     66  C   UNL A   1      39.058  33.753  32.243  1.00  0.00     0.029 A 
ATOM     67  N   UNL A   1      40.590  32.168  31.965  1.00  0.00    -0.354 N 
ATOM     68  N   UNL A   1      43.089  30.779  32.514  1.00  0.00    -0.248 NA
ATOM     69  C   UNL A   1      45.145  30.647  33.614  1.00  0.00     0.031 C 
ATOM     70  C   UNL A   1      40.142  34.037  33.080  1.00  0.00     0.029 A 
ATOM     71  C   UNL A   1      41.086  33.037  32.925  1.00  0.00     0.049 A 
ATOM     72  H   UNL A   1      41.051  31.360  31.642  1.00  0.00     0.167 HD
ATOM     73  C   UNL A   1      43.215  31.860  33.382  1.00  0.00     0.074 A 
ATOM     74  C   UNL A   1      44.487  31.710  34.056  1.00  0.00     0.031 C 
ATOM     75  C   UNL A   1      42.352  32.883  33.599  1.00  0.00     0.037 A 
BRANCH  62  76
ATOM     76  C   UNL A   1      37.267  32.616  30.099  1.00  0.00     0.058 A 
ATOM     77  C   UNL A   1      36.045  32.273  30.700  1.00  0.00     0.135 A 
ATOM     78  C   UNL A   1      37.252  33.628  29.125  1.00  0.00     0.135 A 
ATOM     79  F   UNL A   1      35.997  31.307  31.631  1.00  0.00    -0.206 F 
ATOM     80  C   UNL A   1      34.851  32.881  30.325  1.00  0.00     0.059 A 
ATOM     81  C   UNL A   1      36.074  34.272  28.755  1.00  0.00     0.059 A 
ATOM     82  F   UNL A   1      38.392  34.005  28.525  1.00  0.00    -0.206 F 
ATOM     83  C   UNL A   1      34.876  33.879  29.349  1.00  0.00     0.060 A 
BRANCH  83  84
ATOM     84  S   UNL A   1      33.316  34.656  28.874  1.00  0.00     0.124 S 
ATOM     85  O   UNL A   1      33.782  35.903  28.275  1.00  0.00    -0.237 OA
ATOM     86  O   UNL A   1      32.750  33.682  27.947  1.00  0.00    -0.237 OA
ATOM     87  O   UNL A   1      32.605  34.797  30.142  1.00  0.00    -0.744 OA
ENDBRANCH  83  84
ENDBRANCH  62  76
BRANCH  63  88
ATOM     88  C   UNL A   1      45.871  28.124  32.320  1.00  0.00     0.058 A 
ATOM     89  C   UNL A   1      45.964  27.187  33.360  1.00  0.00     0.135 A 
ATOM     90  C   UNL A   1      47.041  28.418  31.602  1.00  0.00     0.135 A 
ATOM     91  F   UNL A   1      44.877  26.880  34.086  1.00  0.00    -0.206 F 
ATOM     92  C   UNL A   1      47.171  26.575  33.687  1.00  0.00     0.059 A 
ATOM     93  C   UNL A   1      48.254  27.800  31.893  1.00  0.00     0.059 A 
ATOM     94  F   UNL A   1      47.005  29.298  30.588  1.00  0.00    -0.206 F 
ATOM     95  C   UNL A   1      48.311  26.885  32.943  1.00  0.00     0.060 A 
BRANCH  95  96
ATOM     96  S   UNL A   1      49.860  26.043  33.334  1.00  0.00     0.124 S 
ATOM     97  O   UNL A   1      50.476  26.976  34.270  1.00  0.00    -0.237 OA
ATOM     98  O   UNL A   1      49.388  24.784  33.903  1.00  0.00    -0.237 OA
ATOM     99  O   UNL A   1      50.514  25.926  32.034  1.00  0.00    -0.744 OA
ENDBRANCH  95  96
ENDBRANCH  63  88
BRANCH  75 100
ATOM    100  C   UNL A   1      42.729  33.916  34.628  1.00  0.00     0.058 A 
ATOM    101  C   UNL A   1      42.413  33.756  35.988  1.00  0.00     0.135 A 
ATOM    102  C   UNL A   1      43.467  35.053  34.260  1.00  0.00     0.135 A 
ATOM    103  F   UNL A   1      41.704  32.691  36.396  1.00  0.00    -0.206 F 
ATOM    104  C   UNL A   1      42.795  34.697  36.939  1.00  0.00     0.059 A 
ATOM    105  C   UNL A   1      43.885  35.992  35.199  1.00  0.00     0.059 A 
ATOM    106  F   UNL A   1      43.807  35.251  32.976  1.00  0.00    -0.206 F 
ATOM    107  C   UNL A   1      43.533  35.811  36.536  1.00  0.00     0.060 A 
BRANCH 107 108
ATOM    108  S   UNL A   1      44.052  37.007  37.786  1.00  0.00     0.124 S 
ATOM    109  O   UNL A   1      44.067  38.248  37.018  1.00  0.00    -0.237 OA
ATOM    110  O   UNL A   1      42.994  36.894  38.786  1.00  0.00    -0.237 OA
ATOM    111  O   UNL A   1      45.359  36.513  38.208  1.00  0.00    -0.744 OA
ENDBRANCH 107 108
ENDBRANCH  75 100
ENDBRANCH  49  50
ENDBRANCH  41  44
ENDBRANCH  39  40
ENDBRANCH   1  39
TORSDOF 18
ENDMDL
