MODEL 1
REMARK VINA RESULT:     -10.6      0.000      0.000
REMARK SMILES COCCN(CC(=O)NCCCNC(=O)c1ccc(-c2c3nc(c(-c4c(F)cc(S(=O)(=O)[O-])cc4F)c4ccc([nH]4)c(-c4c(F)cc(S(=O)(=O)[O-])cc4F)c4nc(c(-c5c(F)cc(S(=O)(=O)[O-])cc5F)c5ccc2[nH]5)C=C4)C=C3)cc1)C(=O)N1CCC[C@@H]1C
REMARK SMILES IDX 10 1 9 2 7 3 8 4 6 6 5 7 4 8 3 9 2 10 1 11 82 12 83 13 84 14
REMARK SMILES IDX 85 15 88 16 86 17 87 18 89 19 11 20 12 21 13 22 14 23 15 25
REMARK SMILES IDX 16 26 17 27 81 28 18 29 80 30 19 31 20 32 21 33 74 34 22 35
REMARK SMILES IDX 79 36 73 37 75 38 23 39 78 40 72 41 71 42 24 44 58 45 37 46
REMARK SMILES IDX 57 47 38 48 41 49 56 50 76 51 39 52 40 53 55 55 77 56 42 57
REMARK SMILES IDX 25 58 26 59 35 60 27 61 28 62 34 63 36 64 29 65 30 66 31 67
REMARK SMILES IDX 32 68 33 69 59 70 60 71 69 72 61 73 62 74 68 75 70 76 63 77
REMARK SMILES IDX 64 78 65 79 66 80 67 81 43 82 44 83 53 84 45 85 46 86 52 87
REMARK SMILES IDX 54 88 47 89 48 90 49 91 50 92 51 93
REMARK H PARENT 9 5 13 24 75 43 41 54
REMARK Flexibility Score: inf
ROOT
ATOM      1  C   UNL A   1      37.102  22.075  25.689  1.00  0.00     0.117 C 
ENDROOT
BRANCH   1   2
ATOM      2  N   UNL A   1      35.913  21.923  26.498  1.00  0.00    -0.354 N 
ATOM      3  C   UNL A   1      34.631  21.665  26.117  1.00  0.00     0.239 C 
ATOM      4  O   UNL A   1      33.911  21.112  26.958  1.00  0.00    -0.273 OA
ATOM      5  H   UNL A   1      36.050  22.021  27.469  1.00  0.00     0.163 HD
BRANCH   3   6
ATOM      6  C   UNL A   1      34.116  21.880  24.680  1.00  0.00     0.221 C 
BRANCH   6   7
ATOM      7  N   UNL A   1      32.714  21.555  24.403  1.00  0.00    -0.313 N 
BRANCH   7   8
ATOM      8  C   UNL A   1      32.447  20.277  23.711  1.00  0.00     0.150 C 
BRANCH   8   9
ATOM      9  C   UNL A   1      33.055  19.032  24.387  1.00  0.00     0.181 C 
BRANCH   9  10
ATOM     10  O   UNL A   1      32.061  18.118  24.836  1.00  0.00    -0.383 OA
ATOM     11  C   UNL A   1      32.561  17.091  25.677  1.00  0.00     0.194 C 
ENDBRANCH   9  10
ENDBRANCH   8   9
ENDBRANCH   7   8
BRANCH   7  12
ATOM     12  C   UNL A   1      31.618  22.189  24.972  1.00  0.00     0.320 C 
ATOM     13  O   UNL A   1      31.001  21.688  25.913  1.00  0.00    -0.248 OA
BRANCH  12  14
ATOM     14  N   UNL A   1      31.327  23.476  24.588  1.00  0.00    -0.322 N 
ATOM     15  C   UNL A   1      31.536  23.843  23.201  1.00  0.00     0.122 C 
ATOM     16  C   UNL A   1      31.398  24.681  25.420  1.00  0.00     0.083 C 
ATOM     17  C   UNL A   1      30.905  25.215  23.106  1.00  0.00     0.024 C 
ATOM     18  C   UNL A   1      31.315  25.857  24.425  1.00  0.00     0.027 C 
ATOM     19  C   UNL A   1      32.688  24.759  26.233  1.00  0.00     0.031 C 
ENDBRANCH  12  14
ENDBRANCH   7  12
ENDBRANCH   6   7
ENDBRANCH   3   6
ENDBRANCH   1   2
BRANCH   1  20
ATOM     20  C   UNL A   1      37.519  23.519  25.440  1.00  0.00     0.042 C 
BRANCH  20  21
ATOM     21  C   UNL A   1      38.434  24.112  26.507  1.00  0.00     0.118 C 
BRANCH  21  22
ATOM     22  N   UNL A   1      39.846  24.003  26.167  1.00  0.00    -0.352 N 
ATOM     23  C   UNL A   1      40.919  24.778  26.522  1.00  0.00     0.251 C 
ATOM     24  H   UNL A   1      40.067  23.242  25.583  1.00  0.00     0.163 HD
ATOM     25  O   UNL A   1      41.994  24.600  25.940  1.00  0.00    -0.269 OA
BRANCH  23  26
ATOM     26  C   UNL A   1      40.815  25.818  27.567  1.00  0.00     0.039 A 
ATOM     27  C   UNL A   1      39.803  25.707  28.528  1.00  0.00     0.014 A 
ATOM     28  C   UNL A   1      41.659  26.932  27.580  1.00  0.00     0.014 A 
ATOM     29  C   UNL A   1      39.678  26.675  29.528  1.00  0.00     0.010 A 
ATOM     30  C   UNL A   1      41.581  27.856  28.620  1.00  0.00     0.010 A 
ATOM     31  C   UNL A   1      40.587  27.743  29.602  1.00  0.00    -0.014 A 
BRANCH  31  32
ATOM     32  C   UNL A   1      40.515  28.743  30.698  1.00  0.00     0.031 A 
ATOM     33  C   UNL A   1      41.376  28.595  31.923  1.00  0.00     0.074 A 
ATOM     34  C   UNL A   1      39.617  29.745  30.624  1.00  0.00     0.049 A 
ATOM     35  N   UNL A   1      41.398  29.319  33.013  1.00  0.00    -0.248 NA
ATOM     36  C   UNL A   1      42.319  27.464  31.937  1.00  0.00     0.031 C 
ATOM     37  C   UNL A   1      38.683  29.961  29.517  1.00  0.00     0.029 A 
ATOM     38  N   UNL A   1      39.326  30.757  31.505  1.00  0.00    -0.354 N 
ATOM     39  C   UNL A   1      42.334  28.723  33.849  1.00  0.00     0.074 A 
ATOM     40  C   UNL A   1      42.827  27.551  33.159  1.00  0.00     0.031 C 
ATOM     41  C   UNL A   1      37.930  31.040  29.781  1.00  0.00     0.029 A 
ATOM     42  C   UNL A   1      38.299  31.572  31.090  1.00  0.00     0.049 A 
ATOM     43  H   UNL A   1      39.807  30.887  32.354  1.00  0.00     0.167 HD
ATOM     44  C   UNL A   1      42.757  29.125  35.072  1.00  0.00     0.037 A 
ATOM     45  C   UNL A   1      37.711  32.621  31.697  1.00  0.00     0.037 A 
ATOM     46  C   UNL A   1      42.280  30.307  35.742  1.00  0.00     0.049 A 
ATOM     47  C   UNL A   1      38.212  33.065  33.042  1.00  0.00     0.074 A 
ATOM     48  C   UNL A   1      42.699  30.843  36.947  1.00  0.00     0.029 A 
ATOM     49  N   UNL A   1      41.270  31.134  35.268  1.00  0.00    -0.354 N 
ATOM     50  N   UNL A   1      39.157  32.537  33.784  1.00  0.00    -0.248 NA
ATOM     51  C   UNL A   1      37.579  34.253  33.630  1.00  0.00     0.031 C 
ATOM     52  C   UNL A   1      41.914  31.969  37.223  1.00  0.00     0.029 A 
ATOM     53  C   UNL A   1      41.038  32.162  36.166  1.00  0.00     0.049 A 
ATOM     54  H   UNL A   1      40.790  31.007  34.417  1.00  0.00     0.167 HD
ATOM     55  C   UNL A   1      39.243  33.338  34.917  1.00  0.00     0.074 A 
ATOM     56  C   UNL A   1      38.266  34.394  34.756  1.00  0.00     0.031 C 
ATOM     57  C   UNL A   1      40.060  33.209  35.992  1.00  0.00     0.037 A 
BRANCH  44  58
ATOM     58  C   UNL A   1      43.788  28.273  35.765  1.00  0.00     0.058 A 
ATOM     59  C   UNL A   1      43.424  27.249  36.654  1.00  0.00     0.135 A 
ATOM     60  C   UNL A   1      45.157  28.475  35.527  1.00  0.00     0.135 A 
ATOM     61  F   UNL A   1      42.130  27.018  36.927  1.00  0.00    -0.206 F 
ATOM     62  C   UNL A   1      44.380  26.485  37.316  1.00  0.00     0.059 A 
ATOM     63  C   UNL A   1      46.130  27.703  36.157  1.00  0.00     0.059 A 
ATOM     64  F   UNL A   1      45.563  29.436  34.683  1.00  0.00    -0.206 F 
ATOM     65  C   UNL A   1      45.732  26.724  37.066  1.00  0.00     0.060 A 
BRANCH  65  66
ATOM     66  S   UNL A   1      46.961  25.742  37.949  1.00  0.00     0.124 S 
ATOM     67  O   UNL A   1      46.946  24.500  37.183  1.00  0.00    -0.237 OA
ATOM     68  O   UNL A   1      48.167  26.552  37.815  1.00  0.00    -0.237 OA
ATOM     69  O   UNL A   1      46.418  25.653  39.301  1.00  0.00    -0.744 OA
ENDBRANCH  65  66
ENDBRANCH  44  58
BRANCH  45  70
ATOM     70  C   UNL A   1      36.592  33.326  31.019  1.00  0.00     0.058 A 
ATOM     71  C   UNL A   1      36.822  34.140  29.902  1.00  0.00     0.135 A 
ATOM     72  C   UNL A   1      35.265  33.165  31.450  1.00  0.00     0.135 A 
ATOM     73  F   UNL A   1      38.074  34.330  29.457  1.00  0.00    -0.206 F 
ATOM     74  C   UNL A   1      35.779  34.776  29.236  1.00  0.00     0.059 A 
ATOM     75  C   UNL A   1      34.202  33.771  30.786  1.00  0.00     0.059 A 
ATOM     76  F   UNL A   1      34.991  32.383  32.506  1.00  0.00    -0.206 F 
ATOM     77  C   UNL A   1      34.471  34.580  29.683  1.00  0.00     0.060 A 
BRANCH  77  78
ATOM     78  S   UNL A   1      33.118  35.352  28.767  1.00  0.00     0.124 S 
ATOM     79  O   UNL A   1      32.553  34.209  28.059  1.00  0.00    -0.237 OA
ATOM     80  O   UNL A   1      32.298  35.906  29.841  1.00  0.00    -0.237 OA
ATOM     81  O   UNL A   1      33.797  36.340  27.936  1.00  0.00    -0.744 OA
ENDBRANCH  77  78
ENDBRANCH  45  70
BRANCH  57  82
ATOM     82  C   UNL A   1      39.950  34.250  37.072  1.00  0.00     0.058 A 
ATOM     83  C   UNL A   1      40.580  35.499  36.959  1.00  0.00     0.135 A 
ATOM     84  C   UNL A   1      39.162  34.013  38.209  1.00  0.00     0.135 A 
ATOM     85  F   UNL A   1      41.350  35.774  35.895  1.00  0.00    -0.206 F 
ATOM     86  C   UNL A   1      40.449  36.471  37.947  1.00  0.00     0.059 A 
ATOM     87  C   UNL A   1      38.996  34.980  39.197  1.00  0.00     0.059 A 
ATOM     88  F   UNL A   1      38.530  32.838  38.363  1.00  0.00    -0.206 F 
ATOM     89  C   UNL A   1      39.653  36.201  39.062  1.00  0.00     0.060 A 
BRANCH  89  90
ATOM     90  S   UNL A   1      39.461  37.483  40.319  1.00  0.00     0.124 S 
ATOM     91  O   UNL A   1      38.771  36.755  41.379  1.00  0.00    -0.237 OA
ATOM     92  O   UNL A   1      40.844  37.856  40.602  1.00  0.00    -0.237 OA
ATOM     93  O   UNL A   1      38.670  38.507  39.643  1.00  0.00    -0.744 OA
ENDBRANCH  89  90
ENDBRANCH  57  82
ENDBRANCH  31  32
ENDBRANCH  23  26
ENDBRANCH  21  22
ENDBRANCH  20  21
ENDBRANCH   1  20
TORSDOF 19
ENDMDL
MODEL 2
REMARK VINA RESULT:     -10.3      1.182      2.220
REMARK SMILES COCCN(CC(=O)NCCCNC(=O)c1ccc(-c2c3nc(c(-c4c(F)cc(S(=O)(=O)[O-])cc4F)c4ccc([nH]4)c(-c4c(F)cc(S(=O)(=O)[O-])cc4F)c4nc(c(-c5c(F)cc(S(=O)(=O)[O-])cc5F)c5ccc2[nH]5)C=C4)C=C3)cc1)C(=O)N1CCC[C@@H]1C
REMARK SMILES IDX 10 1 9 2 7 3 8 4 6 6 5 7 4 8 3 9 2 10 1 11 82 12 83 13 84 14
REMARK SMILES IDX 85 15 88 16 86 17 87 18 89 19 11 20 12 21 13 22 14 23 15 25
REMARK SMILES IDX 16 26 17 27 81 28 18 29 80 30 19 31 20 32 21 33 74 34 22 35
REMARK SMILES IDX 79 36 73 37 75 38 23 39 78 40 72 41 71 42 24 44 58 45 37 46
REMARK SMILES IDX 57 47 38 48 41 49 56 50 76 51 39 52 40 53 55 55 77 56 42 57
REMARK SMILES IDX 25 58 26 59 35 60 27 61 28 62 34 63 36 64 29 65 30 66 31 67
REMARK SMILES IDX 32 68 33 69 59 70 60 71 69 72 61 73 62 74 68 75 70 76 63 77
REMARK SMILES IDX 64 78 65 79 66 80 67 81 43 82 44 83 53 84 45 85 46 86 52 87
REMARK SMILES IDX 54 88 47 89 48 90 49 91 50 92 51 93
REMARK H PARENT 9 5 13 24 75 43 41 54
REMARK Flexibility Score: inf
ROOT
ATOM      1  C   UNL A   1      36.834  22.234  25.574  1.00  0.00     0.117 C 
ENDROOT
BRANCH   1   2
ATOM      2  N   UNL A   1      35.798  22.132  26.577  1.00  0.00    -0.354 N 
ATOM      3  C   UNL A   1      34.445  22.217  26.439  1.00  0.00     0.239 C 
ATOM      4  O   UNL A   1      33.771  21.636  27.298  1.00  0.00    -0.273 OA
ATOM      5  H   UNL A   1      36.117  21.979  27.496  1.00  0.00     0.163 HD
BRANCH   3   6
ATOM      6  C   UNL A   1      33.758  22.848  25.212  1.00  0.00     0.221 C 
BRANCH   6   7
ATOM      7  N   UNL A   1      33.016  24.096  25.414  1.00  0.00    -0.313 N 
BRANCH   7   8
ATOM      8  C   UNL A   1      31.640  23.980  25.940  1.00  0.00     0.150 C 
BRANCH   8   9
ATOM      9  C   UNL A   1      30.794  22.859  25.305  1.00  0.00     0.181 C 
BRANCH   9  10
ATOM     10  O   UNL A   1      30.182  22.022  26.280  1.00  0.00    -0.383 OA
ATOM     11  C   UNL A   1      29.457  22.729  27.273  1.00  0.00     0.194 C 
ENDBRANCH   9  10
ENDBRANCH   8   9
ENDBRANCH   7   8
BRANCH   7  12
ATOM     12  C   UNL A   1      33.576  25.367  25.425  1.00  0.00     0.320 C 
ATOM     13  O   UNL A   1      34.775  25.541  25.647  1.00  0.00    -0.248 OA
BRANCH  12  14
ATOM     14  N   UNL A   1      32.809  26.429  25.009  1.00  0.00    -0.322 N 
ATOM     15  C   UNL A   1      33.021  26.948  23.673  1.00  0.00     0.122 C 
ATOM     16  C   UNL A   1      32.236  27.484  25.850  1.00  0.00     0.083 C 
ATOM     17  C   UNL A   1      31.876  27.920  23.491  1.00  0.00     0.024 C 
ATOM     18  C   UNL A   1      31.785  28.579  24.861  1.00  0.00     0.027 C 
ATOM     19  C   UNL A   1      33.241  28.049  26.850  1.00  0.00     0.031 C 
ENDBRANCH  12  14
ENDBRANCH   7  12
ENDBRANCH   6   7
ENDBRANCH   3   6
ENDBRANCH   1   2
BRANCH   1  20
ATOM     20  C   UNL A   1      37.390  23.638  25.377  1.00  0.00     0.042 C 
BRANCH  20  21
ATOM     21  C   UNL A   1      38.289  24.134  26.506  1.00  0.00     0.118 C 
BRANCH  21  22
ATOM     22  N   UNL A   1      39.706  23.956  26.222  1.00  0.00    -0.352 N 
ATOM     23  C   UNL A   1      40.798  24.690  26.601  1.00  0.00     0.251 C 
ATOM     24  H   UNL A   1      39.914  23.174  25.662  1.00  0.00     0.163 HD
ATOM     25  O   UNL A   1      41.885  24.453  26.065  1.00  0.00    -0.269 OA
BRANCH  23  26
ATOM     26  C   UNL A   1      40.702  25.756  27.622  1.00  0.00     0.039 A 
ATOM     27  C   UNL A   1      39.696  25.670  28.591  1.00  0.00     0.014 A 
ATOM     28  C   UNL A   1      41.548  26.868  27.602  1.00  0.00     0.014 A 
ATOM     29  C   UNL A   1      39.578  26.663  29.568  1.00  0.00     0.010 A 
ATOM     30  C   UNL A   1      41.479  27.817  28.619  1.00  0.00     0.010 A 
ATOM     31  C   UNL A   1      40.489  27.730  29.610  1.00  0.00    -0.014 A 
BRANCH  31  32
ATOM     32  C   UNL A   1      40.426  28.757  30.682  1.00  0.00     0.031 A 
ATOM     33  C   UNL A   1      41.302  28.644  31.900  1.00  0.00     0.074 A 
ATOM     34  C   UNL A   1      39.522  29.753  30.593  1.00  0.00     0.049 A 
ATOM     35  N   UNL A   1      41.333  29.395  32.970  1.00  0.00    -0.248 NA
ATOM     36  C   UNL A   1      42.251  27.518  31.930  1.00  0.00     0.031 C 
ATOM     37  C   UNL A   1      38.574  29.937  29.493  1.00  0.00     0.029 A 
ATOM     38  N   UNL A   1      39.236  30.785  31.453  1.00  0.00    -0.354 N 
ATOM     39  C   UNL A   1      42.283  28.825  33.809  1.00  0.00     0.074 A 
ATOM     40  C   UNL A   1      42.773  27.638  33.142  1.00  0.00     0.031 C 
ATOM     41  C   UNL A   1      37.818  31.018  29.739  1.00  0.00     0.029 A 
ATOM     42  C   UNL A   1      38.201  31.584  31.030  1.00  0.00     0.049 A 
ATOM     43  H   UNL A   1      39.727  30.938  32.292  1.00  0.00     0.167 HD
ATOM     44  C   UNL A   1      42.719  29.259  35.017  1.00  0.00     0.037 A 
ATOM     45  C   UNL A   1      37.614  32.645  31.618  1.00  0.00     0.037 A 
ATOM     46  C   UNL A   1      42.243  30.455  35.663  1.00  0.00     0.049 A 
ATOM     47  C   UNL A   1      38.129  33.125  32.945  1.00  0.00     0.074 A 
ATOM     48  C   UNL A   1      42.675  31.023  36.849  1.00  0.00     0.029 A 
ATOM     49  N   UNL A   1      41.224  31.265  35.181  1.00  0.00    -0.354 N 
ATOM     50  N   UNL A   1      39.085  32.620  33.689  1.00  0.00    -0.248 NA
ATOM     51  C   UNL A   1      37.497  34.324  33.511  1.00  0.00     0.031 C 
ATOM     52  C   UNL A   1      41.887  32.151  37.106  1.00  0.00     0.029 A 
ATOM     53  C   UNL A   1      40.998  32.314  36.056  1.00  0.00     0.049 A 
ATOM     54  H   UNL A   1      40.734  31.115  34.340  1.00  0.00     0.167 HD
ATOM     55  C   UNL A   1      39.181  33.449  34.800  1.00  0.00     0.074 A 
ATOM     56  C   UNL A   1      38.197  34.497  34.624  1.00  0.00     0.031 C 
ATOM     57  C   UNL A   1      40.012  33.351  35.868  1.00  0.00     0.037 A 
BRANCH  44  58
ATOM     58  C   UNL A   1      43.762  28.430  35.718  1.00  0.00     0.058 A 
ATOM     59  C   UNL A   1      45.134  28.618  35.487  1.00  0.00     0.135 A 
ATOM     60  C   UNL A   1      43.385  27.442  36.643  1.00  0.00     0.135 A 
ATOM     61  F   UNL A   1      45.551  29.541  34.606  1.00  0.00    -0.206 F 
ATOM     62  C   UNL A   1      46.093  27.828  36.113  1.00  0.00     0.059 A 
ATOM     63  C   UNL A   1      44.329  26.659  37.302  1.00  0.00     0.059 A 
ATOM     64  F   UNL A   1      42.088  27.221  36.906  1.00  0.00    -0.206 F 
ATOM     65  C   UNL A   1      45.681  26.846  37.015  1.00  0.00     0.060 A 
BRANCH  65  66
ATOM     66  S   UNL A   1      46.934  25.813  37.802  1.00  0.00     0.124 S 
ATOM     67  O   UNL A   1      46.264  24.517  37.836  1.00  0.00    -0.237 OA
ATOM     68  O   UNL A   1      48.057  25.920  36.875  1.00  0.00    -0.237 OA
ATOM     69  O   UNL A   1      47.135  26.451  39.099  1.00  0.00    -0.744 OA
ENDBRANCH  65  66
ENDBRANCH  44  58
BRANCH  45  70
ATOM     70  C   UNL A   1      36.483  33.328  30.937  1.00  0.00     0.058 A 
ATOM     71  C   UNL A   1      35.169  33.190  31.402  1.00  0.00     0.135 A 
ATOM     72  C   UNL A   1      36.702  34.169  29.833  1.00  0.00     0.135 A 
ATOM     73  F   UNL A   1      34.909  32.392  32.450  1.00  0.00    -0.206 F 
ATOM     74  C   UNL A   1      34.107  33.854  30.797  1.00  0.00     0.059 A 
ATOM     75  C   UNL A   1      35.660  34.863  29.225  1.00  0.00     0.059 A 
ATOM     76  F   UNL A   1      37.945  34.347  29.360  1.00  0.00    -0.206 F 
ATOM     77  C   UNL A   1      34.364  34.694  29.712  1.00  0.00     0.060 A 
BRANCH  77  78
ATOM     78  S   UNL A   1      32.989  35.607  28.979  1.00  0.00     0.124 S 
ATOM     79  O   UNL A   1      32.364  34.582  28.151  1.00  0.00    -0.237 OA
ATOM     80  O   UNL A   1      32.233  36.023  30.158  1.00  0.00    -0.237 OA
ATOM     81  O   UNL A   1      33.650  36.688  28.257  1.00  0.00    -0.744 OA
ENDBRANCH  77  78
ENDBRANCH  45  70
BRANCH  57  82
ATOM     82  C   UNL A   1      39.910  34.419  36.923  1.00  0.00     0.058 A 
ATOM     83  C   UNL A   1      39.022  34.305  38.004  1.00  0.00     0.135 A 
ATOM     84  C   UNL A   1      40.749  35.543  36.879  1.00  0.00     0.135 A 
ATOM     85  F   UNL A   1      38.193  33.253  38.090  1.00  0.00    -0.206 F 
ATOM     86  C   UNL A   1      38.954  35.281  38.994  1.00  0.00     0.059 A 
ATOM     87  C   UNL A   1      40.716  36.519  37.871  1.00  0.00     0.059 A 
ATOM     88  F   UNL A   1      41.623  35.696  35.871  1.00  0.00    -0.206 F 
ATOM     89  C   UNL A   1      39.808  36.383  38.919  1.00  0.00     0.060 A 
BRANCH  89  90
ATOM     90  S   UNL A   1      39.736  37.624  40.229  1.00  0.00     0.124 S 
ATOM     91  O   UNL A   1      38.346  38.059  40.147  1.00  0.00    -0.237 OA
ATOM     92  O   UNL A   1      40.090  36.850  41.415  1.00  0.00    -0.237 OA
ATOM     93  O   UNL A   1      40.729  38.612  39.816  1.00  0.00    -0.744 OA
ENDBRANCH  89  90
ENDBRANCH  57  82
ENDBRANCH  31  32
ENDBRANCH  23  26
ENDBRANCH  21  22
ENDBRANCH  20  21
ENDBRANCH   1  20
TORSDOF 19
ENDMDL
MODEL 3
REMARK VINA RESULT:     -10.3      5.662     11.834
REMARK SMILES COCCN(CC(=O)NCCCNC(=O)c1ccc(-c2c3nc(c(-c4c(F)cc(S(=O)(=O)[O-])cc4F)c4ccc([nH]4)c(-c4c(F)cc(S(=O)(=O)[O-])cc4F)c4nc(c(-c5c(F)cc(S(=O)(=O)[O-])cc5F)c5ccc2[nH]5)C=C4)C=C3)cc1)C(=O)N1CCC[C@@H]1C
REMARK SMILES IDX 10 1 9 2 7 3 8 4 6 6 5 7 4 8 3 9 2 10 1 11 82 12 83 13 84 14
REMARK SMILES IDX 85 15 88 16 86 17 87 18 89 19 11 20 12 21 13 22 14 23 15 25
REMARK SMILES IDX 16 26 17 27 81 28 18 29 80 30 19 31 20 32 21 33 74 34 22 35
REMARK SMILES IDX 79 36 73 37 75 38 23 39 78 40 72 41 71 42 24 44 58 45 37 46
REMARK SMILES IDX 57 47 38 48 41 49 56 50 76 51 39 52 40 53 55 55 77 56 42 57
REMARK SMILES IDX 25 58 26 59 35 60 27 61 28 62 34 63 36 64 29 65 30 66 31 67
REMARK SMILES IDX 32 68 33 69 59 70 60 71 69 72 61 73 62 74 68 75 70 76 63 77
REMARK SMILES IDX 64 78 65 79 66 80 67 81 43 82 44 83 53 84 45 85 46 86 52 87
REMARK SMILES IDX 54 88 47 89 48 90 49 91 50 92 51 93
REMARK H PARENT 9 5 13 24 75 43 41 54
REMARK Flexibility Score: inf
ROOT
ATOM      1  C   UNL A   1      34.847  34.023  30.347  1.00  0.00     0.117 C 
ENDROOT
BRANCH   1   2
ATOM      2  N   UNL A   1      34.115  33.648  31.537  1.00  0.00    -0.354 N 
ATOM      3  C   UNL A   1      34.553  33.013  32.660  1.00  0.00     0.239 C 
ATOM      4  O   UNL A   1      33.911  33.230  33.695  1.00  0.00    -0.273 OA
ATOM      5  H   UNL A   1      33.160  33.887  31.535  1.00  0.00     0.163 HD
BRANCH   3   6
ATOM      6  C   UNL A   1      35.860  32.198  32.716  1.00  0.00     0.221 C 
BRANCH   6   7
ATOM      7  N   UNL A   1      36.868  32.594  33.703  1.00  0.00    -0.313 N 
BRANCH   7   8
ATOM      8  C   UNL A   1      37.615  31.507  34.369  1.00  0.00     0.150 C 
BRANCH   8   9
ATOM      9  C   UNL A   1      38.023  30.339  33.449  1.00  0.00     0.181 C 
BRANCH   9  10
ATOM     10  O   UNL A   1      39.379  30.427  33.028  1.00  0.00    -0.383 OA
ATOM     11  C   UNL A   1      40.175  29.317  33.412  1.00  0.00     0.194 C 
ENDBRANCH   9  10
ENDBRANCH   8   9
ENDBRANCH   7   8
BRANCH   7  12
ATOM     12  C   UNL A   1      37.374  33.877  33.860  1.00  0.00     0.320 C 
ATOM     13  O   UNL A   1      36.693  34.783  34.343  1.00  0.00    -0.248 OA
BRANCH  12  14
ATOM     14  N   UNL A   1      38.712  34.091  33.631  1.00  0.00    -0.322 N 
ATOM     15  C   UNL A   1      39.406  35.053  34.464  1.00  0.00     0.122 C 
ATOM     16  C   UNL A   1      39.419  33.962  32.354  1.00  0.00     0.083 C 
ATOM     17  C   UNL A   1      40.858  34.852  34.091  1.00  0.00     0.024 C 
ATOM     18  C   UNL A   1      40.784  34.642  32.585  1.00  0.00     0.027 C 
ATOM     19  C   UNL A   1      38.677  34.633  31.201  1.00  0.00     0.031 C 
ENDBRANCH  12  14
ENDBRANCH   7  12
ENDBRANCH   6   7
ENDBRANCH   3   6
ENDBRANCH   1   2
BRANCH   1  20
ATOM     20  C   UNL A   1      35.480  32.857  29.598  1.00  0.00     0.042 C 
BRANCH  20  21
ATOM     21  C   UNL A   1      34.896  32.594  28.214  1.00  0.00     0.118 C 
BRANCH  21  22
ATOM     22  N   UNL A   1      34.198  31.318  28.127  1.00  0.00    -0.352 N 
ATOM     23  C   UNL A   1      34.673  30.037  28.045  1.00  0.00     0.251 C 
ATOM     24  H   UNL A   1      33.216  31.391  28.126  1.00  0.00     0.163 HD
ATOM     25  O   UNL A   1      33.881  29.129  27.776  1.00  0.00    -0.269 OA
BRANCH  23  26
ATOM     26  C   UNL A   1      36.102  29.722  28.261  1.00  0.00     0.039 A 
ATOM     27  C   UNL A   1      36.982  29.818  27.176  1.00  0.00     0.014 A 
ATOM     28  C   UNL A   1      36.576  29.277  29.497  1.00  0.00     0.014 A 
ATOM     29  C   UNL A   1      38.338  29.526  27.347  1.00  0.00     0.010 A 
ATOM     30  C   UNL A   1      37.940  29.059  29.686  1.00  0.00     0.010 A 
ATOM     31  C   UNL A   1      38.835  29.174  28.612  1.00  0.00    -0.014 A 
BRANCH  31  32
ATOM     32  C   UNL A   1      40.285  28.929  28.832  1.00  0.00     0.031 A 
ATOM     33  C   UNL A   1      40.895  27.599  28.479  1.00  0.00     0.074 A 
ATOM     34  C   UNL A   1      41.036  29.880  29.420  1.00  0.00     0.049 A 
ATOM     35  N   UNL A   1      42.117  27.173  28.669  1.00  0.00    -0.248 NA
ATOM     36  C   UNL A   1      40.004  26.606  27.857  1.00  0.00     0.031 C 
ATOM     37  C   UNL A   1      40.548  31.187  29.864  1.00  0.00     0.029 A 
ATOM     38  N   UNL A   1      42.365  29.887  29.768  1.00  0.00    -0.354 N 
ATOM     39  C   UNL A   1      42.139  25.861  28.213  1.00  0.00     0.074 A 
ATOM     40  C   UNL A   1      40.795  25.546  27.778  1.00  0.00     0.031 C 
ATOM     41  C   UNL A   1      41.562  31.871  30.417  1.00  0.00     0.029 A 
ATOM     42  C   UNL A   1      42.763  31.041  30.400  1.00  0.00     0.049 A 
ATOM     43  H   UNL A   1      42.974  29.137  29.581  1.00  0.00     0.167 HD
ATOM     44  C   UNL A   1      43.186  25.002  28.146  1.00  0.00     0.037 A 
ATOM     45  C   UNL A   1      43.956  31.388  30.922  1.00  0.00     0.037 A 
ATOM     46  C   UNL A   1      44.525  25.332  28.558  1.00  0.00     0.049 A 
ATOM     47  C   UNL A   1      45.110  30.432  30.815  1.00  0.00     0.074 A 
ATOM     48  C   UNL A   1      45.671  24.562  28.460  1.00  0.00     0.029 A 
ATOM     49  N   UNL A   1      44.900  26.529  29.153  1.00  0.00    -0.354 N 
ATOM     50  N   UNL A   1      45.132  29.223  30.306  1.00  0.00    -0.248 NA
ATOM     51  C   UNL A   1      46.403  30.886  31.341  1.00  0.00     0.031 C 
ATOM     52  C   UNL A   1      46.729  25.275  29.036  1.00  0.00     0.029 A 
ATOM     53  C   UNL A   1      46.253  26.509  29.448  1.00  0.00     0.049 A 
ATOM     54  H   UNL A   1      44.292  27.282  29.339  1.00  0.00     0.167 HD
ATOM     55  C   UNL A   1      46.444  28.780  30.434  1.00  0.00     0.074 A 
ATOM     56  C   UNL A   1      47.188  29.856  31.055  1.00  0.00     0.031 C 
ATOM     57  C   UNL A   1      46.982  27.590  30.068  1.00  0.00     0.037 A 
BRANCH  44  58
ATOM     58  C   UNL A   1      42.918  23.621  27.610  1.00  0.00     0.058 A 
ATOM     59  C   UNL A   1      42.519  22.567  28.448  1.00  0.00     0.135 A 
ATOM     60  C   UNL A   1      43.050  23.351  26.238  1.00  0.00     0.135 A 
ATOM     61  F   UNL A   1      42.386  22.766  29.768  1.00  0.00    -0.206 F 
ATOM     62  C   UNL A   1      42.303  21.285  27.952  1.00  0.00     0.059 A 
ATOM     63  C   UNL A   1      42.812  22.081  25.717  1.00  0.00     0.059 A 
ATOM     64  F   UNL A   1      43.425  24.320  25.390  1.00  0.00    -0.206 F 
ATOM     65  C   UNL A   1      42.459  21.050  26.585  1.00  0.00     0.060 A 
BRANCH  65  66
ATOM     66  S   UNL A   1      42.198  19.377  25.961  1.00  0.00     0.124 S 
ATOM     67  O   UNL A   1      42.706  18.572  27.068  1.00  0.00    -0.237 OA
ATOM     68  O   UNL A   1      40.753  19.337  25.761  1.00  0.00    -0.237 OA
ATOM     69  O   UNL A   1      42.997  19.341  24.741  1.00  0.00    -0.744 OA
ENDBRANCH  65  66
ENDBRANCH  44  58
BRANCH  45  70
ATOM     70  C   UNL A   1      44.111  32.714  31.575  1.00  0.00     0.058 A 
ATOM     71  C   UNL A   1      44.090  32.839  32.971  1.00  0.00     0.135 A 
ATOM     72  C   UNL A   1      44.329  33.876  30.817  1.00  0.00     0.135 A 
ATOM     73  F   UNL A   1      43.878  31.758  33.738  1.00  0.00    -0.206 F 
ATOM     74  C   UNL A   1      44.272  34.069  33.596  1.00  0.00     0.059 A 
ATOM     75  C   UNL A   1      44.539  35.114  31.419  1.00  0.00     0.059 A 
ATOM     76  F   UNL A   1      44.375  33.806  29.478  1.00  0.00    -0.206 F 
ATOM     77  C   UNL A   1      44.502  35.200  32.810  1.00  0.00     0.060 A 
BRANCH  77  78
ATOM     78  S   UNL A   1      44.809  36.778  33.635  1.00  0.00     0.124 S 
ATOM     79  O   UNL A   1      45.462  36.345  34.864  1.00  0.00    -0.237 OA
ATOM     80  O   UNL A   1      45.661  37.468  32.669  1.00  0.00    -0.237 OA
ATOM     81  O   UNL A   1      43.473  37.340  33.792  1.00  0.00    -0.744 OA
ENDBRANCH  77  78
ENDBRANCH  45  70
BRANCH  57  82
ATOM     82  C   UNL A   1      48.454  27.394  30.308  1.00  0.00     0.058 A 
ATOM     83  C   UNL A   1      49.418  27.874  29.409  1.00  0.00     0.135 A 
ATOM     84  C   UNL A   1      48.904  26.764  31.480  1.00  0.00     0.135 A 
ATOM     85  F   UNL A   1      49.040  28.476  28.271  1.00  0.00    -0.206 F 
ATOM     86  C   UNL A   1      50.780  27.717  29.651  1.00  0.00     0.059 A 
ATOM     87  C   UNL A   1      50.261  26.620  31.755  1.00  0.00     0.059 A 
ATOM     88  F   UNL A   1      48.023  26.296  32.378  1.00  0.00    -0.206 F 
ATOM     89  C   UNL A   1      51.190  27.090  30.830  1.00  0.00     0.060 A 
BRANCH  89  90
ATOM     90  S   UNL A   1      52.960  26.926  31.151  1.00  0.00     0.124 S 
ATOM     91  O   UNL A   1      52.962  26.286  32.463  1.00  0.00    -0.237 OA
ATOM     92  O   UNL A   1      53.406  26.094  30.038  1.00  0.00    -0.237 OA
ATOM     93  O   UNL A   1      53.439  28.304  31.125  1.00  0.00    -0.744 OA
ENDBRANCH  89  90
ENDBRANCH  57  82
ENDBRANCH  31  32
ENDBRANCH  23  26
ENDBRANCH  21  22
ENDBRANCH  20  21
ENDBRANCH   1  20
TORSDOF 19
ENDMDL
