MODEL 1
REMARK VINA RESULT:     -12.0      0.000      0.000
REMARK SMILES O=C(NCCCNC(=O)[C@H]1CC[C@@H](CNc2cccc(F)c2[N+](=O)[O-])O1)c1ccc(-c2c3nc(c(-c4c(F)cc(S(=O)(=O)[O-])cc4F)c4ccc([nH]4)c(-c4c(F)cc(S(=O)(=O)[O-])cc4F)c4nc(c(-c5c(F)cc(S(=O)(=O)[O-])cc5F)c5ccc2[nH]5)C=C4)C=C3)cc1
REMARK SMILES IDX 5 1 4 2 3 3 1 4 2 5 27 7 28 8 92 9 29 10 91 11 30 12 31 13
REMARK SMILES IDX 32 14 85 15 33 16 90 17 84 18 86 19 34 20 89 21 83 22 82 23
REMARK SMILES IDX 35 25 69 26 48 27 68 28 49 29 52 30 67 31 87 32 50 33 51 34
REMARK SMILES IDX 66 36 88 37 53 38 36 39 37 40 46 41 38 42 39 43 45 44 47 45
REMARK SMILES IDX 40 46 41 47 42 48 43 49 44 50 70 51 71 52 80 53 72 54 73 55
REMARK SMILES IDX 79 56 81 57 74 58 75 59 76 60 77 61 78 62 54 63 55 64 64 65
REMARK SMILES IDX 56 66 57 67 63 68 65 69 58 70 59 71 60 72 61 73 62 74 6 75
REMARK SMILES IDX 7 76 8 77 9 79 10 80 11 81 26 82 12 83 13 84 14 85 15 86
REMARK SMILES IDX 16 88 17 89 22 90 18 91 20 92 19 93 21 94 23 95 24 96 25 97
REMARK H PARENT 3 6 86 24 52 35 7 78 15 87
REMARK Flexibility Score: inf
ROOT
ATOM      1  C   UNL A   1      40.592  22.024  27.196  1.00  0.00     0.042 C 
ENDROOT
BRANCH   1   2
ATOM      2  C   UNL A   1      41.711  23.060  27.231  1.00  0.00     0.118 C 
BRANCH   2   3
ATOM      3  N   UNL A   1      41.663  24.004  26.121  1.00  0.00    -0.352 N 
ATOM      4  O   UNL A   1      41.288  25.922  25.011  1.00  0.00    -0.269 OA
ATOM      5  C   UNL A   1      41.417  25.358  26.096  1.00  0.00     0.251 C 
ATOM      6  H   UNL A   1      41.836  23.605  25.236  1.00  0.00     0.163 HD
BRANCH   5   7
ATOM      7  C   UNL A   1      41.280  26.134  27.350  1.00  0.00     0.039 A 
ATOM      8  C   UNL A   1      40.203  25.935  28.212  1.00  0.00     0.014 A 
ATOM      9  C   UNL A   1      42.269  27.068  27.683  1.00  0.00     0.014 A 
ATOM     10  C   UNL A   1      40.017  26.786  29.297  1.00  0.00     0.010 A 
ATOM     11  C   UNL A   1      42.129  27.859  28.831  1.00  0.00     0.010 A 
ATOM     12  C   UNL A   1      40.976  27.760  29.621  1.00  0.00    -0.014 A 
BRANCH  12  13
ATOM     13  C   UNL A   1      40.743  28.644  30.796  1.00  0.00     0.031 A 
ATOM     14  C   UNL A   1      41.652  28.597  31.995  1.00  0.00     0.074 A 
ATOM     15  C   UNL A   1      39.744  29.547  30.746  1.00  0.00     0.049 A 
ATOM     16  N   UNL A   1      41.636  29.347  33.069  1.00  0.00    -0.248 NA
ATOM     17  C   UNL A   1      42.712  27.576  31.998  1.00  0.00     0.031 C 
ATOM     18  C   UNL A   1      38.790  29.683  29.643  1.00  0.00     0.029 A 
ATOM     19  N   UNL A   1      39.385  30.543  31.618  1.00  0.00    -0.354 N 
ATOM     20  C   UNL A   1      42.668  28.882  33.877  1.00  0.00     0.074 A 
ATOM     21  C   UNL A   1      43.271  27.764  33.185  1.00  0.00     0.031 C 
ATOM     22  C   UNL A   1      38.002  30.745  29.871  1.00  0.00     0.029 A 
ATOM     23  C   UNL A   1      38.356  31.331  31.159  1.00  0.00     0.049 A 
ATOM     24  H   UNL A   1      39.824  30.680  32.489  1.00  0.00     0.167 HD
ATOM     25  C   UNL A   1      43.083  29.354  35.078  1.00  0.00     0.037 A 
ATOM     26  C   UNL A   1      37.763  32.409  31.707  1.00  0.00     0.037 A 
ATOM     27  C   UNL A   1      42.494  30.481  35.754  1.00  0.00     0.049 A 
ATOM     28  C   UNL A   1      38.244  32.916  33.035  1.00  0.00     0.074 A 
ATOM     29  C   UNL A   1      42.851  31.038  36.971  1.00  0.00     0.029 A 
ATOM     30  N   UNL A   1      41.432  31.231  35.270  1.00  0.00    -0.354 N 
ATOM     31  N   UNL A   1      39.220  32.461  33.783  1.00  0.00    -0.248 NA
ATOM     32  C   UNL A   1      37.542  34.079  33.597  1.00  0.00     0.031 C 
ATOM     33  C   UNL A   1      41.986  32.104  37.237  1.00  0.00     0.029 A 
ATOM     34  C   UNL A   1      41.116  32.240  36.167  1.00  0.00     0.049 A 
ATOM     35  H   UNL A   1      40.972  31.071  34.416  1.00  0.00     0.167 HD
ATOM     36  C   UNL A   1      39.256  33.285  34.901  1.00  0.00     0.074 A 
ATOM     37  C   UNL A   1      38.216  34.279  34.721  1.00  0.00     0.031 C 
ATOM     38  C   UNL A   1      40.075  33.220  35.978  1.00  0.00     0.037 A 
BRANCH  25  39
ATOM     39  C   UNL A   1      44.230  28.647  35.747  1.00  0.00     0.058 A 
ATOM     40  C   UNL A   1      43.994  27.610  36.663  1.00  0.00     0.135 A 
ATOM     41  C   UNL A   1      45.564  29.026  35.519  1.00  0.00     0.135 A 
ATOM     42  F   UNL A   1      42.740  27.204  36.916  1.00  0.00    -0.206 F 
ATOM     43  C   UNL A   1      45.036  26.977  37.333  1.00  0.00     0.059 A 
ATOM     44  C   UNL A   1      46.624  28.391  36.160  1.00  0.00     0.059 A 
ATOM     45  F   UNL A   1      45.847  30.000  34.638  1.00  0.00    -0.206 F 
ATOM     46  C   UNL A   1      46.349  27.375  37.076  1.00  0.00     0.060 A 
BRANCH  46  47
ATOM     47  S   UNL A   1      47.695  26.509  37.914  1.00  0.00     0.124 S 
ATOM     48  O   UNL A   1      48.781  27.477  37.815  1.00  0.00    -0.237 OA
ATOM     49  O   UNL A   1      47.145  26.305  39.251  1.00  0.00    -0.237 OA
ATOM     50  O   UNL A   1      47.858  25.293  37.123  1.00  0.00    -0.744 OA
ENDBRANCH  46  47
ENDBRANCH  25  39
BRANCH  26  51
ATOM     51  C   UNL A   1      36.665  33.086  30.970  1.00  0.00     0.058 A 
ATOM     52  C   UNL A   1      36.939  33.977  29.920  1.00  0.00     0.135 A 
ATOM     53  C   UNL A   1      35.327  32.912  31.350  1.00  0.00     0.135 A 
ATOM     54  F   UNL A   1      38.206  34.183  29.528  1.00  0.00    -0.206 F 
ATOM     55  C   UNL A   1      35.929  34.701  29.299  1.00  0.00     0.059 A 
ATOM     56  C   UNL A   1      34.295  33.608  30.727  1.00  0.00     0.059 A 
ATOM     57  F   UNL A   1      35.016  32.063  32.341  1.00  0.00    -0.206 F 
ATOM     58  C   UNL A   1      34.611  34.519  29.718  1.00  0.00     0.060 A 
BRANCH  58  59
ATOM     59  S   UNL A   1      33.316  35.498  28.928  1.00  0.00     0.124 S 
ATOM     60  O   UNL A   1      34.102  36.368  28.059  1.00  0.00    -0.237 OA
ATOM     61  O   UNL A   1      32.524  34.475  28.253  1.00  0.00    -0.237 OA
ATOM     62  O   UNL A   1      32.659  36.158  30.051  1.00  0.00    -0.744 OA
ENDBRANCH  58  59
ENDBRANCH  26  51
BRANCH  38  63
ATOM     63  C   UNL A   1      39.892  34.258  37.049  1.00  0.00     0.058 A 
ATOM     64  C   UNL A   1      39.080  33.995  38.163  1.00  0.00     0.135 A 
ATOM     65  C   UNL A   1      40.477  35.529  36.946  1.00  0.00     0.135 A 
ATOM     66  F   UNL A   1      38.496  32.795  38.307  1.00  0.00    -0.206 F 
ATOM     67  C   UNL A   1      38.844  34.962  39.134  1.00  0.00     0.059 A 
ATOM     68  C   UNL A   1      40.272  36.505  37.917  1.00  0.00     0.059 A 
ATOM     69  F   UNL A   1      41.272  35.824  35.905  1.00  0.00    -0.206 F 
ATOM     70  C   UNL A   1      39.443  36.216  39.000  1.00  0.00     0.060 A 
BRANCH  70  71
ATOM     71  S   UNL A   1      39.150  37.453  40.282  1.00  0.00     0.124 S 
ATOM     72  O   UNL A   1      38.247  38.378  39.605  1.00  0.00    -0.237 OA
ATOM     73  O   UNL A   1      38.558  36.658  41.353  1.00  0.00    -0.237 OA
ATOM     74  O   UNL A   1      40.486  37.971  40.563  1.00  0.00    -0.744 OA
ENDBRANCH  70  71
ENDBRANCH  38  63
ENDBRANCH  12  13
ENDBRANCH   5   7
ENDBRANCH   2   3
ENDBRANCH   1   2
BRANCH   1  75
ATOM     75  C   UNL A   1      39.316  22.494  26.513  1.00  0.00     0.117 C 
BRANCH  75  76
ATOM     76  N   UNL A   1      38.593  21.418  25.855  1.00  0.00    -0.354 N 
ATOM     77  C   UNL A   1      37.311  21.401  25.381  1.00  0.00     0.249 C 
ATOM     78  H   UNL A   1      39.099  20.582  25.734  1.00  0.00     0.163 HD
ATOM     79  O   UNL A   1      36.910  20.376  24.824  1.00  0.00    -0.272 OA
BRANCH  77  80
ATOM     80  C   UNL A   1      36.421  22.643  25.566  1.00  0.00     0.207 C 
ATOM     81  C   UNL A   1      36.293  23.475  24.300  1.00  0.00     0.045 C 
ATOM     82  O   UNL A   1      35.094  22.219  25.916  1.00  0.00    -0.363 OA
ATOM     83  C   UNL A   1      35.080  22.882  23.631  1.00  0.00     0.037 C 
ATOM     84  C   UNL A   1      34.206  22.522  24.818  1.00  0.00     0.138 C 
BRANCH  84  85
ATOM     85  C   UNL A   1      33.270  21.338  24.530  1.00  0.00     0.145 C 
BRANCH  85  86
ATOM     86  N   UNL A   1      31.910  21.716  24.881  1.00  0.00    -0.377 N 
ATOM     87  H   UNL A   1      31.358  21.040  25.337  1.00  0.00     0.160 HD
BRANCH  86  88
ATOM     88  C   UNL A   1      31.326  22.943  24.628  1.00  0.00     0.116 A 
ATOM     89  C   UNL A   1      31.261  23.457  23.323  1.00  0.00     0.033 A 
ATOM     90  C   UNL A   1      30.831  23.771  25.657  1.00  0.00     0.327 A 
ATOM     91  C   UNL A   1      30.723  24.723  23.053  1.00  0.00     0.006 A 
ATOM     92  C   UNL A   1      30.295  25.033  25.396  1.00  0.00     0.202 A 
ATOM     93  C   UNL A   1      30.240  25.511  24.093  1.00  0.00     0.047 A 
ATOM     94  F   UNL A   1      29.821  25.811  26.377  1.00  0.00    -0.199 F 
BRANCH  90  95
ATOM     95  N   UNL A   1      30.938  23.361  27.042  1.00  0.00     0.068 N 
ATOM     96  O   UNL A   1      29.903  22.971  27.606  1.00  0.00    -0.258 OA
ATOM     97  O   UNL A   1      32.066  23.366  27.555  1.00  0.00    -0.258 OA
ENDBRANCH  90  95
ENDBRANCH  86  88
ENDBRANCH  85  86
ENDBRANCH  84  85
ENDBRANCH  77  80
ENDBRANCH  75  76
ENDBRANCH   1  75
TORSDOF 17
ENDMDL
MODEL 2
REMARK VINA RESULT:     -11.8      1.313      1.773
REMARK SMILES O=C(NCCCNC(=O)[C@H]1CC[C@@H](CNc2cccc(F)c2[N+](=O)[O-])O1)c1ccc(-c2c3nc(c(-c4c(F)cc(S(=O)(=O)[O-])cc4F)c4ccc([nH]4)c(-c4c(F)cc(S(=O)(=O)[O-])cc4F)c4nc(c(-c5c(F)cc(S(=O)(=O)[O-])cc5F)c5ccc2[nH]5)C=C4)C=C3)cc1
REMARK SMILES IDX 5 1 4 2 3 3 1 4 2 5 27 7 28 8 92 9 29 10 91 11 30 12 31 13
REMARK SMILES IDX 32 14 85 15 33 16 90 17 84 18 86 19 34 20 89 21 83 22 82 23
REMARK SMILES IDX 35 25 69 26 48 27 68 28 49 29 52 30 67 31 87 32 50 33 51 34
REMARK SMILES IDX 66 36 88 37 53 38 36 39 37 40 46 41 38 42 39 43 45 44 47 45
REMARK SMILES IDX 40 46 41 47 42 48 43 49 44 50 70 51 71 52 80 53 72 54 73 55
REMARK SMILES IDX 79 56 81 57 74 58 75 59 76 60 77 61 78 62 54 63 55 64 64 65
REMARK SMILES IDX 56 66 57 67 63 68 65 69 58 70 59 71 60 72 61 73 62 74 6 75
REMARK SMILES IDX 7 76 8 77 9 79 10 80 11 81 26 82 12 83 13 84 14 85 15 86
REMARK SMILES IDX 16 88 17 89 22 90 18 91 20 92 19 93 21 94 23 95 24 96 25 97
REMARK H PARENT 3 6 86 24 52 35 7 78 15 87
REMARK Flexibility Score: inf
ROOT
ATOM      1  C   UNL A   1      39.939  21.661  26.508  1.00  0.00     0.042 C 
ENDROOT
BRANCH   1   2
ATOM      2  C   UNL A   1      40.390  23.028  27.014  1.00  0.00     0.118 C 
BRANCH   2   3
ATOM      3  N   UNL A   1      41.211  23.759  26.055  1.00  0.00    -0.352 N 
ATOM      4  O   UNL A   1      42.166  25.504  25.010  1.00  0.00    -0.269 OA
ATOM      5  C   UNL A   1      41.576  25.084  26.004  1.00  0.00     0.251 C 
ATOM      6  H   UNL A   1      41.565  23.210  25.317  1.00  0.00     0.163 HD
BRANCH   5   7
ATOM      7  C   UNL A   1      41.248  26.012  27.112  1.00  0.00     0.039 A 
ATOM      8  C   UNL A   1      41.881  27.248  27.233  1.00  0.00     0.014 A 
ATOM      9  C   UNL A   1      40.264  25.645  28.037  1.00  0.00     0.014 A 
ATOM     10  C   UNL A   1      41.669  28.027  28.367  1.00  0.00     0.010 A 
ATOM     11  C   UNL A   1      39.981  26.477  29.128  1.00  0.00     0.010 A 
ATOM     12  C   UNL A   1      40.718  27.652  29.331  1.00  0.00    -0.014 A 
BRANCH  12  13
ATOM     13  C   UNL A   1      40.516  28.518  30.524  1.00  0.00     0.031 A 
ATOM     14  C   UNL A   1      41.442  28.438  31.708  1.00  0.00     0.074 A 
ATOM     15  C   UNL A   1      39.528  29.435  30.505  1.00  0.00     0.049 A 
ATOM     16  N   UNL A   1      41.453  29.169  32.795  1.00  0.00    -0.248 NA
ATOM     17  C   UNL A   1      42.488  27.403  31.677  1.00  0.00     0.031 C 
ATOM     18  C   UNL A   1      38.559  29.604  29.420  1.00  0.00     0.029 A 
ATOM     19  N   UNL A   1      39.197  30.420  31.399  1.00  0.00    -0.354 N 
ATOM     20  C   UNL A   1      42.491  28.677  33.578  1.00  0.00     0.074 A 
ATOM     21  C   UNL A   1      43.067  27.562  32.858  1.00  0.00     0.031 C 
ATOM     22  C   UNL A   1      37.789  30.671  29.678  1.00  0.00     0.029 A 
ATOM     23  C   UNL A   1      38.171  31.231  30.971  1.00  0.00     0.049 A 
ATOM     24  H   UNL A   1      39.650  30.537  32.266  1.00  0.00     0.167 HD
ATOM     25  C   UNL A   1      42.930  29.121  34.781  1.00  0.00     0.037 A 
ATOM     26  C   UNL A   1      37.601  32.306  31.547  1.00  0.00     0.037 A 
ATOM     27  C   UNL A   1      42.367  30.244  35.485  1.00  0.00     0.049 A 
ATOM     28  C   UNL A   1      38.109  32.783  32.875  1.00  0.00     0.074 A 
ATOM     29  C   UNL A   1      42.750  30.775  36.706  1.00  0.00     0.029 A 
ATOM     30  N   UNL A   1      41.308  31.017  35.031  1.00  0.00    -0.354 N 
ATOM     31  N   UNL A   1      39.090  32.302  33.600  1.00  0.00    -0.248 NA
ATOM     32  C   UNL A   1      37.432  33.945  33.468  1.00  0.00     0.031 C 
ATOM     33  C   UNL A   1      41.904  31.848  37.004  1.00  0.00     0.029 A 
ATOM     34  C   UNL A   1      41.019  32.014  35.950  1.00  0.00     0.049 A 
ATOM     35  H   UNL A   1      40.832  30.878  34.181  1.00  0.00     0.167 HD
ATOM     36  C   UNL A   1      39.155  33.106  34.731  1.00  0.00     0.074 A 
ATOM     37  C   UNL A   1      38.126  34.116  34.585  1.00  0.00     0.031 C 
ATOM     38  C   UNL A   1      39.989  33.011  35.795  1.00  0.00     0.037 A 
BRANCH  25  39
ATOM     39  C   UNL A   1      44.078  28.388  35.420  1.00  0.00     0.058 A 
ATOM     40  C   UNL A   1      43.841  27.339  36.322  1.00  0.00     0.135 A 
ATOM     41  C   UNL A   1      45.413  28.752  35.176  1.00  0.00     0.135 A 
ATOM     42  F   UNL A   1      42.586  26.947  36.589  1.00  0.00    -0.206 F 
ATOM     43  C   UNL A   1      44.885  26.680  36.965  1.00  0.00     0.059 A 
ATOM     44  C   UNL A   1      46.473  28.091  35.790  1.00  0.00     0.059 A 
ATOM     45  F   UNL A   1      45.695  29.736  34.307  1.00  0.00    -0.206 F 
ATOM     46  C   UNL A   1      46.199  27.064  36.693  1.00  0.00     0.060 A 
BRANCH  46  47
ATOM     47  S   UNL A   1      47.545  26.166  37.496  1.00  0.00     0.124 S 
ATOM     48  O   UNL A   1      46.827  25.094  38.174  1.00  0.00    -0.237 OA
ATOM     49  O   UNL A   1      48.367  25.761  36.359  1.00  0.00    -0.237 OA
ATOM     50  O   UNL A   1      48.149  27.171  38.366  1.00  0.00    -0.744 OA
ENDBRANCH  46  47
ENDBRANCH  25  39
BRANCH  26  51
ATOM     51  C   UNL A   1      36.502  33.010  30.838  1.00  0.00     0.058 A 
ATOM     52  C   UNL A   1      36.769  33.883  29.771  1.00  0.00     0.135 A 
ATOM     53  C   UNL A   1      35.172  32.883  31.263  1.00  0.00     0.135 A 
ATOM     54  F   UNL A   1      38.028  34.046  29.336  1.00  0.00    -0.206 F 
ATOM     55  C   UNL A   1      35.763  34.633  29.176  1.00  0.00     0.059 A 
ATOM     56  C   UNL A   1      34.142  33.605  30.666  1.00  0.00     0.059 A 
ATOM     57  F   UNL A   1      34.867  32.052  32.272  1.00  0.00    -0.206 F 
ATOM     58  C   UNL A   1      34.453  34.496  29.639  1.00  0.00     0.060 A 
BRANCH  58  59
ATOM     59  S   UNL A   1      33.165  35.508  28.881  1.00  0.00     0.124 S 
ATOM     60  O   UNL A   1      32.461  34.520  28.070  1.00  0.00    -0.237 OA
ATOM     61  O   UNL A   1      32.440  36.006  30.045  1.00  0.00    -0.237 OA
ATOM     62  O   UNL A   1      33.919  36.511  28.137  1.00  0.00    -0.744 OA
ENDBRANCH  58  59
ENDBRANCH  26  51
BRANCH  38  63
ATOM     63  C   UNL A   1      39.837  34.032  36.886  1.00  0.00     0.058 A 
ATOM     64  C   UNL A   1      39.161  33.709  38.073  1.00  0.00     0.135 A 
ATOM     65  C   UNL A   1      40.313  35.344  36.735  1.00  0.00     0.135 A 
ATOM     66  F   UNL A   1      38.685  32.469  38.265  1.00  0.00    -0.206 F 
ATOM     67  C   UNL A   1      38.951  34.656  39.070  1.00  0.00     0.059 A 
ATOM     68  C   UNL A   1      40.133  36.301  37.729  1.00  0.00     0.059 A 
ATOM     69  F   UNL A   1      40.976  35.697  35.623  1.00  0.00    -0.206 F 
ATOM     70  C   UNL A   1      39.439  35.951  38.887  1.00  0.00     0.060 A 
BRANCH  70  71
ATOM     71  S   UNL A   1      39.184  37.163  40.201  1.00  0.00     0.124 S 
ATOM     72  O   UNL A   1      40.551  37.410  40.649  1.00  0.00    -0.237 OA
ATOM     73  O   UNL A   1      38.542  38.264  39.488  1.00  0.00    -0.237 OA
ATOM     74  O   UNL A   1      38.328  36.458  41.150  1.00  0.00    -0.744 OA
ENDBRANCH  70  71
ENDBRANCH  38  63
ENDBRANCH  12  13
ENDBRANCH   5   7
ENDBRANCH   2   3
ENDBRANCH   1   2
BRANCH   1  75
ATOM     75  C   UNL A   1      38.623  21.670  25.745  1.00  0.00     0.117 C 
BRANCH  75  76
ATOM     76  N   UNL A   1      37.785  22.813  26.070  1.00  0.00    -0.354 N 
ATOM     77  C   UNL A   1      36.700  23.307  25.401  1.00  0.00     0.249 C 
ATOM     78  H   UNL A   1      38.036  23.301  26.887  1.00  0.00     0.163 HD
ATOM     79  O   UNL A   1      36.116  24.282  25.881  1.00  0.00    -0.272 OA
BRANCH  77  80
ATOM     80  C   UNL A   1      36.258  22.644  24.085  1.00  0.00     0.207 C 
ATOM     81  C   UNL A   1      35.362  21.434  24.301  1.00  0.00     0.045 C 
ATOM     82  O   UNL A   1      35.495  23.589  23.319  1.00  0.00    -0.363 OA
ATOM     83  C   UNL A   1      33.980  22.035  24.296  1.00  0.00     0.037 C 
ATOM     84  C   UNL A   1      34.120  23.146  23.272  1.00  0.00     0.138 C 
BRANCH  84  85
ATOM     85  C   UNL A   1      33.160  24.317  23.530  1.00  0.00     0.145 C 
BRANCH  85  86
ATOM     86  N   UNL A   1      33.210  24.666  24.941  1.00  0.00    -0.377 N 
ATOM     87  H   UNL A   1      33.379  23.937  25.580  1.00  0.00     0.160 HD
BRANCH  86  88
ATOM     88  C   UNL A   1      33.041  25.936  25.461  1.00  0.00     0.116 A 
ATOM     89  C   UNL A   1      33.986  26.947  25.223  1.00  0.00     0.033 A 
ATOM     90  C   UNL A   1      31.963  26.268  26.308  1.00  0.00     0.327 A 
ATOM     91  C   UNL A   1      33.860  28.224  25.787  1.00  0.00     0.006 A 
ATOM     92  C   UNL A   1      31.831  27.537  26.873  1.00  0.00     0.202 A 
ATOM     93  C   UNL A   1      32.780  28.517  26.614  1.00  0.00     0.047 A 
ATOM     94  F   UNL A   1      30.801  27.847  27.672  1.00  0.00    -0.199 F 
BRANCH  90  95
ATOM     95  N   UNL A   1      30.989  25.263  26.681  1.00  0.00     0.068 N 
ATOM     96  O   UNL A   1      29.810  25.451  26.338  1.00  0.00    -0.258 OA
ATOM     97  O   UNL A   1      31.405  24.250  27.262  1.00  0.00    -0.258 OA
ENDBRANCH  90  95
ENDBRANCH  86  88
ENDBRANCH  85  86
ENDBRANCH  84  85
ENDBRANCH  77  80
ENDBRANCH  75  76
ENDBRANCH   1  75
TORSDOF 17
ENDMDL
MODEL 3
REMARK VINA RESULT:     -11.8      6.669     12.072
REMARK SMILES O=C(NCCCNC(=O)[C@H]1CC[C@@H](CNc2cccc(F)c2[N+](=O)[O-])O1)c1ccc(-c2c3nc(c(-c4c(F)cc(S(=O)(=O)[O-])cc4F)c4ccc([nH]4)c(-c4c(F)cc(S(=O)(=O)[O-])cc4F)c4nc(c(-c5c(F)cc(S(=O)(=O)[O-])cc5F)c5ccc2[nH]5)C=C4)C=C3)cc1
REMARK SMILES IDX 5 1 4 2 3 3 1 4 2 5 27 7 28 8 92 9 29 10 91 11 30 12 31 13
REMARK SMILES IDX 32 14 85 15 33 16 90 17 84 18 86 19 34 20 89 21 83 22 82 23
REMARK SMILES IDX 35 25 69 26 48 27 68 28 49 29 52 30 67 31 87 32 50 33 51 34
REMARK SMILES IDX 66 36 88 37 53 38 36 39 37 40 46 41 38 42 39 43 45 44 47 45
REMARK SMILES IDX 40 46 41 47 42 48 43 49 44 50 70 51 71 52 80 53 72 54 73 55
REMARK SMILES IDX 79 56 81 57 74 58 75 59 76 60 77 61 78 62 54 63 55 64 64 65
REMARK SMILES IDX 56 66 57 67 63 68 65 69 58 70 59 71 60 72 61 73 62 74 6 75
REMARK SMILES IDX 7 76 8 77 9 79 10 80 11 81 26 82 12 83 13 84 14 85 15 86
REMARK SMILES IDX 16 88 17 89 22 90 18 91 20 92 19 93 21 94 23 95 24 96 25 97
REMARK H PARENT 3 6 86 24 52 35 7 78 15 87
REMARK Flexibility Score: inf
ROOT
ATOM      1  C   UNL A   1      34.330  29.598  27.529  1.00  0.00     0.042 C 
ENDROOT
BRANCH   1   2
ATOM      2  C   UNL A   1      35.227  30.713  28.057  1.00  0.00     0.118 C 
BRANCH   2   3
ATOM      3  N   UNL A   1      35.320  30.743  29.512  1.00  0.00    -0.352 N 
ATOM      4  O   UNL A   1      36.106  30.320  31.574  1.00  0.00    -0.269 OA
ATOM      5  C   UNL A   1      36.316  30.321  30.362  1.00  0.00     0.251 C 
ATOM      6  H   UNL A   1      34.536  31.132  29.964  1.00  0.00     0.163 HD
BRANCH   5   7
ATOM      7  C   UNL A   1      37.618  29.845  29.840  1.00  0.00     0.039 A 
ATOM      8  C   UNL A   1      38.555  29.238  30.675  1.00  0.00     0.014 A 
ATOM      9  C   UNL A   1      37.898  29.990  28.476  1.00  0.00     0.014 A 
ATOM     10  C   UNL A   1      39.828  28.947  30.192  1.00  0.00     0.010 A 
ATOM     11  C   UNL A   1      39.147  29.607  27.971  1.00  0.00     0.010 A 
ATOM     12  C   UNL A   1      40.142  29.128  28.835  1.00  0.00    -0.014 A 
BRANCH  12  13
ATOM     13  C   UNL A   1      41.511  28.796  28.357  1.00  0.00     0.031 A 
ATOM     14  C   UNL A   1      42.621  29.813  28.411  1.00  0.00     0.074 A 
ATOM     15  C   UNL A   1      41.771  27.541  27.939  1.00  0.00     0.049 A 
ATOM     16  N   UNL A   1      43.886  29.666  28.105  1.00  0.00    -0.248 NA
ATOM     17  C   UNL A   1      42.270  31.170  28.858  1.00  0.00     0.031 C 
ATOM     18  C   UNL A   1      40.778  26.470  27.831  1.00  0.00     0.029 A 
ATOM     19  N   UNL A   1      42.946  26.942  27.564  1.00  0.00    -0.354 N 
ATOM     20  C   UNL A   1      44.476  30.909  28.310  1.00  0.00     0.074 A 
ATOM     21  C   UNL A   1      43.425  31.807  28.734  1.00  0.00     0.031 C 
ATOM     22  C   UNL A   1      41.395  25.330  27.487  1.00  0.00     0.029 A 
ATOM     23  C   UNL A   1      42.817  25.599  27.295  1.00  0.00     0.049 A 
ATOM     24  H   UNL A   1      43.800  27.426  27.494  1.00  0.00     0.167 HD
ATOM     25  C   UNL A   1      45.777  31.263  28.169  1.00  0.00     0.037 A 
ATOM     26  C   UNL A   1      43.736  24.681  26.938  1.00  0.00     0.037 A 
ATOM     27  C   UNL A   1      46.825  30.361  27.766  1.00  0.00     0.049 A 
ATOM     28  C   UNL A   1      45.170  25.097  26.795  1.00  0.00     0.074 A 
ATOM     29  C   UNL A   1      48.175  30.626  27.603  1.00  0.00     0.029 A 
ATOM     30  N   UNL A   1      46.646  29.016  27.472  1.00  0.00    -0.354 N 
ATOM     31  N   UNL A   1      45.707  26.277  26.991  1.00  0.00    -0.248 NA
ATOM     32  C   UNL A   1      46.125  24.059  26.378  1.00  0.00     0.031 C 
ATOM     33  C   UNL A   1      48.805  29.451  27.181  1.00  0.00     0.029 A 
ATOM     34  C   UNL A   1      47.857  28.442  27.121  1.00  0.00     0.049 A 
ATOM     35  H   UNL A   1      45.785  28.541  27.508  1.00  0.00     0.167 HD
ATOM     36  C   UNL A   1      47.063  26.125  26.729  1.00  0.00     0.074 A 
ATOM     37  C   UNL A   1      47.267  24.733  26.380  1.00  0.00     0.031 C 
ATOM     38  C   UNL A   1      48.047  27.056  26.771  1.00  0.00     0.037 A 
BRANCH  25  39
ATOM     39  C   UNL A   1      46.145  32.695  28.447  1.00  0.00     0.058 A 
ATOM     40  C   UNL A   1      46.509  33.100  29.741  1.00  0.00     0.135 A 
ATOM     41  C   UNL A   1      46.093  33.678  27.444  1.00  0.00     0.135 A 
ATOM     42  F   UNL A   1      46.579  32.203  30.736  1.00  0.00    -0.206 F 
ATOM     43  C   UNL A   1      46.803  34.429  30.033  1.00  0.00     0.059 A 
ATOM     44  C   UNL A   1      46.406  35.008  27.709  1.00  0.00     0.059 A 
ATOM     45  F   UNL A   1      45.769  33.341  26.186  1.00  0.00    -0.206 F 
ATOM     46  C   UNL A   1      46.748  35.377  29.011  1.00  0.00     0.060 A 
BRANCH  46  47
ATOM     47  S   UNL A   1      47.182  37.088  29.394  1.00  0.00     0.124 S 
ATOM     48  O   UNL A   1      46.397  37.333  30.598  1.00  0.00    -0.237 OA
ATOM     49  O   UNL A   1      48.628  37.005  29.583  1.00  0.00    -0.237 OA
ATOM     50  O   UNL A   1      46.757  37.818  28.203  1.00  0.00    -0.744 OA
ENDBRANCH  46  47
ENDBRANCH  25  39
BRANCH  26  51
ATOM     51  C   UNL A   1      43.310  23.275  26.723  1.00  0.00     0.058 A 
ATOM     52  C   UNL A   1      43.013  22.434  27.808  1.00  0.00     0.135 A 
ATOM     53  C   UNL A   1      43.266  22.724  25.435  1.00  0.00     0.135 A 
ATOM     54  F   UNL A   1      43.052  22.913  29.060  1.00  0.00    -0.206 F 
ATOM     55  C   UNL A   1      42.725  21.087  27.625  1.00  0.00     0.059 A 
ATOM     56  C   UNL A   1      42.956  21.383  25.225  1.00  0.00     0.059 A 
ATOM     57  F   UNL A   1      43.532  23.492  24.367  1.00  0.00    -0.206 F 
ATOM     58  C   UNL A   1      42.710  20.568  26.330  1.00  0.00     0.060 A 
BRANCH  58  59
ATOM     59  S   UNL A   1      42.374  18.807  26.115  1.00  0.00     0.124 S 
ATOM     60  O   UNL A   1      40.966  18.828  25.729  1.00  0.00    -0.237 OA
ATOM     61  O   UNL A   1      43.316  18.439  25.063  1.00  0.00    -0.237 OA
ATOM     62  O   UNL A   1      42.657  18.246  27.432  1.00  0.00    -0.744 OA
ENDBRANCH  58  59
ENDBRANCH  26  51
BRANCH  38  63
ATOM     63  C   UNL A   1      49.441  26.604  26.442  1.00  0.00     0.058 A 
ATOM     64  C   UNL A   1      49.943  26.739  25.138  1.00  0.00     0.135 A 
ATOM     65  C   UNL A   1      50.258  25.988  27.402  1.00  0.00     0.135 A 
ATOM     66  F   UNL A   1      49.200  27.318  24.183  1.00  0.00    -0.206 F 
ATOM     67  C   UNL A   1      51.206  26.270  24.795  1.00  0.00     0.059 A 
ATOM     68  C   UNL A   1      51.534  25.531  27.085  1.00  0.00     0.059 A 
ATOM     69  F   UNL A   1      49.826  25.847  28.665  1.00  0.00    -0.206 F 
ATOM     70  C   UNL A   1      51.993  25.664  25.776  1.00  0.00     0.060 A 
BRANCH  70  71
ATOM     71  S   UNL A   1      53.642  25.083  25.323  1.00  0.00     0.124 S 
ATOM     72  O   UNL A   1      54.473  25.724  26.337  1.00  0.00    -0.237 OA
ATOM     73  O   UNL A   1      53.504  23.635  25.438  1.00  0.00    -0.237 OA
ATOM     74  O   UNL A   1      53.814  25.581  23.962  1.00  0.00    -0.744 OA
ENDBRANCH  70  71
ENDBRANCH  38  63
ENDBRANCH  12  13
ENDBRANCH   5   7
ENDBRANCH   2   3
ENDBRANCH   1   2
BRANCH   1  75
ATOM     75  C   UNL A   1      33.276  30.053  26.530  1.00  0.00     0.117 C 
BRANCH  75  76
ATOM     76  N   UNL A   1      33.532  29.582  25.178  1.00  0.00    -0.354 N 
ATOM     77  C   UNL A   1      32.656  29.074  24.260  1.00  0.00     0.249 C 
ATOM     78  H   UNL A   1      34.469  29.636  24.883  1.00  0.00     0.163 HD
ATOM     79  O   UNL A   1      33.094  28.762  23.150  1.00  0.00    -0.272 OA
BRANCH  77  80
ATOM     80  C   UNL A   1      31.176  28.903  24.642  1.00  0.00     0.207 C 
ATOM     81  C   UNL A   1      30.224  29.464  23.596  1.00  0.00     0.045 C 
ATOM     82  O   UNL A   1      30.881  27.502  24.756  1.00  0.00    -0.363 OA
ATOM     83  C   UNL A   1      29.980  28.281  22.695  1.00  0.00     0.037 C 
ATOM     84  C   UNL A   1      29.996  27.125  23.678  1.00  0.00     0.138 C 
BRANCH  84  85
ATOM     85  C   UNL A   1      30.449  25.805  23.036  1.00  0.00     0.145 C 
BRANCH  85  86
ATOM     86  N   UNL A   1      30.276  24.728  23.999  1.00  0.00    -0.377 N 
ATOM     87  H   UNL A   1      29.462  24.745  24.552  1.00  0.00     0.160 HD
BRANCH  86  88
ATOM     88  C   UNL A   1      31.159  23.684  24.204  1.00  0.00     0.116 A 
ATOM     89  C   UNL A   1      31.649  22.929  23.127  1.00  0.00     0.033 A 
ATOM     90  C   UNL A   1      31.559  23.275  25.494  1.00  0.00     0.327 A 
ATOM     91  C   UNL A   1      32.500  21.832  23.319  1.00  0.00     0.006 A 
ATOM     92  C   UNL A   1      32.405  22.184  25.693  1.00  0.00     0.202 A 
ATOM     93  C   UNL A   1      32.878  21.460  24.606  1.00  0.00     0.047 A 
ATOM     94  F   UNL A   1      32.786  21.805  26.920  1.00  0.00    -0.199 F 
BRANCH  90  95
ATOM     95  N   UNL A   1      31.032  23.939  26.668  1.00  0.00     0.068 N 
ATOM     96  O   UNL A   1      30.296  23.279  27.419  1.00  0.00    -0.258 OA
ATOM     97  O   UNL A   1      31.400  25.103  26.881  1.00  0.00    -0.258 OA
ENDBRANCH  90  95
ENDBRANCH  86  88
ENDBRANCH  85  86
ENDBRANCH  84  85
ENDBRANCH  77  80
ENDBRANCH  75  76
ENDBRANCH   1  75
TORSDOF 17
ENDMDL
