MODEL 1
REMARK VINA RESULT:     -12.2      0.000      0.000
REMARK SMILES C[C@H](NC(=O)OCc1ccccc1)C(=O)NCC(=O)N1CCC[C@H]1C(=O)NCCCNC(=O)c1ccc(-c2c3nc(c(-c4c(F)cc(S(=O)(=O)[O-])cc4F)c4ccc([nH]4)c(-c4c(F)cc(S(=O)(=O)[O-])cc4F)c4nc(c(-c5c(F)cc(S(=O)(=O)[O-])cc5F)c5ccc2[nH]5)C=C4)C=C3)cc1
REMARK SMILES IDX 20 1 21 2 22 3 23 4 24 5 18 6 19 7 17 8 16 9 14 10 15 11
REMARK SMILES IDX 2 13 1 14 3 15 4 16 5 18 6 19 7 20 8 21 9 22 13 23 10 24
REMARK SMILES IDX 12 25 11 26 25 27 26 28 27 29 28 31 29 32 30 33 31 34 32 35
REMARK SMILES IDX 33 37 34 38 35 39 99 40 36 41 98 42 37 43 38 44 39 45 92 46
REMARK SMILES IDX 40 47 97 48 91 49 93 50 41 51 96 52 90 53 89 54 42 56 76 57
REMARK SMILES IDX 55 58 75 59 56 60 59 61 74 62 94 63 57 64 58 65 73 67 95 68
REMARK SMILES IDX 60 69 43 70 44 71 53 72 45 73 46 74 52 75 54 76 47 77 48 78
REMARK SMILES IDX 49 79 50 80 51 81 77 82 78 83 87 84 79 85 80 86 86 87 88 88
REMARK SMILES IDX 81 89 82 90 83 91 84 92 85 93 61 94 62 95 71 96 63 97 64 98
REMARK SMILES IDX 70 99 72 100 65 101 66 102 67 103 68 104 69 105
REMARK H PARENT 16 12 3 17 27 30 31 36 93 55 59 66
REMARK Flexibility Score: inf
ROOT
ATOM      1  N   UNL A   1      31.953  26.914  24.720  1.00  0.00    -0.329 N 
ATOM      2  C   UNL A   1      32.361  26.323  23.459  1.00  0.00     0.120 C 
ATOM      3  C   UNL A   1      33.693  26.989  23.171  1.00  0.00     0.024 C 
ATOM      4  C   UNL A   1      33.518  28.406  23.700  1.00  0.00     0.037 C 
ATOM      5  C   UNL A   1      32.448  28.296  24.796  1.00  0.00     0.174 C 
ENDROOT
BRANCH   1   6
ATOM      6  C   UNL A   1      31.160  26.433  25.731  1.00  0.00     0.242 C 
ATOM      7  O   UNL A   1      31.483  26.609  26.914  1.00  0.00    -0.273 OA
BRANCH   6   8
ATOM      8  C   UNL A   1      29.992  25.471  25.472  1.00  0.00     0.216 C 
BRANCH   8   9
ATOM      9  N   UNL A   1      29.538  24.511  26.453  1.00  0.00    -0.345 N 
ATOM     10  C   UNL A   1      30.081  23.329  26.858  1.00  0.00     0.242 C 
ATOM     11  O   UNL A   1      29.582  22.803  27.859  1.00  0.00    -0.273 OA
ATOM     12  H   UNL A   1      28.696  24.751  26.903  1.00  0.00     0.164 HD
BRANCH  10  13
ATOM     13  C   UNL A   1      31.326  22.706  26.190  1.00  0.00     0.171 C 
ATOM     14  C   UNL A   1      32.611  23.074  26.926  1.00  0.00     0.042 C 
BRANCH  13  15
ATOM     15  N   UNL A   1      31.445  22.999  24.766  1.00  0.00    -0.310 N 
ATOM     16  C   UNL A   1      32.006  22.178  23.830  1.00  0.00     0.408 C 
ATOM     17  H   UNL A   1      31.090  23.861  24.453  1.00  0.00     0.167 HD
ATOM     18  O   UNL A   1      32.191  22.564  22.684  1.00  0.00    -0.225 OA
BRANCH  16  19
ATOM     19  O   UNL A   1      32.310  20.952  24.312  1.00  0.00    -0.445 OA
BRANCH  19  20
ATOM     20  C   UNL A   1      32.344  19.892  23.345  1.00  0.00     0.270 C 
BRANCH  20  21
ATOM     21  C   UNL A   1      32.773  18.554  23.901  1.00  0.00    -0.011 A 
ATOM     22  C   UNL A   1      33.369  17.567  23.104  1.00  0.00     0.007 A 
ATOM     23  C   UNL A   1      32.528  18.269  25.255  1.00  0.00     0.007 A 
ATOM     24  C   UNL A   1      33.746  16.341  23.658  1.00  0.00     0.000 A 
ATOM     25  C   UNL A   1      32.900  17.042  25.804  1.00  0.00     0.000 A 
ATOM     26  C   UNL A   1      33.513  16.080  25.007  1.00  0.00     0.000 A 
ENDBRANCH  20  21
ENDBRANCH  19  20
ENDBRANCH  16  19
ENDBRANCH  13  15
ENDBRANCH  10  13
ENDBRANCH   8   9
ENDBRANCH   6   8
ENDBRANCH   1   6
BRANCH   5  27
ATOM     27  C   UNL A   1      31.301  29.285  24.507  1.00  0.00     0.242 C 
ATOM     28  O   UNL A   1      30.487  29.085  23.600  1.00  0.00    -0.273 OA
ATOM     29  N   UNL A   1      31.133  30.394  25.282  1.00  0.00    -0.354 N 
ATOM     30  H   UNL A   1      30.435  31.017  24.975  1.00  0.00     0.163 HD
BRANCH  29  31
ATOM     31  C   UNL A   1      31.828  30.793  26.494  1.00  0.00     0.117 C 
BRANCH  31  32
ATOM     32  C   UNL A   1      31.751  32.296  26.728  1.00  0.00     0.042 C 
BRANCH  32  33
ATOM     33  C   UNL A   1      32.921  32.858  27.529  1.00  0.00     0.118 C 
BRANCH  33  34
ATOM     34  N   UNL A   1      32.771  34.275  27.833  1.00  0.00    -0.352 N 
ATOM     35  C   UNL A   1      33.404  35.049  28.774  1.00  0.00     0.251 C 
ATOM     36  H   UNL A   1      32.111  34.752  27.277  1.00  0.00     0.163 HD
ATOM     37  O   UNL A   1      33.009  36.194  28.979  1.00  0.00    -0.269 OA
BRANCH  35  38
ATOM     38  C   UNL A   1      34.537  34.506  29.555  1.00  0.00     0.039 A 
ATOM     39  C   UNL A   1      34.288  33.992  30.830  1.00  0.00     0.014 A 
ATOM     40  C   UNL A   1      35.837  34.510  29.045  1.00  0.00     0.014 A 
ATOM     41  C   UNL A   1      35.331  33.420  31.563  1.00  0.00     0.010 A 
ATOM     42  C   UNL A   1      36.857  33.864  29.741  1.00  0.00     0.010 A 
ATOM     43  C   UNL A   1      36.617  33.315  31.008  1.00  0.00    -0.014 A 
BRANCH  43  44
ATOM     44  C   UNL A   1      37.714  32.621  31.733  1.00  0.00     0.031 A 
ATOM     45  C   UNL A   1      38.181  33.125  33.072  1.00  0.00     0.074 A 
ATOM     46  C   UNL A   1      38.339  31.580  31.149  1.00  0.00     0.049 A 
ATOM     47  N   UNL A   1      39.161  32.689  33.822  1.00  0.00    -0.248 NA
ATOM     48  C   UNL A   1      37.472  34.287  33.629  1.00  0.00     0.031 C 
ATOM     49  C   UNL A   1      38.019  31.034  29.828  1.00  0.00     0.029 A 
ATOM     50  N   UNL A   1      39.385  30.803  31.582  1.00  0.00    -0.354 N 
ATOM     51  C   UNL A   1      39.199  33.533  34.926  1.00  0.00     0.074 A 
ATOM     52  C   UNL A   1      38.177  34.537  34.722  1.00  0.00     0.031 C 
ATOM     53  C   UNL A   1      38.838  30.003  29.567  1.00  0.00     0.029 A 
ATOM     54  C   UNL A   1      39.770  29.841  30.679  1.00  0.00     0.049 A 
ATOM     55  H   UNL A   1      39.819  30.924  32.458  1.00  0.00     0.167 HD
ATOM     56  C   UNL A   1      40.000  33.466  36.016  1.00  0.00     0.037 A 
ATOM     57  C   UNL A   1      40.769  28.937  30.729  1.00  0.00     0.037 A 
ATOM     58  C   UNL A   1      41.004  32.452  36.217  1.00  0.00     0.049 A 
ATOM     59  C   UNL A   1      41.642  28.875  31.952  1.00  0.00     0.074 A 
ATOM     60  C   UNL A   1      41.813  32.251  37.322  1.00  0.00     0.029 A 
ATOM     61  N   UNL A   1      41.346  31.477  35.290  1.00  0.00    -0.354 N 
ATOM     62  N   UNL A   1      41.608  29.627  33.026  1.00  0.00    -0.248 NA
ATOM     63  C   UNL A   1      42.681  27.837  31.976  1.00  0.00     0.031 C 
ATOM     64  C   UNL A   1      42.686  31.196  37.039  1.00  0.00     0.029 A 
ATOM     65  C   UNL A   1      42.378  30.694  35.784  1.00  0.00     0.049 A 
ATOM     66  H   UNL A   1      40.918  31.359  34.412  1.00  0.00     0.167 HD
ATOM     67  C   UNL A   1      42.606  29.141  33.863  1.00  0.00     0.074 A 
ATOM     68  C   UNL A   1      43.216  28.020  33.175  1.00  0.00     0.031 C 
ATOM     69  C   UNL A   1      42.981  29.582  35.090  1.00  0.00     0.037 A 
BRANCH  56  70
ATOM     70  C   UNL A   1      39.835  34.530  37.070  1.00  0.00     0.058 A 
ATOM     71  C   UNL A   1      38.917  34.398  38.125  1.00  0.00     0.135 A 
ATOM     72  C   UNL A   1      40.625  35.692  37.037  1.00  0.00     0.135 A 
ATOM     73  F   UNL A   1      38.128  33.314  38.204  1.00  0.00    -0.206 F 
ATOM     74  C   UNL A   1      38.757  35.395  39.081  1.00  0.00     0.059 A 
ATOM     75  C   UNL A   1      40.506  36.687  38.003  1.00  0.00     0.059 A 
ATOM     76  F   UNL A   1      41.521  35.872  36.054  1.00  0.00    -0.206 F 
ATOM     77  C   UNL A   1      39.554  36.538  39.010  1.00  0.00     0.060 A 
BRANCH  77  78
ATOM     78  S   UNL A   1      39.325  37.829  40.251  1.00  0.00     0.124 S 
ATOM     79  O   UNL A   1      38.202  38.574  39.690  1.00  0.00    -0.237 OA
ATOM     80  O   UNL A   1      39.034  37.056  41.454  1.00  0.00    -0.237 OA
ATOM     81  O   UNL A   1      40.603  38.531  40.254  1.00  0.00    -0.744 OA
ENDBRANCH  77  78
ENDBRANCH  56  70
BRANCH  57  82
ATOM     82  C   UNL A   1      40.978  28.011  29.582  1.00  0.00     0.058 A 
ATOM     83  C   UNL A   1      42.064  28.169  28.710  1.00  0.00     0.135 A 
ATOM     84  C   UNL A   1      40.118  26.921  29.366  1.00  0.00     0.135 A 
ATOM     85  F   UNL A   1      42.907  29.200  28.870  1.00  0.00    -0.206 F 
ATOM     86  C   UNL A   1      42.292  27.283  27.662  1.00  0.00     0.059 A 
ATOM     87  C   UNL A   1      40.341  26.007  28.341  1.00  0.00     0.059 A 
ATOM     88  F   UNL A   1      39.073  26.716  30.182  1.00  0.00    -0.206 F 
ATOM     89  C   UNL A   1      41.429  26.199  27.492  1.00  0.00     0.060 A 
BRANCH  89  90
ATOM     90  S   UNL A   1      41.781  25.011  26.177  1.00  0.00     0.124 S 
ATOM     91  O   UNL A   1      43.236  24.955  26.211  1.00  0.00    -0.237 OA
ATOM     92  O   UNL A   1      41.083  23.819  26.650  1.00  0.00    -0.237 OA
ATOM     93  O   UNL A   1      41.200  25.639  24.993  1.00  0.00    -0.744 OA
ENDBRANCH  89  90
ENDBRANCH  57  82
BRANCH  69  94
ATOM     94  C   UNL A   1      44.086  28.836  35.790  1.00  0.00     0.058 A 
ATOM     95  C   UNL A   1      45.436  29.183  35.625  1.00  0.00     0.135 A 
ATOM     96  C   UNL A   1      43.783  27.794  36.683  1.00  0.00     0.135 A 
ATOM     97  F   UNL A   1      45.783  30.165  34.778  1.00  0.00    -0.206 F 
ATOM     98  C   UNL A   1      46.448  28.508  36.302  1.00  0.00     0.059 A 
ATOM     99  C   UNL A   1      44.775  27.127  37.394  1.00  0.00     0.059 A 
ATOM    100  F   UNL A   1      42.507  27.428  36.888  1.00  0.00    -0.206 F 
ATOM    101  C   UNL A   1      46.107  27.483  37.187  1.00  0.00     0.060 A 
BRANCH 101 102
ATOM    102  S   UNL A   1      47.428  26.640  38.084  1.00  0.00     0.124 S 
ATOM    103  O   UNL A   1      48.493  27.636  38.042  1.00  0.00    -0.237 OA
ATOM    104  O   UNL A   1      46.821  26.415  39.392  1.00  0.00    -0.237 OA
ATOM    105  O   UNL A   1      47.662  25.437  37.292  1.00  0.00    -0.744 OA
ENDBRANCH 101 102
ENDBRANCH  69  94
ENDBRANCH  43  44
ENDBRANCH  35  38
ENDBRANCH  33  34
ENDBRANCH  32  33
ENDBRANCH  31  32
ENDBRANCH  29  31
ENDBRANCH   5  27
TORSDOF 21
ENDMDL
MODEL 2
REMARK VINA RESULT:     -11.9      6.061      8.196
REMARK SMILES C[C@H](NC(=O)OCc1ccccc1)C(=O)NCC(=O)N1CCC[C@H]1C(=O)NCCCNC(=O)c1ccc(-c2c3nc(c(-c4c(F)cc(S(=O)(=O)[O-])cc4F)c4ccc([nH]4)c(-c4c(F)cc(S(=O)(=O)[O-])cc4F)c4nc(c(-c5c(F)cc(S(=O)(=O)[O-])cc5F)c5ccc2[nH]5)C=C4)C=C3)cc1
REMARK SMILES IDX 20 1 21 2 22 3 23 4 24 5 18 6 19 7 17 8 16 9 14 10 15 11
REMARK SMILES IDX 2 13 1 14 3 15 4 16 5 18 6 19 7 20 8 21 9 22 13 23 10 24
REMARK SMILES IDX 12 25 11 26 25 27 26 28 27 29 28 31 29 32 30 33 31 34 32 35
REMARK SMILES IDX 33 37 34 38 35 39 99 40 36 41 98 42 37 43 38 44 39 45 92 46
REMARK SMILES IDX 40 47 97 48 91 49 93 50 41 51 96 52 90 53 89 54 42 56 76 57
REMARK SMILES IDX 55 58 75 59 56 60 59 61 74 62 94 63 57 64 58 65 73 67 95 68
REMARK SMILES IDX 60 69 43 70 44 71 53 72 45 73 46 74 52 75 54 76 47 77 48 78
REMARK SMILES IDX 49 79 50 80 51 81 77 82 78 83 87 84 79 85 80 86 86 87 88 88
REMARK SMILES IDX 81 89 82 90 83 91 84 92 85 93 61 94 62 95 71 96 63 97 64 98
REMARK SMILES IDX 70 99 72 100 65 101 66 102 67 103 68 104 69 105
REMARK H PARENT 16 12 3 17 27 30 31 36 93 55 59 66
REMARK Flexibility Score: inf
ROOT
ATOM      1  N   UNL A   1      31.409  27.356  24.689  1.00  0.00    -0.329 N 
ATOM      2  C   UNL A   1      30.151  27.291  23.968  1.00  0.00     0.120 C 
ATOM      3  C   UNL A   1      30.512  27.786  22.581  1.00  0.00     0.024 C 
ATOM      4  C   UNL A   1      31.564  28.858  22.835  1.00  0.00     0.037 C 
ATOM      5  C   UNL A   1      32.211  28.475  24.174  1.00  0.00     0.174 C 
ENDROOT
BRANCH   1   6
ATOM      6  C   UNL A   1      31.880  26.633  25.755  1.00  0.00     0.242 C 
ATOM      7  O   UNL A   1      31.347  26.743  26.868  1.00  0.00    -0.273 OA
BRANCH   6   8
ATOM      8  C   UNL A   1      33.202  25.854  25.700  1.00  0.00     0.216 C 
BRANCH   8   9
ATOM      9  N   UNL A   1      33.698  25.239  24.489  1.00  0.00    -0.345 N 
ATOM     10  C   UNL A   1      34.752  24.399  24.286  1.00  0.00     0.242 C 
ATOM     11  O   UNL A   1      34.830  23.867  23.173  1.00  0.00    -0.273 OA
ATOM     12  H   UNL A   1      33.189  25.463  23.678  1.00  0.00     0.164 HD
BRANCH  10  13
ATOM     13  C   UNL A   1      35.753  24.027  25.399  1.00  0.00     0.171 C 
ATOM     14  C   UNL A   1      36.944  23.243  24.855  1.00  0.00     0.042 C 
BRANCH  13  15
ATOM     15  N   UNL A   1      35.152  23.330  26.531  1.00  0.00    -0.310 N 
ATOM     16  C   UNL A   1      34.544  22.109  26.481  1.00  0.00     0.408 C 
ATOM     17  H   UNL A   1      35.186  23.779  27.406  1.00  0.00     0.167 HD
ATOM     18  O   UNL A   1      33.942  21.664  27.449  1.00  0.00    -0.225 OA
BRANCH  16  19
ATOM     19  O   UNL A   1      34.691  21.490  25.288  1.00  0.00    -0.445 OA
BRANCH  19  20
ATOM     20  C   UNL A   1      33.486  20.992  24.689  1.00  0.00     0.270 C 
BRANCH  20  21
ATOM     21  C   UNL A   1      33.577  19.568  24.193  1.00  0.00    -0.011 A 
ATOM     22  C   UNL A   1      32.602  18.999  23.361  1.00  0.00     0.007 A 
ATOM     23  C   UNL A   1      34.653  18.769  24.613  1.00  0.00     0.007 A 
ATOM     24  C   UNL A   1      32.724  17.676  22.929  1.00  0.00     0.000 A 
ATOM     25  C   UNL A   1      34.769  17.446  24.185  1.00  0.00     0.000 A 
ATOM     26  C   UNL A   1      33.807  16.901  23.340  1.00  0.00     0.000 A 
ENDBRANCH  20  21
ENDBRANCH  19  20
ENDBRANCH  16  19
ENDBRANCH  13  15
ENDBRANCH  10  13
ENDBRANCH   8   9
ENDBRANCH   6   8
ENDBRANCH   1   6
BRANCH   5  27
ATOM     27  C   UNL A   1      32.139  29.668  25.148  1.00  0.00     0.242 C 
ATOM     28  O   UNL A   1      31.123  30.364  25.246  1.00  0.00    -0.273 OA
ATOM     29  N   UNL A   1      33.193  29.960  25.962  1.00  0.00    -0.354 N 
ATOM     30  H   UNL A   1      33.100  30.788  26.487  1.00  0.00     0.163 HD
BRANCH  29  31
ATOM     31  C   UNL A   1      34.431  29.230  26.175  1.00  0.00     0.117 C 
BRANCH  31  32
ATOM     32  C   UNL A   1      34.818  29.178  27.647  1.00  0.00     0.042 C 
BRANCH  32  33
ATOM     33  C   UNL A   1      35.475  30.456  28.160  1.00  0.00     0.118 C 
BRANCH  33  34
ATOM     34  N   UNL A   1      35.410  30.584  29.609  1.00  0.00    -0.352 N 
ATOM     35  C   UNL A   1      36.378  30.370  30.560  1.00  0.00     0.251 C 
ATOM     36  H   UNL A   1      34.535  30.867  29.963  1.00  0.00     0.163 HD
ATOM     37  O   UNL A   1      36.069  30.374  31.749  1.00  0.00    -0.269 OA
BRANCH  35  38
ATOM     38  C   UNL A   1      37.779  30.112  30.160  1.00  0.00     0.039 A 
ATOM     39  C   UNL A   1      38.682  29.663  31.129  1.00  0.00     0.014 A 
ATOM     40  C   UNL A   1      38.208  30.318  28.848  1.00  0.00     0.014 A 
ATOM     41  C   UNL A   1      39.995  29.357  30.763  1.00  0.00     0.010 A 
ATOM     42  C   UNL A   1      39.492  29.933  28.469  1.00  0.00     0.010 A 
ATOM     43  C   UNL A   1      40.401  29.450  29.422  1.00  0.00    -0.014 A 
BRANCH  43  44
ATOM     44  C   UNL A   1      41.765  29.035  28.999  1.00  0.00     0.031 A 
ATOM     45  C   UNL A   1      42.881  30.041  28.928  1.00  0.00     0.074 A 
ATOM     46  C   UNL A   1      41.978  27.762  28.609  1.00  0.00     0.049 A 
ATOM     47  N   UNL A   1      44.115  29.878  28.525  1.00  0.00    -0.248 NA
ATOM     48  C   UNL A   1      42.561  31.418  29.337  1.00  0.00     0.031 C 
ATOM     49  C   UNL A   1      40.963  26.707  28.576  1.00  0.00     0.029 A 
ATOM     50  N   UNL A   1      43.114  27.143  28.150  1.00  0.00    -0.354 N 
ATOM     51  C   UNL A   1      44.712  31.130  28.612  1.00  0.00     0.074 A 
ATOM     52  C   UNL A   1      43.690  32.052  29.058  1.00  0.00     0.031 C 
ATOM     53  C   UNL A   1      41.526  25.569  28.139  1.00  0.00     0.029 A 
ATOM     54  C   UNL A   1      42.927  25.822  27.818  1.00  0.00     0.049 A 
ATOM     55  H   UNL A   1      43.981  27.602  28.066  1.00  0.00     0.167 HD
ATOM     56  C   UNL A   1      45.998  31.475  28.361  1.00  0.00     0.037 A 
ATOM     57  C   UNL A   1      43.780  24.916  27.298  1.00  0.00     0.037 A 
ATOM     58  C   UNL A   1      47.012  30.545  27.934  1.00  0.00     0.049 A 
ATOM     59  C   UNL A   1      45.205  25.318  27.034  1.00  0.00     0.074 A 
ATOM     60  C   UNL A   1      48.361  30.779  27.728  1.00  0.00     0.029 A 
ATOM     61  N   UNL A   1      46.790  29.208  27.633  1.00  0.00    -0.354 N 
ATOM     62  N   UNL A   1      45.775  26.487  27.204  1.00  0.00    -0.248 NA
ATOM     63  C   UNL A   1      46.104  24.279  26.517  1.00  0.00     0.031 C 
ATOM     64  C   UNL A   1      48.940  29.602  27.244  1.00  0.00     0.029 A 
ATOM     65  C   UNL A   1      47.969  28.614  27.211  1.00  0.00     0.049 A 
ATOM     66  H   UNL A   1      45.923  28.749  27.709  1.00  0.00     0.167 HD
ATOM     67  C   UNL A   1      47.105  26.319  26.835  1.00  0.00     0.074 A 
ATOM     68  C   UNL A   1      47.257  24.931  26.448  1.00  0.00     0.031 C 
ATOM     69  C   UNL A   1      48.109  27.231  26.823  1.00  0.00     0.037 A 
BRANCH  56  70
ATOM     70  C   UNL A   1      46.377  32.924  28.526  1.00  0.00     0.058 A 
ATOM     71  C   UNL A   1      46.833  33.439  29.751  1.00  0.00     0.135 A 
ATOM     72  C   UNL A   1      46.305  33.806  27.435  1.00  0.00     0.135 A 
ATOM     73  F   UNL A   1      46.913  32.646  30.832  1.00  0.00    -0.206 F 
ATOM     74  C   UNL A   1      47.161  34.783  29.899  1.00  0.00     0.059 A 
ATOM     75  C   UNL A   1      46.661  35.147  27.552  1.00  0.00     0.059 A 
ATOM     76  F   UNL A   1      45.880  33.369  26.239  1.00  0.00    -0.206 F 
ATOM     77  C   UNL A   1      47.069  35.630  28.794  1.00  0.00     0.060 A 
BRANCH  77  78
ATOM     78  S   UNL A   1      47.485  37.374  29.007  1.00  0.00     0.124 S 
ATOM     79  O   UNL A   1      48.799  37.438  28.372  1.00  0.00    -0.237 OA
ATOM     80  O   UNL A   1      46.403  38.041  28.291  1.00  0.00    -0.237 OA
ATOM     81  O   UNL A   1      47.480  37.553  30.454  1.00  0.00    -0.744 OA
ENDBRANCH  77  78
ENDBRANCH  56  70
BRANCH  57  82
ATOM     82  C   UNL A   1      43.300  23.537  27.011  1.00  0.00     0.058 A 
ATOM     83  C   UNL A   1      43.009  23.127  25.703  1.00  0.00     0.135 A 
ATOM     84  C   UNL A   1      43.168  22.589  28.039  1.00  0.00     0.135 A 
ATOM     85  F   UNL A   1      43.110  23.998  24.689  1.00  0.00    -0.206 F 
ATOM     86  C   UNL A   1      42.601  21.827  25.420  1.00  0.00     0.059 A 
ATOM     87  C   UNL A   1      42.788  21.276  27.778  1.00  0.00     0.059 A 
ATOM     88  F   UNL A   1      43.450  22.926  29.307  1.00  0.00    -0.206 F 
ATOM     89  C   UNL A   1      42.504  20.905  26.465  1.00  0.00     0.060 A 
BRANCH  89  90
ATOM     90  S   UNL A   1      42.051  19.200  26.075  1.00  0.00     0.124 S 
ATOM     91  O   UNL A   1      42.827  18.957  24.867  1.00  0.00    -0.237 OA
ATOM     92  O   UNL A   1      42.490  18.489  27.272  1.00  0.00    -0.237 OA
ATOM     93  O   UNL A   1      40.604  19.271  25.894  1.00  0.00    -0.744 OA
ENDBRANCH  89  90
ENDBRANCH  57  82
BRANCH  69  94
ATOM     94  C   UNL A   1      49.475  26.758  26.403  1.00  0.00     0.058 A 
ATOM     95  C   UNL A   1      50.301  26.016  27.263  1.00  0.00     0.135 A 
ATOM     96  C   UNL A   1      49.941  27.003  25.100  1.00  0.00     0.135 A 
ATOM     97  F   UNL A   1      49.909  25.759  28.521  1.00  0.00    -0.206 F 
ATOM     98  C   UNL A   1      51.550  25.556  26.854  1.00  0.00     0.059 A 
ATOM     99  C   UNL A   1      51.171  26.526  24.660  1.00  0.00     0.059 A 
ATOM    100  F   UNL A   1      49.188  27.699  24.232  1.00  0.00    -0.206 F 
ATOM    101  C   UNL A   1      51.974  25.813  25.548  1.00  0.00     0.060 A 
BRANCH 101 102
ATOM    102  S   UNL A   1      53.580  25.179  25.020  1.00  0.00     0.124 S 
ATOM    103  O   UNL A   1      53.493  23.782  25.430  1.00  0.00    -0.237 OA
ATOM    104  O   UNL A   1      53.553  25.421  23.582  1.00  0.00    -0.237 OA
ATOM    105  O   UNL A   1      54.531  25.995  25.770  1.00  0.00    -0.744 OA
ENDBRANCH 101 102
ENDBRANCH  69  94
ENDBRANCH  43  44
ENDBRANCH  35  38
ENDBRANCH  33  34
ENDBRANCH  32  33
ENDBRANCH  31  32
ENDBRANCH  29  31
ENDBRANCH   5  27
TORSDOF 21
ENDMDL
MODEL 3
REMARK VINA RESULT:     -11.8      5.263     11.719
REMARK SMILES C[C@H](NC(=O)OCc1ccccc1)C(=O)NCC(=O)N1CCC[C@H]1C(=O)NCCCNC(=O)c1ccc(-c2c3nc(c(-c4c(F)cc(S(=O)(=O)[O-])cc4F)c4ccc([nH]4)c(-c4c(F)cc(S(=O)(=O)[O-])cc4F)c4nc(c(-c5c(F)cc(S(=O)(=O)[O-])cc5F)c5ccc2[nH]5)C=C4)C=C3)cc1
REMARK SMILES IDX 20 1 21 2 22 3 23 4 24 5 18 6 19 7 17 8 16 9 14 10 15 11
REMARK SMILES IDX 2 13 1 14 3 15 4 16 5 18 6 19 7 20 8 21 9 22 13 23 10 24
REMARK SMILES IDX 12 25 11 26 25 27 26 28 27 29 28 31 29 32 30 33 31 34 32 35
REMARK SMILES IDX 33 37 34 38 35 39 99 40 36 41 98 42 37 43 38 44 39 45 92 46
REMARK SMILES IDX 40 47 97 48 91 49 93 50 41 51 96 52 90 53 89 54 42 56 76 57
REMARK SMILES IDX 55 58 75 59 56 60 59 61 74 62 94 63 57 64 58 65 73 67 95 68
REMARK SMILES IDX 60 69 43 70 44 71 53 72 45 73 46 74 52 75 54 76 47 77 48 78
REMARK SMILES IDX 49 79 50 80 51 81 77 82 78 83 87 84 79 85 80 86 86 87 88 88
REMARK SMILES IDX 81 89 82 90 83 91 84 92 85 93 61 94 62 95 71 96 63 97 64 98
REMARK SMILES IDX 70 99 72 100 65 101 66 102 67 103 68 104 69 105
REMARK H PARENT 16 12 3 17 27 30 31 36 93 55 59 66
REMARK Flexibility Score: inf
ROOT
ATOM      1  N   UNL A   1      36.208  32.742  33.337  1.00  0.00    -0.329 N 
ATOM      2  C   UNL A   1      36.584  33.341  34.604  1.00  0.00     0.120 C 
ATOM      3  C   UNL A   1      35.515  34.394  34.827  1.00  0.00     0.024 C 
ATOM      4  C   UNL A   1      35.212  34.913  33.428  1.00  0.00     0.037 C 
ATOM      5  C   UNL A   1      35.571  33.756  32.484  1.00  0.00     0.174 C 
ENDROOT
BRANCH   1   6
ATOM      6  C   UNL A   1      36.425  31.486  32.830  1.00  0.00     0.242 C 
ATOM      7  O   UNL A   1      35.536  30.911  32.186  1.00  0.00    -0.273 OA
BRANCH   6   8
ATOM      8  C   UNL A   1      37.647  30.642  33.219  1.00  0.00     0.216 C 
BRANCH   8   9
ATOM      9  N   UNL A   1      37.909  30.226  34.578  1.00  0.00    -0.345 N 
ATOM     10  C   UNL A   1      39.045  30.301  35.327  1.00  0.00     0.242 C 
ATOM     11  O   UNL A   1      38.933  30.048  36.532  1.00  0.00    -0.273 OA
ATOM     12  H   UNL A   1      37.140  29.823  35.040  1.00  0.00     0.164 HD
BRANCH  10  13
ATOM     13  C   UNL A   1      40.397  30.778  34.755  1.00  0.00     0.171 C 
ATOM     14  C   UNL A   1      40.385  32.270  34.437  1.00  0.00     0.042 C 
BRANCH  13  15
ATOM     15  N   UNL A   1      40.860  30.009  33.605  1.00  0.00    -0.310 N 
ATOM     16  C   UNL A   1      41.649  28.896  33.659  1.00  0.00     0.408 C 
ATOM     17  H   UNL A   1      40.580  30.319  32.714  1.00  0.00     0.167 HD
ATOM     18  O   UNL A   1      42.106  28.397  32.639  1.00  0.00    -0.225 OA
BRANCH  16  19
ATOM     19  O   UNL A   1      41.844  28.442  34.918  1.00  0.00    -0.445 OA
BRANCH  19  20
ATOM     20  C   UNL A   1      43.084  27.760  35.150  1.00  0.00     0.270 C 
BRANCH  20  21
ATOM     21  C   UNL A   1      43.012  26.260  34.980  1.00  0.00    -0.011 A 
ATOM     22  C   UNL A   1      42.033  25.480  35.611  1.00  0.00     0.007 A 
ATOM     23  C   UNL A   1      43.986  25.616  34.199  1.00  0.00     0.007 A 
ATOM     24  C   UNL A   1      42.005  24.094  35.431  1.00  0.00     0.000 A 
ATOM     25  C   UNL A   1      43.960  24.232  34.026  1.00  0.00     0.000 A 
ATOM     26  C   UNL A   1      42.967  23.472  34.638  1.00  0.00     0.000 A 
ENDBRANCH  20  21
ENDBRANCH  19  20
ENDBRANCH  16  19
ENDBRANCH  13  15
ENDBRANCH  10  13
ENDBRANCH   8   9
ENDBRANCH   6   8
ENDBRANCH   1   6
BRANCH   5  27
ATOM     27  C   UNL A   1      36.567  34.247  31.414  1.00  0.00     0.242 C 
ATOM     28  O   UNL A   1      37.767  34.394  31.664  1.00  0.00    -0.273 OA
ATOM     29  N   UNL A   1      36.146  34.493  30.141  1.00  0.00    -0.354 N 
ATOM     30  H   UNL A   1      36.823  34.889  29.545  1.00  0.00     0.163 HD
BRANCH  29  31
ATOM     31  C   UNL A   1      34.848  34.258  29.530  1.00  0.00     0.117 C 
BRANCH  31  32
ATOM     32  C   UNL A   1      34.543  32.772  29.393  1.00  0.00     0.042 C 
BRANCH  32  33
ATOM     33  C   UNL A   1      34.541  32.271  27.952  1.00  0.00     0.118 C 
BRANCH  33  34
ATOM     34  N   UNL A   1      33.989  30.930  27.819  1.00  0.00    -0.352 N 
ATOM     35  C   UNL A   1      34.622  29.711  27.805  1.00  0.00     0.251 C 
ATOM     36  H   UNL A   1      33.009  30.891  27.725  1.00  0.00     0.163 HD
ATOM     37  O   UNL A   1      33.983  28.703  27.514  1.00  0.00    -0.269 OA
BRANCH  35  38
ATOM     38  C   UNL A   1      36.065  29.610  28.111  1.00  0.00     0.039 A 
ATOM     39  C   UNL A   1      36.454  29.236  29.400  1.00  0.00     0.014 A 
ATOM     40  C   UNL A   1      37.033  29.890  27.144  1.00  0.00     0.014 A 
ATOM     41  C   UNL A   1      37.810  29.077  29.698  1.00  0.00     0.010 A 
ATOM     42  C   UNL A   1      38.378  29.650  27.418  1.00  0.00     0.010 A 
ATOM     43  C   UNL A   1      38.782  29.244  28.698  1.00  0.00    -0.014 A 
BRANCH  43  44
ATOM     44  C   UNL A   1      40.220  28.983  28.970  1.00  0.00     0.031 A 
ATOM     45  C   UNL A   1      40.835  27.656  28.616  1.00  0.00     0.074 A 
ATOM     46  C   UNL A   1      40.954  29.918  29.604  1.00  0.00     0.049 A 
ATOM     47  N   UNL A   1      42.052  27.226  28.833  1.00  0.00    -0.248 NA
ATOM     48  C   UNL A   1      39.960  26.673  27.958  1.00  0.00     0.031 C 
ATOM     49  C   UNL A   1      40.459  31.222  30.052  1.00  0.00     0.029 A 
ATOM     50  N   UNL A   1      42.270  29.913  29.997  1.00  0.00    -0.354 N 
ATOM     51  C   UNL A   1      42.084  25.920  28.357  1.00  0.00     0.074 A 
ATOM     52  C   UNL A   1      40.750  25.612  27.887  1.00  0.00     0.031 C 
ATOM     53  C   UNL A   1      41.460  31.895  30.642  1.00  0.00     0.029 A 
ATOM     54  C   UNL A   1      42.655  31.057  30.655  1.00  0.00     0.049 A 
ATOM     55  H   UNL A   1      42.880  29.159  29.825  1.00  0.00     0.167 HD
ATOM     56  C   UNL A   1      43.132  25.064  28.302  1.00  0.00     0.037 A 
ATOM     57  C   UNL A   1      43.832  31.393  31.220  1.00  0.00     0.037 A 
ATOM     58  C   UNL A   1      44.461  25.387  28.756  1.00  0.00     0.049 A 
ATOM     59  C   UNL A   1      44.985  30.431  31.140  1.00  0.00     0.074 A 
ATOM     60  C   UNL A   1      45.609  24.618  28.672  1.00  0.00     0.029 A 
ATOM     61  N   UNL A   1      44.818  26.567  29.393  1.00  0.00    -0.354 N 
ATOM     62  N   UNL A   1      45.021  29.232  30.609  1.00  0.00    -0.248 NA
ATOM     63  C   UNL A   1      46.259  30.869  31.725  1.00  0.00     0.031 C 
ATOM     64  C   UNL A   1      46.643  25.306  29.312  1.00  0.00     0.029 A 
ATOM     65  C   UNL A   1      46.160  26.533  29.737  1.00  0.00     0.049 A 
ATOM     66  H   UNL A   1      44.208  27.319  29.573  1.00  0.00     0.167 HD
ATOM     67  C   UNL A   1      46.325  28.780  30.777  1.00  0.00     0.074 A 
ATOM     68  C   UNL A   1      47.050  29.842  31.446  1.00  0.00     0.031 C 
ATOM     69  C   UNL A   1      46.873  27.595  30.407  1.00  0.00     0.037 A 
BRANCH  56  70
ATOM     70  C   UNL A   1      42.881  23.688  27.741  1.00  0.00     0.058 A 
ATOM     71  C   UNL A   1      42.587  22.590  28.566  1.00  0.00     0.135 A 
ATOM     72  C   UNL A   1      42.913  23.469  26.354  1.00  0.00     0.135 A 
ATOM     73  F   UNL A   1      42.552  22.735  29.901  1.00  0.00    -0.206 F 
ATOM     74  C   UNL A   1      42.377  21.319  28.041  1.00  0.00     0.059 A 
ATOM     75  C   UNL A   1      42.673  22.213  25.804  1.00  0.00     0.059 A 
ATOM     76  F   UNL A   1      43.186  24.481  25.516  1.00  0.00    -0.206 F 
ATOM     77  C   UNL A   1      42.426  21.140  26.658  1.00  0.00     0.060 A 
BRANCH  77  78
ATOM     78  S   UNL A   1      42.165  19.481  25.993  1.00  0.00     0.124 S 
ATOM     79  O   UNL A   1      40.726  19.489  25.750  1.00  0.00    -0.237 OA
ATOM     80  O   UNL A   1      43.008  19.488  24.802  1.00  0.00    -0.237 OA
ATOM     81  O   UNL A   1      42.614  18.607  27.071  1.00  0.00    -0.744 OA
ENDBRANCH  77  78
ENDBRANCH  56  70
BRANCH  57  82
ATOM     82  C   UNL A   1      43.971  32.711  31.896  1.00  0.00     0.058 A 
ATOM     83  C   UNL A   1      44.209  33.882  31.164  1.00  0.00     0.135 A 
ATOM     84  C   UNL A   1      43.820  32.829  33.288  1.00  0.00     0.135 A 
ATOM     85  F   UNL A   1      44.369  33.821  29.834  1.00  0.00    -0.206 F 
ATOM     86  C   UNL A   1      44.296  35.125  31.784  1.00  0.00     0.059 A 
ATOM     87  C   UNL A   1      43.876  34.063  33.928  1.00  0.00     0.059 A 
ATOM     88  F   UNL A   1      43.575  31.741  34.033  1.00  0.00    -0.206 F 
ATOM     89  C   UNL A   1      44.118  35.206  33.167  1.00  0.00     0.060 A 
BRANCH  89  90
ATOM     90  S   UNL A   1      44.155  36.833  33.950  1.00  0.00     0.124 S 
ATOM     91  O   UNL A   1      45.275  37.465  33.266  1.00  0.00    -0.237 OA
ATOM     92  O   UNL A   1      42.831  37.356  33.626  1.00  0.00    -0.237 OA
ATOM     93  O   UNL A   1      44.369  36.522  35.361  1.00  0.00    -0.744 OA
ENDBRANCH  89  90
ENDBRANCH  57  82
BRANCH  69  94
ATOM     94  C   UNL A   1      48.336  27.385  30.691  1.00  0.00     0.058 A 
ATOM     95  C   UNL A   1      49.329  27.736  29.763  1.00  0.00     0.135 A 
ATOM     96  C   UNL A   1      48.752  26.875  31.932  1.00  0.00     0.135 A 
ATOM     97  F   UNL A   1      48.989  28.222  28.559  1.00  0.00    -0.206 F 
ATOM     98  C   UNL A   1      50.682  27.568  30.047  1.00  0.00     0.059 A 
ATOM     99  C   UNL A   1      50.098  26.727  32.250  1.00  0.00     0.059 A 
ATOM    100  F   UNL A   1      47.845  26.531  32.861  1.00  0.00    -0.206 F 
ATOM    101  C   UNL A   1      51.056  27.066  31.295  1.00  0.00     0.060 A 
BRANCH 101 102
ATOM    102  S   UNL A   1      52.815  26.885  31.663  1.00  0.00     0.124 S 
ATOM    103  O   UNL A   1      53.192  25.798  30.766  1.00  0.00    -0.237 OA
ATOM    104  O   UNL A   1      53.342  28.202  31.320  1.00  0.00    -0.237 OA
ATOM    105  O   UNL A   1      52.833  26.560  33.086  1.00  0.00    -0.744 OA
ENDBRANCH 101 102
ENDBRANCH  69  94
ENDBRANCH  43  44
ENDBRANCH  35  38
ENDBRANCH  33  34
ENDBRANCH  32  33
ENDBRANCH  31  32
ENDBRANCH  29  31
ENDBRANCH   5  27
TORSDOF 21
ENDMDL
