MODEL 1
REMARK VINA RESULT:     -10.7      0.000      0.000
REMARK SMILES C[C@@H](Oc1ccc(F)cc1)C(=O)N[C@@H](CO)C(=O)NCCCNC(=O)c1ccc(-c2c3nc(c(-c4c(F)cc(S(=O)(=O)[O-])cc4F)c4ccc([nH]4)c(-c4c(F)cc(S(=O)(=O)[O-])cc4F)c4nc(c(-c5c(F)cc(S(=O)(=O)[O-])cc5F)c5ccc2[nH]5)C=C4)C=C3)cc1
REMARK SMILES IDX 20 1 19 2 17 3 18 4 14 6 13 7 11 8 12 9 2 11 1 12 3 13 4 14
REMARK SMILES IDX 5 15 10 16 6 17 9 18 7 19 8 20 15 21 16 22 21 24 22 25 23 26
REMARK SMILES IDX 24 27 25 29 26 30 27 31 91 32 28 33 90 34 29 35 30 36 31 37
REMARK SMILES IDX 84 38 32 39 89 40 83 41 85 42 33 43 88 44 82 45 81 46 34 48
REMARK SMILES IDX 68 49 47 50 67 51 48 52 51 53 66 54 86 55 49 56 50 57 65 59
REMARK SMILES IDX 87 60 52 61 35 62 36 63 45 64 37 65 38 66 44 67 46 68 39 69
REMARK SMILES IDX 40 70 41 71 42 72 43 73 69 74 70 75 79 76 71 77 72 78 78 79
REMARK SMILES IDX 80 80 73 81 74 82 75 83 76 84 77 85 53 86 54 87 63 88 55 89
REMARK SMILES IDX 56 90 62 91 64 92 57 93 58 94 59 95 60 96 61 97
REMARK H PARENT 19 5 13 10 16 23 23 28 85 47 51 58
REMARK Flexibility Score: inf
ROOT
ATOM      1  C   UNL A   1      31.650  26.949  26.618  1.00  0.00     0.117 C 
ENDROOT
BRANCH   1   2
ATOM      2  N   UNL A   1      31.137  27.340  25.319  1.00  0.00    -0.354 N 
ATOM      3  C   UNL A   1      31.719  27.330  24.090  1.00  0.00     0.244 C 
ATOM      4  O   UNL A   1      30.972  27.484  23.117  1.00  0.00    -0.273 OA
ATOM      5  H   UNL A   1      30.209  27.670  25.328  1.00  0.00     0.163 HD
BRANCH   3   6
ATOM      6  C   UNL A   1      33.217  27.045  23.881  1.00  0.00     0.197 C 
BRANCH   6   7
ATOM      7  N   UNL A   1      33.470  26.129  22.760  1.00  0.00    -0.339 N 
ATOM      8  C   UNL A   1      33.341  24.767  22.712  1.00  0.00     0.261 C 
ATOM      9  O   UNL A   1      33.410  24.231  21.603  1.00  0.00    -0.271 OA
ATOM     10  H   UNL A   1      33.775  26.556  21.927  1.00  0.00     0.164 HD
BRANCH   8  11
ATOM     11  C   UNL A   1      33.232  23.925  23.995  1.00  0.00     0.258 C 
ATOM     12  C   UNL A   1      31.750  23.648  24.241  1.00  0.00     0.064 C 
BRANCH  11  13
ATOM     13  O   UNL A   1      34.044  22.761  23.820  1.00  0.00    -0.481 OA
BRANCH  13  14
ATOM     14  C   UNL A   1      35.192  22.706  24.552  1.00  0.00     0.120 A 
ATOM     15  C   UNL A   1      35.957  21.540  24.603  1.00  0.00     0.049 A 
ATOM     16  C   UNL A   1      35.693  23.897  25.075  1.00  0.00     0.049 A 
ATOM     17  C   UNL A   1      37.202  21.551  25.230  1.00  0.00     0.043 A 
ATOM     18  C   UNL A   1      36.946  23.913  25.690  1.00  0.00     0.043 A 
ATOM     19  C   UNL A   1      37.686  22.737  25.767  1.00  0.00     0.123 A 
ATOM     20  F   UNL A   1      38.896  22.753  26.341  1.00  0.00    -0.207 F 
ENDBRANCH  13  14
ENDBRANCH  11  13
ENDBRANCH   8  11
ENDBRANCH   6   7
BRANCH   6  21
ATOM     21  C   UNL A   1      34.069  28.323  23.862  1.00  0.00     0.191 C 
BRANCH  21  22
ATOM     22  O   UNL A   1      33.324  29.532  23.926  1.00  0.00    -0.394 OA
ATOM     23  H   UNL A   1      33.006  29.764  23.039  1.00  0.00     0.210 HD
ENDBRANCH  21  22
ENDBRANCH   6  21
ENDBRANCH   3   6
ENDBRANCH   1   2
BRANCH   1  24
ATOM     24  C   UNL A   1      31.932  28.140  27.520  1.00  0.00     0.042 C 
BRANCH  24  25
ATOM     25  C   UNL A   1      33.364  28.650  27.448  1.00  0.00     0.118 C 
BRANCH  25  26
ATOM     26  N   UNL A   1      33.473  30.076  27.733  1.00  0.00    -0.352 N 
ATOM     27  C   UNL A   1      34.519  30.802  28.252  1.00  0.00     0.251 C 
ATOM     28  H   UNL A   1      32.670  30.602  27.519  1.00  0.00     0.163 HD
ATOM     29  O   UNL A   1      34.336  31.971  28.585  1.00  0.00    -0.269 OA
BRANCH  27  30
ATOM     30  C   UNL A   1      35.844  30.176  28.441  1.00  0.00     0.039 A 
ATOM     31  C   UNL A   1      36.750  30.176  27.378  1.00  0.00     0.014 A 
ATOM     32  C   UNL A   1      36.202  29.602  29.663  1.00  0.00     0.014 A 
ATOM     33  C   UNL A   1      38.047  29.696  27.575  1.00  0.00     0.010 A 
ATOM     34  C   UNL A   1      37.519  29.211  29.885  1.00  0.00     0.010 A 
ATOM     35  C   UNL A   1      38.460  29.268  28.848  1.00  0.00    -0.014 A 
BRANCH  35  36
ATOM     36  C   UNL A   1      39.879  28.923  29.125  1.00  0.00     0.031 A 
ATOM     37  C   UNL A   1      40.816  29.952  29.698  1.00  0.00     0.074 A 
ATOM     38  C   UNL A   1      40.339  27.699  28.788  1.00  0.00     0.049 A 
ATOM     39  N   UNL A   1      42.101  29.860  29.917  1.00  0.00    -0.248 NA
ATOM     40  C   UNL A   1      40.242  31.262  30.050  1.00  0.00     0.031 C 
ATOM     41  C   UNL A   1      39.537  26.634  28.179  1.00  0.00     0.029 A 
ATOM     42  N   UNL A   1      41.591  27.145  28.895  1.00  0.00    -0.354 N 
ATOM     43  C   UNL A   1      42.490  31.094  30.425  1.00  0.00     0.074 A 
ATOM     44  C   UNL A   1      41.316  31.937  30.435  1.00  0.00     0.031 C 
ATOM     45  C   UNL A   1      40.308  25.551  27.992  1.00  0.00     0.029 A 
ATOM     46  C   UNL A   1      41.669  25.857  28.419  1.00  0.00     0.049 A 
ATOM     47  H   UNL A   1      42.360  27.625  29.279  1.00  0.00     0.167 HD
ATOM     48  C   UNL A   1      43.710  31.476  30.866  1.00  0.00     0.037 A 
ATOM     49  C   UNL A   1      42.721  25.019  28.316  1.00  0.00     0.037 A 
ATOM     50  C   UNL A   1      44.867  30.618  30.884  1.00  0.00     0.049 A 
ATOM     51  C   UNL A   1      44.072  25.482  28.791  1.00  0.00     0.074 A 
ATOM     52  C   UNL A   1      46.130  30.897  31.375  1.00  0.00     0.029 A 
ATOM     53  N   UNL A   1      44.906  29.322  30.393  1.00  0.00    -0.354 N 
ATOM     54  N   UNL A   1      44.403  26.630  29.332  1.00  0.00    -0.248 NA
ATOM     55  C   UNL A   1      45.193  24.543  28.640  1.00  0.00     0.031 C 
ATOM     56  C   UNL A   1      46.946  29.789  31.135  1.00  0.00     0.029 A 
ATOM     57  C   UNL A   1      46.179  28.800  30.542  1.00  0.00     0.049 A 
ATOM     58  H   UNL A   1      44.141  28.843  29.999  1.00  0.00     0.167 HD
ATOM     59  C   UNL A   1      45.765  26.546  29.595  1.00  0.00     0.074 A 
ATOM     60  C   UNL A   1      46.193  25.228  29.178  1.00  0.00     0.031 C 
ATOM     61  C   UNL A   1      46.589  27.483  30.126  1.00  0.00     0.037 A 
BRANCH  48  62
ATOM     62  C   UNL A   1      43.875  32.870  31.402  1.00  0.00     0.058 A 
ATOM     63  C   UNL A   1      43.605  33.154  32.750  1.00  0.00     0.135 A 
ATOM     64  C   UNL A   1      44.172  33.947  30.552  1.00  0.00     0.135 A 
ATOM     65  F   UNL A   1      43.323  32.160  33.608  1.00  0.00    -0.206 F 
ATOM     66  C   UNL A   1      43.586  34.460  33.229  1.00  0.00     0.059 A 
ATOM     67  C   UNL A   1      44.183  35.260  31.014  1.00  0.00     0.059 A 
ATOM     68  F   UNL A   1      44.459  33.728  29.259  1.00  0.00    -0.206 F 
ATOM     69  C   UNL A   1      43.864  35.507  32.350  1.00  0.00     0.060 A 
BRANCH  69  70
ATOM     70  S   UNL A   1      43.803  37.199  32.978  1.00  0.00     0.124 S 
ATOM     71  O   UNL A   1      43.660  37.971  31.749  1.00  0.00    -0.237 OA
ATOM     72  O   UNL A   1      42.630  37.158  33.846  1.00  0.00    -0.237 OA
ATOM     73  O   UNL A   1      45.080  37.349  33.670  1.00  0.00    -0.744 OA
ENDBRANCH  69  70
ENDBRANCH  48  62
BRANCH  49  74
ATOM     74  C   UNL A   1      42.540  23.659  27.739  1.00  0.00     0.058 A 
ATOM     75  C   UNL A   1      42.411  22.528  28.560  1.00  0.00     0.135 A 
ATOM     76  C   UNL A   1      42.497  23.463  26.350  1.00  0.00     0.135 A 
ATOM     77  F   UNL A   1      42.455  22.656  29.895  1.00  0.00    -0.206 F 
ATOM     78  C   UNL A   1      42.262  21.252  28.027  1.00  0.00     0.059 A 
ATOM     79  C   UNL A   1      42.320  22.199  25.792  1.00  0.00     0.059 A 
ATOM     80  F   UNL A   1      42.605  24.514  25.522  1.00  0.00    -0.206 F 
ATOM     81  C   UNL A   1      42.217  21.098  26.641  1.00  0.00     0.060 A 
BRANCH  81  82
ATOM     82  S   UNL A   1      42.003  19.434  25.972  1.00  0.00     0.124 S 
ATOM     83  O   UNL A   1      42.420  18.610  27.102  1.00  0.00    -0.237 OA
ATOM     84  O   UNL A   1      40.579  19.411  25.658  1.00  0.00    -0.237 OA
ATOM     85  O   UNL A   1      42.897  19.418  24.818  1.00  0.00    -0.744 OA
ENDBRANCH  81  82
ENDBRANCH  49  74
BRANCH  61  86
ATOM     86  C   UNL A   1      48.039  27.127  30.296  1.00  0.00     0.058 A 
ATOM     87  C   UNL A   1      48.519  26.649  31.526  1.00  0.00     0.135 A 
ATOM     88  C   UNL A   1      48.970  27.358  29.271  1.00  0.00     0.135 A 
ATOM     89  F   UNL A   1      47.671  26.416  32.540  1.00  0.00    -0.206 F 
ATOM     90  C   UNL A   1      49.877  26.442  31.743  1.00  0.00     0.059 A 
ATOM     91  C   UNL A   1      50.330  27.131  29.459  1.00  0.00     0.059 A 
ATOM     92  F   UNL A   1      48.558  27.803  28.074  1.00  0.00    -0.206 F 
ATOM     93  C   UNL A   1      50.776  26.692  30.705  1.00  0.00     0.060 A 
BRANCH  93  94
ATOM     94  S   UNL A   1      52.535  26.433  31.011  1.00  0.00     0.124 S 
ATOM     95  O   UNL A   1      52.537  25.130  31.668  1.00  0.00    -0.237 OA
ATOM     96  O   UNL A   1      53.089  26.464  29.661  1.00  0.00    -0.237 OA
ATOM     97  O   UNL A   1      52.903  27.564  31.858  1.00  0.00    -0.744 OA
ENDBRANCH  93  94
ENDBRANCH  61  86
ENDBRANCH  35  36
ENDBRANCH  27  30
ENDBRANCH  25  26
ENDBRANCH  24  25
ENDBRANCH   1  24
TORSDOF 19
ENDMDL
MODEL 2
REMARK VINA RESULT:     -10.4      3.126      9.307
REMARK SMILES C[C@@H](Oc1ccc(F)cc1)C(=O)N[C@@H](CO)C(=O)NCCCNC(=O)c1ccc(-c2c3nc(c(-c4c(F)cc(S(=O)(=O)[O-])cc4F)c4ccc([nH]4)c(-c4c(F)cc(S(=O)(=O)[O-])cc4F)c4nc(c(-c5c(F)cc(S(=O)(=O)[O-])cc5F)c5ccc2[nH]5)C=C4)C=C3)cc1
REMARK SMILES IDX 20 1 19 2 17 3 18 4 14 6 13 7 11 8 12 9 2 11 1 12 3 13 4 14
REMARK SMILES IDX 5 15 10 16 6 17 9 18 7 19 8 20 15 21 16 22 21 24 22 25 23 26
REMARK SMILES IDX 24 27 25 29 26 30 27 31 91 32 28 33 90 34 29 35 30 36 31 37
REMARK SMILES IDX 84 38 32 39 89 40 83 41 85 42 33 43 88 44 82 45 81 46 34 48
REMARK SMILES IDX 68 49 47 50 67 51 48 52 51 53 66 54 86 55 49 56 50 57 65 59
REMARK SMILES IDX 87 60 52 61 35 62 36 63 45 64 37 65 38 66 44 67 46 68 39 69
REMARK SMILES IDX 40 70 41 71 42 72 43 73 69 74 70 75 79 76 71 77 72 78 78 79
REMARK SMILES IDX 80 80 73 81 74 82 75 83 76 84 77 85 53 86 54 87 63 88 55 89
REMARK SMILES IDX 56 90 62 91 64 92 57 93 58 94 59 95 60 96 61 97
REMARK H PARENT 19 5 13 10 16 23 23 28 85 47 51 58
REMARK Flexibility Score: inf
ROOT
ATOM      1  C   UNL A   1      34.783  23.608  23.560  1.00  0.00     0.117 C 
ENDROOT
BRANCH   1   2
ATOM      2  N   UNL A   1      33.879  22.477  23.647  1.00  0.00    -0.354 N 
ATOM      3  C   UNL A   1      33.182  21.971  24.699  1.00  0.00     0.244 C 
ATOM      4  O   UNL A   1      32.295  21.150  24.439  1.00  0.00    -0.273 OA
ATOM      5  H   UNL A   1      33.747  21.992  22.800  1.00  0.00     0.163 HD
BRANCH   3   6
ATOM      6  C   UNL A   1      33.396  22.449  26.146  1.00  0.00     0.197 C 
BRANCH   6   7
ATOM      7  N   UNL A   1      32.135  22.632  26.877  1.00  0.00    -0.339 N 
ATOM      8  C   UNL A   1      31.159  23.574  26.691  1.00  0.00     0.261 C 
ATOM      9  O   UNL A   1      30.091  23.409  27.286  1.00  0.00    -0.271 OA
ATOM     10  H   UNL A   1      31.968  21.987  27.602  1.00  0.00     0.164 HD
BRANCH   8  11
ATOM     11  C   UNL A   1      31.419  24.848  25.868  1.00  0.00     0.258 C 
ATOM     12  C   UNL A   1      30.689  24.695  24.535  1.00  0.00     0.064 C 
BRANCH  11  13
ATOM     13  O   UNL A   1      31.006  25.966  26.658  1.00  0.00    -0.481 OA
BRANCH  13  14
ATOM     14  C   UNL A   1      31.909  26.977  26.798  1.00  0.00     0.120 A 
ATOM     15  C   UNL A   1      33.179  26.892  26.227  1.00  0.00     0.049 A 
ATOM     16  C   UNL A   1      31.464  28.182  27.342  1.00  0.00     0.049 A 
ATOM     17  C   UNL A   1      34.030  27.996  26.251  1.00  0.00     0.043 A 
ATOM     18  C   UNL A   1      32.309  29.292  27.354  1.00  0.00     0.043 A 
ATOM     19  C   UNL A   1      33.587  29.187  26.813  1.00  0.00     0.123 A 
ATOM     20  F   UNL A   1      34.394  30.255  26.808  1.00  0.00    -0.207 F 
ENDBRANCH  13  14
ENDBRANCH  11  13
ENDBRANCH   8  11
ENDBRANCH   6   7
BRANCH   6  21
ATOM     21  C   UNL A   1      34.450  21.620  26.897  1.00  0.00     0.191 C 
BRANCH  21  22
ATOM     22  O   UNL A   1      35.146  20.678  26.092  1.00  0.00    -0.394 OA
ATOM     23  H   UNL A   1      35.856  20.269  26.611  1.00  0.00     0.210 HD
ENDBRANCH  21  22
ENDBRANCH   6  21
ENDBRANCH   3   6
ENDBRANCH   1   2
BRANCH   1  24
ATOM     24  C   UNL A   1      36.244  23.200  23.653  1.00  0.00     0.042 C 
BRANCH  24  25
ATOM     25  C   UNL A   1      36.927  23.622  24.946  1.00  0.00     0.118 C 
BRANCH  25  26
ATOM     26  N   UNL A   1      37.973  22.696  25.364  1.00  0.00    -0.352 N 
ATOM     27  C   UNL A   1      39.115  22.916  26.095  1.00  0.00     0.251 C 
ATOM     28  H   UNL A   1      37.839  21.765  25.076  1.00  0.00     0.163 HD
ATOM     29  O   UNL A   1      39.960  22.027  26.179  1.00  0.00    -0.269 OA
BRANCH  27  30
ATOM     30  C   UNL A   1      39.345  24.221  26.749  1.00  0.00     0.039 A 
ATOM     31  C   UNL A   1      38.849  24.429  28.038  1.00  0.00     0.014 A 
ATOM     32  C   UNL A   1      40.059  25.233  26.105  1.00  0.00     0.014 A 
ATOM     33  C   UNL A   1      39.159  25.610  28.716  1.00  0.00     0.010 A 
ATOM     34  C   UNL A   1      40.446  26.367  26.814  1.00  0.00     0.010 A 
ATOM     35  C   UNL A   1      40.012  26.561  28.132  1.00  0.00    -0.014 A 
BRANCH  35  36
ATOM     36  C   UNL A   1      40.500  27.737  28.900  1.00  0.00     0.031 A 
ATOM     37  C   UNL A   1      41.854  27.710  29.556  1.00  0.00     0.074 A 
ATOM     38  C   UNL A   1      39.686  28.801  29.065  1.00  0.00     0.049 A 
ATOM     39  N   UNL A   1      42.404  28.602  30.338  1.00  0.00    -0.248 NA
ATOM     40  C   UNL A   1      42.690  26.521  29.324  1.00  0.00     0.031 C 
ATOM     41  C   UNL A   1      38.331  28.921  28.518  1.00  0.00     0.029 A 
ATOM     42  N   UNL A   1      39.868  29.978  29.748  1.00  0.00    -0.354 N 
ATOM     43  C   UNL A   1      43.642  28.082  30.696  1.00  0.00     0.074 A 
ATOM     44  C   UNL A   1      43.745  26.775  30.087  1.00  0.00     0.031 C 
ATOM     45  C   UNL A   1      37.818  30.112  28.864  1.00  0.00     0.029 A 
ATOM     46  C   UNL A   1      38.781  30.821  29.699  1.00  0.00     0.049 A 
ATOM     47  H   UNL A   1      40.699  30.199  30.228  1.00  0.00     0.167 HD
ATOM     48  C   UNL A   1      44.614  28.657  31.441  1.00  0.00     0.037 A 
ATOM     49  C   UNL A   1      38.573  32.023  30.275  1.00  0.00     0.037 A 
ATOM     50  C   UNL A   1      44.516  29.975  32.015  1.00  0.00     0.049 A 
ATOM     51  C   UNL A   1      39.662  32.625  31.121  1.00  0.00     0.074 A 
ATOM     52  C   UNL A   1      45.477  30.668  32.730  1.00  0.00     0.029 A 
ATOM     53  N   UNL A   1      43.402  30.796  31.943  1.00  0.00    -0.354 N 
ATOM     54  N   UNL A   1      40.853  32.146  31.389  1.00  0.00    -0.248 NA
ATOM     55  C   UNL A   1      39.382  33.926  31.747  1.00  0.00     0.031 C 
ATOM     56  C   UNL A   1      44.926  31.887  33.134  1.00  0.00     0.029 A 
ATOM     57  C   UNL A   1      43.640  31.975  32.627  1.00  0.00     0.049 A 
ATOM     58  H   UNL A   1      42.565  30.573  31.473  1.00  0.00     0.167 HD
ATOM     59  C   UNL A   1      41.467  33.091  32.203  1.00  0.00     0.074 A 
ATOM     60  C   UNL A   1      40.528  34.180  32.365  1.00  0.00     0.031 C 
ATOM     61  C   UNL A   1      42.696  33.053  32.774  1.00  0.00     0.037 A 
BRANCH  48  62
ATOM     62  C   UNL A   1      45.890  27.897  31.666  1.00  0.00     0.058 A 
ATOM     63  C   UNL A   1      46.059  27.107  32.814  1.00  0.00     0.135 A 
ATOM     64  C   UNL A   1      46.992  28.055  30.810  1.00  0.00     0.135 A 
ATOM     65  F   UNL A   1      45.035  26.917  33.661  1.00  0.00    -0.206 F 
ATOM     66  C   UNL A   1      47.287  26.533  33.127  1.00  0.00     0.059 A 
ATOM     67  C   UNL A   1      48.223  27.469  31.090  1.00  0.00     0.059 A 
ATOM     68  F   UNL A   1      46.877  28.782  29.688  1.00  0.00    -0.206 F 
ATOM     69  C   UNL A   1      48.366  26.729  32.265  1.00  0.00     0.060 A 
BRANCH  69  70
ATOM     70  S   UNL A   1      49.961  26.005  32.702  1.00  0.00     0.124 S 
ATOM     71  O   UNL A   1      50.884  26.813  31.914  1.00  0.00    -0.237 OA
ATOM     72  O   UNL A   1      50.004  26.214  34.146  1.00  0.00    -0.237 OA
ATOM     73  O   UNL A   1      49.827  24.613  32.282  1.00  0.00    -0.744 OA
ENDBRANCH  69  70
ENDBRANCH  48  62
BRANCH  49  74
ATOM     74  C   UNL A   1      37.281  32.734  30.074  1.00  0.00     0.058 A 
ATOM     75  C   UNL A   1      37.087  33.602  28.988  1.00  0.00     0.135 A 
ATOM     76  C   UNL A   1      36.214  32.563  30.969  1.00  0.00     0.135 A 
ATOM     77  F   UNL A   1      38.077  33.812  28.107  1.00  0.00    -0.206 F 
ATOM     78  C   UNL A   1      35.890  34.286  28.806  1.00  0.00     0.059 A 
ATOM     79  C   UNL A   1      34.996  33.213  30.792  1.00  0.00     0.059 A 
ATOM     80  F   UNL A   1      36.346  31.734  32.017  1.00  0.00    -0.206 F 
ATOM     81  C   UNL A   1      34.849  34.084  29.713  1.00  0.00     0.060 A 
BRANCH  81  82
ATOM     82  S   UNL A   1      33.297  34.967  29.445  1.00  0.00     0.124 S 
ATOM     83  O   UNL A   1      33.776  36.270  28.998  1.00  0.00    -0.237 OA
ATOM     84  O   UNL A   1      32.648  34.145  28.430  1.00  0.00    -0.237 OA
ATOM     85  O   UNL A   1      32.666  34.947  30.762  1.00  0.00    -0.744 OA
ENDBRANCH  81  82
ENDBRANCH  49  74
BRANCH  61  86
ATOM     86  C   UNL A   1      43.110  34.220  33.626  1.00  0.00     0.058 A 
ATOM     87  C   UNL A   1      43.855  35.278  33.078  1.00  0.00     0.135 A 
ATOM     88  C   UNL A   1      42.858  34.239  35.007  1.00  0.00     0.135 A 
ATOM     89  F   UNL A   1      44.127  35.304  31.764  1.00  0.00    -0.206 F 
ATOM     90  C   UNL A   1      44.361  36.297  33.876  1.00  0.00     0.059 A 
ATOM     91  C   UNL A   1      43.332  35.264  35.819  1.00  0.00     0.059 A 
ATOM     92  F   UNL A   1      42.141  33.258  35.575  1.00  0.00    -0.206 F 
ATOM     93  C   UNL A   1      44.100  36.278  35.247  1.00  0.00     0.060 A 
BRANCH  93  94
ATOM     94  S   UNL A   1      44.779  37.602  36.269  1.00  0.00     0.124 S 
ATOM     95  O   UNL A   1      44.500  37.115  37.616  1.00  0.00    -0.237 OA
ATOM     96  O   UNL A   1      46.184  37.605  35.873  1.00  0.00    -0.237 OA
ATOM     97  O   UNL A   1      44.016  38.776  35.856  1.00  0.00    -0.744 OA
ENDBRANCH  93  94
ENDBRANCH  61  86
ENDBRANCH  35  36
ENDBRANCH  27  30
ENDBRANCH  25  26
ENDBRANCH  24  25
ENDBRANCH   1  24
TORSDOF 19
ENDMDL
MODEL 3
REMARK VINA RESULT:     -10.3      1.900      3.605
REMARK SMILES C[C@@H](Oc1ccc(F)cc1)C(=O)N[C@@H](CO)C(=O)NCCCNC(=O)c1ccc(-c2c3nc(c(-c4c(F)cc(S(=O)(=O)[O-])cc4F)c4ccc([nH]4)c(-c4c(F)cc(S(=O)(=O)[O-])cc4F)c4nc(c(-c5c(F)cc(S(=O)(=O)[O-])cc5F)c5ccc2[nH]5)C=C4)C=C3)cc1
REMARK SMILES IDX 20 1 19 2 17 3 18 4 14 6 13 7 11 8 12 9 2 11 1 12 3 13 4 14
REMARK SMILES IDX 5 15 10 16 6 17 9 18 7 19 8 20 15 21 16 22 21 24 22 25 23 26
REMARK SMILES IDX 24 27 25 29 26 30 27 31 91 32 28 33 90 34 29 35 30 36 31 37
REMARK SMILES IDX 84 38 32 39 89 40 83 41 85 42 33 43 88 44 82 45 81 46 34 48
REMARK SMILES IDX 68 49 47 50 67 51 48 52 51 53 66 54 86 55 49 56 50 57 65 59
REMARK SMILES IDX 87 60 52 61 35 62 36 63 45 64 37 65 38 66 44 67 46 68 39 69
REMARK SMILES IDX 40 70 41 71 42 72 43 73 69 74 70 75 79 76 71 77 72 78 78 79
REMARK SMILES IDX 80 80 73 81 74 82 75 83 76 84 77 85 53 86 54 87 63 88 55 89
REMARK SMILES IDX 56 90 62 91 64 92 57 93 58 94 59 95 60 96 61 97
REMARK H PARENT 19 5 13 10 16 23 23 28 85 47 51 58
REMARK Flexibility Score: inf
ROOT
ATOM      1  C   UNL A   1      31.556  26.825  26.586  1.00  0.00     0.117 C 
ENDROOT
BRANCH   1   2
ATOM      2  N   UNL A   1      32.659  25.889  26.484  1.00  0.00    -0.354 N 
ATOM      3  C   UNL A   1      32.997  25.010  25.503  1.00  0.00     0.244 C 
ATOM      4  O   UNL A   1      34.126  24.511  25.565  1.00  0.00    -0.273 OA
ATOM      5  H   UNL A   1      33.269  25.890  27.258  1.00  0.00     0.163 HD
BRANCH   3   6
ATOM      6  C   UNL A   1      32.077  24.705  24.307  1.00  0.00     0.197 C 
BRANCH   6   7
ATOM      7  N   UNL A   1      32.688  25.055  23.018  1.00  0.00    -0.339 N 
ATOM      8  C   UNL A   1      33.089  26.280  22.557  1.00  0.00     0.261 C 
ATOM      9  O   UNL A   1      33.766  26.304  21.525  1.00  0.00    -0.271 OA
ATOM     10  H   UNL A   1      32.828  24.303  22.398  1.00  0.00     0.164 HD
BRANCH   8  11
ATOM     11  C   UNL A   1      32.621  27.584  23.227  1.00  0.00     0.258 C 
ATOM     12  C   UNL A   1      33.851  28.265  23.822  1.00  0.00     0.064 C 
BRANCH  11  13
ATOM     13  O   UNL A   1      31.921  28.351  22.244  1.00  0.00    -0.481 OA
BRANCH  13  14
ATOM     14  C   UNL A   1      30.575  28.472  22.413  1.00  0.00     0.120 A 
ATOM     15  C   UNL A   1      29.836  27.474  23.050  1.00  0.00     0.049 A 
ATOM     16  C   UNL A   1      29.988  29.704  22.127  1.00  0.00     0.049 A 
ATOM     17  C   UNL A   1      28.492  27.685  23.349  1.00  0.00     0.043 A 
ATOM     18  C   UNL A   1      28.645  29.923  22.439  1.00  0.00     0.043 A 
ATOM     19  C   UNL A   1      27.908  28.908  23.043  1.00  0.00     0.123 A 
ATOM     20  F   UNL A   1      26.624  29.120  23.359  1.00  0.00    -0.207 F 
ENDBRANCH  13  14
ENDBRANCH  11  13
ENDBRANCH   8  11
ENDBRANCH   6   7
BRANCH   6  21
ATOM     21  C   UNL A   1      31.477  23.292  24.363  1.00  0.00     0.191 C 
BRANCH  21  22
ATOM     22  O   UNL A   1      30.407  23.140  25.287  1.00  0.00    -0.394 OA
ATOM     23  H   UNL A   1      29.940  22.309  25.106  1.00  0.00     0.210 HD
ENDBRANCH  21  22
ENDBRANCH   6  21
ENDBRANCH   3   6
ENDBRANCH   1   2
BRANCH   1  24
ATOM     24  C   UNL A   1      31.857  27.989  27.517  1.00  0.00     0.042 C 
BRANCH  24  25
ATOM     25  C   UNL A   1      33.249  28.580  27.342  1.00  0.00     0.118 C 
BRANCH  25  26
ATOM     26  N   UNL A   1      33.308  29.998  27.678  1.00  0.00    -0.352 N 
ATOM     27  C   UNL A   1      34.324  30.739  28.233  1.00  0.00     0.251 C 
ATOM     28  H   UNL A   1      32.490  30.505  27.475  1.00  0.00     0.163 HD
ATOM     29  O   UNL A   1      34.101  31.888  28.605  1.00  0.00    -0.269 OA
BRANCH  27  30
ATOM     30  C   UNL A   1      35.668  30.150  28.413  1.00  0.00     0.039 A 
ATOM     31  C   UNL A   1      36.545  30.121  27.326  1.00  0.00     0.014 A 
ATOM     32  C   UNL A   1      36.071  29.640  29.649  1.00  0.00     0.014 A 
ATOM     33  C   UNL A   1      37.857  29.678  27.508  1.00  0.00     0.010 A 
ATOM     34  C   UNL A   1      37.403  29.288  29.851  1.00  0.00     0.010 A 
ATOM     35  C   UNL A   1      38.314  29.317  28.787  1.00  0.00    -0.014 A 
BRANCH  35  36
ATOM     36  C   UNL A   1      39.747  29.015  29.040  1.00  0.00     0.031 A 
ATOM     37  C   UNL A   1      40.669  30.082  29.565  1.00  0.00     0.074 A 
ATOM     38  C   UNL A   1      40.230  27.795  28.722  1.00  0.00     0.049 A 
ATOM     39  N   UNL A   1      41.961  30.027  29.757  1.00  0.00    -0.248 NA
ATOM     40  C   UNL A   1      40.070  31.385  29.898  1.00  0.00     0.031 C 
ATOM     41  C   UNL A   1      39.442  26.695  28.158  1.00  0.00     0.029 A 
ATOM     42  N   UNL A   1      41.498  27.276  28.814  1.00  0.00    -0.354 N 
ATOM     43  C   UNL A   1      42.330  31.283  30.225  1.00  0.00     0.074 A 
ATOM     44  C   UNL A   1      41.134  32.097  30.242  1.00  0.00     0.031 C 
ATOM     45  C   UNL A   1      40.237  25.628  27.980  1.00  0.00     0.029 A 
ATOM     46  C   UNL A   1      41.599  25.978  28.367  1.00  0.00     0.049 A 
ATOM     47  H   UNL A   1      42.263  27.784  29.168  1.00  0.00     0.167 HD
ATOM     48  C   UNL A   1      43.549  31.707  30.628  1.00  0.00     0.037 A 
ATOM     49  C   UNL A   1      42.670  25.165  28.261  1.00  0.00     0.037 A 
ATOM     50  C   UNL A   1      44.727  30.879  30.640  1.00  0.00     0.049 A 
ATOM     51  C   UNL A   1      44.018  25.674  28.693  1.00  0.00     0.074 A 
ATOM     52  C   UNL A   1      45.994  31.202  31.095  1.00  0.00     0.029 A 
ATOM     53  N   UNL A   1      44.789  29.573  30.181  1.00  0.00    -0.354 N 
ATOM     54  N   UNL A   1      44.332  26.843  29.197  1.00  0.00    -0.248 NA
ATOM     55  C   UNL A   1      45.160  24.760  28.539  1.00  0.00     0.031 C 
ATOM     56  C   UNL A   1      46.833  30.109  30.864  1.00  0.00     0.029 A 
ATOM     57  C   UNL A   1      46.078  29.087  30.312  1.00  0.00     0.049 A 
ATOM     58  H   UNL A   1      44.028  29.065  29.816  1.00  0.00     0.167 HD
ATOM     59  C   UNL A   1      45.701  26.801  29.431  1.00  0.00     0.074 A 
ATOM     60  C   UNL A   1      46.153  25.484  29.037  1.00  0.00     0.031 C 
ATOM     61  C   UNL A   1      46.512  27.770  29.920  1.00  0.00     0.037 A 
BRANCH  48  62
ATOM     62  C   UNL A   1      43.689  33.118  31.126  1.00  0.00     0.058 A 
ATOM     63  C   UNL A   1      44.084  34.147  30.256  1.00  0.00     0.135 A 
ATOM     64  C   UNL A   1      43.560  33.425  32.490  1.00  0.00     0.135 A 
ATOM     65  F   UNL A   1      44.215  33.908  28.941  1.00  0.00    -0.206 F 
ATOM     66  C   UNL A   1      44.384  35.421  30.726  1.00  0.00     0.059 A 
ATOM     67  C   UNL A   1      43.830  34.700  32.979  1.00  0.00     0.059 A 
ATOM     68  F   UNL A   1      43.164  32.483  33.360  1.00  0.00    -0.206 F 
ATOM     69  C   UNL A   1      44.265  35.685  32.091  1.00  0.00     0.060 A 
BRANCH  69  70
ATOM     70  S   UNL A   1      44.689  37.334  32.690  1.00  0.00     0.124 S 
ATOM     71  O   UNL A   1      43.471  37.721  33.392  1.00  0.00    -0.237 OA
ATOM     72  O   UNL A   1      45.851  37.063  33.531  1.00  0.00    -0.237 OA
ATOM     73  O   UNL A   1      44.971  38.077  31.465  1.00  0.00    -0.744 OA
ENDBRANCH  69  70
ENDBRANCH  48  62
BRANCH  49  74
ATOM     74  C   UNL A   1      42.511  23.787  27.721  1.00  0.00     0.058 A 
ATOM     75  C   UNL A   1      42.439  23.548  26.340  1.00  0.00     0.135 A 
ATOM     76  C   UNL A   1      42.423  22.680  28.578  1.00  0.00     0.135 A 
ATOM     77  F   UNL A   1      42.506  24.571  25.474  1.00  0.00    -0.206 F 
ATOM     78  C   UNL A   1      42.269  22.265  25.829  1.00  0.00     0.059 A 
ATOM     79  C   UNL A   1      42.282  21.383  28.091  1.00  0.00     0.059 A 
ATOM     80  F   UNL A   1      42.498  22.855  29.907  1.00  0.00    -0.206 F 
ATOM     81  C   UNL A   1      42.193  21.189  26.713  1.00  0.00     0.060 A 
BRANCH  81  82
ATOM     82  S   UNL A   1      41.994  19.530  26.027  1.00  0.00     0.124 S 
ATOM     83  O   UNL A   1      40.554  19.482  25.796  1.00  0.00    -0.237 OA
ATOM     84  O   UNL A   1      42.827  19.591  24.832  1.00  0.00    -0.237 OA
ATOM     85  O   UNL A   1      42.490  18.663  27.091  1.00  0.00    -0.744 OA
ENDBRANCH  81  82
ENDBRANCH  49  74
BRANCH  61  86
ATOM     86  C   UNL A   1      47.975  27.456  30.065  1.00  0.00     0.058 A 
ATOM     87  C   UNL A   1      48.468  26.872  31.243  1.00  0.00     0.135 A 
ATOM     88  C   UNL A   1      48.901  27.828  29.077  1.00  0.00     0.135 A 
ATOM     89  F   UNL A   1      47.625  26.503  32.220  1.00  0.00    -0.206 F 
ATOM     90  C   UNL A   1      49.832  26.697  31.449  1.00  0.00     0.059 A 
ATOM     91  C   UNL A   1      50.268  27.636  29.252  1.00  0.00     0.059 A 
ATOM     92  F   UNL A   1      48.477  28.377  27.929  1.00  0.00    -0.206 F 
ATOM     93  C   UNL A   1      50.725  27.088  30.450  1.00  0.00     0.060 A 
BRANCH  93  94
ATOM     94  S   UNL A   1      52.491  26.867  30.743  1.00  0.00     0.124 S 
ATOM     95  O   UNL A   1      52.496  26.088  31.977  1.00  0.00    -0.237 OA
ATOM     96  O   UNL A   1      52.915  26.156  29.541  1.00  0.00    -0.237 OA
ATOM     97  O   UNL A   1      52.990  28.235  30.862  1.00  0.00    -0.744 OA
ENDBRANCH  93  94
ENDBRANCH  61  86
ENDBRANCH  35  36
ENDBRANCH  27  30
ENDBRANCH  25  26
ENDBRANCH  24  25
ENDBRANCH   1  24
TORSDOF 19
ENDMDL
