MODEL 1
REMARK VINA RESULT:     -12.9      0.000      0.000
REMARK SMILES CC(C)[C@H](NC(=O)[C@H](Cc1ccccc1)n1c(=O)[nH]c2ccccc2c1=O)C(=O)NCCCNC(=O)c1ccc(-c2c3nc(c(-c4c(F)cc(S(=O)(=O)[O-])cc4F)c4ccc([nH]4)c(-c4c(F)cc(S(=O)(=O)[O-])cc4F)c4nc(c(-c5c(F)cc(S(=O)(=O)[O-])cc5F)c5ccc2[nH]5)C=C4)C=C3)cc1
REMARK SMILES IDX 31 1 30 2 28 3 29 4 4 6 2 7 1 8 3 9 5 10 6 11 7 13 8 14
REMARK SMILES IDX 16 15 17 16 26 17 18 18 19 19 25 20 27 21 20 22 24 24 21 25
REMARK SMILES IDX 23 26 22 27 9 28 10 29 11 30 15 31 12 32 14 33 13 34 32 35
REMARK SMILES IDX 33 36 34 37 35 38 36 40 37 41 38 42 102 43 39 44 101 45
REMARK SMILES IDX 40 46 41 47 42 48 95 49 43 50 100 51 94 52 96 53 44 54 99 55
REMARK SMILES IDX 93 56 92 57 45 59 79 60 58 61 78 62 59 63 62 64 77 65 97 66
REMARK SMILES IDX 60 67 61 68 76 70 98 71 63 72 46 73 47 74 56 75 48 76 49 77
REMARK SMILES IDX 55 78 57 79 50 80 51 81 52 82 53 83 54 84 80 85 81 86 90 87
REMARK SMILES IDX 82 88 83 89 89 90 91 91 84 92 85 93 86 94 87 95 88 96 64 97
REMARK SMILES IDX 65 98 74 99 66 100 67 101 73 102 75 103 68 104 69 105 70 106
REMARK SMILES IDX 71 107 72 108
REMARK H PARENT 30 5 5 12 19 23 34 39 96 58 62 69
REMARK Flexibility Score: inf
ROOT
ATOM      1  C   UNL A   1      33.114  29.155  24.880  1.00  0.00     0.117 C 
ENDROOT
BRANCH   1   2
ATOM      2  N   UNL A   1      31.715  28.897  24.581  1.00  0.00    -0.354 N 
ATOM      3  C   UNL A   1      31.075  27.706  24.394  1.00  0.00     0.242 C 
ATOM      4  O   UNL A   1      29.843  27.710  24.348  1.00  0.00    -0.273 OA
ATOM      5  H   UNL A   1      31.147  29.698  24.501  1.00  0.00     0.163 HD
BRANCH   3   6
ATOM      6  C   UNL A   1      31.868  26.380  24.408  1.00  0.00     0.173 C 
BRANCH   6   7
ATOM      7  C   UNL A   1      32.035  25.811  22.980  1.00  0.00     0.015 C 
ATOM      8  C   UNL A   1      31.207  26.432  21.845  1.00  0.00     0.010 C 
ATOM      9  C   UNL A   1      33.511  25.911  22.572  1.00  0.00     0.010 C 
ENDBRANCH   6   7
BRANCH   6  10
ATOM     10  N   UNL A   1      31.332  25.535  25.502  1.00  0.00    -0.342 N 
ATOM     11  C   UNL A   1      31.643  24.459  26.266  1.00  0.00     0.244 C 
ATOM     12  H   UNL A   1      30.444  25.872  25.765  1.00  0.00     0.164 HD
ATOM     13  O   UNL A   1      30.652  23.935  26.793  1.00  0.00    -0.273 OA
BRANCH  11  14
ATOM     14  C   UNL A   1      33.019  23.762  26.309  1.00  0.00     0.189 C 
BRANCH  14  15
ATOM     15  N   UNL A   1      33.036  22.327  25.984  1.00  0.00    -0.247 N 
ATOM     16  C   UNL A   1      33.499  21.431  26.932  1.00  0.00     0.329 A 
ATOM     17  C   UNL A   1      32.422  21.927  24.797  1.00  0.00     0.264 A 
ATOM     18  O   UNL A   1      34.113  21.744  27.948  1.00  0.00    -0.248 OA
ATOM     19  N   UNL A   1      33.265  20.105  26.695  1.00  0.00    -0.307 N 
ATOM     20  C   UNL A   1      32.497  20.497  24.461  1.00  0.00     0.064 A 
ATOM     21  O   UNL A   1      31.845  22.684  24.021  1.00  0.00    -0.268 OA
ATOM     22  C   UNL A   1      32.824  19.609  25.473  1.00  0.00     0.055 A 
ATOM     23  H   UNL A   1      33.414  19.466  27.429  1.00  0.00     0.171 HD
ATOM     24  C   UNL A   1      32.275  20.041  23.158  1.00  0.00     0.016 A 
ATOM     25  C   UNL A   1      32.807  18.237  25.232  1.00  0.00     0.027 A 
ATOM     26  C   UNL A   1      32.338  18.674  22.894  1.00  0.00     0.001 A 
ATOM     27  C   UNL A   1      32.568  17.772  23.936  1.00  0.00     0.002 A 
ENDBRANCH  14  15
BRANCH  14  28
ATOM     28  C   UNL A   1      34.169  24.561  25.627  1.00  0.00     0.071 C 
BRANCH  28  29
ATOM     29  C   UNL A   1      35.444  23.836  25.260  1.00  0.00    -0.045 A 
ATOM     30  C   UNL A   1      35.605  23.307  23.971  1.00  0.00     0.004 A 
ATOM     31  C   UNL A   1      36.489  23.676  26.180  1.00  0.00     0.004 A 
ATOM     32  C   UNL A   1      36.746  22.578  23.632  1.00  0.00     0.000 A 
ATOM     33  C   UNL A   1      37.615  22.917  25.853  1.00  0.00     0.000 A 
ATOM     34  C   UNL A   1      37.740  22.362  24.581  1.00  0.00     0.000 A 
ENDBRANCH  28  29
ENDBRANCH  14  28
ENDBRANCH  11  14
ENDBRANCH   6  10
ENDBRANCH   3   6
ENDBRANCH   1   2
BRANCH   1  35
ATOM     35  C   UNL A   1      33.714  28.083  25.768  1.00  0.00     0.042 C 
BRANCH  35  36
ATOM     36  C   UNL A   1      33.538  28.395  27.247  1.00  0.00     0.118 C 
BRANCH  36  37
ATOM     37  N   UNL A   1      33.469  29.829  27.516  1.00  0.00    -0.352 N 
ATOM     38  C   UNL A   1      34.418  30.648  28.080  1.00  0.00     0.251 C 
ATOM     39  H   UNL A   1      32.627  30.269  27.258  1.00  0.00     0.163 HD
ATOM     40  O   UNL A   1      34.140  31.792  28.399  1.00  0.00    -0.269 OA
BRANCH  38  41
ATOM     41  C   UNL A   1      35.768  30.101  28.305  1.00  0.00     0.039 A 
ATOM     42  C   UNL A   1      36.690  30.110  27.257  1.00  0.00     0.014 A 
ATOM     43  C   UNL A   1      36.128  29.640  29.573  1.00  0.00     0.014 A 
ATOM     44  C   UNL A   1      38.004  29.717  27.507  1.00  0.00     0.010 A 
ATOM     45  C   UNL A   1      37.455  29.344  29.841  1.00  0.00     0.010 A 
ATOM     46  C   UNL A   1      38.404  29.369  28.808  1.00  0.00    -0.014 A 
BRANCH  46  47
ATOM     47  C   UNL A   1      39.808  29.009  29.117  1.00  0.00     0.031 A 
ATOM     48  C   UNL A   1      40.714  30.033  29.743  1.00  0.00     0.074 A 
ATOM     49  C   UNL A   1      40.279  27.799  28.762  1.00  0.00     0.049 A 
ATOM     50  N   UNL A   1      41.991  29.952  30.009  1.00  0.00    -0.248 NA
ATOM     51  C   UNL A   1      40.113  31.335  30.081  1.00  0.00     0.031 C 
ATOM     52  C   UNL A   1      39.506  26.750  28.091  1.00  0.00     0.029 A 
ATOM     53  N   UNL A   1      41.526  27.248  28.906  1.00  0.00    -0.354 N 
ATOM     54  C   UNL A   1      42.348  31.193  30.522  1.00  0.00     0.074 A 
ATOM     55  C   UNL A   1      41.169  32.029  30.472  1.00  0.00     0.031 C 
ATOM     56  C   UNL A   1      40.289  25.675  27.908  1.00  0.00     0.029 A 
ATOM     57  C   UNL A   1      41.627  25.969  28.411  1.00  0.00     0.049 A 
ATOM     58  H   UNL A   1      42.280  27.724  29.324  1.00  0.00     0.167 HD
ATOM     59  C   UNL A   1      43.543  31.590  31.017  1.00  0.00     0.037 A 
ATOM     60  C   UNL A   1      42.681  25.132  28.366  1.00  0.00     0.037 A 
ATOM     61  C   UNL A   1      44.697  30.735  31.096  1.00  0.00     0.049 A 
ATOM     62  C   UNL A   1      43.994  25.588  28.943  1.00  0.00     0.074 A 
ATOM     63  C   UNL A   1      45.938  31.014  31.639  1.00  0.00     0.029 A 
ATOM     64  N   UNL A   1      44.749  29.433  30.620  1.00  0.00    -0.354 N 
ATOM     65  N   UNL A   1      44.298  26.743  29.488  1.00  0.00    -0.248 NA
ATOM     66  C   UNL A   1      45.104  24.628  28.909  1.00  0.00     0.031 C 
ATOM     67  C   UNL A   1      46.753  29.891  31.458  1.00  0.00     0.029 A 
ATOM     68  C   UNL A   1      46.006  28.898  30.843  1.00  0.00     0.049 A 
ATOM     69  H   UNL A   1      44.003  28.960  30.187  1.00  0.00     0.167 HD
ATOM     70  C   UNL A   1      45.626  26.638  29.884  1.00  0.00     0.074 A 
ATOM     71  C   UNL A   1      46.062  25.303  29.528  1.00  0.00     0.031 C 
ATOM     72  C   UNL A   1      46.414  27.561  30.489  1.00  0.00     0.037 A 
BRANCH  59  73
ATOM     73  C   UNL A   1      43.654  33.002  31.521  1.00  0.00     0.058 A 
ATOM     74  C   UNL A   1      44.142  34.039  30.707  1.00  0.00     0.135 A 
ATOM     75  C   UNL A   1      43.250  33.331  32.825  1.00  0.00     0.135 A 
ATOM     76  F   UNL A   1      44.559  33.778  29.458  1.00  0.00    -0.206 F 
ATOM     77  C   UNL A   1      44.255  35.342  31.177  1.00  0.00     0.059 A 
ATOM     78  C   UNL A   1      43.327  34.635  33.307  1.00  0.00     0.059 A 
ATOM     79  F   UNL A   1      42.781  32.380  33.647  1.00  0.00    -0.206 F 
ATOM     80  C   UNL A   1      43.844  35.630  32.480  1.00  0.00     0.060 A 
BRANCH  80  81
ATOM     81  S   UNL A   1      43.992  37.329  33.072  1.00  0.00     0.124 S 
ATOM     82  O   UNL A   1      45.356  37.338  33.594  1.00  0.00    -0.237 OA
ATOM     83  O   UNL A   1      43.775  38.105  31.856  1.00  0.00    -0.237 OA
ATOM     84  O   UNL A   1      42.936  37.433  34.075  1.00  0.00    -0.744 OA
ENDBRANCH  80  81
ENDBRANCH  59  73
BRANCH  60  85
ATOM     85  C   UNL A   1      42.528  23.771  27.787  1.00  0.00     0.058 A 
ATOM     86  C   UNL A   1      42.397  22.647  28.616  1.00  0.00     0.135 A 
ATOM     87  C   UNL A   1      42.490  23.568  26.399  1.00  0.00     0.135 A 
ATOM     88  F   UNL A   1      42.429  22.789  29.949  1.00  0.00    -0.206 F 
ATOM     89  C   UNL A   1      42.253  21.366  28.091  1.00  0.00     0.059 A 
ATOM     90  C   UNL A   1      42.322  22.300  25.850  1.00  0.00     0.059 A 
ATOM     91  F   UNL A   1      42.591  24.613  25.563  1.00  0.00    -0.206 F 
ATOM     92  C   UNL A   1      42.216  21.203  26.705  1.00  0.00     0.060 A 
BRANCH  92  93
ATOM     93  S   UNL A   1      41.987  19.541  26.036  1.00  0.00     0.124 S 
ATOM     94  O   UNL A   1      42.457  18.712  27.140  1.00  0.00    -0.237 OA
ATOM     95  O   UNL A   1      40.549  19.509  25.782  1.00  0.00    -0.237 OA
ATOM     96  O   UNL A   1      42.826  19.542  24.842  1.00  0.00    -0.744 OA
ENDBRANCH  92  93
ENDBRANCH  60  85
BRANCH  72  97
ATOM     97  C   UNL A   1      47.817  27.150  30.837  1.00  0.00     0.058 A 
ATOM     98  C   UNL A   1      48.130  26.577  32.077  1.00  0.00     0.135 A 
ATOM     99  C   UNL A   1      48.847  27.279  29.891  1.00  0.00     0.135 A 
ATOM    100  F   UNL A   1      47.182  26.438  33.018  1.00  0.00    -0.206 F 
ATOM    101  C   UNL A   1      49.424  26.165  32.379  1.00  0.00     0.059 A 
ATOM    102  C   UNL A   1      50.142  26.849  30.161  1.00  0.00     0.059 A 
ATOM    103  F   UNL A   1      48.596  27.812  28.684  1.00  0.00    -0.206 F 
ATOM    104  C   UNL A   1      50.423  26.302  31.412  1.00  0.00     0.060 A 
BRANCH 104 105
ATOM    105  S   UNL A   1      52.089  25.728  31.802  1.00  0.00     0.124 S 
ATOM    106  O   UNL A   1      52.405  26.523  32.984  1.00  0.00    -0.237 OA
ATOM    107  O   UNL A   1      51.882  24.301  32.032  1.00  0.00    -0.237 OA
ATOM    108  O   UNL A   1      52.851  26.057  30.600  1.00  0.00    -0.744 OA
ENDBRANCH 104 105
ENDBRANCH  72  97
ENDBRANCH  46  47
ENDBRANCH  38  41
ENDBRANCH  36  37
ENDBRANCH  35  36
ENDBRANCH   1  35
TORSDOF 19
ENDMDL
MODEL 2
REMARK VINA RESULT:     -12.8      4.447     10.294
REMARK SMILES CC(C)[C@H](NC(=O)[C@H](Cc1ccccc1)n1c(=O)[nH]c2ccccc2c1=O)C(=O)NCCCNC(=O)c1ccc(-c2c3nc(c(-c4c(F)cc(S(=O)(=O)[O-])cc4F)c4ccc([nH]4)c(-c4c(F)cc(S(=O)(=O)[O-])cc4F)c4nc(c(-c5c(F)cc(S(=O)(=O)[O-])cc5F)c5ccc2[nH]5)C=C4)C=C3)cc1
REMARK SMILES IDX 31 1 30 2 28 3 29 4 4 6 2 7 1 8 3 9 5 10 6 11 7 13 8 14
REMARK SMILES IDX 16 15 17 16 26 17 18 18 19 19 25 20 27 21 20 22 24 24 21 25
REMARK SMILES IDX 23 26 22 27 9 28 10 29 11 30 15 31 12 32 14 33 13 34 32 35
REMARK SMILES IDX 33 36 34 37 35 38 36 40 37 41 38 42 102 43 39 44 101 45
REMARK SMILES IDX 40 46 41 47 42 48 95 49 43 50 100 51 94 52 96 53 44 54 99 55
REMARK SMILES IDX 93 56 92 57 45 59 79 60 58 61 78 62 59 63 62 64 77 65 97 66
REMARK SMILES IDX 60 67 61 68 76 70 98 71 63 72 46 73 47 74 56 75 48 76 49 77
REMARK SMILES IDX 55 78 57 79 50 80 51 81 52 82 53 83 54 84 80 85 81 86 90 87
REMARK SMILES IDX 82 88 83 89 89 90 91 91 84 92 85 93 86 94 87 95 88 96 64 97
REMARK SMILES IDX 65 98 74 99 66 100 67 101 73 102 75 103 68 104 69 105 70 106
REMARK SMILES IDX 71 107 72 108
REMARK H PARENT 30 5 5 12 19 23 34 39 96 58 62 69
REMARK Flexibility Score: inf
ROOT
ATOM      1  C   UNL A   1      36.413  23.165  25.752  1.00  0.00     0.117 C 
ENDROOT
BRANCH   1   2
ATOM      2  N   UNL A   1      35.676  21.992  25.310  1.00  0.00    -0.354 N 
ATOM      3  C   UNL A   1      34.393  21.896  24.855  1.00  0.00     0.242 C 
ATOM      4  O   UNL A   1      34.036  20.832  24.345  1.00  0.00    -0.273 OA
ATOM      5  H   UNL A   1      36.176  21.144  25.345  1.00  0.00     0.163 HD
BRANCH   3   6
ATOM      6  C   UNL A   1      33.475  23.139  24.833  1.00  0.00     0.173 C 
BRANCH   6   7
ATOM      7  C   UNL A   1      32.080  22.817  25.417  1.00  0.00     0.015 C 
ATOM      8  C   UNL A   1      31.520  23.730  26.517  1.00  0.00     0.010 C 
ATOM      9  C   UNL A   1      31.054  22.800  24.276  1.00  0.00     0.010 C 
ENDBRANCH   6   7
BRANCH   6  10
ATOM     10  N   UNL A   1      33.610  23.785  23.505  1.00  0.00    -0.342 N 
ATOM     11  C   UNL A   1      33.611  25.004  22.910  1.00  0.00     0.244 C 
ATOM     12  H   UNL A   1      33.745  23.091  22.820  1.00  0.00     0.164 HD
ATOM     13  O   UNL A   1      33.388  24.949  21.693  1.00  0.00    -0.273 OA
BRANCH  11  14
ATOM     14  C   UNL A   1      33.626  26.358  23.648  1.00  0.00     0.189 C 
BRANCH  14  15
ATOM     15  N   UNL A   1      32.599  27.333  23.249  1.00  0.00    -0.247 N 
ATOM     16  C   UNL A   1      32.997  28.532  22.684  1.00  0.00     0.329 A 
ATOM     17  C   UNL A   1      31.266  26.924  23.300  1.00  0.00     0.264 A 
ATOM     18  O   UNL A   1      34.148  28.960  22.691  1.00  0.00    -0.248 OA
ATOM     19  N   UNL A   1      32.023  29.293  22.099  1.00  0.00    -0.307 N 
ATOM     20  C   UNL A   1      30.249  27.928  22.951  1.00  0.00     0.064 A 
ATOM     21  O   UNL A   1      30.894  25.800  23.629  1.00  0.00    -0.268 OA
ATOM     22  C   UNL A   1      30.662  29.054  22.256  1.00  0.00     0.055 A 
ATOM     23  H   UNL A   1      32.299  30.051  21.534  1.00  0.00     0.171 HD
ATOM     24  C   UNL A   1      28.912  27.774  23.327  1.00  0.00     0.016 A 
ATOM     25  C   UNL A   1      29.725  29.983  21.811  1.00  0.00     0.027 A 
ATOM     26  C   UNL A   1      27.983  28.744  22.954  1.00  0.00     0.001 A 
ATOM     27  C   UNL A   1      28.383  29.827  22.167  1.00  0.00     0.002 A 
ENDBRANCH  14  15
BRANCH  14  28
ATOM     28  C   UNL A   1      33.804  26.251  25.192  1.00  0.00     0.071 C 
BRANCH  28  29
ATOM     29  C   UNL A   1      33.416  27.429  26.056  1.00  0.00    -0.045 A 
ATOM     30  C   UNL A   1      32.180  27.437  26.720  1.00  0.00     0.004 A 
ATOM     31  C   UNL A   1      34.266  28.531  26.220  1.00  0.00     0.004 A 
ATOM     32  C   UNL A   1      31.776  28.543  27.469  1.00  0.00     0.000 A 
ATOM     33  C   UNL A   1      33.847  29.652  26.940  1.00  0.00     0.000 A 
ATOM     34  C   UNL A   1      32.599  29.661  27.558  1.00  0.00     0.000 A 
ENDBRANCH  28  29
ENDBRANCH  14  28
ENDBRANCH  11  14
ENDBRANCH   6  10
ENDBRANCH   3   6
ENDBRANCH   1   2
BRANCH   1  35
ATOM     35  C   UNL A   1      37.861  22.843  26.067  1.00  0.00     0.042 C 
BRANCH  35  36
ATOM     36  C   UNL A   1      38.632  24.065  26.545  1.00  0.00     0.118 C 
BRANCH  36  37
ATOM     37  N   UNL A   1      40.030  24.049  26.124  1.00  0.00    -0.352 N 
ATOM     38  C   UNL A   1      41.029  24.948  26.412  1.00  0.00     0.251 C 
ATOM     39  H   UNL A   1      40.293  23.291  25.554  1.00  0.00     0.163 HD
ATOM     40  O   UNL A   1      42.103  24.887  25.837  1.00  0.00    -0.269 OA
BRANCH  38  41
ATOM     41  C   UNL A   1      40.760  25.993  27.416  1.00  0.00     0.039 A 
ATOM     42  C   UNL A   1      39.885  25.718  28.468  1.00  0.00     0.014 A 
ATOM     43  C   UNL A   1      41.428  27.217  27.340  1.00  0.00     0.014 A 
ATOM     44  C   UNL A   1      39.734  26.656  29.488  1.00  0.00     0.010 A 
ATOM     45  C   UNL A   1      41.350  28.104  28.401  1.00  0.00     0.010 A 
ATOM     46  C   UNL A   1      40.495  27.838  29.480  1.00  0.00    -0.014 A 
BRANCH  46  47
ATOM     47  C   UNL A   1      40.405  28.824  30.583  1.00  0.00     0.031 A 
ATOM     48  C   UNL A   1      41.306  28.683  31.778  1.00  0.00     0.074 A 
ATOM     49  C   UNL A   1      39.464  29.787  30.541  1.00  0.00     0.049 A 
ATOM     50  N   UNL A   1      41.326  29.381  32.883  1.00  0.00    -0.248 NA
ATOM     51  C   UNL A   1      42.293  27.589  31.742  1.00  0.00     0.031 C 
ATOM     52  C   UNL A   1      38.493  29.978  29.459  1.00  0.00     0.029 A 
ATOM     53  N   UNL A   1      39.161  30.780  31.435  1.00  0.00    -0.354 N 
ATOM     54  C   UNL A   1      42.306  28.798  33.678  1.00  0.00     0.074 A 
ATOM     55  C   UNL A   1      42.814  27.654  32.956  1.00  0.00     0.031 C 
ATOM     56  C   UNL A   1      37.722  31.040  29.742  1.00  0.00     0.029 A 
ATOM     57  C   UNL A   1      38.117  31.583  31.038  1.00  0.00     0.049 A 
ATOM     58  H   UNL A   1      39.646  30.908  32.282  1.00  0.00     0.167 HD
ATOM     59  C   UNL A   1      42.761  29.200  34.887  1.00  0.00     0.037 A 
ATOM     60  C   UNL A   1      37.542  32.634  31.654  1.00  0.00     0.037 A 
ATOM     61  C   UNL A   1      42.272  30.363  35.578  1.00  0.00     0.049 A 
ATOM     62  C   UNL A   1      38.079  33.075  32.989  1.00  0.00     0.074 A 
ATOM     63  C   UNL A   1      42.707  30.899  36.776  1.00  0.00     0.029 A 
ATOM     64  N   UNL A   1      41.239  31.174  35.126  1.00  0.00    -0.354 N 
ATOM     65  N   UNL A   1      39.054  32.554  33.697  1.00  0.00    -0.248 NA
ATOM     66  C   UNL A   1      37.449  34.249  33.604  1.00  0.00     0.031 C 
ATOM     67  C   UNL A   1      41.912  32.012  37.068  1.00  0.00     0.029 A 
ATOM     68  C   UNL A   1      41.012  32.198  36.029  1.00  0.00     0.049 A 
ATOM     69  H   UNL A   1      40.742  31.040  34.287  1.00  0.00     0.167 HD
ATOM     70  C   UNL A   1      39.169  33.352  34.829  1.00  0.00     0.074 A 
ATOM     71  C   UNL A   1      38.174  34.398  34.703  1.00  0.00     0.031 C 
ATOM     72  C   UNL A   1      40.022  33.234  35.877  1.00  0.00     0.037 A 
BRANCH  59  73
ATOM     73  C   UNL A   1      43.847  28.382  35.530  1.00  0.00     0.058 A 
ATOM     74  C   UNL A   1      45.205  28.618  35.259  1.00  0.00     0.135 A 
ATOM     75  C   UNL A   1      43.531  27.362  36.442  1.00  0.00     0.135 A 
ATOM     76  F   UNL A   1      45.563  29.568  34.380  1.00  0.00    -0.206 F 
ATOM     77  C   UNL A   1      46.209  27.855  35.844  1.00  0.00     0.059 A 
ATOM     78  C   UNL A   1      44.521  26.605  37.062  1.00  0.00     0.059 A 
ATOM     79  F   UNL A   1      42.250  27.091  36.735  1.00  0.00    -0.206 F 
ATOM     80  C   UNL A   1      45.855  26.849  36.745  1.00  0.00     0.060 A 
BRANCH  80  81
ATOM     81  S   UNL A   1      47.171  25.871  37.501  1.00  0.00     0.124 S 
ATOM     82  O   UNL A   1      46.810  24.521  37.077  1.00  0.00    -0.237 OA
ATOM     83  O   UNL A   1      48.370  26.428  36.883  1.00  0.00    -0.237 OA
ATOM     84  O   UNL A   1      47.020  26.142  38.927  1.00  0.00    -0.744 OA
ENDBRANCH  80  81
ENDBRANCH  59  73
BRANCH  60  85
ATOM     85  C   UNL A   1      36.420  33.358  31.000  1.00  0.00     0.058 A 
ATOM     86  C   UNL A   1      36.640  34.144  29.860  1.00  0.00     0.135 A 
ATOM     87  C   UNL A   1      35.107  33.265  31.487  1.00  0.00     0.135 A 
ATOM     88  F   UNL A   1      37.878  34.268  29.358  1.00  0.00    -0.206 F 
ATOM     89  C   UNL A   1      35.603  34.830  29.235  1.00  0.00     0.059 A 
ATOM     90  C   UNL A   1      34.049  33.920  30.865  1.00  0.00     0.059 A 
ATOM     91  F   UNL A   1      34.841  32.509  32.563  1.00  0.00    -0.206 F 
ATOM     92  C   UNL A   1      34.309  34.710  29.746  1.00  0.00     0.060 A 
BRANCH  92  93
ATOM     93  S   UNL A   1      32.963  35.570  28.902  1.00  0.00     0.124 S 
ATOM     94  O   UNL A   1      33.669  36.688  28.285  1.00  0.00    -0.237 OA
ATOM     95  O   UNL A   1      32.470  34.544  27.987  1.00  0.00    -0.237 OA
ATOM     96  O   UNL A   1      32.054  35.919  29.989  1.00  0.00    -0.744 OA
ENDBRANCH  92  93
ENDBRANCH  60  85
BRANCH  72  97
ATOM     97  C   UNL A   1      39.941  34.278  36.954  1.00  0.00     0.058 A 
ATOM     98  C   UNL A   1      40.731  35.437  36.917  1.00  0.00     0.135 A 
ATOM     99  C   UNL A   1      39.019  34.143  38.004  1.00  0.00     0.135 A 
ATOM    100  F   UNL A   1      41.632  35.611  35.937  1.00  0.00    -0.206 F 
ATOM    101  C   UNL A   1      40.625  36.417  37.898  1.00  0.00     0.059 A 
ATOM    102  C   UNL A   1      38.876  35.123  38.980  1.00  0.00     0.059 A 
ATOM    103  F   UNL A   1      38.232  33.057  38.078  1.00  0.00    -0.206 F 
ATOM    104  C   UNL A   1      39.692  36.252  38.924  1.00  0.00     0.060 A 
BRANCH 104 105
ATOM    105  S   UNL A   1      39.537  37.550  40.169  1.00  0.00     0.124 S 
ATOM    106  O   UNL A   1      39.121  36.785  41.340  1.00  0.00    -0.237 OA
ATOM    107  O   UNL A   1      40.888  38.101  40.217  1.00  0.00    -0.237 OA
ATOM    108  O   UNL A   1      38.524  38.440  39.607  1.00  0.00    -0.744 OA
ENDBRANCH 104 105
ENDBRANCH  72  97
ENDBRANCH  46  47
ENDBRANCH  38  41
ENDBRANCH  36  37
ENDBRANCH  35  36
ENDBRANCH   1  35
TORSDOF 19
ENDMDL
MODEL 3
REMARK VINA RESULT:     -12.4      4.660      9.709
REMARK SMILES CC(C)[C@H](NC(=O)[C@H](Cc1ccccc1)n1c(=O)[nH]c2ccccc2c1=O)C(=O)NCCCNC(=O)c1ccc(-c2c3nc(c(-c4c(F)cc(S(=O)(=O)[O-])cc4F)c4ccc([nH]4)c(-c4c(F)cc(S(=O)(=O)[O-])cc4F)c4nc(c(-c5c(F)cc(S(=O)(=O)[O-])cc5F)c5ccc2[nH]5)C=C4)C=C3)cc1
REMARK SMILES IDX 31 1 30 2 28 3 29 4 4 6 2 7 1 8 3 9 5 10 6 11 7 13 8 14
REMARK SMILES IDX 16 15 17 16 26 17 18 18 19 19 25 20 27 21 20 22 24 24 21 25
REMARK SMILES IDX 23 26 22 27 9 28 10 29 11 30 15 31 12 32 14 33 13 34 32 35
REMARK SMILES IDX 33 36 34 37 35 38 36 40 37 41 38 42 102 43 39 44 101 45
REMARK SMILES IDX 40 46 41 47 42 48 95 49 43 50 100 51 94 52 96 53 44 54 99 55
REMARK SMILES IDX 93 56 92 57 45 59 79 60 58 61 78 62 59 63 62 64 77 65 97 66
REMARK SMILES IDX 60 67 61 68 76 70 98 71 63 72 46 73 47 74 56 75 48 76 49 77
REMARK SMILES IDX 55 78 57 79 50 80 51 81 52 82 53 83 54 84 80 85 81 86 90 87
REMARK SMILES IDX 82 88 83 89 89 90 91 91 84 92 85 93 86 94 87 95 88 96 64 97
REMARK SMILES IDX 65 98 74 99 66 100 67 101 73 102 75 103 68 104 69 105 70 106
REMARK SMILES IDX 71 107 72 108
REMARK H PARENT 30 5 5 12 19 23 34 39 96 58 62 69
REMARK Flexibility Score: inf
ROOT
ATOM      1  C   UNL A   1      36.516  23.343  25.816  1.00  0.00     0.117 C 
ENDROOT
BRANCH   1   2
ATOM      2  N   UNL A   1      35.782  22.145  25.440  1.00  0.00    -0.354 N 
ATOM      3  C   UNL A   1      34.488  22.016  25.026  1.00  0.00     0.242 C 
ATOM      4  O   UNL A   1      34.130  20.930  24.566  1.00  0.00    -0.273 OA
ATOM      5  H   UNL A   1      36.293  21.305  25.493  1.00  0.00     0.163 HD
BRANCH   3   6
ATOM      6  C   UNL A   1      33.554  23.247  24.983  1.00  0.00     0.173 C 
BRANCH   6   7
ATOM      7  C   UNL A   1      32.168  22.921  25.587  1.00  0.00     0.015 C 
ATOM      8  C   UNL A   1      31.553  23.917  26.581  1.00  0.00     0.010 C 
ATOM      9  C   UNL A   1      31.158  22.734  24.447  1.00  0.00     0.010 C 
ENDBRANCH   6   7
BRANCH   6  10
ATOM     10  N   UNL A   1      33.667  23.863  23.639  1.00  0.00    -0.342 N 
ATOM     11  C   UNL A   1      33.644  25.067  23.015  1.00  0.00     0.244 C 
ATOM     12  H   UNL A   1      33.810  23.155  22.969  1.00  0.00     0.164 HD
ATOM     13  O   UNL A   1      33.413  24.978  21.800  1.00  0.00    -0.273 OA
BRANCH  11  14
ATOM     14  C   UNL A   1      33.641  26.439  23.719  1.00  0.00     0.189 C 
BRANCH  14  15
ATOM     15  N   UNL A   1      32.597  27.387  23.302  1.00  0.00    -0.247 N 
ATOM     16  C   UNL A   1      32.975  28.589  22.728  1.00  0.00     0.329 A 
ATOM     17  C   UNL A   1      31.272  26.951  23.347  1.00  0.00     0.264 A 
ATOM     18  O   UNL A   1      34.116  29.041  22.740  1.00  0.00    -0.248 OA
ATOM     19  N   UNL A   1      31.989  29.324  22.128  1.00  0.00    -0.307 N 
ATOM     20  C   UNL A   1      30.238  27.930  22.979  1.00  0.00     0.064 A 
ATOM     21  O   UNL A   1      30.922  25.823  23.684  1.00  0.00    -0.268 OA
ATOM     22  C   UNL A   1      30.633  29.057  22.277  1.00  0.00     0.055 A 
ATOM     23  H   UNL A   1      32.254  30.081  21.558  1.00  0.00     0.171 HD
ATOM     24  C   UNL A   1      28.901  27.751  23.346  1.00  0.00     0.016 A 
ATOM     25  C   UNL A   1      29.680  29.962  21.815  1.00  0.00     0.027 A 
ATOM     26  C   UNL A   1      27.955  28.698  22.956  1.00  0.00     0.001 A 
ATOM     27  C   UNL A   1      28.338  29.781  22.161  1.00  0.00     0.002 A 
ENDBRANCH  14  15
BRANCH  14  28
ATOM     28  C   UNL A   1      33.828  26.371  25.265  1.00  0.00     0.071 C 
BRANCH  28  29
ATOM     29  C   UNL A   1      33.440  27.570  26.101  1.00  0.00    -0.045 A 
ATOM     30  C   UNL A   1      32.180  27.620  26.716  1.00  0.00     0.004 A 
ATOM     31  C   UNL A   1      34.314  28.650  26.285  1.00  0.00     0.004 A 
ATOM     32  C   UNL A   1      31.779  28.744  27.437  1.00  0.00     0.000 A 
ATOM     33  C   UNL A   1      33.899  29.790  26.977  1.00  0.00     0.000 A 
ATOM     34  C   UNL A   1      32.629  29.841  27.546  1.00  0.00     0.000 A 
ENDBRANCH  28  29
ENDBRANCH  14  28
ENDBRANCH  11  14
ENDBRANCH   6  10
ENDBRANCH   3   6
ENDBRANCH   1   2
BRANCH   1  35
ATOM     35  C   UNL A   1      37.997  23.071  25.994  1.00  0.00     0.042 C 
BRANCH  35  36
ATOM     36  C   UNL A   1      38.744  24.284  26.528  1.00  0.00     0.118 C 
BRANCH  36  37
ATOM     37  N   UNL A   1      40.147  24.304  26.122  1.00  0.00    -0.352 N 
ATOM     38  C   UNL A   1      41.138  25.185  26.484  1.00  0.00     0.251 C 
ATOM     39  H   UNL A   1      40.420  23.589  25.503  1.00  0.00     0.163 HD
ATOM     40  O   UNL A   1      42.219  25.170  25.918  1.00  0.00    -0.269 OA
BRANCH  38  41
ATOM     41  C   UNL A   1      40.853  26.155  27.556  1.00  0.00     0.039 A 
ATOM     42  C   UNL A   1      39.910  25.833  28.533  1.00  0.00     0.014 A 
ATOM     43  C   UNL A   1      41.570  27.352  27.617  1.00  0.00     0.014 A 
ATOM     44  C   UNL A   1      39.738  26.691  29.618  1.00  0.00     0.010 A 
ATOM     45  C   UNL A   1      41.467  28.152  28.743  1.00  0.00     0.010 A 
ATOM     46  C   UNL A   1      40.542  27.836  29.750  1.00  0.00    -0.014 A 
BRANCH  46  47
ATOM     47  C   UNL A   1      40.428  28.733  30.924  1.00  0.00     0.031 A 
ATOM     48  C   UNL A   1      39.409  29.838  30.915  1.00  0.00     0.074 A 
ATOM     49  C   UNL A   1      41.288  28.598  31.951  1.00  0.00     0.049 A 
ATOM     50  N   UNL A   1      39.208  30.782  31.798  1.00  0.00    -0.248 NA
ATOM     51  C   UNL A   1      38.522  29.917  29.742  1.00  0.00     0.031 C 
ATOM     52  C   UNL A   1      42.359  27.601  32.037  1.00  0.00     0.029 A 
ATOM     53  N   UNL A   1      41.408  29.310  33.117  1.00  0.00    -0.354 N 
ATOM     54  C   UNL A   1      38.192  31.574  31.276  1.00  0.00     0.074 A 
ATOM     55  C   UNL A   1      37.861  31.039  29.974  1.00  0.00     0.031 C 
ATOM     56  C   UNL A   1      43.006  27.748  33.204  1.00  0.00     0.029 A 
ATOM     57  C   UNL A   1      42.424  28.871  33.932  1.00  0.00     0.049 A 
ATOM     58  H   UNL A   1      40.820  30.066  33.348  1.00  0.00     0.167 HD
ATOM     59  C   UNL A   1      37.571  32.633  31.845  1.00  0.00     0.037 A 
ATOM     60  C   UNL A   1      42.840  29.326  35.129  1.00  0.00     0.037 A 
ATOM     61  C   UNL A   1      37.885  33.132  33.157  1.00  0.00     0.049 A 
ATOM     62  C   UNL A   1      42.120  30.493  35.751  1.00  0.00     0.074 A 
ATOM     63  C   UNL A   1      37.275  34.156  33.857  1.00  0.00     0.029 A 
ATOM     64  N   UNL A   1      38.895  32.636  33.969  1.00  0.00    -0.354 N 
ATOM     65  N   UNL A   1      41.115  31.189  35.275  1.00  0.00    -0.248 NA
ATOM     66  C   UNL A   1      42.582  30.930  37.074  1.00  0.00     0.031 C 
ATOM     67  C   UNL A   1      37.941  34.306  35.078  1.00  0.00     0.029 A 
ATOM     68  C   UNL A   1      38.936  33.344  35.158  1.00  0.00     0.049 A 
ATOM     69  H   UNL A   1      39.494  31.891  33.735  1.00  0.00     0.167 HD
ATOM     70  C   UNL A   1      40.808  32.130  36.251  1.00  0.00     0.074 A 
ATOM     71  C   UNL A   1      41.726  31.904  37.350  1.00  0.00     0.031 C 
ATOM     72  C   UNL A   1      39.853  33.093  36.242  1.00  0.00     0.037 A 
BRANCH  59  73
ATOM     73  C   UNL A   1      36.487  33.312  31.055  1.00  0.00     0.058 A 
ATOM     74  C   UNL A   1      36.782  34.135  29.955  1.00  0.00     0.135 A 
ATOM     75  C   UNL A   1      35.135  33.123  31.385  1.00  0.00     0.135 A 
ATOM     76  F   UNL A   1      38.058  34.366  29.606  1.00  0.00    -0.206 F 
ATOM     77  C   UNL A   1      35.780  34.771  29.231  1.00  0.00     0.059 A 
ATOM     78  C   UNL A   1      34.114  33.727  30.657  1.00  0.00     0.059 A 
ATOM     79  F   UNL A   1      34.796  32.350  32.428  1.00  0.00    -0.206 F 
ATOM     80  C   UNL A   1      34.447  34.560  29.591  1.00  0.00     0.060 A 
BRANCH  80  81
ATOM     81  S   UNL A   1      33.158  35.389  28.637  1.00  0.00     0.124 S 
ATOM     82  O   UNL A   1      33.948  36.265  27.778  1.00  0.00    -0.237 OA
ATOM     83  O   UNL A   1      32.498  34.273  27.967  1.00  0.00    -0.237 OA
ATOM     84  O   UNL A   1      32.361  36.064  29.657  1.00  0.00    -0.744 OA
ENDBRANCH  80  81
ENDBRANCH  59  73
BRANCH  60  85
ATOM     85  C   UNL A   1      43.969  28.659  35.829  1.00  0.00     0.058 A 
ATOM     86  C   UNL A   1      43.737  27.603  36.722  1.00  0.00     0.135 A 
ATOM     87  C   UNL A   1      45.299  29.047  35.607  1.00  0.00     0.135 A 
ATOM     88  F   UNL A   1      42.482  27.197  36.970  1.00  0.00    -0.206 F 
ATOM     89  C   UNL A   1      44.781  26.966  37.387  1.00  0.00     0.059 A 
ATOM     90  C   UNL A   1      46.362  28.410  36.241  1.00  0.00     0.059 A 
ATOM     91  F   UNL A   1      45.575  30.039  34.747  1.00  0.00    -0.206 F 
ATOM     92  C   UNL A   1      46.091  27.377  37.138  1.00  0.00     0.060 A 
BRANCH  92  93
ATOM     93  S   UNL A   1      47.441  26.516  37.974  1.00  0.00     0.124 S 
ATOM     94  O   UNL A   1      46.712  25.582  38.824  1.00  0.00    -0.237 OA
ATOM     95  O   UNL A   1      48.168  25.925  36.854  1.00  0.00    -0.237 OA
ATOM     96  O   UNL A   1      48.143  27.590  38.671  1.00  0.00    -0.744 OA
ENDBRANCH  92  93
ENDBRANCH  60  85
BRANCH  72  97
ATOM     97  C   UNL A   1      39.727  33.952  37.469  1.00  0.00     0.058 A 
ATOM     98  C   UNL A   1      38.945  33.560  38.565  1.00  0.00     0.135 A 
ATOM     99  C   UNL A   1      40.447  35.154  37.568  1.00  0.00     0.135 A 
ATOM    100  F   UNL A   1      38.233  32.423  38.517  1.00  0.00    -0.206 F 
ATOM    101  C   UNL A   1      38.862  34.343  39.712  1.00  0.00     0.059 A 
ATOM    102  C   UNL A   1      40.401  35.938  38.716  1.00  0.00     0.059 A 
ATOM    103  F   UNL A   1      41.219  35.567  36.550  1.00  0.00    -0.206 F 
ATOM    104  C   UNL A   1      39.596  35.529  39.779  1.00  0.00     0.060 A 
BRANCH 104 105
ATOM    105  S   UNL A   1      39.511  36.516  41.287  1.00  0.00     0.124 S 
ATOM    106  O   UNL A   1      39.000  37.785  40.780  1.00  0.00    -0.237 OA
ATOM    107  O   UNL A   1      38.588  35.744  42.114  1.00  0.00    -0.237 OA
ATOM    108  O   UNL A   1      40.894  36.538  41.757  1.00  0.00    -0.744 OA
ENDBRANCH 104 105
ENDBRANCH  72  97
ENDBRANCH  46  47
ENDBRANCH  38  41
ENDBRANCH  36  37
ENDBRANCH  35  36
ENDBRANCH   1  35
TORSDOF 19
ENDMDL
