MODEL 1
REMARK VINA RESULT:     -12.3      0.000      0.000
REMARK SMILES Cc1nn([C@H]2CCS(=O)(=O)C2)c(C)c1[C@@H]([NH3+])C(=O)NCCCNC(=O)c1ccc(-c2c3nc(c(-c4c(F)cc(S(=O)(=O)[O-])cc4F)c4ccc([nH]4)c(-c4c(F)cc(S(=O)(=O)[O-])cc4F)c4nc(c(-c5c(F)cc(S(=O)(=O)[O-])cc5F)c5ccc2[nH]5)C=C4)C=C3)cc1
REMARK SMILES IDX 21 1 20 2 19 3 17 4 18 5 15 7 14 8 1 9 2 10 3 11 4 12 12 13
REMARK SMILES IDX 13 14 5 15 6 16 11 17 7 18 8 19 9 20 10 21 16 22 22 26 23 27
REMARK SMILES IDX 24 28 25 30 26 31 27 32 91 33 28 34 90 35 29 36 30 37 31 38
REMARK SMILES IDX 84 39 32 40 89 41 83 42 85 43 33 44 88 45 82 46 81 47 34 49
REMARK SMILES IDX 68 50 47 51 67 52 48 53 51 54 66 55 86 56 49 57 50 58 65 60
REMARK SMILES IDX 87 61 52 62 35 63 36 64 45 65 37 66 38 67 44 68 46 69 39 70
REMARK SMILES IDX 40 71 41 72 42 73 43 74 69 75 70 76 79 77 71 78 72 79 78 80
REMARK SMILES IDX 80 81 73 82 74 83 75 84 76 85 77 86 53 87 54 88 63 89 55 90
REMARK SMILES IDX 56 91 62 92 64 93 57 94 58 95 59 96 60 97 61 98
REMARK H PARENT 19 6 16 23 16 24 16 25 23 29 85 48 51 59
REMARK Flexibility Score: inf
ROOT
ATOM      1  C   UNL A   1      32.470  30.420  27.022  1.00  0.00     0.042 C 
ENDROOT
BRANCH   1   2
ATOM      2  C   UNL A   1      32.309  30.193  25.515  1.00  0.00     0.118 C 
BRANCH   2   3
ATOM      3  N   UNL A   1      30.974  30.516  25.052  1.00  0.00    -0.351 N 
ATOM      4  C   UNL A   1      30.349  30.153  23.891  1.00  0.00     0.283 C 
ATOM      5  O   UNL A   1      29.172  30.509  23.752  1.00  0.00    -0.268 OA
ATOM      6  H   UNL A   1      30.441  31.078  25.659  1.00  0.00     0.163 HD
BRANCH   4   7
ATOM      7  C   UNL A   1      31.015  29.257  22.810  1.00  0.00     0.306 C 
BRANCH   7   8
ATOM      8  C   UNL A   1      31.423  27.886  23.287  1.00  0.00     0.063 A 
ATOM      9  C   UNL A   1      33.819  27.810  22.233  1.00  0.00     0.069 C 
ATOM     10  C   UNL A   1      32.720  27.309  23.105  1.00  0.00     0.069 A 
ATOM     11  N   UNL A   1      32.851  26.146  23.756  1.00  0.00    -0.177 NA
ATOM     12  N   UNL A   1      31.639  25.925  24.284  1.00  0.00    -0.265 N 
ATOM     13  C   UNL A   1      30.696  26.832  23.837  1.00  0.00     0.046 A 
ATOM     14  C   UNL A   1      29.229  26.601  23.990  1.00  0.00     0.067 C 
BRANCH  12  15
ATOM     15  C   UNL A   1      31.368  24.707  25.017  1.00  0.00     0.123 C 
ATOM     16  C   UNL A   1      31.911  23.373  24.463  1.00  0.00     0.044 C 
ATOM     17  C   UNL A   1      31.888  24.709  26.454  1.00  0.00     0.164 C 
ATOM     18  C   UNL A   1      31.426  22.307  25.454  1.00  0.00     0.139 C 
ATOM     19  S   UNL A   1      31.335  23.131  27.040  1.00  0.00     0.152 S 
ATOM     20  O   UNL A   1      29.952  23.268  27.414  1.00  0.00    -0.229 OA
ATOM     21  O   UNL A   1      32.336  22.577  27.942  1.00  0.00    -0.229 OA
ENDBRANCH  12  15
ENDBRANCH   7   8
BRANCH   7  22
ATOM     22  N   UNL A   1      30.178  29.194  21.600  1.00  0.00    -0.343 N 
ATOM     23  H   UNL A   1      29.612  28.345  21.622  1.00  0.00     0.345 HD
ATOM     24  H   UNL A   1      30.776  29.183  20.773  1.00  0.00     0.345 HD
ATOM     25  H   UNL A   1      29.566  30.009  21.567  1.00  0.00     0.345 HD
ENDBRANCH   7  22
ENDBRANCH   4   7
ENDBRANCH   2   3
ENDBRANCH   1   2
BRANCH   1  26
ATOM     26  C   UNL A   1      33.913  30.492  27.460  1.00  0.00     0.118 C 
BRANCH  26  27
ATOM     27  N   UNL A   1      34.393  31.870  27.702  1.00  0.00    -0.352 N 
ATOM     28  C   UNL A   1      35.410  32.304  28.557  1.00  0.00     0.251 C 
ATOM     29  H   UNL A   1      33.935  32.576  27.192  1.00  0.00     0.163 HD
ATOM     30  O   UNL A   1      35.475  33.474  28.914  1.00  0.00    -0.269 OA
BRANCH  28  31
ATOM     31  C   UNL A   1      36.414  31.319  29.003  1.00  0.00     0.039 A 
ATOM     32  C   UNL A   1      36.324  29.927  28.885  1.00  0.00     0.014 A 
ATOM     33  C   UNL A   1      37.582  31.867  29.457  1.00  0.00     0.014 A 
ATOM     34  C   UNL A   1      37.479  29.177  29.150  1.00  0.00     0.010 A 
ATOM     35  C   UNL A   1      38.675  31.211  29.019  1.00  0.00     0.010 A 
ATOM     36  C   UNL A   1      38.690  29.865  29.238  1.00  0.00    -0.014 A 
BRANCH  36  37
ATOM     37  C   UNL A   1      40.023  29.303  29.369  1.00  0.00     0.031 A 
ATOM     38  C   UNL A   1      40.420  29.069  30.768  1.00  0.00     0.074 A 
ATOM     39  C   UNL A   1      40.694  28.746  28.330  1.00  0.00     0.049 A 
ATOM     40  N   UNL A   1      41.137  29.843  31.509  1.00  0.00    -0.248 NA
ATOM     41  C   UNL A   1      39.755  27.983  31.507  1.00  0.00     0.031 C 
ATOM     42  C   UNL A   1      40.257  28.526  26.941  1.00  0.00     0.029 A 
ATOM     43  N   UNL A   1      41.921  28.163  28.333  1.00  0.00    -0.354 N 
ATOM     44  C   UNL A   1      41.263  29.169  32.714  1.00  0.00     0.074 A 
ATOM     45  C   UNL A   1      40.175  28.229  32.751  1.00  0.00     0.031 C 
ATOM     46  C   UNL A   1      41.111  27.681  26.316  1.00  0.00     0.029 A 
ATOM     47  C   UNL A   1      42.239  27.431  27.190  1.00  0.00     0.049 A 
ATOM     48  H   UNL A   1      42.544  28.252  29.092  1.00  0.00     0.167 HD
ATOM     49  C   UNL A   1      42.428  29.218  33.421  1.00  0.00     0.037 A 
ATOM     50  C   UNL A   1      43.347  26.662  27.012  1.00  0.00     0.037 A 
ATOM     51  C   UNL A   1      43.313  30.226  32.871  1.00  0.00     0.049 A 
ATOM     52  C   UNL A   1      44.346  27.123  28.022  1.00  0.00     0.074 A 
ATOM     53  C   UNL A   1      43.188  31.577  32.603  1.00  0.00     0.029 A 
ATOM     54  N   UNL A   1      44.366  29.792  32.096  1.00  0.00    -0.354 N 
ATOM     55  N   UNL A   1      44.897  28.308  28.004  1.00  0.00    -0.248 NA
ATOM     56  C   UNL A   1      44.335  26.467  29.322  1.00  0.00     0.031 C 
ATOM     57  C   UNL A   1      43.811  31.758  31.332  1.00  0.00     0.029 A 
ATOM     58  C   UNL A   1      44.374  30.542  30.945  1.00  0.00     0.049 A 
ATOM     59  H   UNL A   1      45.000  29.074  32.327  1.00  0.00     0.167 HD
ATOM     60  C   UNL A   1      44.902  28.724  29.328  1.00  0.00     0.074 A 
ATOM     61  C   UNL A   1      44.612  27.517  30.103  1.00  0.00     0.031 C 
ATOM     62  C   UNL A   1      44.832  30.050  29.661  1.00  0.00     0.037 A 
BRANCH  49  63
ATOM     63  C   UNL A   1      42.935  28.124  34.331  1.00  0.00     0.058 A 
ATOM     64  C   UNL A   1      43.199  28.437  35.680  1.00  0.00     0.135 A 
ATOM     65  C   UNL A   1      43.409  26.865  33.898  1.00  0.00     0.135 A 
ATOM     66  F   UNL A   1      42.793  29.607  36.202  1.00  0.00    -0.206 F 
ATOM     67  C   UNL A   1      43.948  27.604  36.509  1.00  0.00     0.059 A 
ATOM     68  C   UNL A   1      44.105  25.992  34.725  1.00  0.00     0.059 A 
ATOM     69  F   UNL A   1      43.312  26.450  32.631  1.00  0.00    -0.206 F 
ATOM     70  C   UNL A   1      44.408  26.388  36.015  1.00  0.00     0.060 A 
BRANCH  70  71
ATOM     71  S   UNL A   1      45.457  25.355  37.049  1.00  0.00     0.124 S 
ATOM     72  O   UNL A   1      44.468  24.694  37.893  1.00  0.00    -0.237 OA
ATOM     73  O   UNL A   1      46.119  24.513  36.058  1.00  0.00    -0.237 OA
ATOM     74  O   UNL A   1      46.321  26.321  37.721  1.00  0.00    -0.744 OA
ENDBRANCH  70  71
ENDBRANCH  49  63
BRANCH  50  75
ATOM     75  C   UNL A   1      43.475  25.367  26.286  1.00  0.00     0.058 A 
ATOM     76  C   UNL A   1      44.476  25.170  25.315  1.00  0.00     0.135 A 
ATOM     77  C   UNL A   1      42.814  24.203  26.731  1.00  0.00     0.135 A 
ATOM     78  F   UNL A   1      45.166  26.217  24.838  1.00  0.00    -0.206 F 
ATOM     79  C   UNL A   1      44.844  23.895  24.864  1.00  0.00     0.059 A 
ATOM     80  C   UNL A   1      43.156  22.924  26.289  1.00  0.00     0.059 A 
ATOM     81  F   UNL A   1      41.873  24.265  27.686  1.00  0.00    -0.206 F 
ATOM     82  C   UNL A   1      44.194  22.774  25.379  1.00  0.00     0.060 A 
BRANCH  82  83
ATOM     83  S   UNL A   1      44.799  21.120  24.956  1.00  0.00     0.124 S 
ATOM     84  O   UNL A   1      43.864  20.263  25.675  1.00  0.00    -0.237 OA
ATOM     85  O   UNL A   1      44.684  21.112  23.502  1.00  0.00    -0.237 OA
ATOM     86  O   UNL A   1      46.167  21.119  25.468  1.00  0.00    -0.744 OA
ENDBRANCH  82  83
ENDBRANCH  50  75
BRANCH  62  87
ATOM     87  C   UNL A   1      45.044  31.081  28.576  1.00  0.00     0.058 A 
ATOM     88  C   UNL A   1      44.052  31.540  27.690  1.00  0.00     0.135 A 
ATOM     89  C   UNL A   1      46.284  31.737  28.530  1.00  0.00     0.135 A 
ATOM     90  F   UNL A   1      42.804  31.055  27.737  1.00  0.00    -0.206 F 
ATOM     91  C   UNL A   1      44.298  32.560  26.766  1.00  0.00     0.059 A 
ATOM     92  C   UNL A   1      46.542  32.778  27.642  1.00  0.00     0.059 A 
ATOM     93  F   UNL A   1      47.257  31.396  29.390  1.00  0.00    -0.206 F 
ATOM     94  C   UNL A   1      45.551  33.172  26.747  1.00  0.00     0.060 A 
BRANCH  94  95
ATOM     95  S   UNL A   1      45.864  34.512  25.578  1.00  0.00     0.124 S 
ATOM     96  O   UNL A   1      45.415  35.681  26.326  1.00  0.00    -0.237 OA
ATOM     97  O   UNL A   1      47.305  34.414  25.360  1.00  0.00    -0.237 OA
ATOM     98  O   UNL A   1      45.043  34.156  24.423  1.00  0.00    -0.744 OA
ENDBRANCH  94  95
ENDBRANCH  62  87
ENDBRANCH  36  37
ENDBRANCH  28  31
ENDBRANCH  26  27
ENDBRANCH   1  26
TORSDOF 16
ENDMDL
MODEL 2
REMARK VINA RESULT:     -12.2      4.241      6.636
REMARK SMILES Cc1nn([C@H]2CCS(=O)(=O)C2)c(C)c1[C@@H]([NH3+])C(=O)NCCCNC(=O)c1ccc(-c2c3nc(c(-c4c(F)cc(S(=O)(=O)[O-])cc4F)c4ccc([nH]4)c(-c4c(F)cc(S(=O)(=O)[O-])cc4F)c4nc(c(-c5c(F)cc(S(=O)(=O)[O-])cc5F)c5ccc2[nH]5)C=C4)C=C3)cc1
REMARK SMILES IDX 21 1 20 2 19 3 17 4 18 5 15 7 14 8 1 9 2 10 3 11 4 12 12 13
REMARK SMILES IDX 13 14 5 15 6 16 11 17 7 18 8 19 9 20 10 21 16 22 22 26 23 27
REMARK SMILES IDX 24 28 25 30 26 31 27 32 91 33 28 34 90 35 29 36 30 37 31 38
REMARK SMILES IDX 84 39 32 40 89 41 83 42 85 43 33 44 88 45 82 46 81 47 34 49
REMARK SMILES IDX 68 50 47 51 67 52 48 53 51 54 66 55 86 56 49 57 50 58 65 60
REMARK SMILES IDX 87 61 52 62 35 63 36 64 45 65 37 66 38 67 44 68 46 69 39 70
REMARK SMILES IDX 40 71 41 72 42 73 43 74 69 75 70 76 79 77 71 78 72 79 78 80
REMARK SMILES IDX 80 81 73 82 74 83 75 84 76 85 77 86 53 87 54 88 63 89 55 90
REMARK SMILES IDX 56 91 62 92 64 93 57 94 58 95 59 96 60 97 61 98
REMARK H PARENT 19 6 16 23 16 24 16 25 23 29 85 48 51 59
REMARK Flexibility Score: inf
ROOT
ATOM      1  C   UNL A   1      36.204  30.442  32.039  1.00  0.00     0.042 C 
ENDROOT
BRANCH   1   2
ATOM      2  C   UNL A   1      37.589  30.672  32.652  1.00  0.00     0.118 C 
BRANCH   2   3
ATOM      3  N   UNL A   1      37.586  30.496  34.092  1.00  0.00    -0.351 N 
ATOM      4  C   UNL A   1      38.000  31.357  35.070  1.00  0.00     0.283 C 
ATOM      5  O   UNL A   1      37.838  30.995  36.242  1.00  0.00    -0.268 OA
ATOM      6  H   UNL A   1      37.238  29.632  34.410  1.00  0.00     0.163 HD
BRANCH   4   7
ATOM      7  C   UNL A   1      38.567  32.773  34.773  1.00  0.00     0.306 C 
BRANCH   7   8
ATOM      8  C   UNL A   1      37.641  33.676  33.999  1.00  0.00     0.063 A 
ATOM      9  C   UNL A   1      39.314  34.429  32.129  1.00  0.00     0.069 C 
ATOM     10  C   UNL A   1      37.969  34.319  32.763  1.00  0.00     0.069 A 
ATOM     11  N   UNL A   1      36.914  34.941  32.221  1.00  0.00    -0.177 NA
ATOM     12  N   UNL A   1      35.937  34.780  33.125  1.00  0.00    -0.265 N 
ATOM     13  C   UNL A   1      36.395  34.223  34.304  1.00  0.00     0.046 A 
ATOM     14  C   UNL A   1      35.604  34.264  35.568  1.00  0.00     0.067 C 
BRANCH  12  15
ATOM     15  C   UNL A   1      34.639  35.385  32.917  1.00  0.00     0.123 C 
ATOM     16  C   UNL A   1      34.519  36.922  32.976  1.00  0.00     0.044 C 
ATOM     17  C   UNL A   1      33.999  35.051  31.570  1.00  0.00     0.164 C 
ATOM     18  C   UNL A   1      33.031  37.212  32.745  1.00  0.00     0.139 C 
ATOM     19  S   UNL A   1      32.442  35.888  31.693  1.00  0.00     0.152 S 
ATOM     20  O   UNL A   1      31.557  35.047  32.457  1.00  0.00    -0.229 OA
ATOM     21  O   UNL A   1      32.078  36.420  30.387  1.00  0.00    -0.229 OA
ENDBRANCH  12  15
ENDBRANCH   7   8
BRANCH   7  22
ATOM     22  N   UNL A   1      39.051  33.408  36.010  1.00  0.00    -0.343 N 
ATOM     23  H   UNL A   1      38.257  33.642  36.606  1.00  0.00     0.345 HD
ATOM     24  H   UNL A   1      39.563  34.259  35.778  1.00  0.00     0.345 HD
ATOM     25  H   UNL A   1      39.668  32.764  36.505  1.00  0.00     0.345 HD
ENDBRANCH   7  22
ENDBRANCH   4   7
ENDBRANCH   2   3
ENDBRANCH   1   2
BRANCH   1  26
ATOM     26  C   UNL A   1      35.564  31.709  31.526  1.00  0.00     0.118 C 
BRANCH  26  27
ATOM     27  N   UNL A   1      34.972  31.573  30.177  1.00  0.00    -0.352 N 
ATOM     28  C   UNL A   1      35.605  31.635  28.933  1.00  0.00     0.251 C 
ATOM     29  H   UNL A   1      34.000  31.416  30.152  1.00  0.00     0.163 HD
ATOM     30  O   UNL A   1      34.966  31.846  27.911  1.00  0.00    -0.269 OA
BRANCH  28  31
ATOM     31  C   UNL A   1      37.066  31.423  28.883  1.00  0.00     0.039 A 
ATOM     32  C   UNL A   1      38.049  32.281  29.387  1.00  0.00     0.014 A 
ATOM     33  C   UNL A   1      37.443  30.200  28.400  1.00  0.00     0.014 A 
ATOM     34  C   UNL A   1      39.362  31.795  29.456  1.00  0.00     0.010 A 
ATOM     35  C   UNL A   1      38.447  29.644  29.107  1.00  0.00     0.010 A 
ATOM     36  C   UNL A   1      39.552  30.423  29.286  1.00  0.00    -0.014 A 
BRANCH  36  37
ATOM     37  C   UNL A   1      40.784  29.670  29.445  1.00  0.00     0.031 A 
ATOM     38  C   UNL A   1      41.074  29.318  30.846  1.00  0.00     0.074 A 
ATOM     39  C   UNL A   1      41.421  29.070  28.408  1.00  0.00     0.049 A 
ATOM     40  N   UNL A   1      41.855  29.947  31.656  1.00  0.00    -0.248 NA
ATOM     41  C   UNL A   1      40.225  28.307  31.498  1.00  0.00     0.031 C 
ATOM     42  C   UNL A   1      41.027  28.978  26.992  1.00  0.00     0.029 A 
ATOM     43  N   UNL A   1      42.551  28.317  28.434  1.00  0.00    -0.354 N 
ATOM     44  C   UNL A   1      41.825  29.207  32.829  1.00  0.00     0.074 A 
ATOM     45  C   UNL A   1      40.614  28.433  32.770  1.00  0.00     0.031 C 
ATOM     46  C   UNL A   1      41.782  28.048  26.362  1.00  0.00     0.029 A 
ATOM     47  C   UNL A   1      42.818  27.599  27.269  1.00  0.00     0.049 A 
ATOM     48  H   UNL A   1      43.141  28.280  29.222  1.00  0.00     0.167 HD
ATOM     49  C   UNL A   1      42.948  29.056  33.586  1.00  0.00     0.037 A 
ATOM     50  C   UNL A   1      43.814  26.688  27.099  1.00  0.00     0.037 A 
ATOM     51  C   UNL A   1      43.993  29.950  33.128  1.00  0.00     0.049 A 
ATOM     52  C   UNL A   1      44.816  26.953  28.173  1.00  0.00     0.074 A 
ATOM     53  C   UNL A   1      44.074  31.316  32.926  1.00  0.00     0.029 A 
ATOM     54  N   UNL A   1      45.012  29.404  32.378  1.00  0.00    -0.354 N 
ATOM     55  N   UNL A   1      45.530  28.047  28.240  1.00  0.00    -0.248 NA
ATOM     56  C   UNL A   1      44.648  26.248  29.436  1.00  0.00     0.031 C 
ATOM     57  C   UNL A   1      44.779  31.463  31.694  1.00  0.00     0.029 A 
ATOM     58  C   UNL A   1      45.182  30.197  31.269  1.00  0.00     0.049 A 
ATOM     59  H   UNL A   1      45.525  28.593  32.598  1.00  0.00     0.167 HD
ATOM     60  C   UNL A   1      45.528  28.397  29.584  1.00  0.00     0.074 A 
ATOM     61  C   UNL A   1      45.032  27.210  30.282  1.00  0.00     0.031 C 
ATOM     62  C   UNL A   1      45.630  29.703  29.981  1.00  0.00     0.037 A 
BRANCH  49  63
ATOM     63  C   UNL A   1      43.249  27.860  34.459  1.00  0.00     0.058 A 
ATOM     64  C   UNL A   1      43.516  28.074  35.827  1.00  0.00     0.135 A 
ATOM     65  C   UNL A   1      43.534  26.561  33.983  1.00  0.00     0.135 A 
ATOM     66  F   UNL A   1      43.282  29.271  36.390  1.00  0.00    -0.206 F 
ATOM     67  C   UNL A   1      44.099  27.101  36.637  1.00  0.00     0.059 A 
ATOM     68  C   UNL A   1      44.059  25.557  34.787  1.00  0.00     0.059 A 
ATOM     69  F   UNL A   1      43.413  26.217  32.697  1.00  0.00    -0.206 F 
ATOM     70  C   UNL A   1      44.379  25.848  36.101  1.00  0.00     0.060 A 
BRANCH  70  71
ATOM     71  S   UNL A   1      45.221  24.622  37.114  1.00  0.00     0.124 S 
ATOM     72  O   UNL A   1      44.823  23.383  36.456  1.00  0.00    -0.237 OA
ATOM     73  O   UNL A   1      46.618  25.011  36.958  1.00  0.00    -0.237 OA
ATOM     74  O   UNL A   1      44.659  24.843  38.443  1.00  0.00    -0.744 OA
ENDBRANCH  70  71
ENDBRANCH  49  63
BRANCH  50  75
ATOM     75  C   UNL A   1      43.793  25.422  26.313  1.00  0.00     0.058 A 
ATOM     76  C   UNL A   1      44.749  25.169  25.310  1.00  0.00     0.135 A 
ATOM     77  C   UNL A   1      43.024  24.312  26.721  1.00  0.00     0.135 A 
ATOM     78  F   UNL A   1      45.534  26.161  24.863  1.00  0.00    -0.206 F 
ATOM     79  C   UNL A   1      44.974  23.886  24.793  1.00  0.00     0.059 A 
ATOM     80  C   UNL A   1      43.223  23.027  26.215  1.00  0.00     0.059 A 
ATOM     81  F   UNL A   1      42.114  24.425  27.700  1.00  0.00    -0.206 F 
ATOM     82  C   UNL A   1      44.223  22.814  25.273  1.00  0.00     0.060 A 
BRANCH  82  83
ATOM     83  S   UNL A   1      44.645  21.129  24.763  1.00  0.00     0.124 S 
ATOM     84  O   UNL A   1      43.556  20.354  25.346  1.00  0.00    -0.237 OA
ATOM     85  O   UNL A   1      44.643  21.238  23.307  1.00  0.00    -0.237 OA
ATOM     86  O   UNL A   1      45.958  20.912  25.364  1.00  0.00    -0.744 OA
ENDBRANCH  82  83
ENDBRANCH  50  75
BRANCH  62  87
ATOM     87  C   UNL A   1      46.040  30.741  28.962  1.00  0.00     0.058 A 
ATOM     88  C   UNL A   1      45.152  31.508  28.184  1.00  0.00     0.135 A 
ATOM     89  C   UNL A   1      47.401  31.071  28.874  1.00  0.00     0.135 A 
ATOM     90  F   UNL A   1      43.826  31.344  28.286  1.00  0.00    -0.206 F 
ATOM     91  C   UNL A   1      45.600  32.512  27.322  1.00  0.00     0.059 A 
ATOM     92  C   UNL A   1      47.868  32.090  28.049  1.00  0.00     0.059 A 
ATOM     93  F   UNL A   1      48.300  30.425  29.636  1.00  0.00    -0.206 F 
ATOM     94  C   UNL A   1      46.964  32.794  27.258  1.00  0.00     0.060 A 
BRANCH  94  95
ATOM     95  S   UNL A   1      47.545  34.112  26.170  1.00  0.00     0.124 S 
ATOM     96  O   UNL A   1      47.755  35.211  27.106  1.00  0.00    -0.237 OA
ATOM     97  O   UNL A   1      48.754  33.535  25.588  1.00  0.00    -0.237 OA
ATOM     98  O   UNL A   1      46.439  34.294  25.232  1.00  0.00    -0.744 OA
ENDBRANCH  94  95
ENDBRANCH  62  87
ENDBRANCH  36  37
ENDBRANCH  28  31
ENDBRANCH  26  27
ENDBRANCH   1  26
TORSDOF 16
ENDMDL
MODEL 3
REMARK VINA RESULT:     -12.2      2.872      7.492
REMARK SMILES Cc1nn([C@H]2CCS(=O)(=O)C2)c(C)c1[C@@H]([NH3+])C(=O)NCCCNC(=O)c1ccc(-c2c3nc(c(-c4c(F)cc(S(=O)(=O)[O-])cc4F)c4ccc([nH]4)c(-c4c(F)cc(S(=O)(=O)[O-])cc4F)c4nc(c(-c5c(F)cc(S(=O)(=O)[O-])cc5F)c5ccc2[nH]5)C=C4)C=C3)cc1
REMARK SMILES IDX 21 1 20 2 19 3 17 4 18 5 15 7 14 8 1 9 2 10 3 11 4 12 12 13
REMARK SMILES IDX 13 14 5 15 6 16 11 17 7 18 8 19 9 20 10 21 16 22 22 26 23 27
REMARK SMILES IDX 24 28 25 30 26 31 27 32 91 33 28 34 90 35 29 36 30 37 31 38
REMARK SMILES IDX 84 39 32 40 89 41 83 42 85 43 33 44 88 45 82 46 81 47 34 49
REMARK SMILES IDX 68 50 47 51 67 52 48 53 51 54 66 55 86 56 49 57 50 58 65 60
REMARK SMILES IDX 87 61 52 62 35 63 36 64 45 65 37 66 38 67 44 68 46 69 39 70
REMARK SMILES IDX 40 71 41 72 42 73 43 74 69 75 70 76 79 77 71 78 72 79 78 80
REMARK SMILES IDX 80 81 73 82 74 83 75 84 76 85 77 86 53 87 54 88 63 89 55 90
REMARK SMILES IDX 56 91 62 92 64 93 57 94 58 95 59 96 60 97 61 98
REMARK H PARENT 19 6 16 23 16 24 16 25 23 29 85 48 51 59
REMARK Flexibility Score: inf
ROOT
ATOM      1  C   UNL A   1      31.708  31.557  27.078  1.00  0.00     0.042 C 
ENDROOT
BRANCH   1   2
ATOM      2  C   UNL A   1      31.718  30.771  25.764  1.00  0.00     0.118 C 
BRANCH   2   3
ATOM      3  N   UNL A   1      30.451  30.858  25.063  1.00  0.00    -0.351 N 
ATOM      4  C   UNL A   1      30.121  30.413  23.813  1.00  0.00     0.283 C 
ATOM      5  O   UNL A   1      28.944  30.553  23.460  1.00  0.00    -0.268 OA
ATOM      6  H   UNL A   1      29.725  31.302  25.558  1.00  0.00     0.163 HD
BRANCH   4   7
ATOM      7  C   UNL A   1      31.122  29.674  22.880  1.00  0.00     0.306 C 
BRANCH   7   8
ATOM      8  C   UNL A   1      31.511  28.291  23.338  1.00  0.00     0.063 A 
ATOM      9  C   UNL A   1      33.980  28.279  22.468  1.00  0.00     0.069 C 
ATOM     10  C   UNL A   1      32.825  27.734  23.235  1.00  0.00     0.069 A 
ATOM     11  N   UNL A   1      32.921  26.549  23.851  1.00  0.00    -0.177 NA
ATOM     12  N   UNL A   1      31.675  26.297  24.277  1.00  0.00    -0.265 N 
ATOM     13  C   UNL A   1      30.757  27.209  23.792  1.00  0.00     0.046 A 
ATOM     14  C   UNL A   1      29.287  26.958  23.824  1.00  0.00     0.067 C 
BRANCH  12  15
ATOM     15  C   UNL A   1      31.366  25.049  24.942  1.00  0.00     0.123 C 
ATOM     16  C   UNL A   1      31.879  23.732  24.323  1.00  0.00     0.044 C 
ATOM     17  C   UNL A   1      31.873  24.962  26.381  1.00  0.00     0.164 C 
ATOM     18  C   UNL A   1      31.356  22.629  25.252  1.00  0.00     0.139 C 
ATOM     19  S   UNL A   1      31.273  23.371  26.879  1.00  0.00     0.152 S 
ATOM     20  O   UNL A   1      29.891  23.525  27.249  1.00  0.00    -0.229 OA
ATOM     21  O   UNL A   1      32.251  22.743  27.758  1.00  0.00    -0.229 OA
ENDBRANCH  12  15
ENDBRANCH   7   8
BRANCH   7  22
ATOM     22  N   UNL A   1      30.637  29.680  21.491  1.00  0.00    -0.343 N 
ATOM     23  H   UNL A   1      30.316  30.616  21.246  1.00  0.00     0.345 HD
ATOM     24  H   UNL A   1      29.863  29.021  21.398  1.00  0.00     0.345 HD
ATOM     25  H   UNL A   1      31.394  29.406  20.864  1.00  0.00     0.345 HD
ENDBRANCH   7  22
ENDBRANCH   4   7
ENDBRANCH   2   3
ENDBRANCH   1   2
BRANCH   1  26
ATOM     26  C   UNL A   1      32.941  32.407  27.271  1.00  0.00     0.118 C 
BRANCH  26  27
ATOM     27  N   UNL A   1      32.645  33.809  27.639  1.00  0.00    -0.352 N 
ATOM     28  C   UNL A   1      33.149  34.558  28.706  1.00  0.00     0.251 C 
ATOM     29  H   UNL A   1      32.008  34.279  27.053  1.00  0.00     0.163 HD
ATOM     30  O   UNL A   1      32.577  35.570  29.091  1.00  0.00    -0.269 OA
BRANCH  28  31
ATOM     31  C   UNL A   1      34.400  34.105  29.347  1.00  0.00     0.039 A 
ATOM     32  C   UNL A   1      34.507  33.291  30.479  1.00  0.00     0.014 A 
ATOM     33  C   UNL A   1      35.537  34.434  28.661  1.00  0.00     0.014 A 
ATOM     34  C   UNL A   1      35.774  32.778  30.793  1.00  0.00     0.010 A 
ATOM     35  C   UNL A   1      36.433  33.427  28.618  1.00  0.00     0.010 A 
ATOM     36  C   UNL A   1      36.769  32.877  29.820  1.00  0.00    -0.014 A 
BRANCH  36  37
ATOM     37  C   UNL A   1      38.105  32.308  29.854  1.00  0.00     0.031 A 
ATOM     38  C   UNL A   1      38.160  30.921  29.358  1.00  0.00     0.074 A 
ATOM     39  C   UNL A   1      39.224  33.060  30.004  1.00  0.00     0.049 A 
ATOM     40  N   UNL A   1      38.145  29.845  30.068  1.00  0.00    -0.248 NA
ATOM     41  C   UNL A   1      37.963  30.690  27.918  1.00  0.00     0.031 C 
ATOM     42  C   UNL A   1      39.365  34.523  30.094  1.00  0.00     0.029 A 
ATOM     43  N   UNL A   1      40.520  32.653  30.018  1.00  0.00    -0.354 N 
ATOM     44  C   UNL A   1      38.256  28.810  29.151  1.00  0.00     0.074 A 
ATOM     45  C   UNL A   1      37.836  29.360  27.890  1.00  0.00     0.031 C 
ATOM     46  C   UNL A   1      40.664  34.873  29.939  1.00  0.00     0.029 A 
ATOM     47  C   UNL A   1      41.467  33.669  29.907  1.00  0.00     0.049 A 
ATOM     48  H   UNL A   1      40.772  31.704  30.101  1.00  0.00     0.167 HD
ATOM     49  C   UNL A   1      38.985  27.696  29.443  1.00  0.00     0.037 A 
ATOM     50  C   UNL A   1      42.811  33.501  29.774  1.00  0.00     0.037 A 
ATOM     51  C   UNL A   1      39.347  27.681  30.846  1.00  0.00     0.049 A 
ATOM     52  C   UNL A   1      43.112  32.117  30.246  1.00  0.00     0.074 A 
ATOM     53  C   UNL A   1      38.634  27.765  32.028  1.00  0.00     0.029 A 
ATOM     54  N   UNL A   1      40.642  28.022  31.171  1.00  0.00    -0.354 N 
ATOM     55  N   UNL A   1      42.964  31.729  31.486  1.00  0.00    -0.248 NA
ATOM     56  C   UNL A   1      43.074  31.049  29.256  1.00  0.00     0.031 C 
ATOM     57  C   UNL A   1      39.403  28.632  32.860  1.00  0.00     0.029 A 
ATOM     58  C   UNL A   1      40.587  28.941  32.190  1.00  0.00     0.049 A 
ATOM     59  H   UNL A   1      41.459  27.669  30.750  1.00  0.00     0.167 HD
ATOM     60  C   UNL A   1      42.390  30.467  31.403  1.00  0.00     0.074 A 
ATOM     61  C   UNL A   1      42.551  30.071  30.003  1.00  0.00     0.031 C 
ATOM     62  C   UNL A   1      41.567  29.991  32.388  1.00  0.00     0.037 A 
BRANCH  49  63
ATOM     63  C   UNL A   1      39.701  26.839  28.425  1.00  0.00     0.058 A 
ATOM     64  C   UNL A   1      39.535  25.441  28.485  1.00  0.00     0.135 A 
ATOM     65  C   UNL A   1      40.727  27.290  27.565  1.00  0.00     0.135 A 
ATOM     66  F   UNL A   1      38.588  24.898  29.269  1.00  0.00    -0.206 F 
ATOM     67  C   UNL A   1      40.375  24.557  27.809  1.00  0.00     0.059 A 
ATOM     68  C   UNL A   1      41.538  26.430  26.836  1.00  0.00     0.059 A 
ATOM     69  F   UNL A   1      41.067  28.578  27.455  1.00  0.00    -0.206 F 
ATOM     70  C   UNL A   1      41.384  25.065  26.997  1.00  0.00     0.060 A 
BRANCH  70  71
ATOM     71  S   UNL A   1      42.532  23.931  26.202  1.00  0.00     0.124 S 
ATOM     72  O   UNL A   1      42.928  24.699  25.027  1.00  0.00    -0.237 OA
ATOM     73  O   UNL A   1      43.551  23.763  27.232  1.00  0.00    -0.237 OA
ATOM     74  O   UNL A   1      41.712  22.751  25.941  1.00  0.00    -0.744 OA
ENDBRANCH  70  71
ENDBRANCH  49  63
BRANCH  50  75
ATOM     75  C   UNL A   1      43.775  34.304  28.969  1.00  0.00     0.058 A 
ATOM     76  C   UNL A   1      44.598  35.275  29.571  1.00  0.00     0.135 A 
ATOM     77  C   UNL A   1      44.119  33.938  27.651  1.00  0.00     0.135 A 
ATOM     78  F   UNL A   1      44.354  35.680  30.826  1.00  0.00    -0.206 F 
ATOM     79  C   UNL A   1      45.730  35.800  28.933  1.00  0.00     0.059 A 
ATOM     80  C   UNL A   1      45.236  34.455  26.991  1.00  0.00     0.059 A 
ATOM     81  F   UNL A   1      43.432  32.992  26.994  1.00  0.00    -0.206 F 
ATOM     82  C   UNL A   1      46.056  35.362  27.650  1.00  0.00     0.060 A 
BRANCH  82  83
ATOM     83  S   UNL A   1      47.622  35.879  26.902  1.00  0.00     0.124 S 
ATOM     84  O   UNL A   1      48.582  35.549  27.949  1.00  0.00    -0.237 OA
ATOM     85  O   UNL A   1      47.678  35.051  25.701  1.00  0.00    -0.237 OA
ATOM     86  O   UNL A   1      47.428  37.306  26.661  1.00  0.00    -0.744 OA
ENDBRANCH  82  83
ENDBRANCH  50  75
BRANCH  62  87
ATOM     87  C   UNL A   1      41.518  30.726  33.708  1.00  0.00     0.058 A 
ATOM     88  C   UNL A   1      40.633  31.775  34.019  1.00  0.00     0.135 A 
ATOM     89  C   UNL A   1      42.316  30.242  34.757  1.00  0.00     0.135 A 
ATOM     90  F   UNL A   1      39.752  32.226  33.116  1.00  0.00    -0.206 F 
ATOM     91  C   UNL A   1      40.584  32.351  35.291  1.00  0.00     0.059 A 
ATOM     92  C   UNL A   1      42.261  30.777  36.041  1.00  0.00     0.059 A 
ATOM     93  F   UNL A   1      43.137  29.199  34.550  1.00  0.00    -0.206 F 
ATOM     94  C   UNL A   1      41.408  31.846  36.297  1.00  0.00     0.060 A 
BRANCH  94  95
ATOM     95  S   UNL A   1      41.326  32.566  37.952  1.00  0.00     0.124 S 
ATOM     96  O   UNL A   1      39.897  32.509  38.240  1.00  0.00    -0.237 OA
ATOM     97  O   UNL A   1      42.167  31.663  38.733  1.00  0.00    -0.237 OA
ATOM     98  O   UNL A   1      41.873  33.908  37.768  1.00  0.00    -0.744 OA
ENDBRANCH  94  95
ENDBRANCH  62  87
ENDBRANCH  36  37
ENDBRANCH  28  31
ENDBRANCH  26  27
ENDBRANCH   1  26
TORSDOF 16
ENDMDL
