MODEL 1
REMARK VINA RESULT:     -12.8      0.000      0.000
REMARK SMILES CC(=O)c1c[nH]c(C(=O)N[C@H]2C=C[C@H](C(=O)NCCCNC(=O)c3ccc(-c4c5nc(c(-c6c(F)cc(S(=O)(=O)[O-])cc6F)c6ccc([nH]6)c(-c6c(F)cc(S(=O)(=O)[O-])cc6F)c6nc(c(-c7c(F)cc(S(=O)(=O)[O-])cc7F)c7ccc4[nH]7)C=C6)C=C5)cc3)C2)c1
REMARK SMILES IDX 19 1 18 2 17 3 15 4 16 5 14 7 11 8 12 9 90 10 13 11 10 12
REMARK SMILES IDX 8 13 9 14 7 16 4 17 5 18 91 19 6 20 2 22 1 23 3 24 20 25
REMARK SMILES IDX 21 26 22 27 23 29 24 30 25 31 89 32 26 33 88 34 27 35 28 36
REMARK SMILES IDX 29 37 82 38 30 39 87 40 81 41 83 42 31 43 86 44 80 45 79 46
REMARK SMILES IDX 32 48 66 49 45 50 65 51 46 52 49 53 64 54 84 55 47 56 48 57
REMARK SMILES IDX 63 59 85 60 50 61 33 62 34 63 43 64 35 65 36 66 42 67 44 68
REMARK SMILES IDX 37 69 38 70 39 71 40 72 41 73 67 74 68 75 77 76 69 77 70 78
REMARK SMILES IDX 76 79 78 80 71 81 72 82 73 83 74 84 75 85 51 86 52 87 61 88
REMARK SMILES IDX 53 89 54 90 60 91 62 92 55 93 56 94 57 95 58 96 59 97
REMARK H PARENT 17 6 10 15 6 21 21 28 83 47 49 58
REMARK Flexibility Score: inf
ROOT
ATOM      1  C   UNL A   1      33.710  28.883  25.676  1.00  0.00     0.042 C 
ENDROOT
BRANCH   1   2
ATOM      2  C   UNL A   1      32.250  29.106  26.076  1.00  0.00     0.117 C 
BRANCH   2   3
ATOM      3  N   UNL A   1      31.606  27.874  26.485  1.00  0.00    -0.356 N 
ATOM      4  C   UNL A   1      30.722  27.039  25.890  1.00  0.00     0.227 C 
ATOM      5  O   UNL A   1      30.345  26.081  26.574  1.00  0.00    -0.274 OA
ATOM      6  H   UNL A   1      31.867  27.581  27.388  1.00  0.00     0.163 HD
BRANCH   4   7
ATOM      7  C   UNL A   1      30.171  27.201  24.460  1.00  0.00     0.103 C 
ATOM      8  C   UNL A   1      32.022  27.101  22.878  1.00  0.00     0.106 C 
ATOM      9  C   UNL A   1      31.340  28.433  22.831  1.00  0.00    -0.006 C 
ATOM     10  C   UNL A   1      30.939  26.237  23.534  1.00  0.00     0.047 C 
ATOM     11  C   UNL A   1      30.323  28.482  23.700  1.00  0.00    -0.016 C 
BRANCH   8  12
ATOM     12  N   UNL A   1      32.329  26.667  21.541  1.00  0.00    -0.345 N 
ATOM     13  C   UNL A   1      32.823  25.472  21.086  1.00  0.00     0.268 C 
ATOM     14  O   UNL A   1      32.968  25.359  19.872  1.00  0.00    -0.268 OA
ATOM     15  H   UNL A   1      32.155  27.336  20.840  1.00  0.00     0.164 HD
BRANCH  13  16
ATOM     16  C   UNL A   1      33.211  24.400  21.984  1.00  0.00     0.105 A 
ATOM     17  C   UNL A   1      34.169  22.866  23.390  1.00  0.00     0.035 A 
ATOM     18  C   UNL A   1      33.043  22.300  22.829  1.00  0.00     0.094 A 
ATOM     19  C   UNL A   1      34.225  24.205  22.904  1.00  0.00     0.045 A 
ATOM     20  N   UNL A   1      32.453  23.242  22.028  1.00  0.00    -0.356 N 
ATOM     21  H   UNL A   1      31.604  23.113  21.548  1.00  0.00     0.166 HD
BRANCH  17  22
ATOM     22  C   UNL A   1      35.137  22.241  24.288  1.00  0.00     0.161 C 
ATOM     23  C   UNL A   1      36.593  22.294  23.910  1.00  0.00     0.093 C 
ATOM     24  O   UNL A   1      34.786  21.769  25.367  1.00  0.00    -0.294 OA
ENDBRANCH  17  22
ENDBRANCH  13  16
ENDBRANCH   8  12
ENDBRANCH   4   7
ENDBRANCH   2   3
ENDBRANCH   1   2
BRANCH   1  25
ATOM     25  C   UNL A   1      34.642  28.913  26.888  1.00  0.00     0.118 C 
BRANCH  25  26
ATOM     26  N   UNL A   1      35.064  30.277  27.183  1.00  0.00    -0.352 N 
ATOM     27  C   UNL A   1      36.140  30.747  27.887  1.00  0.00     0.251 C 
ATOM     28  H   UNL A   1      34.476  30.976  26.815  1.00  0.00     0.163 HD
ATOM     29  O   UNL A   1      36.135  31.924  28.246  1.00  0.00    -0.269 OA
BRANCH  27  30
ATOM     30  C   UNL A   1      37.278  29.877  28.249  1.00  0.00     0.039 A 
ATOM     31  C   UNL A   1      38.368  29.836  27.369  1.00  0.00     0.014 A 
ATOM     32  C   UNL A   1      37.260  29.053  29.380  1.00  0.00     0.014 A 
ATOM     33  C   UNL A   1      39.461  29.027  27.656  1.00  0.00     0.010 A 
ATOM     34  C   UNL A   1      38.364  28.265  29.687  1.00  0.00     0.010 A 
ATOM     35  C   UNL A   1      39.470  28.266  28.832  1.00  0.00    -0.014 A 
BRANCH  35  36
ATOM     36  C   UNL A   1      40.738  27.623  29.246  1.00  0.00     0.031 A 
ATOM     37  C   UNL A   1      40.986  26.325  28.434  1.00  0.00     0.074 A 
ATOM     38  C   UNL A   1      41.436  28.225  30.259  1.00  0.00     0.049 A 
ATOM     39  N   UNL A   1      41.571  25.218  28.773  1.00  0.00    -0.248 NA
ATOM     40  C   UNL A   1      40.398  26.207  27.067  1.00  0.00     0.031 C 
ATOM     41  C   UNL A   1      41.069  29.516  30.886  1.00  0.00     0.029 A 
ATOM     42  N   UNL A   1      42.579  27.907  30.967  1.00  0.00    -0.354 N 
ATOM     43  C   UNL A   1      41.610  24.378  27.631  1.00  0.00     0.074 A 
ATOM     44  C   UNL A   1      40.755  24.986  26.660  1.00  0.00     0.031 C 
ATOM     45  C   UNL A   1      41.901  29.818  31.908  1.00  0.00     0.029 A 
ATOM     46  C   UNL A   1      42.896  28.775  32.053  1.00  0.00     0.049 A 
ATOM     47  H   UNL A   1      43.139  27.131  30.736  1.00  0.00     0.167 HD
ATOM     48  C   UNL A   1      42.456  23.307  27.514  1.00  0.00     0.037 A 
ATOM     49  C   UNL A   1      43.855  28.631  33.026  1.00  0.00     0.037 A 
ATOM     50  C   UNL A   1      43.230  23.193  28.704  1.00  0.00     0.049 A 
ATOM     51  C   UNL A   1      44.614  27.439  32.622  1.00  0.00     0.074 A 
ATOM     52  C   UNL A   1      42.912  22.805  29.978  1.00  0.00     0.029 A 
ATOM     53  N   UNL A   1      44.424  23.874  28.717  1.00  0.00    -0.354 N 
ATOM     54  N   UNL A   1      45.456  27.390  31.635  1.00  0.00    -0.248 NA
ATOM     55  C   UNL A   1      44.336  26.175  33.318  1.00  0.00     0.031 C 
ATOM     56  C   UNL A   1      43.658  23.696  30.774  1.00  0.00     0.029 A 
ATOM     57  C   UNL A   1      44.566  24.400  29.975  1.00  0.00     0.049 A 
ATOM     58  H   UNL A   1      45.055  23.966  27.968  1.00  0.00     0.167 HD
ATOM     59  C   UNL A   1      45.537  26.041  31.395  1.00  0.00     0.074 A 
ATOM     60  C   UNL A   1      45.121  25.371  32.607  1.00  0.00     0.031 C 
ATOM     61  C   UNL A   1      45.387  25.577  30.129  1.00  0.00     0.037 A 
BRANCH  48  62
ATOM     62  C   UNL A   1      42.894  22.447  26.352  1.00  0.00     0.058 A 
ATOM     63  C   UNL A   1      42.558  21.066  26.386  1.00  0.00     0.135 A 
ATOM     64  C   UNL A   1      43.887  22.809  25.432  1.00  0.00     0.135 A 
ATOM     65  F   UNL A   1      41.566  20.618  27.175  1.00  0.00    -0.206 F 
ATOM     66  C   UNL A   1      43.266  20.098  25.683  1.00  0.00     0.059 A 
ATOM     67  C   UNL A   1      44.582  21.854  24.678  1.00  0.00     0.059 A 
ATOM     68  F   UNL A   1      44.267  24.086  25.292  1.00  0.00    -0.206 F 
ATOM     69  C   UNL A   1      44.305  20.500  24.855  1.00  0.00     0.060 A 
BRANCH  69  70
ATOM     70  S   UNL A   1      45.296  19.221  24.052  1.00  0.00     0.124 S 
ATOM     71  O   UNL A   1      46.638  19.786  24.138  1.00  0.00    -0.237 OA
ATOM     72  O   UNL A   1      45.045  18.059  24.899  1.00  0.00    -0.237 OA
ATOM     73  O   UNL A   1      44.722  19.144  22.713  1.00  0.00    -0.744 OA
ENDBRANCH  69  70
ENDBRANCH  48  62
BRANCH  49  74
ATOM     74  C   UNL A   1      44.235  29.224  34.376  1.00  0.00     0.058 A 
ATOM     75  C   UNL A   1      45.348  30.026  34.657  1.00  0.00     0.135 A 
ATOM     76  C   UNL A   1      43.333  29.095  35.477  1.00  0.00     0.135 A 
ATOM     77  F   UNL A   1      46.365  30.123  33.793  1.00  0.00    -0.206 F 
ATOM     78  C   UNL A   1      45.460  30.775  35.850  1.00  0.00     0.059 A 
ATOM     79  C   UNL A   1      43.388  29.864  36.635  1.00  0.00     0.059 A 
ATOM     80  F   UNL A   1      42.314  28.224  35.460  1.00  0.00    -0.206 F 
ATOM     81  C   UNL A   1      44.441  30.737  36.803  1.00  0.00     0.060 A 
BRANCH  81  82
ATOM     82  S   UNL A   1      44.400  31.905  38.182  1.00  0.00     0.124 S 
ATOM     83  O   UNL A   1      43.269  31.418  38.962  1.00  0.00    -0.237 OA
ATOM     84  O   UNL A   1      45.717  31.727  38.785  1.00  0.00    -0.237 OA
ATOM     85  O   UNL A   1      44.200  33.194  37.521  1.00  0.00    -0.744 OA
ENDBRANCH  81  82
ENDBRANCH  49  74
BRANCH  61  86
ATOM     86  C   UNL A   1      45.795  26.541  29.034  1.00  0.00     0.058 A 
ATOM     87  C   UNL A   1      47.147  26.897  28.901  1.00  0.00     0.135 A 
ATOM     88  C   UNL A   1      44.903  27.175  28.151  1.00  0.00     0.135 A 
ATOM     89  F   UNL A   1      48.065  26.346  29.710  1.00  0.00    -0.206 F 
ATOM     90  C   UNL A   1      47.590  27.807  27.937  1.00  0.00     0.059 A 
ATOM     91  C   UNL A   1      45.318  28.083  27.169  1.00  0.00     0.059 A 
ATOM     92  F   UNL A   1      43.593  26.930  28.220  1.00  0.00    -0.206 F 
ATOM     93  C   UNL A   1      46.670  28.388  27.066  1.00  0.00     0.060 A 
BRANCH  93  94
ATOM     94  S   UNL A   1      47.276  29.512  25.785  1.00  0.00     0.124 S 
ATOM     95  O   UNL A   1      48.626  29.816  26.249  1.00  0.00    -0.237 OA
ATOM     96  O   UNL A   1      47.192  28.681  24.589  1.00  0.00    -0.237 OA
ATOM     97  O   UNL A   1      46.337  30.630  25.833  1.00  0.00    -0.744 OA
ENDBRANCH  93  94
ENDBRANCH  61  86
ENDBRANCH  35  36
ENDBRANCH  27  30
ENDBRANCH  25  26
ENDBRANCH   1  25
TORSDOF 16
ENDMDL
MODEL 2
REMARK VINA RESULT:     -12.6      1.556      2.384
REMARK SMILES CC(=O)c1c[nH]c(C(=O)N[C@H]2C=C[C@H](C(=O)NCCCNC(=O)c3ccc(-c4c5nc(c(-c6c(F)cc(S(=O)(=O)[O-])cc6F)c6ccc([nH]6)c(-c6c(F)cc(S(=O)(=O)[O-])cc6F)c6nc(c(-c7c(F)cc(S(=O)(=O)[O-])cc7F)c7ccc4[nH]7)C=C6)C=C5)cc3)C2)c1
REMARK SMILES IDX 19 1 18 2 17 3 15 4 16 5 14 7 11 8 12 9 90 10 13 11 10 12
REMARK SMILES IDX 8 13 9 14 7 16 4 17 5 18 91 19 6 20 2 22 1 23 3 24 20 25
REMARK SMILES IDX 21 26 22 27 23 29 24 30 25 31 89 32 26 33 88 34 27 35 28 36
REMARK SMILES IDX 29 37 82 38 30 39 87 40 81 41 83 42 31 43 86 44 80 45 79 46
REMARK SMILES IDX 32 48 66 49 45 50 65 51 46 52 49 53 64 54 84 55 47 56 48 57
REMARK SMILES IDX 63 59 85 60 50 61 33 62 34 63 43 64 35 65 36 66 42 67 44 68
REMARK SMILES IDX 37 69 38 70 39 71 40 72 41 73 67 74 68 75 77 76 69 77 70 78
REMARK SMILES IDX 76 79 78 80 71 81 72 82 73 83 74 84 75 85 51 86 52 87 61 88
REMARK SMILES IDX 53 89 54 90 60 91 62 92 55 93 56 94 57 95 58 96 59 97
REMARK H PARENT 17 6 10 15 6 21 21 28 83 47 49 58
REMARK Flexibility Score: inf
ROOT
ATOM      1  C   UNL A   1      33.483  29.111  27.015  1.00  0.00     0.042 C 
ENDROOT
BRANCH   1   2
ATOM      2  C   UNL A   1      32.867  29.687  25.738  1.00  0.00     0.117 C 
BRANCH   2   3
ATOM      3  N   UNL A   1      33.028  28.792  24.609  1.00  0.00    -0.356 N 
ATOM      4  C   UNL A   1      32.224  27.876  24.021  1.00  0.00     0.227 C 
ATOM      5  O   UNL A   1      32.725  27.248  23.081  1.00  0.00    -0.274 OA
ATOM      6  H   UNL A   1      33.909  28.869  24.176  1.00  0.00     0.163 HD
BRANCH   4   7
ATOM      7  C   UNL A   1      30.773  27.569  24.436  1.00  0.00     0.103 C 
ATOM      8  C   UNL A   1      30.661  25.301  25.323  1.00  0.00     0.106 C 
ATOM      9  C   UNL A   1      29.825  25.443  24.089  1.00  0.00    -0.006 C 
ATOM     10  C   UNL A   1      30.805  26.766  25.751  1.00  0.00     0.047 C 
ATOM     11  C   UNL A   1      29.888  26.690  23.607  1.00  0.00    -0.016 C 
BRANCH   8  12
ATOM     12  N   UNL A   1      29.954  24.516  26.298  1.00  0.00    -0.345 N 
ATOM     13  C   UNL A   1      30.294  23.333  26.902  1.00  0.00     0.268 C 
ATOM     14  O   UNL A   1      29.506  22.887  27.731  1.00  0.00    -0.268 OA
ATOM     15  H   UNL A   1      29.087  24.887  26.578  1.00  0.00     0.164 HD
BRANCH  13  16
ATOM     16  C   UNL A   1      31.498  22.602  26.554  1.00  0.00     0.105 A 
ATOM     17  C   UNL A   1      33.179  21.269  25.749  1.00  0.00     0.035 A 
ATOM     18  C   UNL A   1      33.522  21.685  27.019  1.00  0.00     0.094 A 
ATOM     19  C   UNL A   1      31.941  21.905  25.444  1.00  0.00     0.045 A 
ATOM     20  N   UNL A   1      32.533  22.518  27.471  1.00  0.00    -0.356 N 
ATOM     21  H   UNL A   1      32.554  22.995  28.332  1.00  0.00     0.166 HD
BRANCH  17  22
ATOM     22  C   UNL A   1      33.907  20.351  24.877  1.00  0.00     0.161 C 
ATOM     23  C   UNL A   1      35.412  20.388  24.905  1.00  0.00     0.093 C 
ATOM     24  O   UNL A   1      33.314  19.507  24.210  1.00  0.00    -0.294 OA
ENDBRANCH  17  22
ENDBRANCH  13  16
ENDBRANCH   8  12
ENDBRANCH   4   7
ENDBRANCH   2   3
ENDBRANCH   1   2
BRANCH   1  25
ATOM     25  C   UNL A   1      35.002  29.284  27.041  1.00  0.00     0.118 C 
BRANCH  25  26
ATOM     26  N   UNL A   1      35.366  30.584  27.593  1.00  0.00    -0.352 N 
ATOM     27  C   UNL A   1      36.380  30.944  28.439  1.00  0.00     0.251 C 
ATOM     28  H   UNL A   1      34.784  31.327  27.309  1.00  0.00     0.163 HD
ATOM     29  O   UNL A   1      36.319  32.041  28.991  1.00  0.00    -0.269 OA
BRANCH  27  30
ATOM     30  C   UNL A   1      37.516  30.043  28.725  1.00  0.00     0.039 A 
ATOM     31  C   UNL A   1      38.642  30.138  27.897  1.00  0.00     0.014 A 
ATOM     32  C   UNL A   1      37.463  29.068  29.727  1.00  0.00     0.014 A 
ATOM     33  C   UNL A   1      39.736  29.308  28.117  1.00  0.00     0.010 A 
ATOM     34  C   UNL A   1      38.566  28.256  29.970  1.00  0.00     0.010 A 
ATOM     35  C   UNL A   1      39.707  28.389  29.173  1.00  0.00    -0.014 A 
BRANCH  35  36
ATOM     36  C   UNL A   1      40.967  27.706  29.549  1.00  0.00     0.031 A 
ATOM     37  C   UNL A   1      41.172  26.426  28.699  1.00  0.00     0.074 A 
ATOM     38  C   UNL A   1      41.695  28.266  30.566  1.00  0.00     0.049 A 
ATOM     39  N   UNL A   1      41.737  25.297  28.999  1.00  0.00    -0.248 NA
ATOM     40  C   UNL A   1      40.559  26.358  27.339  1.00  0.00     0.031 C 
ATOM     41  C   UNL A   1      41.367  29.548  31.232  1.00  0.00     0.029 A 
ATOM     42  N   UNL A   1      42.842  27.903  31.245  1.00  0.00    -0.354 N 
ATOM     43  C   UNL A   1      41.739  24.487  27.834  1.00  0.00     0.074 A 
ATOM     44  C   UNL A   1      40.882  25.140  26.894  1.00  0.00     0.031 C 
ATOM     45  C   UNL A   1      42.222  29.804  32.248  1.00  0.00     0.029 A 
ATOM     46  C   UNL A   1      43.196  28.735  32.349  1.00  0.00     0.049 A 
ATOM     47  H   UNL A   1      43.380  27.121  30.984  1.00  0.00     0.167 HD
ATOM     48  C   UNL A   1      42.558  23.402  27.675  1.00  0.00     0.037 A 
ATOM     49  C   UNL A   1      44.167  28.544  33.301  1.00  0.00     0.037 A 
ATOM     50  C   UNL A   1      43.348  23.238  28.848  1.00  0.00     0.049 A 
ATOM     51  C   UNL A   1      44.891  27.346  32.853  1.00  0.00     0.074 A 
ATOM     52  C   UNL A   1      43.043  22.823  30.116  1.00  0.00     0.029 A 
ATOM     53  N   UNL A   1      44.558  23.892  28.859  1.00  0.00    -0.354 N 
ATOM     54  N   UNL A   1      45.716  27.304  31.851  1.00  0.00    -0.248 NA
ATOM     55  C   UNL A   1      44.597  26.070  33.519  1.00  0.00     0.031 C 
ATOM     56  C   UNL A   1      43.821  23.676  30.923  1.00  0.00     0.029 A 
ATOM     57  C   UNL A   1      44.732  24.381  30.127  1.00  0.00     0.049 A 
ATOM     58  H   UNL A   1      45.178  23.990  28.102  1.00  0.00     0.167 HD
ATOM     59  C   UNL A   1      45.763  25.961  31.574  1.00  0.00     0.074 A 
ATOM     60  C   UNL A   1      45.351  25.268  32.775  1.00  0.00     0.031 C 
ATOM     61  C   UNL A   1      45.582  25.535  30.299  1.00  0.00     0.037 A 
BRANCH  48  62
ATOM     62  C   UNL A   1      42.958  22.563  26.483  1.00  0.00     0.058 A 
ATOM     63  C   UNL A   1      42.533  21.207  26.455  1.00  0.00     0.135 A 
ATOM     64  C   UNL A   1      43.985  22.898  25.592  1.00  0.00     0.135 A 
ATOM     65  F   UNL A   1      41.502  20.792  27.212  1.00  0.00    -0.206 F 
ATOM     66  C   UNL A   1      43.188  20.225  25.721  1.00  0.00     0.059 A 
ATOM     67  C   UNL A   1      44.629  21.931  24.807  1.00  0.00     0.059 A 
ATOM     68  F   UNL A   1      44.448  24.152  25.510  1.00  0.00    -0.206 F 
ATOM     69  C   UNL A   1      44.263  20.592  24.924  1.00  0.00     0.060 A 
BRANCH  69  70
ATOM     70  S   UNL A   1      45.182  19.286  24.080  1.00  0.00     0.124 S 
ATOM     71  O   UNL A   1      44.627  19.354  22.732  1.00  0.00    -0.237 OA
ATOM     72  O   UNL A   1      46.562  19.742  24.217  1.00  0.00    -0.237 OA
ATOM     73  O   UNL A   1      44.847  18.091  24.847  1.00  0.00    -0.744 OA
ENDBRANCH  69  70
ENDBRANCH  48  62
BRANCH  49  74
ATOM     74  C   UNL A   1      44.582  29.091  34.660  1.00  0.00     0.058 A 
ATOM     75  C   UNL A   1      43.784  29.184  35.807  1.00  0.00     0.135 A 
ATOM     76  C   UNL A   1      45.950  29.437  34.887  1.00  0.00     0.135 A 
ATOM     77  F   UNL A   1      42.455  29.047  35.736  1.00  0.00    -0.206 F 
ATOM     78  C   UNL A   1      44.327  29.417  37.091  1.00  0.00     0.059 A 
ATOM     79  C   UNL A   1      46.520  29.611  36.145  1.00  0.00     0.059 A 
ATOM     80  F   UNL A   1      46.820  29.587  33.879  1.00  0.00    -0.206 F 
ATOM     81  C   UNL A   1      45.705  29.562  37.256  1.00  0.00     0.060 A 
BRANCH  81  82
ATOM     82  S   UNL A   1      46.462  29.550  38.897  1.00  0.00     0.124 S 
ATOM     83  O   UNL A   1      47.861  29.283  38.588  1.00  0.00    -0.237 OA
ATOM     84  O   UNL A   1      46.162  30.890  39.392  1.00  0.00    -0.237 OA
ATOM     85  O   UNL A   1      45.752  28.472  39.583  1.00  0.00    -0.744 OA
ENDBRANCH  81  82
ENDBRANCH  49  74
BRANCH  61  86
ATOM     86  C   UNL A   1      45.994  26.519  29.223  1.00  0.00     0.058 A 
ATOM     87  C   UNL A   1      47.354  26.826  29.057  1.00  0.00     0.135 A 
ATOM     88  C   UNL A   1      45.101  27.217  28.391  1.00  0.00     0.135 A 
ATOM     89  F   UNL A   1      48.275  26.211  29.818  1.00  0.00    -0.206 F 
ATOM     90  C   UNL A   1      47.803  27.749  28.109  1.00  0.00     0.059 A 
ATOM     91  C   UNL A   1      45.521  28.141  27.426  1.00  0.00     0.059 A 
ATOM     92  F   UNL A   1      43.785  27.022  28.496  1.00  0.00    -0.206 F 
ATOM     93  C   UNL A   1      46.880  28.395  27.288  1.00  0.00     0.060 A 
BRANCH  93  94
ATOM     94  S   UNL A   1      47.490  29.537  26.026  1.00  0.00     0.124 S 
ATOM     95  O   UNL A   1      48.772  28.943  25.659  1.00  0.00    -0.237 OA
ATOM     96  O   UNL A   1      46.444  29.454  25.012  1.00  0.00    -0.237 OA
ATOM     97  O   UNL A   1      47.577  30.815  26.727  1.00  0.00    -0.744 OA
ENDBRANCH  93  94
ENDBRANCH  61  86
ENDBRANCH  35  36
ENDBRANCH  27  30
ENDBRANCH  25  26
ENDBRANCH   1  25
TORSDOF 16
ENDMDL
MODEL 3
REMARK VINA RESULT:     -12.6      3.282      9.168
REMARK SMILES CC(=O)c1c[nH]c(C(=O)N[C@H]2C=C[C@H](C(=O)NCCCNC(=O)c3ccc(-c4c5nc(c(-c6c(F)cc(S(=O)(=O)[O-])cc6F)c6ccc([nH]6)c(-c6c(F)cc(S(=O)(=O)[O-])cc6F)c6nc(c(-c7c(F)cc(S(=O)(=O)[O-])cc7F)c7ccc4[nH]7)C=C6)C=C5)cc3)C2)c1
REMARK SMILES IDX 19 1 18 2 17 3 15 4 16 5 14 7 11 8 12 9 90 10 13 11 10 12
REMARK SMILES IDX 8 13 9 14 7 16 4 17 5 18 91 19 6 20 2 22 1 23 3 24 20 25
REMARK SMILES IDX 21 26 22 27 23 29 24 30 25 31 89 32 26 33 88 34 27 35 28 36
REMARK SMILES IDX 29 37 82 38 30 39 87 40 81 41 83 42 31 43 86 44 80 45 79 46
REMARK SMILES IDX 32 48 66 49 45 50 65 51 46 52 49 53 64 54 84 55 47 56 48 57
REMARK SMILES IDX 63 59 85 60 50 61 33 62 34 63 43 64 35 65 36 66 42 67 44 68
REMARK SMILES IDX 37 69 38 70 39 71 40 72 41 73 67 74 68 75 77 76 69 77 70 78
REMARK SMILES IDX 76 79 78 80 71 81 72 82 73 83 74 84 75 85 51 86 52 87 61 88
REMARK SMILES IDX 53 89 54 90 60 91 62 92 55 93 56 94 57 95 58 96 59 97
REMARK H PARENT 17 6 10 15 6 21 21 28 83 47 49 58
REMARK Flexibility Score: inf
ROOT
ATOM      1  C   UNL A   1      32.842  28.213  27.260  1.00  0.00     0.042 C 
ENDROOT
BRANCH   1   2
ATOM      2  C   UNL A   1      31.392  28.107  26.782  1.00  0.00     0.117 C 
BRANCH   2   3
ATOM      3  N   UNL A   1      30.871  26.762  26.926  1.00  0.00    -0.356 N 
ATOM      4  C   UNL A   1      30.230  25.914  26.087  1.00  0.00     0.227 C 
ATOM      5  O   UNL A   1      29.883  24.834  26.579  1.00  0.00    -0.274 OA
ATOM      6  H   UNL A   1      31.014  26.384  27.823  1.00  0.00     0.163 HD
BRANCH   4   7
ATOM      7  C   UNL A   1      29.912  26.199  24.607  1.00  0.00     0.103 C 
ATOM      8  C   UNL A   1      31.946  25.933  23.291  1.00  0.00     0.106 C 
ATOM      9  C   UNL A   1      31.439  27.339  23.226  1.00  0.00    -0.006 C 
ATOM     10  C   UNL A   1      30.687  25.185  23.742  1.00  0.00     0.047 C 
ATOM     11  C   UNL A   1      30.320  27.480  23.948  1.00  0.00    -0.016 C 
BRANCH   8  12
ATOM     12  N   UNL A   1      32.388  25.517  21.987  1.00  0.00    -0.345 N 
ATOM     13  C   UNL A   1      32.937  24.332  21.571  1.00  0.00     0.268 C 
ATOM     14  O   UNL A   1      33.203  24.234  20.376  1.00  0.00    -0.268 OA
ATOM     15  H   UNL A   1      32.279  26.193  21.280  1.00  0.00     0.164 HD
BRANCH  13  16
ATOM     16  C   UNL A   1      33.244  23.253  22.491  1.00  0.00     0.105 A 
ATOM     17  C   UNL A   1      33.363  21.447  23.895  1.00  0.00     0.035 A 
ATOM     18  C   UNL A   1      34.376  22.324  24.225  1.00  0.00     0.094 A 
ATOM     19  C   UNL A   1      32.704  22.009  22.764  1.00  0.00     0.045 A 
ATOM     20  N   UNL A   1      34.323  23.376  23.349  1.00  0.00    -0.356 N 
ATOM     21  H   UNL A   1      34.967  24.120  23.332  1.00  0.00     0.166 HD
BRANCH  17  22
ATOM     22  C   UNL A   1      33.004  20.198  24.562  1.00  0.00     0.161 C 
ATOM     23  C   UNL A   1      34.006  19.074  24.551  1.00  0.00     0.093 C 
ATOM     24  O   UNL A   1      31.955  20.096  25.194  1.00  0.00    -0.294 OA
ENDBRANCH  17  22
ENDBRANCH  13  16
ENDBRANCH   8  12
ENDBRANCH   4   7
ENDBRANCH   2   3
ENDBRANCH   1   2
BRANCH   1  25
ATOM     25  C   UNL A   1      33.630  29.250  26.461  1.00  0.00     0.118 C 
BRANCH  25  26
ATOM     26  N   UNL A   1      33.578  30.553  27.111  1.00  0.00    -0.352 N 
ATOM     27  C   UNL A   1      34.394  31.114  28.057  1.00  0.00     0.251 C 
ATOM     28  H   UNL A   1      32.831  31.126  26.822  1.00  0.00     0.163 HD
ATOM     29  O   UNL A   1      33.992  32.107  28.662  1.00  0.00    -0.269 OA
BRANCH  27  30
ATOM     30  C   UNL A   1      35.717  30.543  28.387  1.00  0.00     0.039 A 
ATOM     31  C   UNL A   1      36.662  30.463  27.356  1.00  0.00     0.014 A 
ATOM     32  C   UNL A   1      36.011  30.020  29.650  1.00  0.00     0.014 A 
ATOM     33  C   UNL A   1      37.920  29.926  27.609  1.00  0.00     0.010 A 
ATOM     34  C   UNL A   1      37.278  29.509  29.916  1.00  0.00     0.010 A 
ATOM     35  C   UNL A   1      38.235  29.478  28.898  1.00  0.00    -0.014 A 
BRANCH  35  36
ATOM     36  C   UNL A   1      39.647  29.157  29.207  1.00  0.00     0.031 A 
ATOM     37  C   UNL A   1      40.415  30.429  29.652  1.00  0.00     0.074 A 
ATOM     38  C   UNL A   1      40.041  27.858  29.022  1.00  0.00     0.049 A 
ATOM     39  N   UNL A   1      41.657  30.764  29.485  1.00  0.00    -0.248 NA
ATOM     40  C   UNL A   1      39.654  31.544  30.289  1.00  0.00     0.031 C 
ATOM     41  C   UNL A   1      39.137  26.748  28.642  1.00  0.00     0.029 A 
ATOM     42  N   UNL A   1      41.249  27.193  29.114  1.00  0.00    -0.354 N 
ATOM     43  C   UNL A   1      41.872  31.992  30.162  1.00  0.00     0.074 A 
ATOM     44  C   UNL A   1      40.577  32.483  30.515  1.00  0.00     0.031 C 
ATOM     45  C   UNL A   1      39.825  25.598  28.459  1.00  0.00     0.029 A 
ATOM     46  C   UNL A   1      41.235  25.826  28.705  1.00  0.00     0.049 A 
ATOM     47  H   UNL A   1      42.066  27.633  29.442  1.00  0.00     0.167 HD
ATOM     48  C   UNL A   1      43.114  32.453  30.507  1.00  0.00     0.037 A 
ATOM     49  C   UNL A   1      42.289  24.964  28.528  1.00  0.00     0.037 A 
ATOM     50  C   UNL A   1      44.097  31.524  30.061  1.00  0.00     0.049 A 
ATOM     51  C   UNL A   1      43.461  25.712  29.005  1.00  0.00     0.074 A 
ATOM     52  C   UNL A   1      44.561  31.200  28.814  1.00  0.00     0.029 A 
ATOM     53  N   UNL A   1      44.442  30.534  30.949  1.00  0.00    -0.354 N 
ATOM     54  N   UNL A   1      43.733  25.957  30.251  1.00  0.00    -0.248 NA
ATOM     55  C   UNL A   1      44.349  26.317  28.004  1.00  0.00     0.031 C 
ATOM     56  C   UNL A   1      44.723  29.802  28.891  1.00  0.00     0.029 A 
ATOM     57  C   UNL A   1      44.596  29.383  30.221  1.00  0.00     0.049 A 
ATOM     58  H   UNL A   1      44.556  30.633  31.922  1.00  0.00     0.167 HD
ATOM     59  C   UNL A   1      44.611  27.007  30.151  1.00  0.00     0.074 A 
ATOM     60  C   UNL A   1      45.178  26.958  28.822  1.00  0.00     0.031 C 
ATOM     61  C   UNL A   1      44.407  28.122  30.896  1.00  0.00     0.037 A 
BRANCH  48  62
ATOM     62  C   UNL A   1      43.602  33.538  31.438  1.00  0.00     0.058 A 
ATOM     63  C   UNL A   1      43.264  33.431  32.814  1.00  0.00     0.135 A 
ATOM     64  C   UNL A   1      44.050  34.797  31.017  1.00  0.00     0.135 A 
ATOM     65  F   UNL A   1      42.897  32.252  33.345  1.00  0.00    -0.206 F 
ATOM     66  C   UNL A   1      43.214  34.529  33.668  1.00  0.00     0.059 A 
ATOM     67  C   UNL A   1      44.053  35.907  31.873  1.00  0.00     0.059 A 
ATOM     68  F   UNL A   1      44.423  35.009  29.748  1.00  0.00    -0.206 F 
ATOM     69  C   UNL A   1      43.577  35.774  33.176  1.00  0.00     0.060 A 
BRANCH  69  70
ATOM     70  S   UNL A   1      43.383  37.206  34.259  1.00  0.00     0.124 S 
ATOM     71  O   UNL A   1      42.164  36.867  34.987  1.00  0.00    -0.237 OA
ATOM     72  O   UNL A   1      44.615  37.170  35.042  1.00  0.00    -0.237 OA
ATOM     73  O   UNL A   1      43.278  38.322  33.325  1.00  0.00    -0.744 OA
ENDBRANCH  69  70
ENDBRANCH  48  62
BRANCH  49  74
ATOM     74  C   UNL A   1      42.588  23.613  27.892  1.00  0.00     0.058 A 
ATOM     75  C   UNL A   1      43.051  22.463  28.544  1.00  0.00     0.135 A 
ATOM     76  C   UNL A   1      42.255  23.396  26.519  1.00  0.00     0.135 A 
ATOM     77  F   UNL A   1      43.551  22.526  29.783  1.00  0.00    -0.206 F 
ATOM     78  C   UNL A   1      43.011  21.185  27.943  1.00  0.00     0.059 A 
ATOM     79  C   UNL A   1      42.152  22.143  25.923  1.00  0.00     0.059 A 
ATOM     80  F   UNL A   1      41.975  24.410  25.689  1.00  0.00    -0.206 F 
ATOM     81  C   UNL A   1      42.497  21.028  26.656  1.00  0.00     0.060 A 
BRANCH  81  82
ATOM     82  S   UNL A   1      42.144  19.390  25.977  1.00  0.00     0.124 S 
ATOM     83  O   UNL A   1      40.702  19.450  25.766  1.00  0.00    -0.237 OA
ATOM     84  O   UNL A   1      42.965  19.366  24.771  1.00  0.00    -0.237 OA
ATOM     85  O   UNL A   1      42.588  18.488  27.038  1.00  0.00    -0.744 OA
ENDBRANCH  81  82
ENDBRANCH  49  74
BRANCH  61  86
ATOM     86  C   UNL A   1      43.676  27.901  32.205  1.00  0.00     0.058 A 
ATOM     87  C   UNL A   1      44.352  27.296  33.276  1.00  0.00     0.135 A 
ATOM     88  C   UNL A   1      42.320  28.204  32.427  1.00  0.00     0.135 A 
ATOM     89  F   UNL A   1      45.647  26.966  33.147  1.00  0.00    -0.206 F 
ATOM     90  C   UNL A   1      43.731  27.031  34.500  1.00  0.00     0.059 A 
ATOM     91  C   UNL A   1      41.674  27.958  33.644  1.00  0.00     0.059 A 
ATOM     92  F   UNL A   1      41.581  28.749  31.458  1.00  0.00    -0.206 F 
ATOM     93  C   UNL A   1      42.392  27.375  34.680  1.00  0.00     0.060 A 
BRANCH  93  94
ATOM     94  S   UNL A   1      41.629  27.080  36.292  1.00  0.00     0.124 S 
ATOM     95  O   UNL A   1      40.865  25.857  36.059  1.00  0.00    -0.237 OA
ATOM     96  O   UNL A   1      42.795  26.937  37.158  1.00  0.00    -0.237 OA
ATOM     97  O   UNL A   1      40.826  28.278  36.521  1.00  0.00    -0.744 OA
ENDBRANCH  93  94
ENDBRANCH  61  86
ENDBRANCH  35  36
ENDBRANCH  27  30
ENDBRANCH  25  26
ENDBRANCH   1  25
TORSDOF 16
ENDMDL
