MODEL 1
REMARK VINA RESULT:     -12.9      0.000      0.000
REMARK SMILES CC(C)Cc1cc2c(cc1Cl)C=C(C(=O)NCCCNC(=O)c1ccc(-c3c4nc(c(-c5c(F)cc(S(=O)(=O)[O-])cc5F)c5ccc([nH]5)c(-c5c(F)cc(S(=O)(=O)[O-])cc5F)c5nc(c(-c6c(F)cc(S(=O)(=O)[O-])cc6F)c6ccc3[nH]6)C=C5)C=C4)cc1)[C@@H](C(F)(F)F)O2
REMARK SMILES IDX 18 1 17 2 16 3 14 4 15 5 13 7 5 8 6 9 10 10 7 11 9 12 11 13
REMARK SMILES IDX 8 14 94 15 12 16 89 17 4 18 2 19 1 20 3 21 90 22 91 23 92 24
REMARK SMILES IDX 93 25 19 26 20 27 21 28 22 30 23 31 24 32 88 33 25 34 87 35
REMARK SMILES IDX 26 36 27 37 28 38 81 39 29 40 86 41 80 42 82 43 30 44 85 45
REMARK SMILES IDX 79 46 78 47 31 49 65 50 44 51 64 52 45 53 48 54 63 55 83 56
REMARK SMILES IDX 46 57 47 58 62 60 84 61 49 62 32 63 33 64 42 65 34 66 35 67
REMARK SMILES IDX 41 68 43 69 36 70 37 71 38 72 39 73 40 74 66 75 67 76 76 77
REMARK SMILES IDX 68 78 69 79 75 80 77 81 70 82 71 83 72 84 73 85 74 86 50 87
REMARK SMILES IDX 51 88 60 89 52 90 53 91 59 92 61 93 54 94 55 95 56 96 57 97
REMARK SMILES IDX 58 98
REMARK H PARENT 16 6 20 29 82 48 48 59
REMARK Flexibility Score: inf
ROOT
ATOM      1  C   UNL A   1      39.290  22.085  26.507  1.00  0.00     0.042 C 
ENDROOT
BRANCH   1   2
ATOM      2  C   UNL A   1      38.091  22.662  25.770  1.00  0.00     0.118 C 
BRANCH   2   3
ATOM      3  N   UNL A   1      36.892  21.865  25.978  1.00  0.00    -0.352 N 
ATOM      4  C   UNL A   1      35.576  21.953  25.685  1.00  0.00     0.251 C 
ATOM      5  O   UNL A   1      34.890  20.999  26.073  1.00  0.00    -0.270 OA
ATOM      6  H   UNL A   1      37.096  21.034  26.465  1.00  0.00     0.163 HD
BRANCH   4   7
ATOM      7  C   UNL A   1      34.928  23.072  24.946  1.00  0.00     0.067 C 
ATOM      8  C   UNL A   1      32.963  27.542  23.644  1.00  0.00    -0.025 A 
ATOM      9  C   UNL A   1      33.424  26.419  22.930  1.00  0.00     0.052 A 
ATOM     10  C   UNL A   1      33.070  27.523  25.044  1.00  0.00     0.045 A 
ATOM     11  C   UNL A   1      33.975  25.328  23.598  1.00  0.00     0.128 A 
ATOM     12  C   UNL A   1      33.684  26.450  25.704  1.00  0.00     0.032 A 
ATOM     13  Cl  UNL A   1      32.423  28.779  26.039  1.00  0.00    -0.084 Cl
ATOM     14  C   UNL A   1      34.139  25.349  24.980  1.00  0.00     0.019 A 
ATOM     15  O   UNL A   1      34.360  24.259  22.837  1.00  0.00    -0.475 OA
ATOM     16  C   UNL A   1      34.795  24.223  25.633  1.00  0.00     0.025 C 
ATOM     17  C   UNL A   1      34.400  22.982  23.541  1.00  0.00     0.314 C 
BRANCH   8  18
ATOM     18  C   UNL A   1      32.349  28.680  22.854  1.00  0.00     0.040 C 
BRANCH  18  19
ATOM     19  C   UNL A   1      30.829  28.898  23.024  1.00  0.00    -0.013 C 
ATOM     20  C   UNL A   1      30.221  29.771  21.924  1.00  0.00     0.008 C 
ATOM     21  C   UNL A   1      30.118  27.542  23.061  1.00  0.00     0.008 C 
ENDBRANCH  18  19
ENDBRANCH   8  18
BRANCH  17  22
ATOM     22  C   UNL A   1      33.013  22.308  23.484  1.00  0.00     0.429 C 
ATOM     23  F   UNL A   1      32.239  22.714  24.519  1.00  0.00    -0.167 F 
ATOM     24  F   UNL A   1      32.334  22.615  22.352  1.00  0.00    -0.167 F 
ATOM     25  F   UNL A   1      33.082  20.957  23.535  1.00  0.00    -0.167 F 
ENDBRANCH  17  22
ENDBRANCH   4   7
ENDBRANCH   2   3
ENDBRANCH   1   2
BRANCH   1  26
ATOM     26  C   UNL A   1      40.194  23.165  27.091  1.00  0.00     0.118 C 
BRANCH  26  27
ATOM     27  N   UNL A   1      40.751  24.037  26.059  1.00  0.00    -0.352 N 
ATOM     28  C   UNL A   1      41.015  25.387  26.083  1.00  0.00     0.251 C 
ATOM     29  H   UNL A   1      40.973  23.588  25.212  1.00  0.00     0.163 HD
ATOM     30  O   UNL A   1      41.272  25.975  25.037  1.00  0.00    -0.269 OA
BRANCH  28  31
ATOM     31  C   UNL A   1      40.969  26.126  27.363  1.00  0.00     0.039 A 
ATOM     32  C   UNL A   1      39.916  25.919  28.252  1.00  0.00     0.014 A 
ATOM     33  C   UNL A   1      41.980  27.039  27.675  1.00  0.00     0.014 A 
ATOM     34  C   UNL A   1      39.761  26.767  29.338  1.00  0.00     0.010 A 
ATOM     35  C   UNL A   1      41.881  27.814  28.834  1.00  0.00     0.010 A 
ATOM     36  C   UNL A   1      40.740  27.725  29.647  1.00  0.00    -0.014 A 
BRANCH  36  37
ATOM     37  C   UNL A   1      40.526  28.612  30.821  1.00  0.00     0.031 A 
ATOM     38  C   UNL A   1      41.463  28.573  31.999  1.00  0.00     0.074 A 
ATOM     39  C   UNL A   1      39.535  29.525  30.772  1.00  0.00     0.049 A 
ATOM     40  N   UNL A   1      41.460  29.319  33.076  1.00  0.00    -0.248 NA
ATOM     41  C   UNL A   1      42.536  27.566  31.977  1.00  0.00     0.031 C 
ATOM     42  C   UNL A   1      38.572  29.662  29.676  1.00  0.00     0.029 A 
ATOM     43  N   UNL A   1      39.201  30.538  31.633  1.00  0.00    -0.354 N 
ATOM     44  C   UNL A   1      42.508  28.859  33.864  1.00  0.00     0.074 A 
ATOM     45  C   UNL A   1      43.112  27.751  33.156  1.00  0.00     0.031 C 
ATOM     46  C   UNL A   1      37.815  30.748  29.888  1.00  0.00     0.029 A 
ATOM     47  C   UNL A   1      38.184  31.339  31.168  1.00  0.00     0.049 A 
ATOM     48  H   UNL A   1      39.645  30.679  32.501  1.00  0.00     0.167 HD
ATOM     49  C   UNL A   1      42.936  29.326  35.061  1.00  0.00     0.037 A 
ATOM     50  C   UNL A   1      37.606  32.428  31.712  1.00  0.00     0.037 A 
ATOM     51  C   UNL A   1      42.351  30.452  35.742  1.00  0.00     0.049 A 
ATOM     52  C   UNL A   1      38.084  32.912  33.049  1.00  0.00     0.074 A 
ATOM     53  C   UNL A   1      42.722  31.013  36.952  1.00  0.00     0.029 A 
ATOM     54  N   UNL A   1      41.276  31.193  35.273  1.00  0.00    -0.354 N 
ATOM     55  N   UNL A   1      39.068  32.454  33.784  1.00  0.00    -0.248 NA
ATOM     56  C   UNL A   1      37.360  34.044  33.642  1.00  0.00     0.031 C 
ATOM     57  C   UNL A   1      41.850  32.072  37.229  1.00  0.00     0.029 A 
ATOM     58  C   UNL A   1      40.959  32.194  36.175  1.00  0.00     0.049 A 
ATOM     59  H   UNL A   1      40.807  31.030  34.422  1.00  0.00     0.167 HD
ATOM     60  C   UNL A   1      39.082  33.239  34.929  1.00  0.00     0.074 A 
ATOM     61  C   UNL A   1      38.024  34.218  34.778  1.00  0.00     0.031 C 
ATOM     62  C   UNL A   1      39.894  33.151  36.010  1.00  0.00     0.037 A 
BRANCH  49  63
ATOM     63  C   UNL A   1      44.086  28.617  35.721  1.00  0.00     0.058 A 
ATOM     64  C   UNL A   1      45.418  28.996  35.488  1.00  0.00     0.135 A 
ATOM     65  C   UNL A   1      43.852  27.573  36.630  1.00  0.00     0.135 A 
ATOM     66  F   UNL A   1      45.699  29.976  34.616  1.00  0.00    -0.206 F 
ATOM     67  C   UNL A   1      46.478  28.350  36.117  1.00  0.00     0.059 A 
ATOM     68  C   UNL A   1      44.896  26.927  37.288  1.00  0.00     0.059 A 
ATOM     69  F   UNL A   1      42.598  27.170  36.888  1.00  0.00    -0.206 F 
ATOM     70  C   UNL A   1      46.207  27.316  37.015  1.00  0.00     0.060 A 
BRANCH  70  71
ATOM     71  S   UNL A   1      47.595  26.488  37.821  1.00  0.00     0.124 S 
ATOM     72  O   UNL A   1      47.017  26.145  39.116  1.00  0.00    -0.237 OA
ATOM     73  O   UNL A   1      47.851  25.365  36.925  1.00  0.00    -0.237 OA
ATOM     74  O   UNL A   1      48.634  27.513  37.848  1.00  0.00    -0.744 OA
ENDBRANCH  70  71
ENDBRANCH  49  63
BRANCH  50  75
ATOM     75  C   UNL A   1      36.515  33.119  30.979  1.00  0.00     0.058 A 
ATOM     76  C   UNL A   1      35.189  33.054  31.432  1.00  0.00     0.135 A 
ATOM     77  C   UNL A   1      36.784  33.907  29.849  1.00  0.00     0.135 A 
ATOM     78  F   UNL A   1      34.882  32.309  32.504  1.00  0.00    -0.206 F 
ATOM     79  C   UNL A   1      34.169  33.755  30.795  1.00  0.00     0.059 A 
ATOM     80  C   UNL A   1      35.785  34.636  29.211  1.00  0.00     0.059 A 
ATOM     81  F   UNL A   1      38.040  34.012  29.386  1.00  0.00    -0.206 F 
ATOM     82  C   UNL A   1      34.480  34.550  29.690  1.00  0.00     0.060 A 
BRANCH  82  83
ATOM     83  S   UNL A   1      33.165  35.523  28.924  1.00  0.00     0.124 S 
ATOM     84  O   UNL A   1      32.544  34.537  28.047  1.00  0.00    -0.237 OA
ATOM     85  O   UNL A   1      32.376  35.936  30.081  1.00  0.00    -0.237 OA
ATOM     86  O   UNL A   1      33.890  36.598  28.255  1.00  0.00    -0.744 OA
ENDBRANCH  82  83
ENDBRANCH  50  75
BRANCH  62  87
ATOM     87  C   UNL A   1      39.668  34.134  37.122  1.00  0.00     0.058 A 
ATOM     88  C   UNL A   1      38.873  33.808  38.231  1.00  0.00     0.135 A 
ATOM     89  C   UNL A   1      40.310  35.383  37.115  1.00  0.00     0.135 A 
ATOM     90  F   UNL A   1      38.231  32.629  38.278  1.00  0.00    -0.206 F 
ATOM     91  C   UNL A   1      38.715  34.689  39.293  1.00  0.00     0.059 A 
ATOM     92  C   UNL A   1      40.183  36.272  38.176  1.00  0.00     0.059 A 
ATOM     93  F   UNL A   1      41.086  35.738  36.079  1.00  0.00    -0.206 F 
ATOM     94  C   UNL A   1      39.379  35.917  39.260  1.00  0.00     0.060 A 
BRANCH  94  95
ATOM     95  S   UNL A   1      39.208  37.028  40.672  1.00  0.00     0.124 S 
ATOM     96  O   UNL A   1      38.297  38.037  40.145  1.00  0.00    -0.237 OA
ATOM     97  O   UNL A   1      38.654  36.147  41.696  1.00  0.00    -0.237 OA
ATOM     98  O   UNL A   1      40.574  37.480  40.916  1.00  0.00    -0.744 OA
ENDBRANCH  94  95
ENDBRANCH  62  87
ENDBRANCH  36  37
ENDBRANCH  28  31
ENDBRANCH  26  27
ENDBRANCH   1  26
TORSDOF 16
ENDMDL
MODEL 2
REMARK VINA RESULT:     -12.5      6.679     12.092
REMARK SMILES CC(C)Cc1cc2c(cc1Cl)C=C(C(=O)NCCCNC(=O)c1ccc(-c3c4nc(c(-c5c(F)cc(S(=O)(=O)[O-])cc5F)c5ccc([nH]5)c(-c5c(F)cc(S(=O)(=O)[O-])cc5F)c5nc(c(-c6c(F)cc(S(=O)(=O)[O-])cc6F)c6ccc3[nH]6)C=C5)C=C4)cc1)[C@@H](C(F)(F)F)O2
REMARK SMILES IDX 18 1 17 2 16 3 14 4 15 5 13 7 5 8 6 9 10 10 7 11 9 12 11 13
REMARK SMILES IDX 8 14 94 15 12 16 89 17 4 18 2 19 1 20 3 21 90 22 91 23 92 24
REMARK SMILES IDX 93 25 19 26 20 27 21 28 22 30 23 31 24 32 88 33 25 34 87 35
REMARK SMILES IDX 26 36 27 37 28 38 81 39 29 40 86 41 80 42 82 43 30 44 85 45
REMARK SMILES IDX 79 46 78 47 31 49 65 50 44 51 64 52 45 53 48 54 63 55 83 56
REMARK SMILES IDX 46 57 47 58 62 60 84 61 49 62 32 63 33 64 42 65 34 66 35 67
REMARK SMILES IDX 41 68 43 69 36 70 37 71 38 72 39 73 40 74 66 75 67 76 76 77
REMARK SMILES IDX 68 78 69 79 75 80 77 81 70 82 71 83 72 84 73 85 74 86 50 87
REMARK SMILES IDX 51 88 60 89 52 90 53 91 59 92 61 93 54 94 55 95 56 96 57 97
REMARK SMILES IDX 58 98
REMARK H PARENT 16 6 20 29 82 48 48 59
REMARK Flexibility Score: inf
ROOT
ATOM      1  C   UNL A   1      34.324  31.341  27.730  1.00  0.00     0.042 C 
ENDROOT
BRANCH   1   2
ATOM      2  C   UNL A   1      33.974  29.931  27.279  1.00  0.00     0.118 C 
BRANCH   2   3
ATOM      3  N   UNL A   1      33.198  29.932  26.049  1.00  0.00    -0.352 N 
ATOM      4  C   UNL A   1      32.576  29.026  25.263  1.00  0.00     0.251 C 
ATOM      5  O   UNL A   1      32.012  29.496  24.268  1.00  0.00    -0.270 OA
ATOM      6  H   UNL A   1      33.097  30.845  25.691  1.00  0.00     0.163 HD
BRANCH   4   7
ATOM      7  C   UNL A   1      32.520  27.558  25.515  1.00  0.00     0.067 C 
ATOM      8  C   UNL A   1      33.700  22.682  26.117  1.00  0.00    -0.025 A 
ATOM      9  C   UNL A   1      32.615  23.491  26.503  1.00  0.00     0.052 A 
ATOM     10  C   UNL A   1      34.768  23.291  25.437  1.00  0.00     0.045 A 
ATOM     11  C   UNL A   1      32.608  24.856  26.223  1.00  0.00     0.128 A 
ATOM     12  C   UNL A   1      34.783  24.675  25.215  1.00  0.00     0.032 A 
ATOM     13  Cl  UNL A   1      36.094  22.387  24.795  1.00  0.00    -0.084 Cl
ATOM     14  C   UNL A   1      33.702  25.461  25.610  1.00  0.00     0.019 A 
ATOM     15  O   UNL A   1      31.499  25.565  26.593  1.00  0.00    -0.475 OA
ATOM     16  C   UNL A   1      33.692  26.904  25.409  1.00  0.00     0.025 C 
ATOM     17  C   UNL A   1      31.268  26.789  25.836  1.00  0.00     0.314 C 
BRANCH   8  18
ATOM     18  C   UNL A   1      33.627  21.201  26.429  1.00  0.00     0.040 C 
BRANCH  18  19
ATOM     19  C   UNL A   1      33.402  20.252  25.231  1.00  0.00    -0.013 C 
ATOM     20  C   UNL A   1      32.851  18.886  25.642  1.00  0.00     0.008 C 
ATOM     21  C   UNL A   1      32.453  20.912  24.226  1.00  0.00     0.008 C 
ENDBRANCH  18  19
ENDBRANCH   8  18
BRANCH  17  22
ATOM     22  C   UNL A   1      30.438  26.477  24.572  1.00  0.00     0.429 C 
ATOM     23  F   UNL A   1      29.623  25.416  24.785  1.00  0.00    -0.167 F 
ATOM     24  F   UNL A   1      29.640  27.509  24.208  1.00  0.00    -0.167 F 
ATOM     25  F   UNL A   1      31.206  26.189  23.497  1.00  0.00    -0.167 F 
ENDBRANCH  17  22
ENDBRANCH   4   7
ENDBRANCH   2   3
ENDBRANCH   1   2
BRANCH   1  26
ATOM     26  C   UNL A   1      35.661  31.409  28.456  1.00  0.00     0.118 C 
BRANCH  26  27
ATOM     27  N   UNL A   1      35.582  30.873  29.814  1.00  0.00    -0.352 N 
ATOM     28  C   UNL A   1      36.496  30.145  30.537  1.00  0.00     0.251 C 
ATOM     29  H   UNL A   1      34.740  31.065  30.286  1.00  0.00     0.163 HD
ATOM     30  O   UNL A   1      36.150  29.596  31.579  1.00  0.00    -0.269 OA
BRANCH  28  31
ATOM     31  C   UNL A   1      37.885  30.009  30.049  1.00  0.00     0.039 A 
ATOM     32  C   UNL A   1      38.153  30.055  28.682  1.00  0.00     0.014 A 
ATOM     33  C   UNL A   1      38.928  29.826  30.961  1.00  0.00     0.014 A 
ATOM     34  C   UNL A   1      39.413  29.709  28.219  1.00  0.00     0.010 A 
ATOM     35  C   UNL A   1      40.225  29.591  30.494  1.00  0.00     0.010 A 
ATOM     36  C   UNL A   1      40.468  29.474  29.116  1.00  0.00    -0.014 A 
BRANCH  36  37
ATOM     37  C   UNL A   1      41.801  29.103  28.571  1.00  0.00     0.031 A 
ATOM     38  C   UNL A   1      42.949  30.077  28.611  1.00  0.00     0.074 A 
ATOM     39  C   UNL A   1      41.993  27.845  28.127  1.00  0.00     0.049 A 
ATOM     40  N   UNL A   1      44.192  29.897  28.237  1.00  0.00    -0.248 NA
ATOM     41  C   UNL A   1      42.674  31.427  29.128  1.00  0.00     0.031 C 
ATOM     42  C   UNL A   1      40.956  26.813  28.051  1.00  0.00     0.029 A 
ATOM     43  N   UNL A   1      43.128  27.203  27.705  1.00  0.00    -0.354 N 
ATOM     44  C   UNL A   1      44.836  31.110  28.450  1.00  0.00     0.074 A 
ATOM     45  C   UNL A   1      43.843  32.029  28.963  1.00  0.00     0.031 C 
ATOM     46  C   UNL A   1      41.517  25.649  27.695  1.00  0.00     0.029 A 
ATOM     47  C   UNL A   1      42.936  25.866  27.442  1.00  0.00     0.049 A 
ATOM     48  H   UNL A   1      43.997  27.654  27.601  1.00  0.00     0.167 HD
ATOM     49  C   UNL A   1      46.138  31.423  28.251  1.00  0.00     0.037 A 
ATOM     50  C   UNL A   1      43.803  24.919  27.036  1.00  0.00     0.037 A 
ATOM     51  C   UNL A   1      47.127  30.492  27.773  1.00  0.00     0.049 A 
ATOM     52  C   UNL A   1      45.235  25.297  26.800  1.00  0.00     0.074 A 
ATOM     53  C   UNL A   1      48.477  30.708  27.553  1.00  0.00     0.029 A 
ATOM     54  N   UNL A   1      46.878  29.166  27.449  1.00  0.00    -0.354 N 
ATOM     55  N   UNL A   1      45.821  26.454  26.995  1.00  0.00    -0.248 NA
ATOM     56  C   UNL A   1      46.119  24.252  26.269  1.00  0.00     0.031 C 
ATOM     57  C   UNL A   1      49.035  29.523  27.062  1.00  0.00     0.029 A 
ATOM     58  C   UNL A   1      48.042  28.557  27.013  1.00  0.00     0.049 A 
ATOM     59  H   UNL A   1      46.001  28.724  27.518  1.00  0.00     0.167 HD
ATOM     60  C   UNL A   1      47.142  26.278  26.608  1.00  0.00     0.074 A 
ATOM     61  C   UNL A   1      47.276  24.897  26.192  1.00  0.00     0.031 C 
ATOM     62  C   UNL A   1      48.151  27.183  26.592  1.00  0.00     0.037 A 
BRANCH  49  63
ATOM     63  C   UNL A   1      46.571  32.834  28.536  1.00  0.00     0.058 A 
ATOM     64  C   UNL A   1      47.050  33.219  29.798  1.00  0.00     0.135 A 
ATOM     65  C   UNL A   1      46.548  33.806  27.521  1.00  0.00     0.135 A 
ATOM     66  F   UNL A   1      47.078  32.335  30.808  1.00  0.00    -0.206 F 
ATOM     67  C   UNL A   1      47.470  34.521  30.052  1.00  0.00     0.059 A 
ATOM     68  C   UNL A   1      46.984  35.109  27.746  1.00  0.00     0.059 A 
ATOM     69  F   UNL A   1      46.099  33.493  26.296  1.00  0.00    -0.206 F 
ATOM     70  C   UNL A   1      47.432  35.460  29.019  1.00  0.00     0.060 A 
BRANCH  70  71
ATOM     71  S   UNL A   1      47.979  37.145  29.366  1.00  0.00     0.124 S 
ATOM     72  O   UNL A   1      47.949  37.166  30.825  1.00  0.00    -0.237 OA
ATOM     73  O   UNL A   1      49.306  37.174  28.760  1.00  0.00    -0.237 OA
ATOM     74  O   UNL A   1      46.974  37.973  28.706  1.00  0.00    -0.744 OA
ENDBRANCH  70  71
ENDBRANCH  49  63
BRANCH  50  75
ATOM     75  C   UNL A   1      43.322  23.528  26.831  1.00  0.00     0.058 A 
ATOM     76  C   UNL A   1      43.030  23.048  25.546  1.00  0.00     0.135 A 
ATOM     77  C   UNL A   1      43.204  22.634  27.907  1.00  0.00     0.135 A 
ATOM     78  F   UNL A   1      43.122  23.867  24.487  1.00  0.00    -0.206 F 
ATOM     79  C   UNL A   1      42.648  21.727  25.334  1.00  0.00     0.059 A 
ATOM     80  C   UNL A   1      42.848  21.303  27.716  1.00  0.00     0.059 A 
ATOM     81  F   UNL A   1      43.487  23.043  29.154  1.00  0.00    -0.206 F 
ATOM     82  C   UNL A   1      42.568  20.861  26.425  1.00  0.00     0.060 A 
BRANCH  82  83
ATOM     83  S   UNL A   1      42.155  19.127  26.128  1.00  0.00     0.124 S 
ATOM     84  O   UNL A   1      40.722  19.208  25.869  1.00  0.00    -0.237 OA
ATOM     85  O   UNL A   1      42.995  18.805  24.979  1.00  0.00    -0.237 OA
ATOM     86  O   UNL A   1      42.537  18.474  27.375  1.00  0.00    -0.744 OA
ENDBRANCH  82  83
ENDBRANCH  50  75
BRANCH  62  87
ATOM     87  C   UNL A   1      49.490  26.712  26.102  1.00  0.00     0.058 A 
ATOM     88  C   UNL A   1      49.917  26.973  24.792  1.00  0.00     0.135 A 
ATOM     89  C   UNL A   1      50.381  26.061  26.971  1.00  0.00     0.135 A 
ATOM     90  F   UNL A   1      49.096  27.584  23.923  1.00  0.00    -0.206 F 
ATOM     91  C   UNL A   1      51.182  26.598  24.355  1.00  0.00     0.059 A 
ATOM     92  C   UNL A   1      51.659  25.696  26.561  1.00  0.00     0.059 A 
ATOM     93  F   UNL A   1      50.020  25.796  28.236  1.00  0.00    -0.206 F 
ATOM     94  C   UNL A   1      52.048  25.965  25.248  1.00  0.00     0.060 A 
BRANCH  94  95
ATOM     95  S   UNL A   1      53.707  25.533  24.682  1.00  0.00     0.124 S 
ATOM     96  O   UNL A   1      54.541  26.287  25.611  1.00  0.00    -0.237 OA
ATOM     97  O   UNL A   1      53.724  24.083  24.848  1.00  0.00    -0.237 OA
ATOM     98  O   UNL A   1      53.726  25.999  23.299  1.00  0.00    -0.744 OA
ENDBRANCH  94  95
ENDBRANCH  62  87
ENDBRANCH  36  37
ENDBRANCH  28  31
ENDBRANCH  26  27
ENDBRANCH   1  26
TORSDOF 16
ENDMDL
MODEL 3
REMARK VINA RESULT:     -12.1      4.535     10.684
REMARK SMILES CC(C)Cc1cc2c(cc1Cl)C=C(C(=O)NCCCNC(=O)c1ccc(-c3c4nc(c(-c5c(F)cc(S(=O)(=O)[O-])cc5F)c5ccc([nH]5)c(-c5c(F)cc(S(=O)(=O)[O-])cc5F)c5nc(c(-c6c(F)cc(S(=O)(=O)[O-])cc6F)c6ccc3[nH]6)C=C5)C=C4)cc1)[C@@H](C(F)(F)F)O2
REMARK SMILES IDX 18 1 17 2 16 3 14 4 15 5 13 7 5 8 6 9 10 10 7 11 9 12 11 13
REMARK SMILES IDX 8 14 94 15 12 16 89 17 4 18 2 19 1 20 3 21 90 22 91 23 92 24
REMARK SMILES IDX 93 25 19 26 20 27 21 28 22 30 23 31 24 32 88 33 25 34 87 35
REMARK SMILES IDX 26 36 27 37 28 38 81 39 29 40 86 41 80 42 82 43 30 44 85 45
REMARK SMILES IDX 79 46 78 47 31 49 65 50 44 51 64 52 45 53 48 54 63 55 83 56
REMARK SMILES IDX 46 57 47 58 62 60 84 61 49 62 32 63 33 64 42 65 34 66 35 67
REMARK SMILES IDX 41 68 43 69 36 70 37 71 38 72 39 73 40 74 66 75 67 76 76 77
REMARK SMILES IDX 68 78 69 79 75 80 77 81 70 82 71 83 72 84 73 85 74 86 50 87
REMARK SMILES IDX 51 88 60 89 52 90 53 91 59 92 61 93 54 94 55 95 56 96 57 97
REMARK SMILES IDX 58 98
REMARK H PARENT 16 6 20 29 82 48 48 59
REMARK Flexibility Score: inf
ROOT
ATOM      1  C   UNL A   1      42.085  22.409  28.048  1.00  0.00     0.042 C 
ENDROOT
BRANCH   1   2
ATOM      2  C   UNL A   1      43.443  22.632  28.696  1.00  0.00     0.118 C 
BRANCH   2   3
ATOM      3  N   UNL A   1      44.524  22.566  27.725  1.00  0.00    -0.352 N 
ATOM      4  C   UNL A   1      45.484  23.389  27.246  1.00  0.00     0.251 C 
ATOM      5  O   UNL A   1      46.220  22.888  26.388  1.00  0.00    -0.270 OA
ATOM      6  H   UNL A   1      44.570  21.678  27.301  1.00  0.00     0.163 HD
BRANCH   4   7
ATOM      7  C   UNL A   1      45.707  24.798  27.676  1.00  0.00     0.067 C 
ATOM      8  C   UNL A   1      45.226  29.757  28.517  1.00  0.00    -0.025 A 
ATOM      9  C   UNL A   1      46.009  28.731  29.078  1.00  0.00     0.052 A 
ATOM     10  C   UNL A   1      44.308  29.411  27.511  1.00  0.00     0.045 A 
ATOM     11  C   UNL A   1      45.870  27.412  28.650  1.00  0.00     0.128 A 
ATOM     12  C   UNL A   1      44.128  28.074  27.131  1.00  0.00     0.032 A 
ATOM     13  Cl  UNL A   1      43.385  30.594  26.654  1.00  0.00    -0.084 Cl
ATOM     14  C   UNL A   1      44.909  27.071  27.702  1.00  0.00     0.019 A 
ATOM     15  O   UNL A   1      46.696  26.481  29.214  1.00  0.00    -0.475 OA
ATOM     16  C   UNL A   1      44.738  25.670  27.341  1.00  0.00     0.025 C 
ATOM     17  C   UNL A   1      46.927  25.289  28.405  1.00  0.00     0.314 C 
BRANCH   8  18
ATOM     18  C   UNL A   1      45.451  31.171  29.011  1.00  0.00     0.040 C 
BRANCH  18  19
ATOM     19  C   UNL A   1      44.706  31.581  30.300  1.00  0.00    -0.013 C 
ATOM     20  C   UNL A   1      45.462  32.623  31.126  1.00  0.00     0.008 C 
ATOM     21  C   UNL A   1      43.316  32.116  29.939  1.00  0.00     0.008 C 
ENDBRANCH  18  19
ENDBRANCH   8  18
BRANCH  17  22
ATOM     22  C   UNL A   1      48.118  25.523  27.453  1.00  0.00     0.429 C 
ATOM     23  F   UNL A   1      47.686  25.739  26.188  1.00  0.00    -0.167 F 
ATOM     24  F   UNL A   1      48.853  26.608  27.799  1.00  0.00    -0.167 F 
ATOM     25  F   UNL A   1      48.975  24.477  27.415  1.00  0.00    -0.167 F 
ENDBRANCH  17  22
ENDBRANCH   4   7
ENDBRANCH   2   3
ENDBRANCH   1   2
BRANCH   1  26
ATOM     26  C   UNL A   1      41.994  23.019  26.655  1.00  0.00     0.118 C 
BRANCH  26  27
ATOM     27  N   UNL A   1      40.640  22.953  26.110  1.00  0.00    -0.352 N 
ATOM     28  C   UNL A   1      39.526  23.704  26.403  1.00  0.00     0.251 C 
ATOM     29  H   UNL A   1      40.503  22.262  25.422  1.00  0.00     0.163 HD
ATOM     30  O   UNL A   1      38.424  23.343  25.997  1.00  0.00    -0.269 OA
BRANCH  28  31
ATOM     31  C   UNL A   1      39.655  24.929  27.220  1.00  0.00     0.039 A 
ATOM     32  C   UNL A   1      40.341  26.034  26.719  1.00  0.00     0.014 A 
ATOM     33  C   UNL A   1      39.094  24.974  28.499  1.00  0.00     0.014 A 
ATOM     34  C   UNL A   1      40.649  27.090  27.564  1.00  0.00     0.010 A 
ATOM     35  C   UNL A   1      39.308  26.092  29.311  1.00  0.00     0.010 A 
ATOM     36  C   UNL A   1      40.135  27.136  28.870  1.00  0.00    -0.014 A 
BRANCH  36  37
ATOM     37  C   UNL A   1      40.496  28.288  29.739  1.00  0.00     0.031 A 
ATOM     38  C   UNL A   1      39.555  29.452  29.908  1.00  0.00     0.074 A 
ATOM     39  C   UNL A   1      41.639  28.231  30.453  1.00  0.00     0.049 A 
ATOM     40  N   UNL A   1      39.683  30.507  30.673  1.00  0.00    -0.248 NA
ATOM     41  C   UNL A   1      38.315  29.440  29.115  1.00  0.00     0.031 C 
ATOM     42  C   UNL A   1      42.622  27.147  30.376  1.00  0.00     0.029 A 
ATOM     43  N   UNL A   1      42.144  29.069  31.412  1.00  0.00    -0.354 N 
ATOM     44  C   UNL A   1      38.560  31.290  30.438  1.00  0.00     0.074 A 
ATOM     45  C   UNL A   1      37.770  30.604  29.439  1.00  0.00     0.031 C 
ATOM     46  C   UNL A   1      43.564  27.341  31.311  1.00  0.00     0.029 A 
ATOM     47  C   UNL A   1      43.296  28.598  31.999  1.00  0.00     0.049 A 
ATOM     48  H   UNL A   1      41.724  29.924  31.658  1.00  0.00     0.167 HD
ATOM     49  C   UNL A   1      38.212  32.467  31.012  1.00  0.00     0.037 A 
ATOM     50  C   UNL A   1      44.058  29.121  32.978  1.00  0.00     0.037 A 
ATOM     51  C   UNL A   1      38.987  33.126  32.031  1.00  0.00     0.049 A 
ATOM     52  C   UNL A   1      43.664  30.436  33.583  1.00  0.00     0.074 A 
ATOM     53  C   UNL A   1      38.712  34.313  32.688  1.00  0.00     0.029 A 
ATOM     54  N   UNL A   1      40.185  32.654  32.547  1.00  0.00    -0.354 N 
ATOM     55  N   UNL A   1      42.603  31.167  33.335  1.00  0.00    -0.248 NA
ATOM     56  C   UNL A   1      44.577  31.009  34.579  1.00  0.00     0.031 C 
ATOM     57  C   UNL A   1      39.761  34.575  33.576  1.00  0.00     0.029 A 
ATOM     58  C   UNL A   1      40.671  33.533  33.500  1.00  0.00     0.049 A 
ATOM     59  H   UNL A   1      40.625  31.816  32.275  1.00  0.00     0.167 HD
ATOM     60  C   UNL A   1      42.722  32.289  34.144  1.00  0.00     0.074 A 
ATOM     61  C   UNL A   1      43.944  32.128  34.907  1.00  0.00     0.031 C 
ATOM     62  C   UNL A   1      41.896  33.359  34.240  1.00  0.00     0.037 A 
BRANCH  49  63
ATOM     63  C   UNL A   1      36.944  33.127  30.547  1.00  0.00     0.058 A 
ATOM     64  C   UNL A   1      35.780  33.126  31.332  1.00  0.00     0.135 A 
ATOM     65  C   UNL A   1      36.904  33.806  29.318  1.00  0.00     0.135 A 
ATOM     66  F   UNL A   1      35.758  32.477  32.507  1.00  0.00    -0.206 F 
ATOM     67  C   UNL A   1      34.615  33.756  30.906  1.00  0.00     0.059 A 
ATOM     68  C   UNL A   1      35.755  34.463  28.882  1.00  0.00     0.059 A 
ATOM     69  F   UNL A   1      37.988  33.838  28.527  1.00  0.00    -0.206 F 
ATOM     70  C   UNL A   1      34.612  34.421  29.679  1.00  0.00     0.060 A 
BRANCH  70  71
ATOM     71  S   UNL A   1      33.091  35.232  29.142  1.00  0.00     0.124 S 
ATOM     72  O   UNL A   1      32.600  34.295  28.136  1.00  0.00    -0.237 OA
ATOM     73  O   UNL A   1      32.317  35.295  30.379  1.00  0.00    -0.237 OA
ATOM     74  O   UNL A   1      33.552  36.518  28.629  1.00  0.00    -0.744 OA
ENDBRANCH  70  71
ENDBRANCH  49  63
BRANCH  50  75
ATOM     75  C   UNL A   1      45.267  28.387  33.435  1.00  0.00     0.058 A 
ATOM     76  C   UNL A   1      45.166  27.334  34.355  1.00  0.00     0.135 A 
ATOM     77  C   UNL A   1      46.536  28.683  32.914  1.00  0.00     0.135 A 
ATOM     78  F   UNL A   1      43.974  27.018  34.885  1.00  0.00    -0.206 F 
ATOM     79  C   UNL A   1      46.280  26.593  34.736  1.00  0.00     0.059 A 
ATOM     80  C   UNL A   1      47.660  27.940  33.261  1.00  0.00     0.059 A 
ATOM     81  F   UNL A   1      46.681  29.673  32.019  1.00  0.00    -0.206 F 
ATOM     82  C   UNL A   1      47.522  26.899  34.175  1.00  0.00     0.060 A 
BRANCH  82  83
ATOM     83  S   UNL A   1      48.946  25.876  34.610  1.00  0.00     0.124 S 
ATOM     84  O   UNL A   1      49.732  26.798  35.420  1.00  0.00    -0.237 OA
ATOM     85  O   UNL A   1      48.320  24.769  35.328  1.00  0.00    -0.237 OA
ATOM     86  O   UNL A   1      49.516  25.528  33.314  1.00  0.00    -0.744 OA
ENDBRANCH  82  83
ENDBRANCH  50  75
BRANCH  62  87
ATOM     87  C   UNL A   1      42.287  34.447  35.198  1.00  0.00     0.058 A 
ATOM     88  C   UNL A   1      41.978  34.359  36.563  1.00  0.00     0.135 A 
ATOM     89  C   UNL A   1      43.041  35.548  34.761  1.00  0.00     0.135 A 
ATOM     90  F   UNL A   1      41.251  33.329  37.026  1.00  0.00    -0.206 F 
ATOM     91  C   UNL A   1      42.396  35.331  37.465  1.00  0.00     0.059 A 
ATOM     92  C   UNL A   1      43.488  36.521  35.648  1.00  0.00     0.059 A 
ATOM     93  F   UNL A   1      43.368  35.672  33.465  1.00  0.00    -0.206 F 
ATOM     94  C   UNL A   1      43.156  36.405  36.999  1.00  0.00     0.060 A 
BRANCH  94  95
ATOM     95  S   UNL A   1      43.739  37.630  38.189  1.00  0.00     0.124 S 
ATOM     96  O   UNL A   1      42.518  37.924  38.932  1.00  0.00    -0.237 OA
ATOM     97  O   UNL A   1      44.763  36.890  38.921  1.00  0.00    -0.237 OA
ATOM     98  O   UNL A   1      44.238  38.713  37.347  1.00  0.00    -0.744 OA
ENDBRANCH  94  95
ENDBRANCH  62  87
ENDBRANCH  36  37
ENDBRANCH  28  31
ENDBRANCH  26  27
ENDBRANCH   1  26
TORSDOF 16
ENDMDL
