MODEL 1
REMARK VINA RESULT:     -12.1      0.000      0.000
REMARK SMILES Cc1cccc(NC(=O)C[C@@H]2CCCCO2)c1C(=O)NCCCNC(=O)c1ccc(-c2c3nc(c(-c4c(F)cc(S(=O)(=O)[O-])cc4F)c4ccc([nH]4)c(-c4c(F)cc(S(=O)(=O)[O-])cc4F)c4nc(c(-c5c(F)cc(S(=O)(=O)[O-])cc5F)c5ccc2[nH]5)C=C4)C=C3)cc1
REMARK SMILES IDX 22 1 21 2 20 3 18 4 19 5 17 7 1 8 2 9 3 10 4 11 6 12 5 13
REMARK SMILES IDX 7 14 8 15 9 17 10 18 11 19 12 20 16 21 13 22 15 23 14 24
REMARK SMILES IDX 23 25 24 26 25 27 26 29 27 30 28 31 92 32 29 33 91 34 30 35
REMARK SMILES IDX 31 36 32 37 85 38 33 39 90 40 84 41 86 42 34 43 89 44 83 45
REMARK SMILES IDX 82 46 35 48 69 49 48 50 68 51 49 52 52 53 67 54 87 55 50 56
REMARK SMILES IDX 51 57 66 59 88 60 53 61 36 62 37 63 46 64 38 65 39 66 45 67
REMARK SMILES IDX 47 68 40 69 41 70 42 71 43 72 44 73 70 74 71 75 80 76 72 77
REMARK SMILES IDX 73 78 79 79 81 80 74 81 75 82 76 83 77 84 78 85 54 86 55 87
REMARK SMILES IDX 64 88 56 89 57 90 63 91 65 92 58 93 59 94 60 95 61 96 62 97
REMARK H PARENT 20 6 7 16 24 28 86 47 52 58
REMARK Flexibility Score: inf
ROOT
ATOM      1  C   UNL A   1      31.202  30.385  25.426  1.00  0.00     0.042 C 
ENDROOT
BRANCH   1   2
ATOM      2  C   UNL A   1      31.300  29.232  24.284  1.00  0.00     0.118 C 
BRANCH   2   3
ATOM      3  N   UNL A   1      30.330  28.099  24.318  1.00  0.00    -0.352 N 
ATOM      4  C   UNL A   1      30.372  26.740  24.577  1.00  0.00     0.253 C 
ATOM      5  O   UNL A   1      29.368  26.064  24.787  1.00  0.00    -0.269 OA
ATOM      6  H   UNL A   1      29.417  28.396  24.098  1.00  0.00     0.163 HD
BRANCH   4   7
ATOM      7  C   UNL A   1      31.680  26.070  24.650  1.00  0.00     0.066 A 
ATOM      8  C   UNL A   1      31.840  25.914  22.124  1.00  0.00     0.045 C 
ATOM      9  C   UNL A   1      32.468  25.988  23.493  1.00  0.00    -0.036 A 
ATOM     10  C   UNL A   1      33.842  25.818  23.642  1.00  0.00     0.004 A 
ATOM     11  C   UNL A   1      34.377  25.587  24.907  1.00  0.00     0.002 A 
ATOM     12  C   UNL A   1      32.145  25.455  25.829  1.00  0.00     0.054 A 
ATOM     13  C   UNL A   1      33.525  25.340  25.986  1.00  0.00     0.027 A 
BRANCH  12  14
ATOM     14  N   UNL A   1      31.229  24.819  26.712  1.00  0.00    -0.325 N 
ATOM     15  C   UNL A   1      30.660  23.560  26.645  1.00  0.00     0.227 C 
ATOM     16  H   UNL A   1      30.959  25.358  27.489  1.00  0.00     0.169 HD
ATOM     17  O   UNL A   1      29.855  23.213  27.516  1.00  0.00    -0.275 OA
BRANCH  15  18
ATOM     18  C   UNL A   1      30.988  22.579  25.526  1.00  0.00     0.132 C 
BRANCH  18  19
ATOM     19  C   UNL A   1      32.474  22.211  25.307  1.00  0.00     0.127 C 
ATOM     20  C   UNL A   1      32.860  22.314  23.818  1.00  0.00     0.033 C 
ATOM     21  O   UNL A   1      32.912  20.938  25.776  1.00  0.00    -0.378 OA
ATOM     22  C   UNL A   1      32.214  21.201  22.993  1.00  0.00     0.005 C 
ATOM     23  C   UNL A   1      32.363  19.814  25.107  1.00  0.00     0.160 C 
ATOM     24  C   UNL A   1      32.524  19.837  23.595  1.00  0.00     0.029 C 
ENDBRANCH  18  19
ENDBRANCH  15  18
ENDBRANCH  12  14
ENDBRANCH   4   7
ENDBRANCH   2   3
ENDBRANCH   1   2
BRANCH   1  25
ATOM     25  C   UNL A   1      32.256  30.278  26.628  1.00  0.00     0.118 C 
BRANCH  25  26
ATOM     26  N   UNL A   1      33.823  30.411  26.565  1.00  0.00    -0.352 N 
ATOM     27  C   UNL A   1      34.914  30.449  27.548  1.00  0.00     0.251 C 
ATOM     28  H   UNL A   1      34.152  30.487  25.640  1.00  0.00     0.163 HD
ATOM     29  O   UNL A   1      35.632  29.432  27.520  1.00  0.00    -0.269 OA
BRANCH  27  30
ATOM     30  C   UNL A   1      35.416  31.542  28.602  1.00  0.00     0.039 A 
ATOM     31  C   UNL A   1      36.344  32.565  28.217  1.00  0.00     0.014 A 
ATOM     32  C   UNL A   1      35.158  31.567  29.962  1.00  0.00     0.014 A 
ATOM     33  C   UNL A   1      37.368  33.026  29.142  1.00  0.00     0.010 A 
ATOM     34  C   UNL A   1      36.158  32.026  30.878  1.00  0.00     0.010 A 
ATOM     35  C   UNL A   1      37.399  32.519  30.449  1.00  0.00    -0.014 A 
BRANCH  35  36
ATOM     36  C   UNL A   1      38.661  32.282  31.285  1.00  0.00     0.031 A 
ATOM     37  C   UNL A   1      39.257  33.369  32.055  1.00  0.00     0.074 A 
ATOM     38  C   UNL A   1      39.302  31.110  31.600  1.00  0.00     0.049 A 
ATOM     39  N   UNL A   1      40.513  33.681  32.048  1.00  0.00    -0.248 NA
ATOM     40  C   UNL A   1      38.444  34.108  33.000  1.00  0.00     0.031 C 
ATOM     41  C   UNL A   1      40.397  30.765  32.530  1.00  0.00     0.029 A 
ATOM     42  N   UNL A   1      39.022  29.837  31.159  1.00  0.00    -0.354 N 
ATOM     43  C   UNL A   1      40.709  34.410  33.202  1.00  0.00     0.074 A 
ATOM     44  C   UNL A   1      39.382  34.824  33.622  1.00  0.00     0.031 C 
ATOM     45  C   UNL A   1      40.878  29.532  32.238  1.00  0.00     0.029 A 
ATOM     46  C   UNL A   1      40.155  29.037  31.084  1.00  0.00     0.049 A 
ATOM     47  H   UNL A   1      38.117  29.527  30.922  1.00  0.00     0.167 HD
ATOM     48  C   UNL A   1      41.887  34.364  33.898  1.00  0.00     0.037 A 
ATOM     49  C   UNL A   1      40.593  28.630  29.847  1.00  0.00     0.037 A 
ATOM     50  C   UNL A   1      42.765  33.269  33.440  1.00  0.00     0.049 A 
ATOM     51  C   UNL A   1      41.843  29.390  29.490  1.00  0.00     0.074 A 
ATOM     52  C   UNL A   1      43.197  32.078  34.012  1.00  0.00     0.029 A 
ATOM     53  N   UNL A   1      43.106  33.163  32.103  1.00  0.00    -0.354 N 
ATOM     54  N   UNL A   1      42.556  30.026  30.371  1.00  0.00    -0.248 NA
ATOM     55  C   UNL A   1      42.340  29.589  28.130  1.00  0.00     0.031 C 
ATOM     56  C   UNL A   1      43.815  31.279  33.004  1.00  0.00     0.029 A 
ATOM     57  C   UNL A   1      43.781  31.987  31.819  1.00  0.00     0.049 A 
ATOM     58  H   UNL A   1      42.892  33.847  31.428  1.00  0.00     0.167 HD
ATOM     59  C   UNL A   1      43.459  30.829  29.745  1.00  0.00     0.074 A 
ATOM     60  C   UNL A   1      43.329  30.478  28.339  1.00  0.00     0.031 C 
ATOM     61  C   UNL A   1      44.197  31.741  30.441  1.00  0.00     0.037 A 
BRANCH  48  62
ATOM     62  C   UNL A   1      42.097  35.122  35.204  1.00  0.00     0.058 A 
ATOM     63  C   UNL A   1      41.617  34.635  36.438  1.00  0.00     0.135 A 
ATOM     64  C   UNL A   1      42.833  36.325  35.308  1.00  0.00     0.135 A 
ATOM     65  F   UNL A   1      41.042  33.431  36.544  1.00  0.00    -0.206 F 
ATOM     66  C   UNL A   1      41.750  35.339  37.641  1.00  0.00     0.059 A 
ATOM     67  C   UNL A   1      42.909  37.087  36.476  1.00  0.00     0.059 A 
ATOM     68  F   UNL A   1      43.591  36.771  34.296  1.00  0.00    -0.206 F 
ATOM     69  C   UNL A   1      42.370  36.580  37.646  1.00  0.00     0.060 A 
BRANCH  69  70
ATOM     70  S   UNL A   1      42.564  37.462  39.206  1.00  0.00     0.124 S 
ATOM     71  O   UNL A   1      43.041  36.413  40.101  1.00  0.00    -0.237 OA
ATOM     72  O   UNL A   1      43.539  38.488  38.851  1.00  0.00    -0.237 OA
ATOM     73  O   UNL A   1      41.218  37.954  39.489  1.00  0.00    -0.744 OA
ENDBRANCH  69  70
ENDBRANCH  48  62
BRANCH  49  74
ATOM     74  C   UNL A   1      39.496  28.220  28.833  1.00  0.00     0.058 A 
ATOM     75  C   UNL A   1      39.492  29.004  27.667  1.00  0.00     0.135 A 
ATOM     76  C   UNL A   1      39.500  26.867  28.547  1.00  0.00     0.135 A 
ATOM     77  F   UNL A   1      38.829  30.167  27.647  1.00  0.00    -0.206 F 
ATOM     78  C   UNL A   1      40.222  28.627  26.537  1.00  0.00     0.059 A 
ATOM     79  C   UNL A   1      40.211  26.466  27.412  1.00  0.00     0.059 A 
ATOM     80  F   UNL A   1      39.245  25.964  29.510  1.00  0.00    -0.206 F 
ATOM     81  C   UNL A   1      40.786  27.368  26.537  1.00  0.00     0.060 A 
BRANCH  81  82
ATOM     82  S   UNL A   1      42.527  27.067  25.603  1.00  0.00     0.124 S 
ATOM     83  O   UNL A   1      42.227  25.796  24.972  1.00  0.00    -0.237 OA
ATOM     84  O   UNL A   1      42.685  28.116  24.637  1.00  0.00    -0.237 OA
ATOM     85  O   UNL A   1      43.573  26.980  26.616  1.00  0.00    -0.744 OA
ENDBRANCH  81  82
ENDBRANCH  49  74
BRANCH  61  86
ATOM     86  C   UNL A   1      45.342  32.520  29.857  1.00  0.00     0.058 A 
ATOM     87  C   UNL A   1      45.159  33.732  29.171  1.00  0.00     0.135 A 
ATOM     88  C   UNL A   1      46.660  32.006  29.843  1.00  0.00     0.135 A 
ATOM     89  F   UNL A   1      43.933  34.240  28.969  1.00  0.00    -0.206 F 
ATOM     90  C   UNL A   1      46.224  34.447  28.628  1.00  0.00     0.059 A 
ATOM     91  C   UNL A   1      47.728  32.677  29.268  1.00  0.00     0.059 A 
ATOM     92  F   UNL A   1      46.977  30.825  30.388  1.00  0.00    -0.206 F 
ATOM     93  C   UNL A   1      47.508  33.918  28.697  1.00  0.00     0.060 A 
BRANCH  93  94
ATOM     94  S   UNL A   1      48.883  34.845  28.009  1.00  0.00     0.124 S 
ATOM     95  O   UNL A   1      48.683  34.678  26.573  1.00  0.00    -0.237 OA
ATOM     96  O   UNL A   1      48.621  36.181  28.533  1.00  0.00    -0.237 OA
ATOM     97  O   UNL A   1      50.057  34.174  28.556  1.00  0.00    -0.744 OA
ENDBRANCH  93  94
ENDBRANCH  61  86
ENDBRANCH  35  36
ENDBRANCH  27  30
ENDBRANCH  25  26
ENDBRANCH   1  25
TORSDOF 16
ENDMDL
MODEL 2
REMARK VINA RESULT:     -11.9      5.518      8.423
REMARK SMILES Cc1cccc(NC(=O)C[C@@H]2CCCCO2)c1C(=O)NCCCNC(=O)c1ccc(-c2c3nc(c(-c4c(F)cc(S(=O)(=O)[O-])cc4F)c4ccc([nH]4)c(-c4c(F)cc(S(=O)(=O)[O-])cc4F)c4nc(c(-c5c(F)cc(S(=O)(=O)[O-])cc5F)c5ccc2[nH]5)C=C4)C=C3)cc1
REMARK SMILES IDX 22 1 21 2 20 3 18 4 19 5 17 7 1 8 2 9 3 10 4 11 6 12 5 13
REMARK SMILES IDX 7 14 8 15 9 17 10 18 11 19 12 20 16 21 13 22 15 23 14 24
REMARK SMILES IDX 23 25 24 26 25 27 26 29 27 30 28 31 92 32 29 33 91 34 30 35
REMARK SMILES IDX 31 36 32 37 85 38 33 39 90 40 84 41 86 42 34 43 89 44 83 45
REMARK SMILES IDX 82 46 35 48 69 49 48 50 68 51 49 52 52 53 67 54 87 55 50 56
REMARK SMILES IDX 51 57 66 59 88 60 53 61 36 62 37 63 46 64 38 65 39 66 45 67
REMARK SMILES IDX 47 68 40 69 41 70 42 71 43 72 44 73 70 74 71 75 80 76 72 77
REMARK SMILES IDX 73 78 79 79 81 80 74 81 75 82 76 83 77 84 78 85 54 86 55 87
REMARK SMILES IDX 64 88 56 89 57 90 63 91 65 92 58 93 59 94 60 95 61 96 62 97
REMARK H PARENT 20 6 7 16 24 28 86 47 52 58
REMARK Flexibility Score: inf
ROOT
ATOM      1  C   UNL A   1      39.220  24.598  26.522  1.00  0.00     0.042 C 
ENDROOT
BRANCH   1   2
ATOM      2  C   UNL A   1      37.879  23.774  26.113  1.00  0.00     0.118 C 
BRANCH   2   3
ATOM      3  N   UNL A   1      37.694  23.359  24.693  1.00  0.00    -0.352 N 
ATOM      4  C   UNL A   1      36.635  23.014  23.871  1.00  0.00     0.253 C 
ATOM      5  O   UNL A   1      36.726  22.953  22.647  1.00  0.00    -0.269 OA
ATOM      6  H   UNL A   1      38.552  23.318  24.212  1.00  0.00     0.163 HD
BRANCH   4   7
ATOM      7  C   UNL A   1      35.321  22.749  24.477  1.00  0.00     0.066 A 
ATOM      8  C   UNL A   1      35.939  20.341  24.977  1.00  0.00     0.045 C 
ATOM      9  C   UNL A   1      35.152  21.596  25.257  1.00  0.00    -0.036 A 
ATOM     10  C   UNL A   1      34.127  21.582  26.200  1.00  0.00     0.004 A 
ATOM     11  C   UNL A   1      33.214  22.634  26.245  1.00  0.00     0.002 A 
ATOM     12  C   UNL A   1      34.207  23.581  24.254  1.00  0.00     0.054 A 
ATOM     13  C   UNL A   1      33.215  23.596  25.232  1.00  0.00     0.027 A 
BRANCH  12  14
ATOM     14  N   UNL A   1      34.035  24.222  22.995  1.00  0.00    -0.325 N 
ATOM     15  C   UNL A   1      33.647  25.517  22.704  1.00  0.00     0.227 C 
ATOM     16  H   UNL A   1      34.221  23.655  22.212  1.00  0.00     0.169 HD
ATOM     17  O   UNL A   1      33.532  25.863  21.523  1.00  0.00    -0.275 OA
BRANCH  15  18
ATOM     18  C   UNL A   1      33.350  26.540  23.793  1.00  0.00     0.132 C 
BRANCH  18  19
ATOM     19  C   UNL A   1      31.996  27.287  23.725  1.00  0.00     0.127 C 
ATOM     20  C   UNL A   1      31.657  27.948  25.075  1.00  0.00     0.033 C 
ATOM     21  O   UNL A   1      30.854  26.540  23.312  1.00  0.00    -0.378 OA
ATOM     22  C   UNL A   1      31.301  26.905  26.135  1.00  0.00     0.005 C 
ATOM     23  C   UNL A   1      30.434  25.518  24.202  1.00  0.00     0.160 C 
ATOM     24  C   UNL A   1      30.202  25.980  25.632  1.00  0.00     0.029 C 
ENDBRANCH  18  19
ENDBRANCH  15  18
ENDBRANCH  12  14
ENDBRANCH   4   7
ENDBRANCH   2   3
ENDBRANCH   1   2
BRANCH   1  25
ATOM     25  C   UNL A   1      39.333  25.047  28.056  1.00  0.00     0.118 C 
BRANCH  25  26
ATOM     26  N   UNL A   1      39.171  26.489  28.664  1.00  0.00    -0.352 N 
ATOM     27  C   UNL A   1      39.376  27.861  28.182  1.00  0.00     0.251 C 
ATOM     28  H   UNL A   1      38.855  26.465  29.596  1.00  0.00     0.163 HD
ATOM     29  O   UNL A   1      38.312  28.491  28.037  1.00  0.00    -0.269 OA
BRANCH  27  30
ATOM     30  C   UNL A   1      40.673  28.741  27.865  1.00  0.00     0.039 A 
ATOM     31  C   UNL A   1      41.426  28.536  26.663  1.00  0.00     0.014 A 
ATOM     32  C   UNL A   1      41.287  29.653  28.708  1.00  0.00     0.014 A 
ATOM     33  C   UNL A   1      42.876  28.664  26.662  1.00  0.00     0.010 A 
ATOM     34  C   UNL A   1      42.711  29.789  28.708  1.00  0.00     0.010 A 
ATOM     35  C   UNL A   1      43.536  29.066  27.833  1.00  0.00    -0.014 A 
BRANCH  35  36
ATOM     36  C   UNL A   1      44.926  28.602  28.278  1.00  0.00     0.031 A 
ATOM     37  C   UNL A   1      46.005  29.566  28.469  1.00  0.00     0.074 A 
ATOM     38  C   UNL A   1      45.345  27.372  28.719  1.00  0.00     0.049 A 
ATOM     39  N   UNL A   1      47.201  29.446  27.989  1.00  0.00    -0.248 NA
ATOM     40  C   UNL A   1      45.806  30.701  29.349  1.00  0.00     0.031 C 
ATOM     41  C   UNL A   1      46.597  26.881  29.333  1.00  0.00     0.029 A 
ATOM     42  N   UNL A   1      44.629  26.198  28.786  1.00  0.00    -0.354 N 
ATOM     43  C   UNL A   1      47.983  30.284  28.755  1.00  0.00     0.074 A 
ATOM     44  C   UNL A   1      47.049  31.181  29.413  1.00  0.00     0.031 C 
ATOM     45  C   UNL A   1      46.628  25.527  29.292  1.00  0.00     0.029 A 
ATOM     46  C   UNL A   1      45.430  25.076  28.615  1.00  0.00     0.049 A 
ATOM     47  H   UNL A   1      43.657  26.159  28.939  1.00  0.00     0.167 HD
ATOM     48  C   UNL A   1      49.290  29.997  29.042  1.00  0.00     0.037 A 
ATOM     49  C   UNL A   1      45.261  24.313  27.485  1.00  0.00     0.037 A 
ATOM     50  C   UNL A   1      49.647  28.609  28.689  1.00  0.00     0.049 A 
ATOM     51  C   UNL A   1      46.423  24.540  26.555  1.00  0.00     0.074 A 
ATOM     52  C   UNL A   1      49.972  27.480  29.433  1.00  0.00     0.029 A 
ATOM     53  N   UNL A   1      49.423  28.136  27.408  1.00  0.00    -0.354 N 
ATOM     54  N   UNL A   1      47.544  25.070  26.947  1.00  0.00    -0.248 NA
ATOM     55  C   UNL A   1      46.402  24.295  25.115  1.00  0.00     0.031 C 
ATOM     56  C   UNL A   1      49.958  26.340  28.572  1.00  0.00     0.029 A 
ATOM     57  C   UNL A   1      49.646  26.773  27.299  1.00  0.00     0.049 A 
ATOM     58  H   UNL A   1      49.138  28.705  26.657  1.00  0.00     0.167 HD
ATOM     59  C   UNL A   1      48.304  25.396  25.866  1.00  0.00     0.074 A 
ATOM     60  C   UNL A   1      47.575  24.837  24.739  1.00  0.00     0.031 C 
ATOM     61  C   UNL A   1      49.441  26.139  26.000  1.00  0.00     0.037 A 
BRANCH  48  62
ATOM     62  C   UNL A   1      50.148  30.887  29.934  1.00  0.00     0.058 A 
ATOM     63  C   UNL A   1      50.209  30.712  31.332  1.00  0.00     0.135 A 
ATOM     64  C   UNL A   1      50.996  31.909  29.445  1.00  0.00     0.135 A 
ATOM     65  F   UNL A   1      49.597  29.688  31.939  1.00  0.00    -0.206 F 
ATOM     66  C   UNL A   1      50.946  31.551  32.175  1.00  0.00     0.059 A 
ATOM     67  C   UNL A   1      51.674  32.811  30.269  1.00  0.00     0.059 A 
ATOM     68  F   UNL A   1      51.275  32.022  28.138  1.00  0.00    -0.206 F 
ATOM     69  C   UNL A   1      51.652  32.618  31.638  1.00  0.00     0.060 A 
BRANCH  69  70
ATOM     70  S   UNL A   1      52.624  33.671  32.732  1.00  0.00     0.124 S 
ATOM     71  O   UNL A   1      51.939  33.510  34.010  1.00  0.00    -0.237 OA
ATOM     72  O   UNL A   1      53.946  33.062  32.637  1.00  0.00    -0.237 OA
ATOM     73  O   UNL A   1      52.503  34.995  32.126  1.00  0.00    -0.744 OA
ENDBRANCH  69  70
ENDBRANCH  48  62
BRANCH  49  74
ATOM     74  C   UNL A   1      43.798  24.090  27.022  1.00  0.00     0.058 A 
ATOM     75  C   UNL A   1      43.644  24.116  25.626  1.00  0.00     0.135 A 
ATOM     76  C   UNL A   1      43.217  22.970  27.586  1.00  0.00     0.135 A 
ATOM     77  F   UNL A   1      43.480  25.286  24.995  1.00  0.00    -0.206 F 
ATOM     78  C   UNL A   1      43.722  22.948  24.866  1.00  0.00     0.059 A 
ATOM     79  C   UNL A   1      43.267  21.790  26.837  1.00  0.00     0.059 A 
ATOM     80  F   UNL A   1      43.031  22.892  28.916  1.00  0.00    -0.206 F 
ATOM     81  C   UNL A   1      43.759  21.748  25.546  1.00  0.00     0.060 A 
BRANCH  81  82
ATOM     82  S   UNL A   1      44.805  20.219  24.796  1.00  0.00     0.124 S 
ATOM     83  O   UNL A   1      44.160  19.134  25.511  1.00  0.00    -0.237 OA
ATOM     84  O   UNL A   1      44.535  20.163  23.388  1.00  0.00    -0.237 OA
ATOM     85  O   UNL A   1      46.204  20.407  25.162  1.00  0.00    -0.744 OA
ENDBRANCH  81  82
ENDBRANCH  49  74
BRANCH  61  86
ATOM     86  C   UNL A   1      50.429  26.371  24.892  1.00  0.00     0.058 A 
ATOM     87  C   UNL A   1      51.768  25.953  24.974  1.00  0.00     0.135 A 
ATOM     88  C   UNL A   1      50.105  27.151  23.757  1.00  0.00     0.135 A 
ATOM     89  F   UNL A   1      52.243  25.352  26.076  1.00  0.00    -0.206 F 
ATOM     90  C   UNL A   1      52.681  26.175  23.946  1.00  0.00     0.059 A 
ATOM     91  C   UNL A   1      51.010  27.424  22.743  1.00  0.00     0.059 A 
ATOM     92  F   UNL A   1      48.891  27.685  23.575  1.00  0.00    -0.206 F 
ATOM     93  C   UNL A   1      52.286  26.898  22.826  1.00  0.00     0.060 A 
BRANCH  93  94
ATOM     94  S   UNL A   1      53.458  27.174  21.494  1.00  0.00     0.124 S 
ATOM     95  O   UNL A   1      52.821  26.490  20.373  1.00  0.00    -0.237 OA
ATOM     96  O   UNL A   1      53.473  28.631  21.420  1.00  0.00    -0.237 OA
ATOM     97  O   UNL A   1      54.686  26.556  21.982  1.00  0.00    -0.744 OA
ENDBRANCH  93  94
ENDBRANCH  61  86
ENDBRANCH  35  36
ENDBRANCH  27  30
ENDBRANCH  25  26
ENDBRANCH   1  25
TORSDOF 16
ENDMDL
MODEL 3
REMARK VINA RESULT:     -11.9      3.867      7.996
REMARK SMILES Cc1cccc(NC(=O)C[C@@H]2CCCCO2)c1C(=O)NCCCNC(=O)c1ccc(-c2c3nc(c(-c4c(F)cc(S(=O)(=O)[O-])cc4F)c4ccc([nH]4)c(-c4c(F)cc(S(=O)(=O)[O-])cc4F)c4nc(c(-c5c(F)cc(S(=O)(=O)[O-])cc5F)c5ccc2[nH]5)C=C4)C=C3)cc1
REMARK SMILES IDX 22 1 21 2 20 3 18 4 19 5 17 7 1 8 2 9 3 10 4 11 6 12 5 13
REMARK SMILES IDX 7 14 8 15 9 17 10 18 11 19 12 20 16 21 13 22 15 23 14 24
REMARK SMILES IDX 23 25 24 26 25 27 26 29 27 30 28 31 92 32 29 33 91 34 30 35
REMARK SMILES IDX 31 36 32 37 85 38 33 39 90 40 84 41 86 42 34 43 89 44 83 45
REMARK SMILES IDX 82 46 35 48 69 49 48 50 68 51 49 52 52 53 67 54 87 55 50 56
REMARK SMILES IDX 51 57 66 59 88 60 53 61 36 62 37 63 46 64 38 65 39 66 45 67
REMARK SMILES IDX 47 68 40 69 41 70 42 71 43 72 44 73 70 74 71 75 80 76 72 77
REMARK SMILES IDX 73 78 79 79 81 80 74 81 75 82 76 83 77 84 78 85 54 86 55 87
REMARK SMILES IDX 64 88 56 89 57 90 63 91 65 92 58 93 59 94 60 95 61 96 62 97
REMARK H PARENT 20 6 7 16 24 28 86 47 52 58
REMARK Flexibility Score: inf
ROOT
ATOM      1  C   UNL A   1      35.477  29.871  27.389  1.00  0.00     0.042 C 
ENDROOT
BRANCH   1   2
ATOM      2  C   UNL A   1      34.446  28.724  26.875  1.00  0.00     0.118 C 
BRANCH   2   3
ATOM      3  N   UNL A   1      33.136  28.568  27.571  1.00  0.00    -0.352 N 
ATOM      4  C   UNL A   1      31.882  28.066  27.266  1.00  0.00     0.253 C 
ATOM      5  O   UNL A   1      31.030  27.823  28.117  1.00  0.00    -0.269 OA
ATOM      6  H   UNL A   1      33.172  28.913  28.493  1.00  0.00     0.163 HD
BRANCH   4   7
ATOM      7  C   UNL A   1      31.559  27.764  25.863  1.00  0.00     0.066 A 
ATOM      8  C   UNL A   1      31.105  30.206  25.351  1.00  0.00     0.045 C 
ATOM      9  C   UNL A   1      31.512  28.815  24.935  1.00  0.00    -0.036 A 
ATOM     10  C   UNL A   1      31.695  28.514  23.588  1.00  0.00     0.004 A 
ATOM     11  C   UNL A   1      31.771  27.183  23.181  1.00  0.00     0.002 A 
ATOM     12  C   UNL A   1      31.238  26.464  25.427  1.00  0.00     0.054 A 
ATOM     13  C   UNL A   1      31.477  26.163  24.089  1.00  0.00     0.027 A 
BRANCH  12  14
ATOM     14  N   UNL A   1      30.528  25.579  26.285  1.00  0.00    -0.325 N 
ATOM     15  C   UNL A   1      30.592  24.201  26.389  1.00  0.00     0.227 C 
ATOM     16  H   UNL A   1      29.893  26.015  26.898  1.00  0.00     0.169 HD
ATOM     17  O   UNL A   1      29.855  23.620  27.193  1.00  0.00    -0.275 OA
BRANCH  15  18
ATOM     18  C   UNL A   1      31.542  23.366  25.540  1.00  0.00     0.132 C 
BRANCH  18  19
ATOM     19  C   UNL A   1      32.829  22.835  26.214  1.00  0.00     0.127 C 
ATOM     20  C   UNL A   1      33.907  23.933  26.300  1.00  0.00     0.033 C 
ATOM     21  O   UNL A   1      33.439  21.678  25.645  1.00  0.00    -0.378 OA
ATOM     22  C   UNL A   1      34.479  24.266  24.922  1.00  0.00     0.005 C 
ATOM     23  C   UNL A   1      33.989  21.848  24.348  1.00  0.00     0.160 C 
ATOM     24  C   UNL A   1      34.969  23.005  24.224  1.00  0.00     0.029 C 
ENDBRANCH  18  19
ENDBRANCH  15  18
ENDBRANCH  12  14
ENDBRANCH   4   7
ENDBRANCH   2   3
ENDBRANCH   1   2
BRANCH   1  25
ATOM     25  C   UNL A   1      36.559  29.411  28.477  1.00  0.00     0.118 C 
BRANCH  25  26
ATOM     26  N   UNL A   1      38.012  28.859  28.234  1.00  0.00    -0.352 N 
ATOM     27  C   UNL A   1      38.917  27.938  28.936  1.00  0.00     0.251 C 
ATOM     28  H   UNL A   1      38.412  29.218  27.410  1.00  0.00     0.163 HD
ATOM     29  O   UNL A   1      39.091  26.866  28.328  1.00  0.00    -0.269 OA
BRANCH  27  30
ATOM     30  C   UNL A   1      39.777  28.043  30.280  1.00  0.00     0.039 A 
ATOM     31  C   UNL A   1      39.137  28.122  31.560  1.00  0.00     0.014 A 
ATOM     32  C   UNL A   1      41.149  28.205  30.379  1.00  0.00     0.014 A 
ATOM     33  C   UNL A   1      39.696  28.946  32.622  1.00  0.00     0.010 A 
ATOM     34  C   UNL A   1      41.706  29.008  31.425  1.00  0.00     0.010 A 
ATOM     35  C   UNL A   1      40.914  29.610  32.414  1.00  0.00    -0.014 A 
BRANCH  35  36
ATOM     36  C   UNL A   1      41.298  30.973  32.996  1.00  0.00     0.031 A 
ATOM     37  C   UNL A   1      42.367  31.086  33.983  1.00  0.00     0.074 A 
ATOM     38  C   UNL A   1      40.904  32.234  32.621  1.00  0.00     0.049 A 
ATOM     39  N   UNL A   1      42.282  31.738  35.097  1.00  0.00    -0.248 NA
ATOM     40  C   UNL A   1      43.678  30.542  33.686  1.00  0.00     0.031 C 
ATOM     41  C   UNL A   1      41.348  33.593  32.992  1.00  0.00     0.029 A 
ATOM     42  N   UNL A   1      39.974  32.592  31.671  1.00  0.00    -0.354 N 
ATOM     43  C   UNL A   1      43.586  31.969  35.480  1.00  0.00     0.074 A 
ATOM     44  C   UNL A   1      44.382  31.033  34.706  1.00  0.00     0.031 C 
ATOM     45  C   UNL A   1      40.430  34.504  32.587  1.00  0.00     0.029 A 
ATOM     46  C   UNL A   1      39.330  33.784  31.979  1.00  0.00     0.049 A 
ATOM     47  H   UNL A   1      39.787  32.062  30.862  1.00  0.00     0.167 HD
ATOM     48  C   UNL A   1      43.954  33.101  36.156  1.00  0.00     0.037 A 
ATOM     49  C   UNL A   1      37.991  33.749  32.285  1.00  0.00     0.037 A 
ATOM     50  C   UNL A   1      42.886  34.119  36.165  1.00  0.00     0.049 A 
ATOM     51  C   UNL A   1      37.815  33.972  33.763  1.00  0.00     0.074 A 
ATOM     52  C   UNL A   1      42.743  35.369  35.573  1.00  0.00     0.029 A 
ATOM     53  N   UNL A   1      41.619  33.797  36.619  1.00  0.00    -0.354 N 
ATOM     54  N   UNL A   1      38.747  34.479  34.514  1.00  0.00    -0.248 NA
ATOM     55  C   UNL A   1      36.645  33.564  34.537  1.00  0.00     0.031 C 
ATOM     56  C   UNL A   1      41.384  35.789  35.703  1.00  0.00     0.029 A 
ATOM     57  C   UNL A   1      40.700  34.808  36.390  1.00  0.00     0.049 A 
ATOM     58  H   UNL A   1      41.396  32.943  37.056  1.00  0.00     0.167 HD
ATOM     59  C   UNL A   1      38.420  34.322  35.826  1.00  0.00     0.074 A 
ATOM     60  C   UNL A   1      37.065  33.797  35.794  1.00  0.00     0.031 C 
ATOM     61  C   UNL A   1      39.319  34.598  36.816  1.00  0.00     0.037 A 
BRANCH  48  62
ATOM     62  C   UNL A   1      45.402  33.395  36.535  1.00  0.00     0.058 A 
ATOM     63  C   UNL A   1      46.037  32.754  37.619  1.00  0.00     0.135 A 
ATOM     64  C   UNL A   1      46.245  34.269  35.810  1.00  0.00     0.135 A 
ATOM     65  F   UNL A   1      45.435  31.778  38.310  1.00  0.00    -0.206 F 
ATOM     66  C   UNL A   1      47.346  33.048  38.019  1.00  0.00     0.059 A 
ATOM     67  C   UNL A   1      47.522  34.641  36.236  1.00  0.00     0.059 A 
ATOM     68  F   UNL A   1      45.896  34.736  34.602  1.00  0.00    -0.206 F 
ATOM     69  C   UNL A   1      48.071  34.015  37.340  1.00  0.00     0.060 A 
BRANCH  69  70
ATOM     70  S   UNL A   1      49.767  34.360  37.845  1.00  0.00     0.124 S 
ATOM     71  O   UNL A   1      50.255  33.039  38.227  1.00  0.00    -0.237 OA
ATOM     72  O   UNL A   1      50.335  34.919  36.623  1.00  0.00    -0.237 OA
ATOM     73  O   UNL A   1      49.610  35.306  38.947  1.00  0.00    -0.744 OA
ENDBRANCH  69  70
ENDBRANCH  48  62
BRANCH  49  74
ATOM     74  C   UNL A   1      37.120  32.792  31.432  1.00  0.00     0.058 A 
ATOM     75  C   UNL A   1      36.014  32.274  32.128  1.00  0.00     0.135 A 
ATOM     76  C   UNL A   1      36.756  33.332  30.213  1.00  0.00     0.135 A 
ATOM     77  F   UNL A   1      36.158  31.182  32.890  1.00  0.00    -0.206 F 
ATOM     78  C   UNL A   1      34.773  32.912  32.096  1.00  0.00     0.059 A 
ATOM     79  C   UNL A   1      35.510  33.963  30.150  1.00  0.00     0.059 A 
ATOM     80  F   UNL A   1      37.690  33.639  29.296  1.00  0.00    -0.206 F 
ATOM     81  C   UNL A   1      34.617  33.954  31.205  1.00  0.00     0.060 A 
BRANCH  81  82
ATOM     82  S   UNL A   1      33.431  35.491  31.681  1.00  0.00     0.124 S 
ATOM     83  O   UNL A   1      34.347  36.227  32.531  1.00  0.00    -0.237 OA
ATOM     84  O   UNL A   1      33.141  36.202  30.470  1.00  0.00    -0.237 OA
ATOM     85  O   UNL A   1      32.273  34.962  32.394  1.00  0.00    -0.744 OA
ENDBRANCH  81  82
ENDBRANCH  49  74
BRANCH  61  86
ATOM     86  C   UNL A   1      38.974  34.638  38.278  1.00  0.00     0.058 A 
ATOM     87  C   UNL A   1      39.072  35.811  39.045  1.00  0.00     0.135 A 
ATOM     88  C   UNL A   1      38.663  33.462  39.002  1.00  0.00     0.135 A 
ATOM     89  F   UNL A   1      39.521  36.958  38.510  1.00  0.00    -0.206 F 
ATOM     90  C   UNL A   1      38.756  35.841  40.401  1.00  0.00     0.059 A 
ATOM     91  C   UNL A   1      38.390  33.461  40.361  1.00  0.00     0.059 A 
ATOM     92  F   UNL A   1      38.609  32.256  38.425  1.00  0.00    -0.206 F 
ATOM     93  C   UNL A   1      38.399  34.662  41.046  1.00  0.00     0.060 A 
BRANCH  93  94
ATOM     94  S   UNL A   1      37.978  34.703  42.791  1.00  0.00     0.124 S 
ATOM     95  O   UNL A   1      38.640  33.504  43.298  1.00  0.00    -0.237 OA
ATOM     96  O   UNL A   1      38.568  35.972  43.201  1.00  0.00    -0.237 OA
ATOM     97  O   UNL A   1      36.520  34.656  42.794  1.00  0.00    -0.744 OA
ENDBRANCH  93  94
ENDBRANCH  61  86
ENDBRANCH  35  36
ENDBRANCH  27  30
ENDBRANCH  25  26
ENDBRANCH   1  25
TORSDOF 16
ENDMDL
