MODEL 1
REMARK VINA RESULT:     -11.0      0.000      0.000
REMARK SMILES C[C@H](CC(=O)NCCCNC(=O)c1ccc(-c2c3nc(c(-c4c(F)cc(S(=O)(=O)[O-])cc4F)c4ccc([nH]4)c(-c4c(F)cc(S(=O)(=O)[O-])cc4F)c4nc(c(-c5c(F)cc(S(=O)(=O)[O-])cc5F)c5ccc2[nH]5)C=C4)C=C3)cc1)NC(=O)CS[C@H]1CCS(=O)(=O)C1
REMARK SMILES IDX 7 1 6 2 4 3 5 4 3 6 2 7 1 8 79 9 80 10 81 12 82 13 83 14
REMARK SMILES IDX 84 15 85 16 90 17 86 18 87 19 88 20 89 21 8 22 9 23 10 24
REMARK SMILES IDX 11 25 12 27 13 28 14 29 78 30 15 31 77 32 16 33 17 34 18 35
REMARK SMILES IDX 71 36 19 37 76 38 70 39 72 40 20 41 75 42 69 43 68 44 21 46
REMARK SMILES IDX 55 47 34 48 54 49 35 50 38 51 53 52 73 53 36 54 37 55 52 57
REMARK SMILES IDX 74 58 39 59 22 60 23 61 32 62 24 63 25 64 31 65 33 66 26 67
REMARK SMILES IDX 27 68 28 69 29 70 30 71 56 72 57 73 66 74 58 75 59 76 65 77
REMARK SMILES IDX 67 78 60 79 61 80 62 81 63 82 64 83 40 84 41 85 50 86 42 87
REMARK SMILES IDX 43 88 49 89 51 90 44 91 45 92 46 93 47 94 48 95
REMARK H PARENT 6 5 79 11 10 26 72 45 38 56
REMARK Flexibility Score: inf
ROOT
ATOM      1  C   UNL A   1      33.137  29.790  26.901  1.00  0.00     0.117 C 
ENDROOT
BRANCH   1   2
ATOM      2  N   UNL A   1      33.283  30.075  25.485  1.00  0.00    -0.356 N 
ATOM      3  C   UNL A   1      32.939  29.268  24.436  1.00  0.00     0.222 C 
ATOM      4  O   UNL A   1      33.603  29.332  23.403  1.00  0.00    -0.275 OA
ATOM      5  H   UNL A   1      33.672  30.949  25.253  1.00  0.00     0.163 HD
BRANCH   3   6
ATOM      6  C   UNL A   1      31.660  28.461  24.511  1.00  0.00     0.124 C 
BRANCH   6   7
ATOM      7  C   UNL A   1      30.976  27.838  23.279  1.00  0.00     0.088 C 
ATOM      8  C   UNL A   1      30.096  28.860  22.569  1.00  0.00     0.031 C 
BRANCH   7   9
ATOM      9  N   UNL A   1      31.896  27.214  22.328  1.00  0.00    -0.352 N 
ATOM     10  C   UNL A   1      32.772  26.173  22.383  1.00  0.00     0.230 C 
ATOM     11  H   UNL A   1      31.878  27.646  21.444  1.00  0.00     0.163 HD
ATOM     12  O   UNL A   1      33.667  26.157  21.534  1.00  0.00    -0.274 OA
BRANCH  10  13
ATOM     13  C   UNL A   1      32.604  25.045  23.380  1.00  0.00     0.169 C 
BRANCH  13  14
ATOM     14  S   UNL A   1      32.615  23.383  22.612  1.00  0.00    -0.148 SA
BRANCH  14  15
ATOM     15  C   UNL A   1      33.929  22.617  23.586  1.00  0.00     0.063 C 
ATOM     16  C   UNL A   1      35.018  23.589  24.061  1.00  0.00     0.031 C 
ATOM     17  C   UNL A   1      33.397  22.031  24.879  1.00  0.00     0.151 C 
ATOM     18  C   UNL A   1      35.915  22.793  25.022  1.00  0.00     0.138 C 
ATOM     19  S   UNL A   1      34.905  21.454  25.637  1.00  0.00     0.151 S 
ATOM     20  O   UNL A   1      35.332  20.247  24.965  1.00  0.00    -0.229 OA
ATOM     21  O   UNL A   1      34.783  21.538  27.078  1.00  0.00    -0.229 OA
ENDBRANCH  14  15
ENDBRANCH  13  14
ENDBRANCH  10  13
ENDBRANCH   7   9
ENDBRANCH   6   7
ENDBRANCH   3   6
ENDBRANCH   1   2
BRANCH   1  22
ATOM     22  C   UNL A   1      34.481  29.335  27.455  1.00  0.00     0.042 C 
BRANCH  22  23
ATOM     23  C   UNL A   1      35.381  30.477  27.881  1.00  0.00     0.118 C 
BRANCH  23  24
ATOM     24  N   UNL A   1      35.318  30.739  29.303  1.00  0.00    -0.352 N 
ATOM     25  C   UNL A   1      36.258  30.446  30.262  1.00  0.00     0.251 C 
ATOM     26  H   UNL A   1      34.500  31.183  29.623  1.00  0.00     0.163 HD
ATOM     27  O   UNL A   1      35.976  30.568  31.449  1.00  0.00    -0.269 OA
BRANCH  25  28
ATOM     28  C   UNL A   1      37.594  29.955  29.852  1.00  0.00     0.039 A 
ATOM     29  C   UNL A   1      37.974  30.069  28.513  1.00  0.00     0.014 A 
ATOM     30  C   UNL A   1      38.481  29.408  30.785  1.00  0.00     0.014 A 
ATOM     31  C   UNL A   1      39.259  29.678  28.124  1.00  0.00     0.010 A 
ATOM     32  C   UNL A   1      39.795  29.138  30.420  1.00  0.00     0.010 A 
ATOM     33  C   UNL A   1      40.190  29.238  29.079  1.00  0.00    -0.014 A 
BRANCH  33  34
ATOM     34  C   UNL A   1      41.560  28.810  28.693  1.00  0.00     0.031 A 
ATOM     35  C   UNL A   1      42.672  29.829  28.663  1.00  0.00     0.074 A 
ATOM     36  C   UNL A   1      41.796  27.531  28.334  1.00  0.00     0.049 A 
ATOM     37  N   UNL A   1      43.911  29.689  28.268  1.00  0.00    -0.248 NA
ATOM     38  C   UNL A   1      42.340  31.195  29.106  1.00  0.00     0.031 C 
ATOM     39  C   UNL A   1      40.794  26.462  28.283  1.00  0.00     0.029 A 
ATOM     40  N   UNL A   1      42.955  26.913  27.935  1.00  0.00    -0.354 N 
ATOM     41  C   UNL A   1      44.496  30.942  28.408  1.00  0.00     0.074 A 
ATOM     42  C   UNL A   1      43.463  31.849  28.849  1.00  0.00     0.031 C 
ATOM     43  C   UNL A   1      41.388  25.318  27.906  1.00  0.00     0.029 A 
ATOM     44  C   UNL A   1      42.800  25.577  27.642  1.00  0.00     0.049 A 
ATOM     45  H   UNL A   1      43.818  27.381  27.865  1.00  0.00     0.167 HD
ATOM     46  C   UNL A   1      45.788  31.299  28.227  1.00  0.00     0.037 A 
ATOM     47  C   UNL A   1      43.693  24.670  27.201  1.00  0.00     0.037 A 
ATOM     48  C   UNL A   1      46.823  30.385  27.826  1.00  0.00     0.049 A 
ATOM     49  C   UNL A   1      45.122  25.102  26.984  1.00  0.00     0.074 A 
ATOM     50  C   UNL A   1      48.171  30.639  27.641  1.00  0.00     0.029 A 
ATOM     51  N   UNL A   1      46.628  29.038  27.562  1.00  0.00    -0.354 N 
ATOM     52  N   UNL A   1      45.663  26.284  27.163  1.00  0.00    -0.248 NA
ATOM     53  C   UNL A   1      46.063  24.077  26.510  1.00  0.00     0.031 C 
ATOM     54  C   UNL A   1      48.784  29.453  27.226  1.00  0.00     0.029 A 
ATOM     55  C   UNL A   1      47.829  28.450  27.207  1.00  0.00     0.049 A 
ATOM     56  H   UNL A   1      45.763  28.570  27.617  1.00  0.00     0.167 HD
ATOM     57  C   UNL A   1      47.014  26.132  26.866  1.00  0.00     0.074 A 
ATOM     58  C   UNL A   1      47.209  24.742  26.506  1.00  0.00     0.031 C 
ATOM     59  C   UNL A   1      48.005  27.056  26.888  1.00  0.00     0.037 A 
BRANCH  46  60
ATOM     60  C   UNL A   1      46.169  32.730  28.496  1.00  0.00     0.058 A 
ATOM     61  C   UNL A   1      46.107  33.705  27.486  1.00  0.00     0.135 A 
ATOM     62  C   UNL A   1      46.534  33.147  29.786  1.00  0.00     0.135 A 
ATOM     63  F   UNL A   1      45.788  33.358  26.229  1.00  0.00    -0.206 F 
ATOM     64  C   UNL A   1      46.400  35.039  27.744  1.00  0.00     0.059 A 
ATOM     65  C   UNL A   1      46.801  34.483  30.073  1.00  0.00     0.059 A 
ATOM     66  F   UNL A   1      46.616  32.256  30.786  1.00  0.00    -0.206 F 
ATOM     67  C   UNL A   1      46.736  35.420  29.043  1.00  0.00     0.060 A 
BRANCH  67  68
ATOM     68  S   UNL A   1      47.060  37.167  29.367  1.00  0.00     0.124 S 
ATOM     69  O   UNL A   1      46.724  37.268  30.784  1.00  0.00    -0.237 OA
ATOM     70  O   UNL A   1      48.478  37.283  29.043  1.00  0.00    -0.237 OA
ATOM     71  O   UNL A   1      46.152  37.857  28.457  1.00  0.00    -0.744 OA
ENDBRANCH  67  68
ENDBRANCH  46  60
BRANCH  47  72
ATOM     72  C   UNL A   1      43.281  23.263  26.934  1.00  0.00     0.058 A 
ATOM     73  C   UNL A   1      43.041  22.365  27.986  1.00  0.00     0.135 A 
ATOM     74  C   UNL A   1      43.168  22.773  25.623  1.00  0.00     0.135 A 
ATOM     75  F   UNL A   1      43.137  22.781  29.258  1.00  0.00    -0.206 F 
ATOM     76  C   UNL A   1      42.753  21.024  27.751  1.00  0.00     0.059 A 
ATOM     77  C   UNL A   1      42.848  21.444  25.363  1.00  0.00     0.059 A 
ATOM     78  F   UNL A   1      43.365  23.592  24.578  1.00  0.00    -0.206 F 
ATOM     79  C   UNL A   1      42.668  20.571  26.435  1.00  0.00     0.060 A 
BRANCH  79  80
ATOM     80  S   UNL A   1      42.314  18.825  26.137  1.00  0.00     0.124 S 
ATOM     81  O   UNL A   1      40.905  18.872  25.768  1.00  0.00    -0.237 OA
ATOM     82  O   UNL A   1      43.247  18.501  25.062  1.00  0.00    -0.237 OA
ATOM     83  O   UNL A   1      42.609  18.199  27.423  1.00  0.00    -0.744 OA
ENDBRANCH  79  80
ENDBRANCH  47  72
BRANCH  59  84
ATOM     84  C   UNL A   1      49.401  26.589  26.579  1.00  0.00     0.058 A 
ATOM     85  C   UNL A   1      50.215  25.988  27.550  1.00  0.00     0.135 A 
ATOM     86  C   UNL A   1      49.903  26.688  25.270  1.00  0.00     0.135 A 
ATOM     87  F   UNL A   1      49.785  25.873  28.816  1.00  0.00    -0.206 F 
ATOM     88  C   UNL A   1      51.489  25.524  27.241  1.00  0.00     0.059 A 
ATOM     89  C   UNL A   1      51.161  26.202  24.932  1.00  0.00     0.059 A 
ATOM     90  F   UNL A   1      49.159  27.244  24.300  1.00  0.00    -0.206 F 
ATOM     91  C   UNL A   1      51.951  25.631  25.928  1.00  0.00     0.060 A 
BRANCH  91  92
ATOM     92  S   UNL A   1      53.590  24.984  25.533  1.00  0.00     0.124 S 
ATOM     93  O   UNL A   1      54.279  25.130  26.811  1.00  0.00    -0.237 OA
ATOM     94  O   UNL A   1      53.293  23.614  25.125  1.00  0.00    -0.237 OA
ATOM     95  O   UNL A   1      54.054  25.862  24.465  1.00  0.00    -0.744 OA
ENDBRANCH  91  92
ENDBRANCH  59  84
ENDBRANCH  33  34
ENDBRANCH  25  28
ENDBRANCH  23  24
ENDBRANCH  22  23
ENDBRANCH   1  22
TORSDOF 18
ENDMDL
MODEL 2
REMARK VINA RESULT:     -11.0      3.019      3.826
REMARK SMILES C[C@H](CC(=O)NCCCNC(=O)c1ccc(-c2c3nc(c(-c4c(F)cc(S(=O)(=O)[O-])cc4F)c4ccc([nH]4)c(-c4c(F)cc(S(=O)(=O)[O-])cc4F)c4nc(c(-c5c(F)cc(S(=O)(=O)[O-])cc5F)c5ccc2[nH]5)C=C4)C=C3)cc1)NC(=O)CS[C@H]1CCS(=O)(=O)C1
REMARK SMILES IDX 7 1 6 2 4 3 5 4 3 6 2 7 1 8 79 9 80 10 81 12 82 13 83 14
REMARK SMILES IDX 84 15 85 16 90 17 86 18 87 19 88 20 89 21 8 22 9 23 10 24
REMARK SMILES IDX 11 25 12 27 13 28 14 29 78 30 15 31 77 32 16 33 17 34 18 35
REMARK SMILES IDX 71 36 19 37 76 38 70 39 72 40 20 41 75 42 69 43 68 44 21 46
REMARK SMILES IDX 55 47 34 48 54 49 35 50 38 51 53 52 73 53 36 54 37 55 52 57
REMARK SMILES IDX 74 58 39 59 22 60 23 61 32 62 24 63 25 64 31 65 33 66 26 67
REMARK SMILES IDX 27 68 28 69 29 70 30 71 56 72 57 73 66 74 58 75 59 76 65 77
REMARK SMILES IDX 67 78 60 79 61 80 62 81 63 82 64 83 40 84 41 85 50 86 42 87
REMARK SMILES IDX 43 88 49 89 51 90 44 91 45 92 46 93 47 94 48 95
REMARK H PARENT 6 5 79 11 10 26 72 45 38 56
REMARK Flexibility Score: inf
ROOT
ATOM      1  C   UNL A   1      31.603  28.078  25.811  1.00  0.00     0.117 C 
ENDROOT
BRANCH   1   2
ATOM      2  N   UNL A   1      31.014  28.526  24.562  1.00  0.00    -0.356 N 
ATOM      3  C   UNL A   1      30.493  27.748  23.565  1.00  0.00     0.222 C 
ATOM      4  O   UNL A   1      30.577  28.146  22.404  1.00  0.00    -0.275 OA
ATOM      5  H   UNL A   1      30.984  29.499  24.417  1.00  0.00     0.163 HD
BRANCH   3   6
ATOM      6  C   UNL A   1      29.680  26.524  23.929  1.00  0.00     0.124 C 
BRANCH   6   7
ATOM      7  C   UNL A   1      30.289  25.118  24.094  1.00  0.00     0.088 C 
ATOM      8  C   UNL A   1      31.587  24.991  23.306  1.00  0.00     0.031 C 
BRANCH   7   9
ATOM      9  N   UNL A   1      30.498  24.709  25.483  1.00  0.00    -0.352 N 
ATOM     10  C   UNL A   1      30.578  23.513  26.128  1.00  0.00     0.230 C 
ATOM     11  H   UNL A   1      30.604  25.475  26.092  1.00  0.00     0.163 HD
ATOM     12  O   UNL A   1      30.370  23.525  27.344  1.00  0.00    -0.274 OA
BRANCH  10  13
ATOM     13  C   UNL A   1      30.990  22.247  25.407  1.00  0.00     0.169 C 
BRANCH  13  14
ATOM     14  S   UNL A   1      32.559  21.532  26.021  1.00  0.00    -0.148 SA
BRANCH  14  15
ATOM     15  C   UNL A   1      33.729  22.561  25.108  1.00  0.00     0.063 C 
ATOM     16  C   UNL A   1      34.177  23.827  25.851  1.00  0.00     0.031 C 
ATOM     17  C   UNL A   1      35.032  21.830  24.848  1.00  0.00     0.151 C 
ATOM     18  C   UNL A   1      35.302  24.446  25.007  1.00  0.00     0.138 C 
ATOM     19  S   UNL A   1      35.983  23.105  24.043  1.00  0.00     0.151 S 
ATOM     20  O   UNL A   1      35.501  23.260  22.688  1.00  0.00    -0.229 OA
ATOM     21  O   UNL A   1      37.387  22.928  24.350  1.00  0.00    -0.229 OA
ENDBRANCH  14  15
ENDBRANCH  13  14
ENDBRANCH  10  13
ENDBRANCH   7   9
ENDBRANCH   6   7
ENDBRANCH   3   6
ENDBRANCH   1   2
BRANCH   1  22
ATOM     22  C   UNL A   1      33.049  27.673  25.559  1.00  0.00     0.042 C 
BRANCH  22  23
ATOM     23  C   UNL A   1      34.029  28.259  26.554  1.00  0.00     0.118 C 
BRANCH  23  24
ATOM     24  N   UNL A   1      33.657  29.589  26.989  1.00  0.00    -0.352 N 
ATOM     25  C   UNL A   1      34.375  30.454  27.779  1.00  0.00     0.251 C 
ATOM     26  H   UNL A   1      32.781  29.913  26.681  1.00  0.00     0.163 HD
ATOM     27  O   UNL A   1      33.843  31.472  28.208  1.00  0.00    -0.269 OA
BRANCH  25  28
ATOM     28  C   UNL A   1      35.778  30.133  28.130  1.00  0.00     0.039 A 
ATOM     29  C   UNL A   1      36.060  29.640  29.406  1.00  0.00     0.014 A 
ATOM     30  C   UNL A   1      36.811  30.290  27.200  1.00  0.00     0.014 A 
ATOM     31  C   UNL A   1      37.366  29.263  29.728  1.00  0.00     0.010 A 
ATOM     32  C   UNL A   1      38.080  29.800  27.480  1.00  0.00     0.010 A 
ATOM     33  C   UNL A   1      38.382  29.311  28.758  1.00  0.00    -0.014 A 
BRANCH  33  34
ATOM     34  C   UNL A   1      39.781  28.923  29.075  1.00  0.00     0.031 A 
ATOM     35  C   UNL A   1      40.688  29.917  29.757  1.00  0.00     0.074 A 
ATOM     36  C   UNL A   1      40.247  27.708  28.718  1.00  0.00     0.049 A 
ATOM     37  N   UNL A   1      41.961  29.817  30.039  1.00  0.00    -0.248 NA
ATOM     38  C   UNL A   1      40.092  31.208  30.148  1.00  0.00     0.031 C 
ATOM     39  C   UNL A   1      39.479  26.675  28.017  1.00  0.00     0.029 A 
ATOM     40  N   UNL A   1      41.483  27.137  28.891  1.00  0.00    -0.354 N 
ATOM     41  C   UNL A   1      42.314  31.026  30.627  1.00  0.00     0.074 A 
ATOM     42  C   UNL A   1      41.146  31.875  30.594  1.00  0.00     0.031 C 
ATOM     43  C   UNL A   1      40.252  25.590  27.847  1.00  0.00     0.029 A 
ATOM     44  C   UNL A   1      41.582  25.862  28.382  1.00  0.00     0.049 A 
ATOM     45  H   UNL A   1      42.231  27.597  29.337  1.00  0.00     0.167 HD
ATOM     46  C   UNL A   1      43.494  31.386  31.185  1.00  0.00     0.037 A 
ATOM     47  C   UNL A   1      42.630  25.016  28.342  1.00  0.00     0.037 A 
ATOM     48  C   UNL A   1      44.643  30.524  31.251  1.00  0.00     0.049 A 
ATOM     49  C   UNL A   1      43.940  25.452  28.949  1.00  0.00     0.074 A 
ATOM     50  C   UNL A   1      45.879  30.781  31.818  1.00  0.00     0.029 A 
ATOM     51  N   UNL A   1      44.694  29.234  30.744  1.00  0.00    -0.354 N 
ATOM     52  N   UNL A   1      44.240  26.586  29.538  1.00  0.00    -0.248 NA
ATOM     53  C   UNL A   1      45.053  24.494  28.891  1.00  0.00     0.031 C 
ATOM     54  C   UNL A   1      46.689  29.660  31.621  1.00  0.00     0.029 A 
ATOM     55  C   UNL A   1      45.942  28.686  30.979  1.00  0.00     0.049 A 
ATOM     56  H   UNL A   1      43.953  28.778  30.285  1.00  0.00     0.167 HD
ATOM     57  C   UNL A   1      45.560  26.458  29.959  1.00  0.00     0.074 A 
ATOM     58  C   UNL A   1      45.997  25.134  29.565  1.00  0.00     0.031 C 
ATOM     59  C   UNL A   1      46.343  27.352  30.610  1.00  0.00     0.037 A 
BRANCH  46  60
ATOM     60  C   UNL A   1      43.595  32.754  31.801  1.00  0.00     0.058 A 
ATOM     61  C   UNL A   1      43.885  33.887  31.023  1.00  0.00     0.135 A 
ATOM     62  C   UNL A   1      43.333  32.949  33.167  1.00  0.00     0.135 A 
ATOM     63  F   UNL A   1      44.166  33.757  29.717  1.00  0.00    -0.206 F 
ATOM     64  C   UNL A   1      43.920  35.162  31.577  1.00  0.00     0.059 A 
ATOM     65  C   UNL A   1      43.333  34.219  33.737  1.00  0.00     0.059 A 
ATOM     66  F   UNL A   1      43.058  31.901  33.958  1.00  0.00    -0.206 F 
ATOM     67  C   UNL A   1      43.632  35.319  32.933  1.00  0.00     0.060 A 
BRANCH  67  68
ATOM     68  S   UNL A   1      43.631  36.988  33.621  1.00  0.00     0.124 S 
ATOM     69  O   UNL A   1      42.339  37.023  34.300  1.00  0.00    -0.237 OA
ATOM     70  O   UNL A   1      44.803  36.966  34.490  1.00  0.00    -0.237 OA
ATOM     71  O   UNL A   1      43.742  37.842  32.443  1.00  0.00    -0.744 OA
ENDBRANCH  67  68
ENDBRANCH  46  60
BRANCH  47  72
ATOM     72  C   UNL A   1      42.500  23.672  27.714  1.00  0.00     0.058 A 
ATOM     73  C   UNL A   1      42.349  22.516  28.498  1.00  0.00     0.135 A 
ATOM     74  C   UNL A   1      42.575  23.506  26.322  1.00  0.00     0.135 A 
ATOM     75  F   UNL A   1      42.274  22.618  29.834  1.00  0.00    -0.206 F 
ATOM     76  C   UNL A   1      42.327  21.246  27.931  1.00  0.00     0.059 A 
ATOM     77  C   UNL A   1      42.520  22.248  25.729  1.00  0.00     0.059 A 
ATOM     78  F   UNL A   1      42.697  24.577  25.522  1.00  0.00    -0.206 F 
ATOM     79  C   UNL A   1      42.422  21.122  26.545  1.00  0.00     0.060 A 
BRANCH  79  80
ATOM     80  S   UNL A   1      42.413  19.470  25.817  1.00  0.00     0.124 S 
ATOM     81  O   UNL A   1      42.769  18.643  26.963  1.00  0.00    -0.237 OA
ATOM     82  O   UNL A   1      41.036  19.350  25.344  1.00  0.00    -0.237 OA
ATOM     83  O   UNL A   1      43.422  19.560  24.766  1.00  0.00    -0.744 OA
ENDBRANCH  79  80
ENDBRANCH  47  72
BRANCH  59  84
ATOM     84  C   UNL A   1      47.727  26.914  31.000  1.00  0.00     0.058 A 
ATOM     85  C   UNL A   1      47.966  26.138  32.143  1.00  0.00     0.135 A 
ATOM     86  C   UNL A   1      48.823  27.225  30.177  1.00  0.00     0.135 A 
ATOM     87  F   UNL A   1      46.955  25.817  32.966  1.00  0.00    -0.206 F 
ATOM     88  C   UNL A   1      49.246  25.705  32.471  1.00  0.00     0.059 A 
ATOM     89  C   UNL A   1      50.106  26.776  30.467  1.00  0.00     0.059 A 
ATOM     90  F   UNL A   1      48.647  27.955  29.063  1.00  0.00    -0.206 F 
ATOM     91  C   UNL A   1      50.309  26.024  31.624  1.00  0.00     0.060 A 
BRANCH  91  92
ATOM     92  S   UNL A   1      51.958  25.418  32.040  1.00  0.00     0.124 S 
ATOM     93  O   UNL A   1      52.712  25.775  30.842  1.00  0.00    -0.237 OA
ATOM     94  O   UNL A   1      52.276  26.183  33.242  1.00  0.00    -0.237 OA
ATOM     95  O   UNL A   1      51.753  23.989  32.250  1.00  0.00    -0.744 OA
ENDBRANCH  91  92
ENDBRANCH  59  84
ENDBRANCH  33  34
ENDBRANCH  25  28
ENDBRANCH  23  24
ENDBRANCH  22  23
ENDBRANCH   1  22
TORSDOF 18
ENDMDL
MODEL 3
REMARK VINA RESULT:     -11.0      1.406      2.044
REMARK SMILES C[C@H](CC(=O)NCCCNC(=O)c1ccc(-c2c3nc(c(-c4c(F)cc(S(=O)(=O)[O-])cc4F)c4ccc([nH]4)c(-c4c(F)cc(S(=O)(=O)[O-])cc4F)c4nc(c(-c5c(F)cc(S(=O)(=O)[O-])cc5F)c5ccc2[nH]5)C=C4)C=C3)cc1)NC(=O)CS[C@H]1CCS(=O)(=O)C1
REMARK SMILES IDX 7 1 6 2 4 3 5 4 3 6 2 7 1 8 79 9 80 10 81 12 82 13 83 14
REMARK SMILES IDX 84 15 85 16 90 17 86 18 87 19 88 20 89 21 8 22 9 23 10 24
REMARK SMILES IDX 11 25 12 27 13 28 14 29 78 30 15 31 77 32 16 33 17 34 18 35
REMARK SMILES IDX 71 36 19 37 76 38 70 39 72 40 20 41 75 42 69 43 68 44 21 46
REMARK SMILES IDX 55 47 34 48 54 49 35 50 38 51 53 52 73 53 36 54 37 55 52 57
REMARK SMILES IDX 74 58 39 59 22 60 23 61 32 62 24 63 25 64 31 65 33 66 26 67
REMARK SMILES IDX 27 68 28 69 29 70 30 71 56 72 57 73 66 74 58 75 59 76 65 77
REMARK SMILES IDX 67 78 60 79 61 80 62 81 63 82 64 83 40 84 41 85 50 86 42 87
REMARK SMILES IDX 43 88 49 89 51 90 44 91 45 92 46 93 47 94 48 95
REMARK H PARENT 6 5 79 11 10 26 72 45 38 56
REMARK Flexibility Score: inf
ROOT
ATOM      1  C   UNL A   1      32.936  29.015  27.257  1.00  0.00     0.117 C 
ENDROOT
BRANCH   1   2
ATOM      2  N   UNL A   1      31.857  29.380  26.357  1.00  0.00    -0.356 N 
ATOM      3  C   UNL A   1      31.463  28.722  25.225  1.00  0.00     0.222 C 
ATOM      4  O   UNL A   1      30.999  29.379  24.295  1.00  0.00    -0.275 OA
ATOM      5  H   UNL A   1      31.352  30.192  26.588  1.00  0.00     0.163 HD
BRANCH   3   6
ATOM      6  C   UNL A   1      31.442  27.208  25.218  1.00  0.00     0.124 C 
BRANCH   6   7
ATOM      7  C   UNL A   1      30.144  26.377  25.248  1.00  0.00     0.088 C 
ATOM      8  C   UNL A   1      29.878  25.734  23.893  1.00  0.00     0.031 C 
BRANCH   7   9
ATOM      9  N   UNL A   1      30.098  25.368  26.306  1.00  0.00    -0.352 N 
ATOM     10  C   UNL A   1      30.808  24.241  26.589  1.00  0.00     0.230 C 
ATOM     11  H   UNL A   1      29.389  25.543  26.967  1.00  0.00     0.163 HD
ATOM     12  O   UNL A   1      30.265  23.416  27.329  1.00  0.00    -0.274 OA
BRANCH  10  13
ATOM     13  C   UNL A   1      32.226  24.050  26.094  1.00  0.00     0.169 C 
BRANCH  13  14
ATOM     14  S   UNL A   1      33.131  22.716  26.961  1.00  0.00    -0.148 SA
BRANCH  14  15
ATOM     15  C   UNL A   1      32.694  21.323  25.899  1.00  0.00     0.063 C 
ATOM     16  C   UNL A   1      32.572  21.673  24.409  1.00  0.00     0.031 C 
ATOM     17  C   UNL A   1      33.762  20.248  25.918  1.00  0.00     0.151 C 
ATOM     18  C   UNL A   1      32.396  20.339  23.668  1.00  0.00     0.138 C 
ATOM     19  S   UNL A   1      33.103  19.091  24.732  1.00  0.00     0.151 S 
ATOM     20  O   UNL A   1      32.007  18.373  25.343  1.00  0.00    -0.229 OA
ATOM     21  O   UNL A   1      34.193  18.416  24.060  1.00  0.00    -0.229 OA
ENDBRANCH  14  15
ENDBRANCH  13  14
ENDBRANCH  10  13
ENDBRANCH   7   9
ENDBRANCH   6   7
ENDBRANCH   3   6
ENDBRANCH   1   2
BRANCH   1  22
ATOM     22  C   UNL A   1      34.134  29.915  26.985  1.00  0.00     0.042 C 
BRANCH  22  23
ATOM     23  C   UNL A   1      35.334  29.614  27.860  1.00  0.00     0.118 C 
BRANCH  23  24
ATOM     24  N   UNL A   1      35.270  30.277  29.145  1.00  0.00    -0.352 N 
ATOM     25  C   UNL A   1      36.281  30.451  30.060  1.00  0.00     0.251 C 
ATOM     26  H   UNL A   1      34.395  30.649  29.394  1.00  0.00     0.163 HD
ATOM     27  O   UNL A   1      36.021  30.874  31.181  1.00  0.00    -0.269 OA
BRANCH  25  28
ATOM     28  C   UNL A   1      37.671  30.096  29.692  1.00  0.00     0.039 A 
ATOM     29  C   UNL A   1      38.517  29.571  30.671  1.00  0.00     0.014 A 
ATOM     30  C   UNL A   1      38.135  30.254  28.382  1.00  0.00     0.014 A 
ATOM     31  C   UNL A   1      39.807  29.163  30.323  1.00  0.00     0.010 A 
ATOM     32  C   UNL A   1      39.370  29.734  28.014  1.00  0.00     0.010 A 
ATOM     33  C   UNL A   1      40.235  29.213  28.986  1.00  0.00    -0.014 A 
BRANCH  33  34
ATOM     34  C   UNL A   1      41.604  28.792  28.589  1.00  0.00     0.031 A 
ATOM     35  C   UNL A   1      42.709  29.818  28.544  1.00  0.00     0.074 A 
ATOM     36  C   UNL A   1      41.845  27.513  28.233  1.00  0.00     0.049 A 
ATOM     37  N   UNL A   1      43.945  29.685  28.139  1.00  0.00    -0.248 NA
ATOM     38  C   UNL A   1      42.372  31.184  28.984  1.00  0.00     0.031 C 
ATOM     39  C   UNL A   1      40.850  26.438  28.196  1.00  0.00     0.029 A 
ATOM     40  N   UNL A   1      43.005  26.901  27.826  1.00  0.00    -0.354 N 
ATOM     41  C   UNL A   1      44.523  30.942  28.268  1.00  0.00     0.074 A 
ATOM     42  C   UNL A   1      43.488  31.845  28.715  1.00  0.00     0.031 C 
ATOM     43  C   UNL A   1      41.448  25.296  27.818  1.00  0.00     0.029 A 
ATOM     44  C   UNL A   1      42.855  25.563  27.540  1.00  0.00     0.049 A 
ATOM     45  H   UNL A   1      43.864  27.375  27.746  1.00  0.00     0.167 HD
ATOM     46  C   UNL A   1      45.811  31.307  28.073  1.00  0.00     0.037 A 
ATOM     47  C   UNL A   1      43.750  24.660  27.095  1.00  0.00     0.037 A 
ATOM     48  C   UNL A   1      46.848  30.398  27.666  1.00  0.00     0.049 A 
ATOM     49  C   UNL A   1      45.174  25.100  26.862  1.00  0.00     0.074 A 
ATOM     50  C   UNL A   1      48.192  30.660  27.467  1.00  0.00     0.029 A 
ATOM     51  N   UNL A   1      46.659  29.048  27.410  1.00  0.00    -0.354 N 
ATOM     52  N   UNL A   1      45.709  26.287  27.031  1.00  0.00    -0.248 NA
ATOM     53  C   UNL A   1      46.117  24.079  26.384  1.00  0.00     0.031 C 
ATOM     54  C   UNL A   1      48.809  29.477  27.052  1.00  0.00     0.029 A 
ATOM     55  C   UNL A   1      47.861  28.467  27.046  1.00  0.00     0.049 A 
ATOM     56  H   UNL A   1      45.799  28.575  27.475  1.00  0.00     0.167 HD
ATOM     57  C   UNL A   1      47.058  26.142  26.723  1.00  0.00     0.074 A 
ATOM     58  C   UNL A   1      47.259  24.753  26.367  1.00  0.00     0.031 C 
ATOM     59  C   UNL A   1      48.044  27.073  26.731  1.00  0.00     0.037 A 
BRANCH  46  60
ATOM     60  C   UNL A   1      46.185  32.741  28.332  1.00  0.00     0.058 A 
ATOM     61  C   UNL A   1      46.632  33.164  29.595  1.00  0.00     0.135 A 
ATOM     62  C   UNL A   1      46.164  33.689  27.295  1.00  0.00     0.135 A 
ATOM     63  F   UNL A   1      46.651  32.307  30.628  1.00  0.00    -0.206 F 
ATOM     64  C   UNL A   1      47.037  34.474  29.823  1.00  0.00     0.059 A 
ATOM     65  C   UNL A   1      46.593  34.998  27.494  1.00  0.00     0.059 A 
ATOM     66  F   UNL A   1      45.739  33.340  26.071  1.00  0.00    -0.206 F 
ATOM     67  C   UNL A   1      47.023  35.382  28.764  1.00  0.00     0.060 A 
BRANCH  67  68
ATOM     68  S   UNL A   1      47.602  37.064  29.069  1.00  0.00     0.124 S 
ATOM     69  O   UNL A   1      49.037  36.853  29.238  1.00  0.00    -0.237 OA
ATOM     70  O   UNL A   1      47.203  37.755  27.848  1.00  0.00    -0.237 OA
ATOM     71  O   UNL A   1      46.882  37.459  30.275  1.00  0.00    -0.744 OA
ENDBRANCH  67  68
ENDBRANCH  46  60
BRANCH  47  72
ATOM     72  C   UNL A   1      43.345  23.249  26.837  1.00  0.00     0.058 A 
ATOM     73  C   UNL A   1      43.084  22.365  27.895  1.00  0.00     0.135 A 
ATOM     74  C   UNL A   1      43.259  22.742  25.531  1.00  0.00     0.135 A 
ATOM     75  F   UNL A   1      43.154  22.798  29.164  1.00  0.00    -0.206 F 
ATOM     76  C   UNL A   1      42.803  21.020  27.673  1.00  0.00     0.059 A 
ATOM     77  C   UNL A   1      42.946  21.409  25.282  1.00  0.00     0.059 A 
ATOM     78  F   UNL A   1      43.477  23.547  24.480  1.00  0.00    -0.206 F 
ATOM     79  C   UNL A   1      42.745  20.550  26.361  1.00  0.00     0.060 A 
BRANCH  79  80
ATOM     80  S   UNL A   1      42.398  18.800  26.079  1.00  0.00     0.124 S 
ATOM     81  O   UNL A   1      40.996  18.840  25.683  1.00  0.00    -0.237 OA
ATOM     82  O   UNL A   1      43.351  18.464  25.025  1.00  0.00    -0.237 OA
ATOM     83  O   UNL A   1      42.670  18.191  27.377  1.00  0.00    -0.744 OA
ENDBRANCH  79  80
ENDBRANCH  47  72
BRANCH  59  84
ATOM     84  C   UNL A   1      49.439  26.613  26.411  1.00  0.00     0.058 A 
ATOM     85  C   UNL A   1      50.241  25.958  27.357  1.00  0.00     0.135 A 
ATOM     86  C   UNL A   1      49.954  26.777  25.114  1.00  0.00     0.135 A 
ATOM     87  F   UNL A   1      49.798  25.781  28.612  1.00  0.00    -0.206 F 
ATOM     88  C   UNL A   1      51.515  25.503  27.037  1.00  0.00     0.059 A 
ATOM     89  C   UNL A   1      51.212  26.301  24.762  1.00  0.00     0.059 A 
ATOM     90  F   UNL A   1      49.223  27.387  24.167  1.00  0.00    -0.206 F 
ATOM     91  C   UNL A   1      51.990  25.674  25.735  1.00  0.00     0.060 A 
BRANCH  91  92
ATOM     92  S   UNL A   1      53.628  25.038  25.322  1.00  0.00     0.124 S 
ATOM     93  O   UNL A   1      53.410  23.597  25.391  1.00  0.00    -0.237 OA
ATOM     94  O   UNL A   1      53.846  25.584  23.986  1.00  0.00    -0.237 OA
ATOM     95  O   UNL A   1      54.483  25.595  26.366  1.00  0.00    -0.744 OA
ENDBRANCH  91  92
ENDBRANCH  59  84
ENDBRANCH  33  34
ENDBRANCH  25  28
ENDBRANCH  23  24
ENDBRANCH  22  23
ENDBRANCH   1  22
TORSDOF 18
ENDMDL
