MODEL 1
REMARK VINA RESULT:     -10.9      0.000      0.000
REMARK SMILES CC(=O)[C@@H]1CCCC[N@H+]1CC(C)(C)C(=O)NCCCNC(=O)c1ccc(-c2c3nc(c(-c4c(F)cc(S(=O)(=O)[O-])cc4F)c4ccc([nH]4)c(-c4c(F)cc(S(=O)(=O)[O-])cc4F)c4nc(c(-c5c(F)cc(S(=O)(=O)[O-])cc5F)c5ccc2[nH]5)C=C4)C=C3)cc1
REMARK SMILES IDX 18 1 17 2 16 3 14 4 15 5 11 7 12 8 13 9 10 10 9 11 4 12 5 13
REMARK SMILES IDX 6 14 8 15 7 17 2 18 1 19 3 20 19 21 20 22 21 23 22 25 23 26
REMARK SMILES IDX 24 27 88 28 25 29 87 30 26 31 27 32 28 33 81 34 29 35 86 36
REMARK SMILES IDX 80 37 82 38 30 39 85 40 79 41 78 42 31 44 65 45 44 46 64 47
REMARK SMILES IDX 45 48 48 49 63 50 83 51 46 52 47 53 62 55 84 56 49 57 32 58
REMARK SMILES IDX 33 59 42 60 34 61 35 62 41 63 43 64 36 65 37 66 38 67 39 68
REMARK SMILES IDX 40 69 66 70 67 71 76 72 68 73 69 74 75 75 77 76 70 77 71 78
REMARK SMILES IDX 72 79 73 80 74 81 50 82 51 83 60 84 52 85 53 86 59 87 61 88
REMARK SMILES IDX 54 89 55 90 56 91 57 92 58 93
REMARK H PARENT 16 6 9 16 20 24 82 43 48 54
REMARK Flexibility Score: inf
ROOT
ATOM      1  C   UNL A   1      33.687  28.116  25.805  1.00  0.00     0.042 C 
ENDROOT
BRANCH   1   2
ATOM      2  C   UNL A   1      32.601  27.172  25.316  1.00  0.00     0.117 C 
BRANCH   2   3
ATOM      3  N   UNL A   1      32.350  26.127  26.289  1.00  0.00    -0.355 N 
ATOM      4  C   UNL A   1      31.714  24.935  26.193  1.00  0.00     0.231 C 
ATOM      5  O   UNL A   1      31.257  24.502  27.257  1.00  0.00    -0.274 OA
ATOM      6  H   UNL A   1      32.708  26.319  27.185  1.00  0.00     0.163 HD
BRANCH   4   7
ATOM      7  C   UNL A   1      31.506  24.198  24.860  1.00  0.00     0.092 C 
ATOM      8  C   UNL A   1      30.579  24.915  23.870  1.00  0.00     0.027 C 
ATOM      9  C   UNL A   1      30.870  22.835  25.224  1.00  0.00     0.027 C 
BRANCH   7  10
ATOM     10  C   UNL A   1      32.911  23.895  24.206  1.00  0.00     0.279 C 
BRANCH  10  11
ATOM     11  N   UNL A   1      34.045  23.200  24.889  1.00  0.00    -0.325 N 
ATOM     12  C   UNL A   1      34.485  21.869  24.393  1.00  0.00     0.251 C 
ATOM     13  C   UNL A   1      35.721  21.344  25.172  1.00  0.00     0.074 C 
ATOM     14  C   UNL A   1      36.866  22.341  25.216  1.00  0.00     0.012 C 
ATOM     15  C   UNL A   1      35.183  24.146  24.992  1.00  0.00     0.262 C 
ATOM     16  H   UNL A   1      33.663  22.940  25.798  1.00  0.00     0.348 HD
ATOM     17  C   UNL A   1      36.360  23.636  25.812  1.00  0.00     0.062 C 
BRANCH  12  18
ATOM     18  C   UNL A   1      33.458  20.713  24.479  1.00  0.00     0.186 C 
ATOM     19  C   UNL A   1      33.188  19.968  25.757  1.00  0.00     0.094 C 
ATOM     20  O   UNL A   1      32.780  20.414  23.484  1.00  0.00    -0.293 OA
ENDBRANCH  12  18
ENDBRANCH  10  11
ENDBRANCH   7  10
ENDBRANCH   4   7
ENDBRANCH   2   3
ENDBRANCH   1   2
BRANCH   1  21
ATOM     21  C   UNL A   1      33.601  28.401  27.296  1.00  0.00     0.118 C 
BRANCH  21  22
ATOM     22  N   UNL A   1      33.547  29.829  27.581  1.00  0.00    -0.352 N 
ATOM     23  C   UNL A   1      34.502  30.629  28.169  1.00  0.00     0.251 C 
ATOM     24  H   UNL A   1      32.715  30.284  27.318  1.00  0.00     0.163 HD
ATOM     25  O   UNL A   1      34.224  31.753  28.545  1.00  0.00    -0.269 OA
BRANCH  23  26
ATOM     26  C   UNL A   1      35.864  30.082  28.347  1.00  0.00     0.039 A 
ATOM     27  C   UNL A   1      36.755  30.088  27.272  1.00  0.00     0.014 A 
ATOM     28  C   UNL A   1      36.262  29.613  29.600  1.00  0.00     0.014 A 
ATOM     29  C   UNL A   1      38.078  29.691  27.478  1.00  0.00     0.010 A 
ATOM     30  C   UNL A   1      37.597  29.315  29.825  1.00  0.00     0.010 A 
ATOM     31  C   UNL A   1      38.517  29.339  28.764  1.00  0.00    -0.014 A 
BRANCH  31  32
ATOM     32  C   UNL A   1      39.917  28.935  29.046  1.00  0.00     0.031 A 
ATOM     33  C   UNL A   1      40.875  29.968  29.578  1.00  0.00     0.074 A 
ATOM     34  C   UNL A   1      40.349  27.697  28.731  1.00  0.00     0.049 A 
ATOM     35  N   UNL A   1      42.176  29.915  29.679  1.00  0.00    -0.248 NA
ATOM     36  C   UNL A   1      40.290  31.251  30.006  1.00  0.00     0.031 C 
ATOM     37  C   UNL A   1      39.524  26.623  28.173  1.00  0.00     0.029 A 
ATOM     38  N   UNL A   1      41.602  27.145  28.810  1.00  0.00    -0.354 N 
ATOM     39  C   UNL A   1      42.566  31.164  30.148  1.00  0.00     0.074 A 
ATOM     40  C   UNL A   1      41.372  31.971  30.259  1.00  0.00     0.031 C 
ATOM     41  C   UNL A   1      40.293  25.540  27.966  1.00  0.00     0.029 A 
ATOM     42  C   UNL A   1      41.669  25.855  28.333  1.00  0.00     0.049 A 
ATOM     43  H   UNL A   1      42.381  27.625  29.173  1.00  0.00     0.167 HD
ATOM     44  C   UNL A   1      43.806  31.592  30.481  1.00  0.00     0.037 A 
ATOM     45  C   UNL A   1      42.727  25.033  28.189  1.00  0.00     0.037 A 
ATOM     46  C   UNL A   1      44.980  30.764  30.420  1.00  0.00     0.049 A 
ATOM     47  C   UNL A   1      44.092  25.520  28.603  1.00  0.00     0.074 A 
ATOM     48  C   UNL A   1      46.280  31.087  30.763  1.00  0.00     0.029 A 
ATOM     49  N   UNL A   1      44.987  29.438  30.014  1.00  0.00    -0.354 N 
ATOM     50  N   UNL A   1      44.441  26.700  29.058  1.00  0.00    -0.248 NA
ATOM     51  C   UNL A   1      45.205  24.567  28.491  1.00  0.00     0.031 C 
ATOM     52  C   UNL A   1      47.078  29.958  30.551  1.00  0.00     0.029 A 
ATOM     53  C   UNL A   1      46.267  28.924  30.110  1.00  0.00     0.049 A 
ATOM     54  H   UNL A   1      44.198  28.938  29.703  1.00  0.00     0.167 HD
ATOM     55  C   UNL A   1      45.803  26.617  29.322  1.00  0.00     0.074 A 
ATOM     56  C   UNL A   1      46.216  25.273  28.978  1.00  0.00     0.031 C 
ATOM     57  C   UNL A   1      46.640  27.567  29.806  1.00  0.00     0.037 A 
BRANCH  44  58
ATOM     58  C   UNL A   1      43.949  33.004  30.971  1.00  0.00     0.058 A 
ATOM     59  C   UNL A   1      44.245  34.057  30.090  1.00  0.00     0.135 A 
ATOM     60  C   UNL A   1      43.751  33.319  32.325  1.00  0.00     0.135 A 
ATOM     61  F   UNL A   1      44.466  33.807  28.789  1.00  0.00    -0.206 F 
ATOM     62  C   UNL A   1      44.361  35.368  30.537  1.00  0.00     0.059 A 
ATOM     63  C   UNL A   1      43.835  34.628  32.789  1.00  0.00     0.059 A 
ATOM     64  F   UNL A   1      43.471  32.350  33.210  1.00  0.00    -0.206 F 
ATOM     65  C   UNL A   1      44.151  35.644  31.888  1.00  0.00     0.060 A 
BRANCH  65  66
ATOM     66  S   UNL A   1      44.282  37.356  32.446  1.00  0.00     0.124 S 
ATOM     67  O   UNL A   1      43.383  37.357  33.595  1.00  0.00    -0.237 OA
ATOM     68  O   UNL A   1      45.703  37.477  32.752  1.00  0.00    -0.237 OA
ATOM     69  O   UNL A   1      43.825  38.125  31.291  1.00  0.00    -0.744 OA
ENDBRANCH  65  66
ENDBRANCH  44  58
BRANCH  45  70
ATOM     70  C   UNL A   1      42.547  23.662  27.640  1.00  0.00     0.058 A 
ATOM     71  C   UNL A   1      42.369  22.562  28.493  1.00  0.00     0.135 A 
ATOM     72  C   UNL A   1      42.572  23.420  26.258  1.00  0.00     0.135 A 
ATOM     73  F   UNL A   1      42.340  22.743  29.823  1.00  0.00    -0.206 F 
ATOM     74  C   UNL A   1      42.257  21.267  27.999  1.00  0.00     0.059 A 
ATOM     75  C   UNL A   1      42.437  22.136  25.739  1.00  0.00     0.059 A 
ATOM     76  F   UNL A   1      42.717  24.440  25.399  1.00  0.00    -0.206 F 
ATOM     77  C   UNL A   1      42.298  21.063  26.619  1.00  0.00     0.060 A 
BRANCH  77  78
ATOM     78  S   UNL A   1      42.142  19.379  25.984  1.00  0.00     0.124 S 
ATOM     79  O   UNL A   1      42.617  18.595  27.118  1.00  0.00    -0.237 OA
ATOM     80  O   UNL A   1      40.714  19.287  25.696  1.00  0.00    -0.237 OA
ATOM     81  O   UNL A   1      43.011  19.385  24.810  1.00  0.00    -0.744 OA
ENDBRANCH  77  78
ENDBRANCH  45  70
BRANCH  57  82
ATOM     82  C   UNL A   1      48.065  27.176  30.065  1.00  0.00     0.058 A 
ATOM     83  C   UNL A   1      49.067  27.358  29.101  1.00  0.00     0.135 A 
ATOM     84  C   UNL A   1      48.444  26.703  31.333  1.00  0.00     0.135 A 
ATOM     85  F   UNL A   1      48.752  27.803  27.874  1.00  0.00    -0.206 F 
ATOM     86  C   UNL A   1      50.400  27.078  29.383  1.00  0.00     0.059 A 
ATOM     87  C   UNL A   1      49.772  26.439  31.643  1.00  0.00     0.059 A 
ATOM     88  F   UNL A   1      47.520  26.523  32.289  1.00  0.00    -0.206 F 
ATOM     89  C   UNL A   1      50.743  26.626  30.659  1.00  0.00     0.060 A 
BRANCH  89  90
ATOM     90  S   UNL A   1      52.484  26.333  31.034  1.00  0.00     0.124 S 
ATOM     91  O   UNL A   1      52.821  27.520  31.810  1.00  0.00    -0.237 OA
ATOM     92  O   UNL A   1      52.437  25.080  31.782  1.00  0.00    -0.237 OA
ATOM     93  O   UNL A   1      53.107  26.245  29.717  1.00  0.00    -0.744 OA
ENDBRANCH  89  90
ENDBRANCH  57  82
ENDBRANCH  31  32
ENDBRANCH  23  26
ENDBRANCH  21  22
ENDBRANCH   1  21
TORSDOF 16
ENDMDL
MODEL 2
REMARK VINA RESULT:     -10.4      3.250      6.061
REMARK SMILES CC(=O)[C@@H]1CCCC[N@H+]1CC(C)(C)C(=O)NCCCNC(=O)c1ccc(-c2c3nc(c(-c4c(F)cc(S(=O)(=O)[O-])cc4F)c4ccc([nH]4)c(-c4c(F)cc(S(=O)(=O)[O-])cc4F)c4nc(c(-c5c(F)cc(S(=O)(=O)[O-])cc5F)c5ccc2[nH]5)C=C4)C=C3)cc1
REMARK SMILES IDX 18 1 17 2 16 3 14 4 15 5 11 7 12 8 13 9 10 10 9 11 4 12 5 13
REMARK SMILES IDX 6 14 8 15 7 17 2 18 1 19 3 20 19 21 20 22 21 23 22 25 23 26
REMARK SMILES IDX 24 27 88 28 25 29 87 30 26 31 27 32 28 33 81 34 29 35 86 36
REMARK SMILES IDX 80 37 82 38 30 39 85 40 79 41 78 42 31 44 65 45 44 46 64 47
REMARK SMILES IDX 45 48 48 49 63 50 83 51 46 52 47 53 62 55 84 56 49 57 32 58
REMARK SMILES IDX 33 59 42 60 34 61 35 62 41 63 43 64 36 65 37 66 38 67 39 68
REMARK SMILES IDX 40 69 66 70 67 71 76 72 68 73 69 74 75 75 77 76 70 77 71 78
REMARK SMILES IDX 72 79 73 80 74 81 50 82 51 83 60 84 52 85 53 86 59 87 61 88
REMARK SMILES IDX 54 89 55 90 56 91 57 92 58 93
REMARK H PARENT 16 6 9 16 20 24 82 43 48 54
REMARK Flexibility Score: inf
ROOT
ATOM      1  C   UNL A   1      33.958  33.712  28.949  1.00  0.00     0.042 C 
ENDROOT
BRANCH   1   2
ATOM      2  C   UNL A   1      34.051  34.679  30.117  1.00  0.00     0.117 C 
BRANCH   2   3
ATOM      3  N   UNL A   1      33.431  34.118  31.301  1.00  0.00    -0.355 N 
ATOM      4  C   UNL A   1      33.888  33.943  32.565  1.00  0.00     0.231 C 
ATOM      5  O   UNL A   1      33.330  33.040  33.198  1.00  0.00    -0.274 OA
ATOM      6  H   UNL A   1      32.508  33.809  31.163  1.00  0.00     0.163 HD
BRANCH   4   7
ATOM      7  C   UNL A   1      35.056  34.749  33.157  1.00  0.00     0.092 C 
ATOM      8  C   UNL A   1      35.188  34.656  34.683  1.00  0.00     0.027 C 
ATOM      9  C   UNL A   1      34.786  36.225  32.779  1.00  0.00     0.027 C 
BRANCH   7  10
ATOM     10  C   UNL A   1      36.398  34.324  32.442  1.00  0.00     0.279 C 
BRANCH  10  11
ATOM     11  N   UNL A   1      37.597  33.756  33.133  1.00  0.00    -0.325 N 
ATOM     12  C   UNL A   1      38.176  32.476  32.645  1.00  0.00     0.251 C 
ATOM     13  C   UNL A   1      39.458  32.088  33.431  1.00  0.00     0.074 C 
ATOM     14  C   UNL A   1      40.491  33.201  33.474  1.00  0.00     0.012 C 
ATOM     15  C   UNL A   1      38.627  34.817  33.234  1.00  0.00     0.262 C 
ATOM     16  H   UNL A   1      37.240  33.461  34.042  1.00  0.00     0.348 HD
ATOM     17  C   UNL A   1      39.848  34.438  34.061  1.00  0.00     0.062 C 
BRANCH  12  18
ATOM     18  C   UNL A   1      37.277  31.218  32.735  1.00  0.00     0.186 C 
ATOM     19  C   UNL A   1      37.755  29.926  33.335  1.00  0.00     0.094 C 
ATOM     20  O   UNL A   1      36.097  31.276  32.356  1.00  0.00    -0.293 OA
ENDBRANCH  12  18
ENDBRANCH  10  11
ENDBRANCH   7  10
ENDBRANCH   4   7
ENDBRANCH   2   3
ENDBRANCH   1   2
BRANCH   1  21
ATOM     21  C   UNL A   1      34.590  32.360  29.244  1.00  0.00     0.118 C 
BRANCH  21  22
ATOM     22  N   UNL A   1      34.046  31.303  28.402  1.00  0.00    -0.352 N 
ATOM     23  C   UNL A   1      34.707  30.261  27.789  1.00  0.00     0.251 C 
ATOM     24  H   UNL A   1      33.074  31.337  28.252  1.00  0.00     0.163 HD
ATOM     25  O   UNL A   1      34.152  29.591  26.936  1.00  0.00    -0.269 OA
BRANCH  23  26
ATOM     26  C   UNL A   1      36.106  29.991  28.178  1.00  0.00     0.039 A 
ATOM     27  C   UNL A   1      36.377  29.420  29.423  1.00  0.00     0.014 A 
ATOM     28  C   UNL A   1      37.139  30.259  27.277  1.00  0.00     0.014 A 
ATOM     29  C   UNL A   1      37.687  29.048  29.734  1.00  0.00     0.010 A 
ATOM     30  C   UNL A   1      38.418  29.799  27.548  1.00  0.00     0.010 A 
ATOM     31  C   UNL A   1      38.709  29.199  28.784  1.00  0.00    -0.014 A 
BRANCH  31  32
ATOM     32  C   UNL A   1      40.113  28.796  29.050  1.00  0.00     0.031 A 
ATOM     33  C   UNL A   1      41.073  29.828  29.579  1.00  0.00     0.074 A 
ATOM     34  C   UNL A   1      40.544  27.562  28.723  1.00  0.00     0.049 A 
ATOM     35  N   UNL A   1      42.375  29.778  29.669  1.00  0.00    -0.248 NA
ATOM     36  C   UNL A   1      40.489  31.107  30.021  1.00  0.00     0.031 C 
ATOM     37  C   UNL A   1      39.717  26.489  28.166  1.00  0.00     0.029 A 
ATOM     38  N   UNL A   1      41.799  27.012  28.787  1.00  0.00    -0.354 N 
ATOM     39  C   UNL A   1      42.767  31.025  30.141  1.00  0.00     0.074 A 
ATOM     40  C   UNL A   1      41.572  31.828  30.269  1.00  0.00     0.031 C 
ATOM     41  C   UNL A   1      40.486  25.409  27.945  1.00  0.00     0.029 A 
ATOM     42  C   UNL A   1      41.865  25.726  28.301  1.00  0.00     0.049 A 
ATOM     43  H   UNL A   1      42.580  27.492  29.146  1.00  0.00     0.167 HD
ATOM     44  C   UNL A   1      44.008  31.453  30.466  1.00  0.00     0.037 A 
ATOM     45  C   UNL A   1      42.923  24.906  28.143  1.00  0.00     0.037 A 
ATOM     46  C   UNL A   1      45.183  30.629  30.389  1.00  0.00     0.049 A 
ATOM     47  C   UNL A   1      44.291  25.394  28.547  1.00  0.00     0.074 A 
ATOM     48  C   UNL A   1      46.486  30.953  30.721  1.00  0.00     0.029 A 
ATOM     49  N   UNL A   1      45.190  29.306  29.974  1.00  0.00    -0.354 N 
ATOM     50  N   UNL A   1      44.641  26.572  29.006  1.00  0.00    -0.248 NA
ATOM     51  C   UNL A   1      45.405  24.444  28.419  1.00  0.00     0.031 C 
ATOM     52  C   UNL A   1      47.285  29.827  30.495  1.00  0.00     0.029 A 
ATOM     53  C   UNL A   1      46.472  28.794  30.055  1.00  0.00     0.049 A 
ATOM     54  H   UNL A   1      44.400  28.805  29.667  1.00  0.00     0.167 HD
ATOM     55  C   UNL A   1      46.006  26.491  29.257  1.00  0.00     0.074 A 
ATOM     56  C   UNL A   1      46.419  25.150  28.901  1.00  0.00     0.031 C 
ATOM     57  C   UNL A   1      46.845  27.440  29.739  1.00  0.00     0.037 A 
BRANCH  44  58
ATOM     58  C   UNL A   1      44.153  32.863  30.963  1.00  0.00     0.058 A 
ATOM     59  C   UNL A   1      44.046  33.170  32.329  1.00  0.00     0.135 A 
ATOM     60  C   UNL A   1      44.439  33.913  30.076  1.00  0.00     0.135 A 
ATOM     61  F   UNL A   1      43.751  32.207  33.217  1.00  0.00    -0.206 F 
ATOM     62  C   UNL A   1      44.197  34.471  32.796  1.00  0.00     0.059 A 
ATOM     63  C   UNL A   1      44.622  35.218  30.525  1.00  0.00     0.059 A 
ATOM     64  F   UNL A   1      44.548  33.675  28.759  1.00  0.00    -0.206 F 
ATOM     65  C   UNL A   1      44.487  35.488  31.886  1.00  0.00     0.060 A 
BRANCH  65  66
ATOM     66  S   UNL A   1      44.704  37.167  32.513  1.00  0.00     0.124 S 
ATOM     67  O   UNL A   1      46.026  37.080  33.123  1.00  0.00    -0.237 OA
ATOM     68  O   UNL A   1      44.618  37.968  31.296  1.00  0.00    -0.237 OA
ATOM     69  O   UNL A   1      43.592  37.326  33.445  1.00  0.00    -0.744 OA
ENDBRANCH  65  66
ENDBRANCH  44  58
BRANCH  45  70
ATOM     70  C   UNL A   1      42.741  23.539  27.587  1.00  0.00     0.058 A 
ATOM     71  C   UNL A   1      42.481  22.447  28.429  1.00  0.00     0.135 A 
ATOM     72  C   UNL A   1      42.845  23.290  26.210  1.00  0.00     0.135 A 
ATOM     73  F   UNL A   1      42.375  22.634  29.755  1.00  0.00    -0.206 F 
ATOM     74  C   UNL A   1      42.366  21.154  27.933  1.00  0.00     0.059 A 
ATOM     75  C   UNL A   1      42.709  22.008  25.686  1.00  0.00     0.059 A 
ATOM     76  F   UNL A   1      43.070  24.302  25.359  1.00  0.00    -0.206 F 
ATOM     77  C   UNL A   1      42.487  20.943  26.559  1.00  0.00     0.060 A 
BRANCH  77  78
ATOM     78  S   UNL A   1      42.326  19.261  25.919  1.00  0.00     0.124 S 
ATOM     79  O   UNL A   1      43.145  19.327  24.715  1.00  0.00    -0.237 OA
ATOM     80  O   UNL A   1      42.863  18.460  27.015  1.00  0.00    -0.237 OA
ATOM     81  O   UNL A   1      40.888  19.125  25.700  1.00  0.00    -0.744 OA
ENDBRANCH  77  78
ENDBRANCH  45  70
BRANCH  57  82
ATOM     82  C   UNL A   1      48.274  27.051  29.982  1.00  0.00     0.058 A 
ATOM     83  C   UNL A   1      49.268  27.251  29.014  1.00  0.00     0.135 A 
ATOM     84  C   UNL A   1      48.663  26.561  31.240  1.00  0.00     0.135 A 
ATOM     85  F   UNL A   1      48.943  27.711  27.796  1.00  0.00    -0.206 F 
ATOM     86  C   UNL A   1      50.603  26.971  29.283  1.00  0.00     0.059 A 
ATOM     87  C   UNL A   1      49.994  26.297  31.537  1.00  0.00     0.059 A 
ATOM     88  F   UNL A   1      47.746  26.363  32.201  1.00  0.00    -0.206 F 
ATOM     89  C   UNL A   1      50.958  26.502  30.549  1.00  0.00     0.060 A 
BRANCH  89  90
ATOM     90  S   UNL A   1      52.702  26.210  30.909  1.00  0.00     0.124 S 
ATOM     91  O   UNL A   1      53.057  27.418  31.644  1.00  0.00    -0.237 OA
ATOM     92  O   UNL A   1      52.659  24.980  31.693  1.00  0.00    -0.237 OA
ATOM     93  O   UNL A   1      53.305  26.079  29.585  1.00  0.00    -0.744 OA
ENDBRANCH  89  90
ENDBRANCH  57  82
ENDBRANCH  31  32
ENDBRANCH  23  26
ENDBRANCH  21  22
ENDBRANCH   1  21
TORSDOF 16
ENDMDL
MODEL 3
REMARK VINA RESULT:     -10.4      4.920     10.635
REMARK SMILES CC(=O)[C@@H]1CCCC[N@H+]1CC(C)(C)C(=O)NCCCNC(=O)c1ccc(-c2c3nc(c(-c4c(F)cc(S(=O)(=O)[O-])cc4F)c4ccc([nH]4)c(-c4c(F)cc(S(=O)(=O)[O-])cc4F)c4nc(c(-c5c(F)cc(S(=O)(=O)[O-])cc5F)c5ccc2[nH]5)C=C4)C=C3)cc1
REMARK SMILES IDX 18 1 17 2 16 3 14 4 15 5 11 7 12 8 13 9 10 10 9 11 4 12 5 13
REMARK SMILES IDX 6 14 8 15 7 17 2 18 1 19 3 20 19 21 20 22 21 23 22 25 23 26
REMARK SMILES IDX 24 27 88 28 25 29 87 30 26 31 27 32 28 33 81 34 29 35 86 36
REMARK SMILES IDX 80 37 82 38 30 39 85 40 79 41 78 42 31 44 65 45 44 46 64 47
REMARK SMILES IDX 45 48 48 49 63 50 83 51 46 52 47 53 62 55 84 56 49 57 32 58
REMARK SMILES IDX 33 59 42 60 34 61 35 62 41 63 43 64 36 65 37 66 38 67 39 68
REMARK SMILES IDX 40 69 66 70 67 71 76 72 68 73 69 74 75 75 77 76 70 77 71 78
REMARK SMILES IDX 72 79 73 80 74 81 50 82 51 83 60 84 52 85 53 86 59 87 61 88
REMARK SMILES IDX 54 89 55 90 56 91 57 92 58 93
REMARK H PARENT 16 6 9 16 20 24 82 43 48 54
REMARK Flexibility Score: inf
ROOT
ATOM      1  C   UNL A   1      37.431  23.606  25.455  1.00  0.00     0.042 C 
ENDROOT
BRANCH   1   2
ATOM      2  C   UNL A   1      35.975  23.518  25.881  1.00  0.00     0.117 C 
BRANCH   2   3
ATOM      3  N   UNL A   1      35.208  22.728  24.938  1.00  0.00    -0.355 N 
ATOM      4  C   UNL A   1      33.876  22.523  24.802  1.00  0.00     0.231 C 
ATOM      5  O   UNL A   1      33.568  21.467  24.238  1.00  0.00    -0.274 OA
ATOM      6  H   UNL A   1      35.756  22.254  24.272  1.00  0.00     0.163 HD
BRANCH   4   7
ATOM      7  C   UNL A   1      32.814  23.483  25.363  1.00  0.00     0.092 C 
ATOM      8  C   UNL A   1      32.689  23.476  26.892  1.00  0.00     0.027 C 
ATOM      9  C   UNL A   1      31.466  23.023  24.760  1.00  0.00     0.027 C 
BRANCH   7  10
ATOM     10  C   UNL A   1      33.093  24.941  24.822  1.00  0.00     0.279 C 
BRANCH  10  11
ATOM     11  N   UNL A   1      32.057  25.861  24.260  1.00  0.00    -0.325 N 
ATOM     12  C   UNL A   1      31.787  27.154  24.943  1.00  0.00     0.251 C 
ATOM     13  C   UNL A   1      30.743  28.006  24.171  1.00  0.00     0.074 C 
ATOM     14  C   UNL A   1      31.098  28.201  22.708  1.00  0.00     0.012 C 
ATOM     15  C   UNL A   1      32.337  26.057  22.816  1.00  0.00     0.262 C 
ATOM     16  H   UNL A   1      31.177  25.376  24.431  1.00  0.00     0.348 HD
ATOM     17  C   UNL A   1      31.271  26.842  22.065  1.00  0.00     0.062 C 
BRANCH  12  18
ATOM     18  C   UNL A   1      31.230  27.081  26.387  1.00  0.00     0.186 C 
ATOM     19  C   UNL A   1      31.609  28.075  27.449  1.00  0.00     0.094 C 
ATOM     20  O   UNL A   1      30.394  26.214  26.682  1.00  0.00    -0.293 OA
ENDBRANCH  12  18
ENDBRANCH  10  11
ENDBRANCH   7  10
ENDBRANCH   4   7
ENDBRANCH   2   3
ENDBRANCH   1   2
BRANCH   1  21
ATOM     21  C   UNL A   1      38.337  24.161  26.543  1.00  0.00     0.118 C 
BRANCH  21  22
ATOM     22  N   UNL A   1      39.747  23.945  26.247  1.00  0.00    -0.352 N 
ATOM     23  C   UNL A   1      40.828  24.733  26.575  1.00  0.00     0.251 C 
ATOM     24  H   UNL A   1      39.956  23.124  25.745  1.00  0.00     0.163 HD
ATOM     25  O   UNL A   1      41.917  24.537  26.064  1.00  0.00    -0.269 OA
BRANCH  23  26
ATOM     26  C   UNL A   1      40.630  25.830  27.545  1.00  0.00     0.039 A 
ATOM     27  C   UNL A   1      39.701  25.678  28.577  1.00  0.00     0.014 A 
ATOM     28  C   UNL A   1      41.410  26.984  27.453  1.00  0.00     0.014 A 
ATOM     29  C   UNL A   1      39.609  26.661  29.565  1.00  0.00     0.010 A 
ATOM     30  C   UNL A   1      41.387  27.908  28.486  1.00  0.00     0.010 A 
ATOM     31  C   UNL A   1      40.479  27.763  29.547  1.00  0.00    -0.014 A 
BRANCH  31  32
ATOM     32  C   UNL A   1      40.444  28.824  30.585  1.00  0.00     0.031 A 
ATOM     33  C   UNL A   1      41.346  28.692  31.784  1.00  0.00     0.074 A 
ATOM     34  C   UNL A   1      39.546  29.826  30.509  1.00  0.00     0.049 A 
ATOM     35  N   UNL A   1      41.329  29.355  32.908  1.00  0.00    -0.248 NA
ATOM     36  C   UNL A   1      42.375  27.638  31.722  1.00  0.00     0.031 C 
ATOM     37  C   UNL A   1      38.593  30.036  29.418  1.00  0.00     0.029 A 
ATOM     38  N   UNL A   1      39.272  30.843  31.388  1.00  0.00    -0.354 N 
ATOM     39  C   UNL A   1      42.315  28.777  33.699  1.00  0.00     0.074 A 
ATOM     40  C   UNL A   1      42.875  27.677  32.947  1.00  0.00     0.031 C 
ATOM     41  C   UNL A   1      37.843  31.118  29.689  1.00  0.00     0.029 A 
ATOM     42  C   UNL A   1      38.230  31.651  30.991  1.00  0.00     0.049 A 
ATOM     43  H   UNL A   1      39.772  30.982  32.224  1.00  0.00     0.167 HD
ATOM     44  C   UNL A   1      42.736  29.147  34.931  1.00  0.00     0.037 A 
ATOM     45  C   UNL A   1      37.643  32.689  31.619  1.00  0.00     0.037 A 
ATOM     46  C   UNL A   1      42.212  30.278  35.647  1.00  0.00     0.049 A 
ATOM     47  C   UNL A   1      38.155  33.105  32.975  1.00  0.00     0.074 A 
ATOM     48  C   UNL A   1      42.586  30.761  36.888  1.00  0.00     0.029 A 
ATOM     49  N   UNL A   1      41.218  31.120  35.170  1.00  0.00    -0.354 N 
ATOM     50  N   UNL A   1      39.098  32.556  33.702  1.00  0.00    -0.248 NA
ATOM     51  C   UNL A   1      37.529  34.283  33.593  1.00  0.00     0.031 C 
ATOM     52  C   UNL A   1      41.808  31.889  37.168  1.00  0.00     0.029 A 
ATOM     53  C   UNL A   1      40.976  32.127  36.086  1.00  0.00     0.049 A 
ATOM     54  H   UNL A   1      40.754  31.015  34.308  1.00  0.00     0.167 HD
ATOM     55  C   UNL A   1      39.205  33.344  34.843  1.00  0.00     0.074 A 
ATOM     56  C   UNL A   1      38.232  34.407  34.711  1.00  0.00     0.031 C 
ATOM     57  C   UNL A   1      40.033  33.201  35.906  1.00  0.00     0.037 A 
BRANCH  44  58
ATOM     58  C   UNL A   1      43.835  28.344  35.565  1.00  0.00     0.058 A 
ATOM     59  C   UNL A   1      43.553  27.266  36.420  1.00  0.00     0.135 A 
ATOM     60  C   UNL A   1      45.183  28.624  35.287  1.00  0.00     0.135 A 
ATOM     61  F   UNL A   1      42.282  26.970  36.735  1.00  0.00    -0.206 F 
ATOM     62  C   UNL A   1      44.567  26.509  36.994  1.00  0.00     0.059 A 
ATOM     63  C   UNL A   1      46.213  27.862  35.829  1.00  0.00     0.059 A 
ATOM     64  F   UNL A   1      45.508  29.646  34.480  1.00  0.00    -0.206 F 
ATOM     65  C   UNL A   1      45.894  26.813  36.690  1.00  0.00     0.060 A 
BRANCH  65  66
ATOM     66  S   UNL A   1      47.197  25.803  37.426  1.00  0.00     0.124 S 
ATOM     67  O   UNL A   1      47.056  26.133  38.841  1.00  0.00    -0.237 OA
ATOM     68  O   UNL A   1      46.797  24.452  37.047  1.00  0.00    -0.237 OA
ATOM     69  O   UNL A   1      48.412  26.297  36.785  1.00  0.00    -0.744 OA
ENDBRANCH  65  66
ENDBRANCH  44  58
BRANCH  45  70
ATOM     70  C   UNL A   1      36.515  33.417  30.980  1.00  0.00     0.058 A 
ATOM     71  C   UNL A   1      35.203  33.276  31.457  1.00  0.00     0.135 A 
ATOM     72  C   UNL A   1      36.719  34.248  29.868  1.00  0.00     0.135 A 
ATOM     73  F   UNL A   1      34.958  32.490  32.518  1.00  0.00    -0.206 F 
ATOM     74  C   UNL A   1      34.129  33.904  30.837  1.00  0.00     0.059 A 
ATOM     75  C   UNL A   1      35.664  34.907  29.244  1.00  0.00     0.059 A 
ATOM     76  F   UNL A   1      37.957  34.435  29.385  1.00  0.00    -0.206 F 
ATOM     77  C   UNL A   1      34.369  34.713  29.725  1.00  0.00     0.060 A 
BRANCH  77  78
ATOM     78  S   UNL A   1      32.970  35.534  28.929  1.00  0.00     0.124 S 
ATOM     79  O   UNL A   1      32.188  35.960  30.083  1.00  0.00    -0.237 OA
ATOM     80  O   UNL A   1      33.624  36.596  28.171  1.00  0.00    -0.237 OA
ATOM     81  O   UNL A   1      32.378  34.471  28.121  1.00  0.00    -0.744 OA
ENDBRANCH  77  78
ENDBRANCH  45  70
BRANCH  57  82
ATOM     82  C   UNL A   1      39.983  34.251  36.976  1.00  0.00     0.058 A 
ATOM     83  C   UNL A   1      40.669  35.467  36.850  1.00  0.00     0.135 A 
ATOM     84  C   UNL A   1      39.156  34.071  38.098  1.00  0.00     0.135 A 
ATOM     85  F   UNL A   1      41.475  35.683  35.798  1.00  0.00    -0.206 F 
ATOM     86  C   UNL A   1      40.542  36.470  37.805  1.00  0.00     0.059 A 
ATOM     87  C   UNL A   1      38.998  35.068  39.052  1.00  0.00     0.059 A 
ATOM     88  F   UNL A   1      38.473  32.926  38.256  1.00  0.00    -0.206 F 
ATOM     89  C   UNL A   1      39.699  36.264  38.899  1.00  0.00     0.060 A 
BRANCH  89  90
ATOM     90  S   UNL A   1      39.488  37.600  40.094  1.00  0.00     0.124 S 
ATOM     91  O   UNL A   1      40.816  38.203  40.098  1.00  0.00    -0.237 OA
ATOM     92  O   UNL A   1      38.430  38.400  39.486  1.00  0.00    -0.237 OA
ATOM     93  O   UNL A   1      39.110  36.903  41.320  1.00  0.00    -0.744 OA
ENDBRANCH  89  90
ENDBRANCH  57  82
ENDBRANCH  31  32
ENDBRANCH  23  26
ENDBRANCH  21  22
ENDBRANCH   1  21
TORSDOF 16
ENDMDL
