MODEL 1
REMARK VINA RESULT:     -11.5      0.000      0.000
REMARK SMILES Cc1ccc(Oc2ccc(NC(=O)CCCC(=O)NCCCNC(=O)c3ccc(-c4c5nc(c(-c6c(F)cc(S(=O)(=O)[O-])cc6F)c6ccc([nH]6)c(-c6c(F)cc(S(=O)(=O)[O-])cc6F)c6nc(c(-c7c(F)cc(S(=O)(=O)[O-])cc7F)c7ccc4[nH]7)C=C6)C=C5)cc3)cc2)cc1C
REMARK SMILES IDX 17 1 18 2 19 3 16 5 15 6 14 7 12 8 11 9 13 11 10 12 7 13
REMARK SMILES IDX 8 14 93 15 9 16 92 17 6 18 5 19 1 20 2 21 3 22 95 23 4 24
REMARK SMILES IDX 94 25 96 26 20 27 21 28 22 29 23 30 24 31 25 33 26 34 27 35
REMARK SMILES IDX 91 36 28 37 90 38 29 39 30 40 31 41 84 42 32 43 89 44 83 45
REMARK SMILES IDX 85 46 33 47 88 48 82 49 81 50 34 52 68 53 47 54 67 55 48 56
REMARK SMILES IDX 51 57 66 58 86 59 49 60 50 61 65 63 87 64 52 65 35 66 36 67
REMARK SMILES IDX 45 68 37 69 38 70 44 71 46 72 39 73 40 74 41 75 42 76 43 77
REMARK SMILES IDX 69 78 70 79 79 80 71 81 72 82 78 83 80 84 73 85 74 86 75 87
REMARK SMILES IDX 76 88 77 89 53 90 54 91 63 92 55 93 56 94 62 95 64 96 57 97
REMARK SMILES IDX 58 98 59 99 60 100 61 101
REMARK H PARENT 19 4 11 10 23 32 85 51 51 62
REMARK Flexibility Score: inf
ROOT
ATOM      1  C   UNL A   1      35.173  33.711  28.521  1.00  0.00     0.220 C 
ATOM      2  O   UNL A   1      34.270  34.504  28.214  1.00  0.00    -0.275 OA
ATOM      3  N   UNL A   1      36.370  34.294  28.746  1.00  0.00    -0.356 N 
ATOM      4  H   UNL A   1      36.330  35.261  28.561  1.00  0.00     0.163 HD
ENDROOT
BRANCH   1   5
ATOM      5  C   UNL A   1      34.798  32.242  28.717  1.00  0.00     0.100 C 
BRANCH   5   6
ATOM      6  C   UNL A   1      34.666  31.252  27.565  1.00  0.00     0.020 C 
BRANCH   6   7
ATOM      7  C   UNL A   1      33.462  30.332  27.402  1.00  0.00     0.101 C 
BRANCH   7   8
ATOM      8  C   UNL A   1      32.382  30.567  26.346  1.00  0.00     0.224 C 
ATOM      9  N   UNL A   1      32.094  29.851  25.231  1.00  0.00    -0.326 N 
ATOM     10  H   UNL A   1      31.385  30.296  24.713  1.00  0.00     0.169 HD
ATOM     11  O   UNL A   1      31.685  31.589  26.470  1.00  0.00    -0.275 OA
BRANCH   9  12
ATOM     12  C   UNL A   1      32.499  28.672  24.589  1.00  0.00     0.041 A 
ATOM     13  C   UNL A   1      33.561  26.334  23.420  1.00  0.00     0.127 A 
ATOM     14  C   UNL A   1      33.072  27.348  22.619  1.00  0.00     0.049 A 
ATOM     15  C   UNL A   1      33.485  26.449  24.805  1.00  0.00     0.049 A 
ATOM     16  C   UNL A   1      32.545  28.491  23.224  1.00  0.00     0.030 A 
ATOM     17  C   UNL A   1      32.937  27.606  25.385  1.00  0.00     0.030 A 
BRANCH  13  18
ATOM     18  O   UNL A   1      34.279  25.315  22.857  1.00  0.00    -0.457 OA
BRANCH  18  19
ATOM     19  C   UNL A   1      33.826  24.024  23.004  1.00  0.00     0.127 A 
ATOM     20  C   UNL A   1      32.432  20.133  24.227  1.00  0.00     0.044 C 
ATOM     21  C   UNL A   1      32.980  21.448  23.750  1.00  0.00    -0.048 A 
ATOM     22  C   UNL A   1      32.171  22.274  22.950  1.00  0.00     0.007 A 
ATOM     23  C   UNL A   1      34.261  21.896  24.124  1.00  0.00    -0.045 A 
ATOM     24  C   UNL A   1      32.589  23.555  22.577  1.00  0.00     0.047 A 
ATOM     25  C   UNL A   1      34.669  23.184  23.739  1.00  0.00     0.050 A 
ATOM     26  C   UNL A   1      35.236  21.047  24.892  1.00  0.00     0.045 C 
ENDBRANCH  18  19
ENDBRANCH  13  18
ENDBRANCH   9  12
ENDBRANCH   7   8
ENDBRANCH   6   7
ENDBRANCH   5   6
ENDBRANCH   1   5
BRANCH   3  27
ATOM     27  C   UNL A   1      37.702  33.905  29.187  1.00  0.00     0.117 C 
BRANCH  27  28
ATOM     28  C   UNL A   1      37.967  34.314  30.624  1.00  0.00     0.042 C 
BRANCH  28  29
ATOM     29  C   UNL A   1      38.240  33.104  31.490  1.00  0.00     0.118 C 
BRANCH  29  30
ATOM     30  N   UNL A   1      37.047  32.305  31.762  1.00  0.00    -0.352 N 
ATOM     31  C   UNL A   1      36.848  30.975  31.451  1.00  0.00     0.251 C 
ATOM     32  H   UNL A   1      36.305  32.765  32.215  1.00  0.00     0.163 HD
ATOM     33  O   UNL A   1      35.761  30.437  31.632  1.00  0.00    -0.269 OA
BRANCH  31  34
ATOM     34  C   UNL A   1      37.973  30.235  30.843  1.00  0.00     0.039 A 
ATOM     35  C   UNL A   1      38.202  30.334  29.471  1.00  0.00     0.014 A 
ATOM     36  C   UNL A   1      38.892  29.592  31.675  1.00  0.00     0.014 A 
ATOM     37  C   UNL A   1      39.410  29.868  28.946  1.00  0.00     0.010 A 
ATOM     38  C   UNL A   1      40.139  29.254  31.173  1.00  0.00     0.010 A 
ATOM     39  C   UNL A   1      40.411  29.378  29.801  1.00  0.00    -0.014 A 
BRANCH  39  40
ATOM     40  C   UNL A   1      41.747  28.961  29.298  1.00  0.00     0.031 A 
ATOM     41  C   UNL A   1      42.859  29.976  29.233  1.00  0.00     0.074 A 
ATOM     42  C   UNL A   1      41.936  27.716  28.815  1.00  0.00     0.049 A 
ATOM     43  N   UNL A   1      44.050  29.867  28.705  1.00  0.00    -0.248 NA
ATOM     44  C   UNL A   1      42.571  31.312  29.787  1.00  0.00     0.031 C 
ATOM     45  C   UNL A   1      40.918  26.663  28.747  1.00  0.00     0.029 A 
ATOM     46  N   UNL A   1      43.052  27.127  28.276  1.00  0.00    -0.354 N 
ATOM     47  C   UNL A   1      44.630  31.125  28.825  1.00  0.00     0.074 A 
ATOM     48  C   UNL A   1      43.638  31.998  29.409  1.00  0.00     0.031 C 
ATOM     49  C   UNL A   1      41.468  25.549  28.235  1.00  0.00     0.029 A 
ATOM     50  C   UNL A   1      42.863  25.816  27.903  1.00  0.00     0.049 A 
ATOM     51  H   UNL A   1      43.910  27.598  28.167  1.00  0.00     0.167 HD
ATOM     52  C   UNL A   1      45.890  31.512  28.516  1.00  0.00     0.037 A 
ATOM     53  C   UNL A   1      43.720  24.931  27.357  1.00  0.00     0.037 A 
ATOM     54  C   UNL A   1      46.895  30.619  28.008  1.00  0.00     0.049 A 
ATOM     55  C   UNL A   1      45.136  25.362  27.084  1.00  0.00     0.074 A 
ATOM     56  C   UNL A   1      48.226  30.884  27.743  1.00  0.00     0.029 A 
ATOM     57  N   UNL A   1      46.682  29.283  27.708  1.00  0.00    -0.354 N 
ATOM     58  N   UNL A   1      45.687  26.539  27.264  1.00  0.00    -0.248 NA
ATOM     59  C   UNL A   1      46.050  24.346  26.543  1.00  0.00     0.031 C 
ATOM     60  C   UNL A   1      48.814  29.710  27.258  1.00  0.00     0.029 A 
ATOM     61  C   UNL A   1      47.857  28.707  27.256  1.00  0.00     0.049 A 
ATOM     62  H   UNL A   1      45.823  28.812  27.802  1.00  0.00     0.167 HD
ATOM     63  C   UNL A   1      47.017  26.400  26.883  1.00  0.00     0.074 A 
ATOM     64  C   UNL A   1      47.190  25.020  26.474  1.00  0.00     0.031 C 
ATOM     65  C   UNL A   1      48.006  27.327  26.870  1.00  0.00     0.037 A 
BRANCH  52  66
ATOM     66  C   UNL A   1      46.249  32.953  28.749  1.00  0.00     0.058 A 
ATOM     67  C   UNL A   1      46.695  33.407  30.001  1.00  0.00     0.135 A 
ATOM     68  C   UNL A   1      46.151  33.893  27.710  1.00  0.00     0.135 A 
ATOM     69  F   UNL A   1      46.788  32.555  31.035  1.00  0.00    -0.206 F 
ATOM     70  C   UNL A   1      46.990  34.746  30.228  1.00  0.00     0.059 A 
ATOM     71  C   UNL A   1      46.472  35.233  27.907  1.00  0.00     0.059 A 
ATOM     72  F   UNL A   1      45.729  33.514  26.494  1.00  0.00    -0.206 F 
ATOM     73  C   UNL A   1      46.871  35.653  29.174  1.00  0.00     0.060 A 
BRANCH  73  74
ATOM     74  S   UNL A   1      47.254  37.389  29.486  1.00  0.00     0.124 S 
ATOM     75  O   UNL A   1      47.657  37.840  28.156  1.00  0.00    -0.237 OA
ATOM     76  O   UNL A   1      45.980  37.909  29.970  1.00  0.00    -0.237 OA
ATOM     77  O   UNL A   1      48.322  37.329  30.478  1.00  0.00    -0.744 OA
ENDBRANCH  73  74
ENDBRANCH  52  66
BRANCH  53  78
ATOM     78  C   UNL A   1      43.280  23.537  27.077  1.00  0.00     0.058 A 
ATOM     79  C   UNL A   1      42.998  23.124  25.767  1.00  0.00     0.135 A 
ATOM     80  C   UNL A   1      43.145  22.591  28.104  1.00  0.00     0.135 A 
ATOM     81  F   UNL A   1      43.108  23.994  24.752  1.00  0.00    -0.206 F 
ATOM     82  C   UNL A   1      42.581  21.827  25.483  1.00  0.00     0.059 A 
ATOM     83  C   UNL A   1      42.752  21.280  27.843  1.00  0.00     0.059 A 
ATOM     84  F   UNL A   1      43.421  22.930  29.372  1.00  0.00    -0.206 F 
ATOM     85  C   UNL A   1      42.461  20.911  26.529  1.00  0.00     0.060 A 
BRANCH  85  86
ATOM     86  S   UNL A   1      41.965  19.217  26.145  1.00  0.00     0.124 S 
ATOM     87  O   UNL A   1      42.325  18.520  27.374  1.00  0.00    -0.237 OA
ATOM     88  O   UNL A   1      40.535  19.366  25.889  1.00  0.00    -0.237 OA
ATOM     89  O   UNL A   1      42.772  18.890  24.973  1.00  0.00    -0.744 OA
ENDBRANCH  85  86
ENDBRANCH  53  78
BRANCH  65  90
ATOM     90  C   UNL A   1      49.370  26.877  26.435  1.00  0.00     0.058 A 
ATOM     91  C   UNL A   1      50.271  26.285  27.332  1.00  0.00     0.135 A 
ATOM     92  C   UNL A   1      49.754  26.980  25.087  1.00  0.00     0.135 A 
ATOM     93  F   UNL A   1      49.952  26.169  28.631  1.00  0.00    -0.206 F 
ATOM     94  C   UNL A   1      51.516  25.827  26.913  1.00  0.00     0.059 A 
ATOM     95  C   UNL A   1      50.983  26.507  24.642  1.00  0.00     0.059 A 
ATOM     96  F   UNL A   1      48.922  27.528  24.187  1.00  0.00    -0.206 F 
ATOM     97  C   UNL A   1      51.862  25.940  25.566  1.00  0.00     0.060 A 
BRANCH  97  98
ATOM     98  S   UNL A   1      53.462  25.305  25.025  1.00  0.00     0.124 S 
ATOM     99  O   UNL A   1      53.495  25.738  23.633  1.00  0.00    -0.237 OA
ATOM    100  O   UNL A   1      54.389  25.987  25.924  1.00  0.00    -0.237 OA
ATOM    101  O   UNL A   1      53.344  23.865  25.235  1.00  0.00    -0.744 OA
ENDBRANCH  97  98
ENDBRANCH  65  90
ENDBRANCH  39  40
ENDBRANCH  31  34
ENDBRANCH  29  30
ENDBRANCH  28  29
ENDBRANCH  27  28
ENDBRANCH   3  27
TORSDOF 19
ENDMDL
MODEL 2
REMARK VINA RESULT:     -11.2      5.909     13.814
REMARK SMILES Cc1ccc(Oc2ccc(NC(=O)CCCC(=O)NCCCNC(=O)c3ccc(-c4c5nc(c(-c6c(F)cc(S(=O)(=O)[O-])cc6F)c6ccc([nH]6)c(-c6c(F)cc(S(=O)(=O)[O-])cc6F)c6nc(c(-c7c(F)cc(S(=O)(=O)[O-])cc7F)c7ccc4[nH]7)C=C6)C=C5)cc3)cc2)cc1C
REMARK SMILES IDX 17 1 18 2 19 3 16 5 15 6 14 7 12 8 11 9 13 11 10 12 7 13
REMARK SMILES IDX 8 14 93 15 9 16 92 17 6 18 5 19 1 20 2 21 3 22 95 23 4 24
REMARK SMILES IDX 94 25 96 26 20 27 21 28 22 29 23 30 24 31 25 33 26 34 27 35
REMARK SMILES IDX 91 36 28 37 90 38 29 39 30 40 31 41 84 42 32 43 89 44 83 45
REMARK SMILES IDX 85 46 33 47 88 48 82 49 81 50 34 52 68 53 47 54 67 55 48 56
REMARK SMILES IDX 51 57 66 58 86 59 49 60 50 61 65 63 87 64 52 65 35 66 36 67
REMARK SMILES IDX 45 68 37 69 38 70 44 71 46 72 39 73 40 74 41 75 42 76 43 77
REMARK SMILES IDX 69 78 70 79 79 80 71 81 72 82 78 83 80 84 73 85 74 86 75 87
REMARK SMILES IDX 76 88 77 89 53 90 54 91 63 92 55 93 56 94 62 95 64 96 57 97
REMARK SMILES IDX 58 98 59 99 60 100 61 101
REMARK H PARENT 19 4 11 10 23 32 85 51 51 62
REMARK Flexibility Score: inf
ROOT
ATOM      1  C   UNL A   1      45.035  21.610  25.325  1.00  0.00     0.220 C 
ATOM      2  O   UNL A   1      46.122  21.018  25.397  1.00  0.00    -0.275 OA
ATOM      3  N   UNL A   1      44.016  20.971  25.940  1.00  0.00    -0.356 N 
ATOM      4  H   UNL A   1      44.308  20.099  26.291  1.00  0.00     0.163 HD
ENDROOT
BRANCH   1   5
ATOM      5  C   UNL A   1      45.015  22.994  24.678  1.00  0.00     0.100 C 
BRANCH   5   6
ATOM      6  C   UNL A   1      44.567  24.253  25.411  1.00  0.00     0.020 C 
BRANCH   6   7
ATOM      7  C   UNL A   1      45.213  25.615  25.183  1.00  0.00     0.101 C 
BRANCH   7   8
ATOM      8  C   UNL A   1      46.725  25.829  25.234  1.00  0.00     0.224 C 
ATOM      9  N   UNL A   1      47.468  26.537  26.120  1.00  0.00    -0.326 N 
ATOM     10  H   UNL A   1      48.413  26.544  25.845  1.00  0.00     0.169 HD
ATOM     11  O   UNL A   1      47.395  25.341  24.307  1.00  0.00    -0.275 OA
BRANCH   9  12
ATOM     12  C   UNL A   1      47.302  27.264  27.308  1.00  0.00     0.041 A 
ATOM     13  C   UNL A   1      46.692  28.709  29.653  1.00  0.00     0.127 A 
ATOM     14  C   UNL A   1      47.480  29.281  28.673  1.00  0.00     0.049 A 
ATOM     15  C   UNL A   1      46.240  27.401  29.501  1.00  0.00     0.049 A 
ATOM     16  C   UNL A   1      47.772  28.540  27.526  1.00  0.00     0.030 A 
ATOM     17  C   UNL A   1      46.562  26.676  28.341  1.00  0.00     0.030 A 
BRANCH  13  18
ATOM     18  O   UNL A   1      46.211  29.484  30.672  1.00  0.00    -0.457 OA
BRANCH  18  19
ATOM     19  C   UNL A   1      45.025  30.157  30.491  1.00  0.00     0.127 A 
ATOM     20  C   UNL A   1      41.728  32.903  30.076  1.00  0.00     0.044 C 
ATOM     21  C   UNL A   1      42.826  31.898  30.278  1.00  0.00    -0.048 A 
ATOM     22  C   UNL A   1      43.228  31.100  29.192  1.00  0.00     0.007 A 
ATOM     23  C   UNL A   1      43.496  31.768  31.510  1.00  0.00    -0.045 A 
ATOM     24  C   UNL A   1      44.320  30.234  29.295  1.00  0.00     0.047 A 
ATOM     25  C   UNL A   1      44.589  30.891  31.599  1.00  0.00     0.050 A 
ATOM     26  C   UNL A   1      43.075  32.502  32.753  1.00  0.00     0.045 C 
ENDBRANCH  18  19
ENDBRANCH  13  18
ENDBRANCH   9  12
ENDBRANCH   7   8
ENDBRANCH   6   7
ENDBRANCH   5   6
ENDBRANCH   1   5
BRANCH   3  27
ATOM     27  C   UNL A   1      42.609  21.205  26.235  1.00  0.00     0.117 C 
BRANCH  27  28
ATOM     28  C   UNL A   1      42.418  21.917  27.562  1.00  0.00     0.042 C 
BRANCH  28  29
ATOM     29  C   UNL A   1      41.252  22.878  27.497  1.00  0.00     0.118 C 
BRANCH  29  30
ATOM     30  N   UNL A   1      41.267  23.729  26.309  1.00  0.00    -0.352 N 
ATOM     31  C   UNL A   1      41.231  25.109  26.274  1.00  0.00     0.251 C 
ATOM     32  H   UNL A   1      41.307  23.269  25.440  1.00  0.00     0.163 HD
ATOM     33  O   UNL A   1      41.140  25.713  25.210  1.00  0.00    -0.269 OA
BRANCH  31  34
ATOM     34  C   UNL A   1      41.252  25.831  27.562  1.00  0.00     0.039 A 
ATOM     35  C   UNL A   1      42.350  26.628  27.888  1.00  0.00     0.014 A 
ATOM     36  C   UNL A   1      40.100  25.845  28.351  1.00  0.00     0.014 A 
ATOM     37  C   UNL A   1      42.251  27.517  28.960  1.00  0.00     0.010 A 
ATOM     38  C   UNL A   1      39.960  26.821  29.327  1.00  0.00     0.010 A 
ATOM     39  C   UNL A   1      41.036  27.662  29.651  1.00  0.00    -0.014 A 
BRANCH  39  40
ATOM     40  C   UNL A   1      40.857  28.663  30.735  1.00  0.00     0.031 A 
ATOM     41  C   UNL A   1      41.713  28.571  31.972  1.00  0.00     0.074 A 
ATOM     42  C   UNL A   1      39.874  29.584  30.658  1.00  0.00     0.049 A 
ATOM     43  N   UNL A   1      41.633  29.247  33.088  1.00  0.00    -0.248 NA
ATOM     44  C   UNL A   1      42.767  27.540  31.974  1.00  0.00     0.031 C 
ATOM     45  C   UNL A   1      38.925  29.728  29.551  1.00  0.00     0.029 A 
ATOM     46  N   UNL A   1      39.502  30.570  31.537  1.00  0.00    -0.354 N 
ATOM     47  C   UNL A   1      42.589  28.695  33.932  1.00  0.00     0.074 A 
ATOM     48  C   UNL A   1      43.189  27.585  33.228  1.00  0.00     0.031 C 
ATOM     49  C   UNL A   1      38.108  30.765  29.800  1.00  0.00     0.029 A 
ATOM     50  C   UNL A   1      38.447  31.337  31.099  1.00  0.00     0.049 A 
ATOM     51  H   UNL A   1      39.950  30.716  32.402  1.00  0.00     0.167 HD
ATOM     52  C   UNL A   1      42.967  29.100  35.167  1.00  0.00     0.037 A 
ATOM     53  C   UNL A   1      37.827  32.382  31.680  1.00  0.00     0.037 A 
ATOM     54  C   UNL A   1      42.421  30.253  35.829  1.00  0.00     0.049 A 
ATOM     55  C   UNL A   1      38.308  32.860  33.024  1.00  0.00     0.074 A 
ATOM     56  C   UNL A   1      42.790  30.804  37.042  1.00  0.00     0.029 A 
ATOM     57  N   UNL A   1      41.400  31.042  35.322  1.00  0.00    -0.354 N 
ATOM     58  N   UNL A   1      39.259  32.365  33.781  1.00  0.00    -0.248 NA
ATOM     59  C   UNL A   1      37.640  34.039  33.590  1.00  0.00     0.031 C 
ATOM     60  C   UNL A   1      41.975  31.916  37.280  1.00  0.00     0.029 A 
ATOM     61  C   UNL A   1      41.123  32.076  36.199  1.00  0.00     0.049 A 
ATOM     62  H   UNL A   1      40.941  30.890  34.464  1.00  0.00     0.167 HD
ATOM     63  C   UNL A   1      39.320  33.187  34.900  1.00  0.00     0.074 A 
ATOM     64  C   UNL A   1      38.318  34.218  34.715  1.00  0.00     0.031 C 
ATOM     65  C   UNL A   1      40.131  33.099  35.984  1.00  0.00     0.037 A 
BRANCH  52  66
ATOM     66  C   UNL A   1      44.039  28.305  35.860  1.00  0.00     0.058 A 
ATOM     67  C   UNL A   1      45.402  28.572  35.654  1.00  0.00     0.135 A 
ATOM     68  C   UNL A   1      43.703  27.266  36.742  1.00  0.00     0.135 A 
ATOM     69  F   UNL A   1      45.780  29.542  34.804  1.00  0.00    -0.206 F 
ATOM     70  C   UNL A   1      46.394  27.812  36.263  1.00  0.00     0.059 A 
ATOM     71  C   UNL A   1      44.679  26.512  37.388  1.00  0.00     0.059 A 
ATOM     72  F   UNL A   1      42.415  26.966  36.974  1.00  0.00    -0.206 F 
ATOM     73  C   UNL A   1      46.022  26.781  37.126  1.00  0.00     0.060 A 
BRANCH  73  74
ATOM     74  S   UNL A   1      47.321  25.800  37.906  1.00  0.00     0.124 S 
ATOM     75  O   UNL A   1      48.516  26.340  37.265  1.00  0.00    -0.237 OA
ATOM     76  O   UNL A   1      47.157  26.129  39.318  1.00  0.00    -0.237 OA
ATOM     77  O   UNL A   1      46.977  24.430  37.540  1.00  0.00    -0.744 OA
ENDBRANCH  73  74
ENDBRANCH  52  66
BRANCH  53  78
ATOM     78  C   UNL A   1      36.718  33.080  30.975  1.00  0.00     0.058 A 
ATOM     79  C   UNL A   1      35.389  32.927  31.398  1.00  0.00     0.135 A 
ATOM     80  C   UNL A   1      36.960  33.921  29.877  1.00  0.00     0.135 A 
ATOM     81  F   UNL A   1      35.107  32.130  32.440  1.00  0.00    -0.206 F 
ATOM     82  C   UNL A   1      34.337  33.567  30.751  1.00  0.00     0.059 A 
ATOM     83  C   UNL A   1      35.926  34.590  29.227  1.00  0.00     0.059 A 
ATOM     84  F   UNL A   1      38.215  34.116  29.444  1.00  0.00    -0.206 F 
ATOM     85  C   UNL A   1      34.616  34.398  29.666  1.00  0.00     0.060 A 
BRANCH  85  86
ATOM     86  S   UNL A   1      33.248  35.262  28.861  1.00  0.00     0.124 S 
ATOM     87  O   UNL A   1      33.954  36.287  28.102  1.00  0.00    -0.237 OA
ATOM     88  O   UNL A   1      32.630  34.196  28.077  1.00  0.00    -0.237 OA
ATOM     89  O   UNL A   1      32.450  35.744  29.986  1.00  0.00    -0.744 OA
ENDBRANCH  85  86
ENDBRANCH  53  78
BRANCH  65  90
ATOM     90  C   UNL A   1      39.995  34.160  37.036  1.00  0.00     0.058 A 
ATOM     91  C   UNL A   1      40.613  35.412  36.903  1.00  0.00     0.135 A 
ATOM     92  C   UNL A   1      39.183  33.942  38.162  1.00  0.00     0.135 A 
ATOM     93  F   UNL A   1      41.403  35.667  35.848  1.00  0.00    -0.206 F 
ATOM     94  C   UNL A   1      40.445  36.408  37.859  1.00  0.00     0.059 A 
ATOM     95  C   UNL A   1      38.982  34.932  39.116  1.00  0.00     0.059 A 
ATOM     96  F   UNL A   1      38.561  32.764  38.328  1.00  0.00    -0.206 F 
ATOM     97  C   UNL A   1      39.626  36.159  38.961  1.00  0.00     0.060 A 
BRANCH  97  98
ATOM     98  S   UNL A   1      39.382  37.473  40.174  1.00  0.00     0.124 S 
ATOM     99  O   UNL A   1      38.463  38.358  39.468  1.00  0.00    -0.237 OA
ATOM    100  O   UNL A   1      38.818  36.749  41.311  1.00  0.00    -0.237 OA
ATOM    101  O   UNL A   1      40.729  37.998  40.382  1.00  0.00    -0.744 OA
ENDBRANCH  97  98
ENDBRANCH  65  90
ENDBRANCH  39  40
ENDBRANCH  31  34
ENDBRANCH  29  30
ENDBRANCH  28  29
ENDBRANCH  27  28
ENDBRANCH   3  27
TORSDOF 19
ENDMDL
MODEL 3
REMARK VINA RESULT:     -11.2      0.941      2.050
REMARK SMILES Cc1ccc(Oc2ccc(NC(=O)CCCC(=O)NCCCNC(=O)c3ccc(-c4c5nc(c(-c6c(F)cc(S(=O)(=O)[O-])cc6F)c6ccc([nH]6)c(-c6c(F)cc(S(=O)(=O)[O-])cc6F)c6nc(c(-c7c(F)cc(S(=O)(=O)[O-])cc7F)c7ccc4[nH]7)C=C6)C=C5)cc3)cc2)cc1C
REMARK SMILES IDX 17 1 18 2 19 3 16 5 15 6 14 7 12 8 11 9 13 11 10 12 7 13
REMARK SMILES IDX 8 14 93 15 9 16 92 17 6 18 5 19 1 20 2 21 3 22 95 23 4 24
REMARK SMILES IDX 94 25 96 26 20 27 21 28 22 29 23 30 24 31 25 33 26 34 27 35
REMARK SMILES IDX 91 36 28 37 90 38 29 39 30 40 31 41 84 42 32 43 89 44 83 45
REMARK SMILES IDX 85 46 33 47 88 48 82 49 81 50 34 52 68 53 47 54 67 55 48 56
REMARK SMILES IDX 51 57 66 58 86 59 49 60 50 61 65 63 87 64 52 65 35 66 36 67
REMARK SMILES IDX 45 68 37 69 38 70 44 71 46 72 39 73 40 74 41 75 42 76 43 77
REMARK SMILES IDX 69 78 70 79 79 80 71 81 72 82 78 83 80 84 73 85 74 86 75 87
REMARK SMILES IDX 76 88 77 89 53 90 54 91 63 92 55 93 56 94 62 95 64 96 57 97
REMARK SMILES IDX 58 98 59 99 60 100 61 101
REMARK H PARENT 19 4 11 10 23 32 85 51 51 62
REMARK Flexibility Score: inf
ROOT
ATOM      1  C   UNL A   1      34.368  34.545  28.589  1.00  0.00     0.220 C 
ATOM      2  O   UNL A   1      34.393  35.615  27.962  1.00  0.00    -0.275 OA
ATOM      3  N   UNL A   1      35.018  34.582  29.773  1.00  0.00    -0.356 N 
ATOM      4  H   UNL A   1      35.462  35.451  29.903  1.00  0.00     0.163 HD
ENDROOT
BRANCH   1   5
ATOM      5  C   UNL A   1      33.531  33.401  28.019  1.00  0.00     0.100 C 
BRANCH   5   6
ATOM      6  C   UNL A   1      34.102  32.023  27.703  1.00  0.00     0.020 C 
BRANCH   6   7
ATOM      7  C   UNL A   1      33.226  30.827  27.352  1.00  0.00     0.101 C 
BRANCH   7   8
ATOM      8  C   UNL A   1      32.072  30.915  26.354  1.00  0.00     0.224 C 
ATOM      9  N   UNL A   1      31.782  30.117  25.296  1.00  0.00    -0.326 N 
ATOM     10  H   UNL A   1      31.010  30.474  24.801  1.00  0.00     0.169 HD
ATOM     11  O   UNL A   1      31.299  31.883  26.469  1.00  0.00    -0.275 OA
BRANCH   9  12
ATOM     12  C   UNL A   1      32.247  28.940  24.691  1.00  0.00     0.041 A 
ATOM     13  C   UNL A   1      33.102  26.683  23.232  1.00  0.00     0.127 A 
ATOM     14  C   UNL A   1      32.157  26.544  24.230  1.00  0.00     0.049 A 
ATOM     15  C   UNL A   1      33.666  27.931  22.981  1.00  0.00     0.049 A 
ATOM     16  C   UNL A   1      31.758  27.677  24.942  1.00  0.00     0.030 A 
ATOM     17  C   UNL A   1      33.253  29.050  23.723  1.00  0.00     0.030 A 
BRANCH  13  18
ATOM     18  O   UNL A   1      33.344  25.641  22.379  1.00  0.00    -0.457 OA
BRANCH  18  19
ATOM     19  C   UNL A   1      33.657  24.410  22.906  1.00  0.00     0.127 A 
ATOM     20  C   UNL A   1      34.514  20.894  25.249  1.00  0.00     0.044 C 
ATOM     21  C   UNL A   1      34.294  22.108  24.390  1.00  0.00    -0.048 A 
ATOM     22  C   UNL A   1      33.239  22.103  23.460  1.00  0.00     0.007 A 
ATOM     23  C   UNL A   1      35.084  23.265  24.527  1.00  0.00    -0.045 A 
ATOM     24  C   UNL A   1      32.921  23.246  22.722  1.00  0.00     0.047 A 
ATOM     25  C   UNL A   1      34.754  24.404  23.775  1.00  0.00     0.050 A 
ATOM     26  C   UNL A   1      36.293  23.332  25.419  1.00  0.00     0.045 C 
ENDBRANCH  18  19
ENDBRANCH  13  18
ENDBRANCH   9  12
ENDBRANCH   7   8
ENDBRANCH   6   7
ENDBRANCH   5   6
ENDBRANCH   1   5
BRANCH   3  27
ATOM     27  C   UNL A   1      35.249  33.705  30.912  1.00  0.00     0.117 C 
BRANCH  27  28
ATOM     28  C   UNL A   1      36.662  33.151  30.925  1.00  0.00     0.042 C 
BRANCH  28  29
ATOM     29  C   UNL A   1      36.695  31.764  31.527  1.00  0.00     0.118 C 
BRANCH  29  30
ATOM     30  N   UNL A   1      35.901  30.790  30.781  1.00  0.00    -0.352 N 
ATOM     31  C   UNL A   1      36.358  29.891  29.838  1.00  0.00     0.251 C 
ATOM     32  H   UNL A   1      34.935  30.774  30.970  1.00  0.00     0.163 HD
ATOM     33  O   UNL A   1      35.579  29.194  29.197  1.00  0.00    -0.269 OA
BRANCH  31  34
ATOM     34  C   UNL A   1      37.814  29.836  29.590  1.00  0.00     0.039 A 
ATOM     35  C   UNL A   1      38.669  29.401  30.602  1.00  0.00     0.014 A 
ATOM     36  C   UNL A   1      38.290  30.049  28.295  1.00  0.00     0.014 A 
ATOM     37  C   UNL A   1      39.993  29.086  30.286  1.00  0.00     0.010 A 
ATOM     38  C   UNL A   1      39.563  29.610  27.961  1.00  0.00     0.010 A 
ATOM     39  C   UNL A   1      40.434  29.133  28.953  1.00  0.00    -0.014 A 
BRANCH  39  40
ATOM     40  C   UNL A   1      41.805  28.715  28.557  1.00  0.00     0.031 A 
ATOM     41  C   UNL A   1      42.901  29.749  28.498  1.00  0.00     0.074 A 
ATOM     42  C   UNL A   1      42.045  27.449  28.163  1.00  0.00     0.049 A 
ATOM     43  N   UNL A   1      44.124  29.634  28.050  1.00  0.00    -0.248 NA
ATOM     44  C   UNL A   1      42.556  31.108  28.951  1.00  0.00     0.031 C 
ATOM     45  C   UNL A   1      41.052  26.372  28.098  1.00  0.00     0.029 A 
ATOM     46  N   UNL A   1      43.202  26.852  27.728  1.00  0.00    -0.354 N 
ATOM     47  C   UNL A   1      44.673  30.909  28.127  1.00  0.00     0.074 A 
ATOM     48  C   UNL A   1      43.632  31.794  28.597  1.00  0.00     0.031 C 
ATOM     49  C   UNL A   1      41.651  25.242  27.688  1.00  0.00     0.029 A 
ATOM     50  C   UNL A   1      43.059  25.518  27.425  1.00  0.00     0.049 A 
ATOM     51  H   UNL A   1      44.056  27.334  27.643  1.00  0.00     0.167 HD
ATOM     52  C   UNL A   1      45.942  31.303  27.872  1.00  0.00     0.037 A 
ATOM     53  C   UNL A   1      43.964  24.620  26.985  1.00  0.00     0.037 A 
ATOM     54  C   UNL A   1      46.992  30.403  27.480  1.00  0.00     0.049 A 
ATOM     55  C   UNL A   1      45.386  25.064  26.772  1.00  0.00     0.074 A 
ATOM     56  C   UNL A   1      48.332  30.680  27.280  1.00  0.00     0.029 A 
ATOM     57  N   UNL A   1      46.821  29.047  27.249  1.00  0.00    -0.354 N 
ATOM     58  N   UNL A   1      45.904  26.262  26.913  1.00  0.00    -0.248 NA
ATOM     59  C   UNL A   1      46.349  24.038  26.350  1.00  0.00     0.031 C 
ATOM     60  C   UNL A   1      48.969  29.492  26.903  1.00  0.00     0.029 A 
ATOM     61  C   UNL A   1      48.031  28.471  26.904  1.00  0.00     0.049 A 
ATOM     62  H   UNL A   1      45.966  28.565  27.320  1.00  0.00     0.167 HD
ATOM     63  C   UNL A   1      47.257  26.128  26.621  1.00  0.00     0.074 A 
ATOM     64  C   UNL A   1      47.479  24.730  26.308  1.00  0.00     0.031 C 
ATOM     65  C   UNL A   1      48.229  27.073  26.612  1.00  0.00     0.037 A 
BRANCH  52  66
ATOM     66  C   UNL A   1      46.261  32.763  28.038  1.00  0.00     0.058 A 
ATOM     67  C   UNL A   1      46.109  33.674  26.980  1.00  0.00     0.135 A 
ATOM     68  C   UNL A   1      46.723  33.260  29.267  1.00  0.00     0.135 A 
ATOM     69  F   UNL A   1      45.691  33.249  25.777  1.00  0.00    -0.206 F 
ATOM     70  C   UNL A   1      46.442  35.016  27.121  1.00  0.00     0.059 A 
ATOM     71  C   UNL A   1      47.032  34.606  29.440  1.00  0.00     0.059 A 
ATOM     72  F   UNL A   1      46.888  32.433  30.312  1.00  0.00    -0.206 F 
ATOM     73  C   UNL A   1      46.906  35.472  28.355  1.00  0.00     0.060 A 
BRANCH  73  74
ATOM     74  S   UNL A   1      47.338  37.217  28.522  1.00  0.00     0.124 S 
ATOM     75  O   UNL A   1      47.200  37.413  29.962  1.00  0.00    -0.237 OA
ATOM     76  O   UNL A   1      48.702  37.253  28.007  1.00  0.00    -0.237 OA
ATOM     77  O   UNL A   1      46.341  37.893  27.698  1.00  0.00    -0.744 OA
ENDBRANCH  73  74
ENDBRANCH  52  66
BRANCH  53  78
ATOM     78  C   UNL A   1      43.566  23.203  26.764  1.00  0.00     0.058 A 
ATOM     79  C   UNL A   1      43.202  22.384  27.843  1.00  0.00     0.135 A 
ATOM     80  C   UNL A   1      43.529  22.644  25.478  1.00  0.00     0.135 A 
ATOM     81  F   UNL A   1      43.226  22.872  29.092  1.00  0.00    -0.206 F 
ATOM     82  C   UNL A   1      42.831  21.056  27.659  1.00  0.00     0.059 A 
ATOM     83  C   UNL A   1      43.139  21.324  25.266  1.00  0.00     0.059 A 
ATOM     84  F   UNL A   1      43.850  23.391  24.410  1.00  0.00    -0.206 F 
ATOM     85  C   UNL A   1      42.802  20.534  26.366  1.00  0.00     0.060 A 
BRANCH  85  86
ATOM     86  S   UNL A   1      42.273  18.822  26.133  1.00  0.00     0.124 S 
ATOM     87  O   UNL A   1      43.094  18.413  25.000  1.00  0.00    -0.237 OA
ATOM     88  O   UNL A   1      42.610  18.219  27.419  1.00  0.00    -0.237 OA
ATOM     89  O   UNL A   1      40.843  18.948  25.865  1.00  0.00    -0.744 OA
ENDBRANCH  85  86
ENDBRANCH  53  78
BRANCH  65  90
ATOM     90  C   UNL A   1      49.624  26.627  26.288  1.00  0.00     0.058 A 
ATOM     91  C   UNL A   1      50.135  26.699  24.984  1.00  0.00     0.135 A 
ATOM     92  C   UNL A   1      50.482  26.182  27.308  1.00  0.00     0.135 A 
ATOM     93  F   UNL A   1      49.353  27.112  23.974  1.00  0.00    -0.206 F 
ATOM     94  C   UNL A   1      51.444  26.328  24.697  1.00  0.00     0.059 A 
ATOM     95  C   UNL A   1      51.801  25.831  27.048  1.00  0.00     0.059 A 
ATOM     96  F   UNL A   1      50.043  26.107  28.575  1.00  0.00    -0.206 F 
ATOM     97  C   UNL A   1      52.270  25.897  25.736  1.00  0.00     0.060 A 
BRANCH  97  98
ATOM     98  S   UNL A   1      53.980  25.458  25.360  1.00  0.00     0.124 S 
ATOM     99  O   UNL A   1      54.716  26.385  26.213  1.00  0.00    -0.237 OA
ATOM    100  O   UNL A   1      54.036  24.053  25.753  1.00  0.00    -0.237 OA
ATOM    101  O   UNL A   1      54.085  25.704  23.925  1.00  0.00    -0.744 OA
ENDBRANCH  97  98
ENDBRANCH  65  90
ENDBRANCH  39  40
ENDBRANCH  31  34
ENDBRANCH  29  30
ENDBRANCH  28  29
ENDBRANCH  27  28
ENDBRANCH   3  27
TORSDOF 19
ENDMDL
