MODEL 1
REMARK VINA RESULT:     -10.7      0.000      0.000
REMARK SMILES CC(C)c1nc(C(=O)NCCCNC(=O)c2ccc(-c3c4nc(c(-c5c(F)cc(S(=O)(=O)[O-])cc5F)c5ccc([nH]5)c(-c5c(F)cc(S(=O)(=O)[O-])cc5F)c5nc(c(-c6c(F)cc(S(=O)(=O)[O-])cc6F)c6ccc3[nH]6)C=C5)C=C4)cc2)nn1-c1ccccc1F
REMARK SMILES IDX 12 1 11 2 10 3 9 4 7 5 8 6 6 8 4 9 5 10 83 11 82 12 2 13
REMARK SMILES IDX 1 14 3 15 84 16 85 17 89 18 86 19 88 20 90 21 87 22 13 23
REMARK SMILES IDX 14 24 15 26 16 27 17 28 81 29 18 30 80 31 19 32 20 33 21 34
REMARK SMILES IDX 74 35 22 36 79 37 73 38 75 39 23 40 78 41 72 42 71 43 24 45
REMARK SMILES IDX 58 46 37 47 57 48 38 49 41 50 56 51 76 52 39 53 40 54 55 56
REMARK SMILES IDX 77 57 42 58 25 59 26 60 35 61 27 62 28 63 34 64 36 65 29 66
REMARK SMILES IDX 30 67 31 68 32 69 33 70 59 71 60 72 69 73 61 74 62 75 68 76
REMARK SMILES IDX 70 77 63 78 64 79 65 80 66 81 67 82 43 83 44 84 53 85 45 86
REMARK SMILES IDX 46 87 52 88 54 89 47 90 48 91 49 92 50 93 51 94
REMARK H PARENT 9 7 13 25 75 44 41 55
REMARK Flexibility Score: inf
ROOT
ATOM      1  C   UNL A   1      42.757  22.425  25.246  1.00  0.00     0.118 C 
ENDROOT
BRANCH   1   2
ATOM      2  C   UNL A   1      43.839  21.476  25.747  1.00  0.00     0.042 C 
BRANCH   2   3
ATOM      3  C   UNL A   1      45.095  22.241  26.176  1.00  0.00     0.118 C 
BRANCH   3   4
ATOM      4  N   UNL A   1      45.877  22.728  25.046  1.00  0.00    -0.349 N 
ATOM      5  C   UNL A   1      46.595  23.902  24.870  1.00  0.00     0.290 C 
ATOM      6  O   UNL A   1      47.160  24.053  23.785  1.00  0.00    -0.266 OA
ATOM      7  H   UNL A   1      45.901  22.119  24.273  1.00  0.00     0.163 HD
BRANCH   5   8
ATOM      8  C   UNL A   1      46.654  24.925  25.940  1.00  0.00     0.239 A 
ATOM      9  C   UNL A   1      46.527  26.822  26.932  1.00  0.00     0.136 A 
ATOM     10  N   UNL A   1      46.433  26.274  25.730  1.00  0.00    -0.207 NA
ATOM     11  N   UNL A   1      46.646  25.794  27.850  1.00  0.00    -0.214 N 
ATOM     12  N   UNL A   1      46.988  24.661  27.211  1.00  0.00    -0.140 NA
BRANCH   9  13
ATOM     13  C   UNL A   1      46.808  28.289  27.152  1.00  0.00     0.051 C 
ATOM     14  C   UNL A   1      48.175  28.671  27.703  1.00  0.00     0.016 C 
ATOM     15  C   UNL A   1      46.567  29.053  25.842  1.00  0.00     0.016 C 
ENDBRANCH   9  13
BRANCH  11  16
ATOM     16  C   UNL A   1      46.414  25.714  29.232  1.00  0.00     0.102 A 
ATOM     17  C   UNL A   1      45.096  25.658  29.703  1.00  0.00     0.031 A 
ATOM     18  C   UNL A   1      47.468  25.849  30.130  1.00  0.00     0.148 A 
ATOM     19  C   UNL A   1      44.856  25.632  31.077  1.00  0.00     0.002 A 
ATOM     20  C   UNL A   1      47.229  25.831  31.499  1.00  0.00     0.041 A 
ATOM     21  F   UNL A   1      48.715  26.087  29.700  1.00  0.00    -0.205 F 
ATOM     22  C   UNL A   1      45.923  25.705  31.974  1.00  0.00     0.003 A 
ENDBRANCH  11  16
ENDBRANCH   5   8
ENDBRANCH   3   4
ENDBRANCH   2   3
ENDBRANCH   1   2
BRANCH   1  23
ATOM     23  N   UNL A   1      41.412  21.990  25.632  1.00  0.00    -0.352 N 
ATOM     24  C   UNL A   1      40.537  22.575  26.530  1.00  0.00     0.251 C 
ATOM     25  H   UNL A   1      41.087  21.171  25.193  1.00  0.00     0.163 HD
ATOM     26  O   UNL A   1      39.585  21.945  26.960  1.00  0.00    -0.269 OA
BRANCH  24  27
ATOM     27  C   UNL A   1      40.797  23.957  26.980  1.00  0.00     0.039 A 
ATOM     28  C   UNL A   1      39.986  25.007  26.542  1.00  0.00     0.014 A 
ATOM     29  C   UNL A   1      41.831  24.191  27.881  1.00  0.00     0.014 A 
ATOM     30  C   UNL A   1      40.161  26.270  27.105  1.00  0.00     0.010 A 
ATOM     31  C   UNL A   1      41.910  25.400  28.537  1.00  0.00     0.010 A 
ATOM     32  C   UNL A   1      41.099  26.456  28.136  1.00  0.00    -0.014 A 
BRANCH  32  33
ATOM     33  C   UNL A   1      41.138  27.723  28.870  1.00  0.00     0.031 A 
ATOM     34  C   UNL A   1      42.178  28.687  28.403  1.00  0.00     0.074 A 
ATOM     35  C   UNL A   1      40.214  28.118  29.772  1.00  0.00     0.049 A 
ATOM     36  N   UNL A   1      43.245  29.061  29.027  1.00  0.00    -0.248 NA
ATOM     37  C   UNL A   1      42.087  29.200  27.026  1.00  0.00     0.031 C 
ATOM     38  C   UNL A   1      38.951  27.467  30.139  1.00  0.00     0.029 A 
ATOM     39  N   UNL A   1      40.173  29.271  30.496  1.00  0.00    -0.354 N 
ATOM     40  C   UNL A   1      43.854  30.019  28.219  1.00  0.00     0.074 A 
ATOM     41  C   UNL A   1      43.196  29.937  26.941  1.00  0.00     0.031 C 
ATOM     42  C   UNL A   1      38.176  28.335  30.826  1.00  0.00     0.029 A 
ATOM     43  C   UNL A   1      38.952  29.526  31.108  1.00  0.00     0.049 A 
ATOM     44  H   UNL A   1      40.947  29.875  30.578  1.00  0.00     0.167 HD
ATOM     45  C   UNL A   1      44.708  30.948  28.737  1.00  0.00     0.037 A 
ATOM     46  C   UNL A   1      38.598  30.642  31.794  1.00  0.00     0.037 A 
ATOM     47  C   UNL A   1      45.136  30.578  30.063  1.00  0.00     0.049 A 
ATOM     48  C   UNL A   1      39.856  31.300  32.228  1.00  0.00     0.074 A 
ATOM     49  C   UNL A   1      45.802  29.496  30.606  1.00  0.00     0.029 A 
ATOM     50  N   UNL A   1      44.545  31.220  31.125  1.00  0.00    -0.354 N 
ATOM     51  N   UNL A   1      40.684  30.789  33.097  1.00  0.00    -0.248 NA
ATOM     52  C   UNL A   1      40.412  32.335  31.372  1.00  0.00     0.031 C 
ATOM     53  C   UNL A   1      45.171  29.269  31.864  1.00  0.00     0.029 A 
ATOM     54  C   UNL A   1      44.207  30.262  32.045  1.00  0.00     0.049 A 
ATOM     55  H   UNL A   1      44.393  32.189  31.208  1.00  0.00     0.167 HD
ATOM     56  C   UNL A   1      41.944  31.113  32.618  1.00  0.00     0.074 A 
ATOM     57  C   UNL A   1      41.712  32.151  31.617  1.00  0.00     0.031 C 
ATOM     58  C   UNL A   1      43.027  30.321  32.880  1.00  0.00     0.037 A 
BRANCH  45  59
ATOM     59  C   UNL A   1      44.889  32.354  28.209  1.00  0.00     0.058 A 
ATOM     60  C   UNL A   1      46.159  32.763  27.747  1.00  0.00     0.135 A 
ATOM     61  C   UNL A   1      43.952  33.393  28.402  1.00  0.00     0.135 A 
ATOM     62  F   UNL A   1      47.131  31.863  27.531  1.00  0.00    -0.206 F 
ATOM     63  C   UNL A   1      46.497  34.106  27.569  1.00  0.00     0.059 A 
ATOM     64  C   UNL A   1      44.251  34.733  28.178  1.00  0.00     0.059 A 
ATOM     65  F   UNL A   1      42.734  33.171  28.909  1.00  0.00    -0.206 F 
ATOM     66  C   UNL A   1      45.538  35.085  27.805  1.00  0.00     0.060 A 
BRANCH  66  67
ATOM     67  S   UNL A   1      45.998  36.822  27.681  1.00  0.00     0.124 S 
ATOM     68  O   UNL A   1      44.791  37.402  27.106  1.00  0.00    -0.237 OA
ATOM     69  O   UNL A   1      46.274  37.163  29.073  1.00  0.00    -0.237 OA
ATOM     70  O   UNL A   1      47.168  36.796  26.807  1.00  0.00    -0.744 OA
ENDBRANCH  66  67
ENDBRANCH  45  59
BRANCH  46  71
ATOM     71  C   UNL A   1      37.280  31.328  31.842  1.00  0.00     0.058 A 
ATOM     72  C   UNL A   1      36.729  31.747  33.067  1.00  0.00     0.135 A 
ATOM     73  C   UNL A   1      36.681  31.851  30.679  1.00  0.00     0.135 A 
ATOM     74  F   UNL A   1      37.244  31.308  34.225  1.00  0.00    -0.206 F 
ATOM     75  C   UNL A   1      35.694  32.685  33.135  1.00  0.00     0.059 A 
ATOM     76  C   UNL A   1      35.642  32.780  30.722  1.00  0.00     0.059 A 
ATOM     77  F   UNL A   1      37.158  31.549  29.461  1.00  0.00    -0.206 F 
ATOM     78  C   UNL A   1      35.174  33.216  31.957  1.00  0.00     0.060 A 
BRANCH  78  79
ATOM     79  S   UNL A   1      33.983  34.575  32.047  1.00  0.00     0.124 S 
ATOM     80  O   UNL A   1      32.974  34.031  32.950  1.00  0.00    -0.237 OA
ATOM     81  O   UNL A   1      34.796  35.662  32.583  1.00  0.00    -0.237 OA
ATOM     82  O   UNL A   1      33.556  34.745  30.662  1.00  0.00    -0.744 OA
ENDBRANCH  78  79
ENDBRANCH  46  71
BRANCH  58  83
ATOM     83  C   UNL A   1      42.915  29.283  33.966  1.00  0.00     0.058 A 
ATOM     84  C   UNL A   1      43.085  29.532  35.340  1.00  0.00     0.135 A 
ATOM     85  C   UNL A   1      42.461  28.005  33.602  1.00  0.00     0.135 A 
ATOM     86  F   UNL A   1      43.420  30.751  35.786  1.00  0.00    -0.206 F 
ATOM     87  C   UNL A   1      42.849  28.545  36.302  1.00  0.00     0.059 A 
ATOM     88  C   UNL A   1      42.189  27.017  34.543  1.00  0.00     0.059 A 
ATOM     89  F   UNL A   1      42.224  27.718  32.310  1.00  0.00    -0.206 F 
ATOM     90  C   UNL A   1      42.397  27.290  35.893  1.00  0.00     0.060 A 
BRANCH  90  91
ATOM     91  S   UNL A   1      42.012  26.041  37.139  1.00  0.00     0.124 S 
ATOM     92  O   UNL A   1      42.274  24.799  36.421  1.00  0.00    -0.237 OA
ATOM     93  O   UNL A   1      42.947  26.362  38.213  1.00  0.00    -0.237 OA
ATOM     94  O   UNL A   1      40.607  26.294  37.454  1.00  0.00    -0.744 OA
ENDBRANCH  90  91
ENDBRANCH  58  83
ENDBRANCH  32  33
ENDBRANCH  24  27
ENDBRANCH   1  23
TORSDOF 15
ENDMDL
MODEL 2
REMARK VINA RESULT:     -10.6      3.808      6.990
REMARK SMILES CC(C)c1nc(C(=O)NCCCNC(=O)c2ccc(-c3c4nc(c(-c5c(F)cc(S(=O)(=O)[O-])cc5F)c5ccc([nH]5)c(-c5c(F)cc(S(=O)(=O)[O-])cc5F)c5nc(c(-c6c(F)cc(S(=O)(=O)[O-])cc6F)c6ccc3[nH]6)C=C5)C=C4)cc2)nn1-c1ccccc1F
REMARK SMILES IDX 12 1 11 2 10 3 9 4 7 5 8 6 6 8 4 9 5 10 83 11 82 12 2 13
REMARK SMILES IDX 1 14 3 15 84 16 85 17 89 18 86 19 88 20 90 21 87 22 13 23
REMARK SMILES IDX 14 24 15 26 16 27 17 28 81 29 18 30 80 31 19 32 20 33 21 34
REMARK SMILES IDX 74 35 22 36 79 37 73 38 75 39 23 40 78 41 72 42 71 43 24 45
REMARK SMILES IDX 58 46 37 47 57 48 38 49 41 50 56 51 76 52 39 53 40 54 55 56
REMARK SMILES IDX 77 57 42 58 25 59 26 60 35 61 27 62 28 63 34 64 36 65 29 66
REMARK SMILES IDX 30 67 31 68 32 69 33 70 59 71 60 72 69 73 61 74 62 75 68 76
REMARK SMILES IDX 70 77 63 78 64 79 65 80 66 81 67 82 43 83 44 84 53 85 45 86
REMARK SMILES IDX 46 87 52 88 54 89 47 90 48 91 49 92 50 93 51 94
REMARK H PARENT 9 7 13 25 75 44 41 55
REMARK Flexibility Score: inf
ROOT
ATOM      1  C   UNL A   1      39.137  21.826  26.152  1.00  0.00     0.118 C 
ENDROOT
BRANCH   1   2
ATOM      2  C   UNL A   1      38.246  20.963  25.268  1.00  0.00     0.042 C 
BRANCH   2   3
ATOM      3  C   UNL A   1      36.774  21.366  25.399  1.00  0.00     0.118 C 
BRANCH   3   4
ATOM      4  N   UNL A   1      35.857  20.265  25.131  1.00  0.00    -0.349 N 
ATOM      5  C   UNL A   1      34.481  20.243  24.959  1.00  0.00     0.290 C 
ATOM      6  O   UNL A   1      33.962  19.144  24.751  1.00  0.00    -0.266 OA
ATOM      7  H   UNL A   1      36.288  19.383  25.060  1.00  0.00     0.163 HD
BRANCH   5   8
ATOM      8  C   UNL A   1      33.684  21.489  25.041  1.00  0.00     0.239 A 
ATOM      9  C   UNL A   1      32.662  23.184  25.866  1.00  0.00     0.136 A 
ATOM     10  N   UNL A   1      33.302  22.083  26.230  1.00  0.00    -0.207 NA
ATOM     11  N   UNL A   1      32.800  23.313  24.495  1.00  0.00    -0.214 N 
ATOM     12  N   UNL A   1      33.197  22.138  23.974  1.00  0.00    -0.140 NA
BRANCH   9  13
ATOM     13  C   UNL A   1      31.688  23.909  26.765  1.00  0.00     0.051 C 
ATOM     14  C   UNL A   1      31.508  25.405  26.549  1.00  0.00     0.016 C 
ATOM     15  C   UNL A   1      30.316  23.223  26.682  1.00  0.00     0.016 C 
ENDBRANCH   9  13
BRANCH  11  16
ATOM     16  C   UNL A   1      32.681  24.404  23.621  1.00  0.00     0.102 A 
ATOM     17  C   UNL A   1      33.741  25.313  23.510  1.00  0.00     0.031 A 
ATOM     18  C   UNL A   1      31.469  24.669  22.992  1.00  0.00     0.148 A 
ATOM     19  C   UNL A   1      33.608  26.428  22.683  1.00  0.00     0.002 A 
ATOM     20  C   UNL A   1      31.334  25.785  22.174  1.00  0.00     0.041 A 
ATOM     21  F   UNL A   1      30.388  23.914  23.228  1.00  0.00    -0.205 F 
ATOM     22  C   UNL A   1      32.410  26.657  22.005  1.00  0.00     0.003 A 
ENDBRANCH  11  16
ENDBRANCH   5   8
ENDBRANCH   3   4
ENDBRANCH   2   3
ENDBRANCH   1   2
BRANCH   1  23
ATOM     23  N   UNL A   1      40.546  21.761  25.757  1.00  0.00    -0.352 N 
ATOM     24  C   UNL A   1      41.521  22.736  25.862  1.00  0.00     0.251 C 
ATOM     25  H   UNL A   1      40.839  20.908  25.362  1.00  0.00     0.163 HD
ATOM     26  O   UNL A   1      42.560  22.638  25.230  1.00  0.00    -0.269 OA
BRANCH  24  27
ATOM     27  C   UNL A   1      41.267  23.907  26.726  1.00  0.00     0.039 A 
ATOM     28  C   UNL A   1      41.814  23.971  28.009  1.00  0.00     0.014 A 
ATOM     29  C   UNL A   1      40.514  24.965  26.225  1.00  0.00     0.014 A 
ATOM     30  C   UNL A   1      41.685  25.153  28.736  1.00  0.00     0.010 A 
ATOM     31  C   UNL A   1      40.508  26.175  26.883  1.00  0.00     0.010 A 
ATOM     32  C   UNL A   1      41.064  26.272  28.153  1.00  0.00    -0.014 A 
BRANCH  32  33
ATOM     33  C   UNL A   1      41.113  27.570  28.829  1.00  0.00     0.031 A 
ATOM     34  C   UNL A   1      42.155  28.507  28.315  1.00  0.00     0.074 A 
ATOM     35  C   UNL A   1      40.194  28.011  29.716  1.00  0.00     0.049 A 
ATOM     36  N   UNL A   1      43.227  28.903  28.918  1.00  0.00    -0.248 NA
ATOM     37  C   UNL A   1      42.061  28.958  26.917  1.00  0.00     0.031 C 
ATOM     38  C   UNL A   1      38.930  27.383  30.117  1.00  0.00     0.029 A 
ATOM     39  N   UNL A   1      40.163  29.196  30.387  1.00  0.00    -0.354 N 
ATOM     40  C   UNL A   1      43.838  29.820  28.065  1.00  0.00     0.074 A 
ATOM     41  C   UNL A   1      43.174  29.685  26.794  1.00  0.00     0.031 C 
ATOM     42  C   UNL A   1      38.161  28.285  30.767  1.00  0.00     0.029 A 
ATOM     43  C   UNL A   1      38.945  29.484  30.993  1.00  0.00     0.049 A 
ATOM     44  H   UNL A   1      40.939  29.799  30.440  1.00  0.00     0.167 HD
ATOM     45  C   UNL A   1      44.699  30.767  28.537  1.00  0.00     0.037 A 
ATOM     46  C   UNL A   1      38.600  30.632  31.629  1.00  0.00     0.037 A 
ATOM     47  C   UNL A   1      45.130  30.454  29.877  1.00  0.00     0.049 A 
ATOM     48  C   UNL A   1      39.864  31.301  32.028  1.00  0.00     0.074 A 
ATOM     49  C   UNL A   1      45.793  29.394  30.465  1.00  0.00     0.029 A 
ATOM     50  N   UNL A   1      44.548  31.147  30.911  1.00  0.00    -0.354 N 
ATOM     51  N   UNL A   1      40.692  30.826  32.916  1.00  0.00    -0.248 NA
ATOM     52  C   UNL A   1      40.421  32.294  31.125  1.00  0.00     0.031 C 
ATOM     53  C   UNL A   1      45.166  29.227  31.735  1.00  0.00     0.029 A 
ATOM     54  C   UNL A   1      44.208  30.233  31.875  1.00  0.00     0.049 A 
ATOM     55  H   UNL A   1      44.401  32.120  30.952  1.00  0.00     0.167 HD
ATOM     56  C   UNL A   1      41.952  31.121  32.418  1.00  0.00     0.074 A 
ATOM     57  C   UNL A   1      41.721  32.114  31.372  1.00  0.00     0.031 C 
ATOM     58  C   UNL A   1      43.031  30.336  32.710  1.00  0.00     0.037 A 
BRANCH  45  59
ATOM     59  C   UNL A   1      44.885  32.147  27.946  1.00  0.00     0.058 A 
ATOM     60  C   UNL A   1      46.125  32.490  27.364  1.00  0.00     0.135 A 
ATOM     61  C   UNL A   1      44.006  33.227  28.179  1.00  0.00     0.135 A 
ATOM     62  F   UNL A   1      47.042  31.546  27.099  1.00  0.00    -0.206 F 
ATOM     63  C   UNL A   1      46.495  33.813  27.111  1.00  0.00     0.059 A 
ATOM     64  C   UNL A   1      44.333  34.547  27.883  1.00  0.00     0.059 A 
ATOM     65  F   UNL A   1      42.829  33.070  28.795  1.00  0.00    -0.206 F 
ATOM     66  C   UNL A   1      45.595  34.836  27.391  1.00  0.00     0.060 A 
BRANCH  66  67
ATOM     67  S   UNL A   1      46.107  36.548  27.166  1.00  0.00     0.124 S 
ATOM     68  O   UNL A   1      46.948  36.756  28.338  1.00  0.00    -0.237 OA
ATOM     69  O   UNL A   1      46.798  36.491  25.882  1.00  0.00    -0.237 OA
ATOM     70  O   UNL A   1      44.841  37.277  27.157  1.00  0.00    -0.744 OA
ENDBRANCH  66  67
ENDBRANCH  45  59
BRANCH  46  71
ATOM     71  C   UNL A   1      37.286  31.326  31.652  1.00  0.00     0.058 A 
ATOM     72  C   UNL A   1      36.669  31.665  32.870  1.00  0.00     0.135 A 
ATOM     73  C   UNL A   1      36.757  31.935  30.496  1.00  0.00     0.135 A 
ATOM     74  F   UNL A   1      37.115  31.140  34.021  1.00  0.00    -0.206 F 
ATOM     75  C   UNL A   1      35.638  32.606  32.946  1.00  0.00     0.059 A 
ATOM     76  C   UNL A   1      35.723  32.870  30.547  1.00  0.00     0.059 A 
ATOM     77  F   UNL A   1      37.299  31.714  29.289  1.00  0.00    -0.206 F 
ATOM     78  C   UNL A   1      35.190  33.224  31.781  1.00  0.00     0.060 A 
BRANCH  78  79
ATOM     79  S   UNL A   1      34.004  34.585  31.900  1.00  0.00     0.124 S 
ATOM     80  O   UNL A   1      34.848  35.681  32.364  1.00  0.00    -0.237 OA
ATOM     81  O   UNL A   1      33.519  34.692  30.528  1.00  0.00    -0.237 OA
ATOM     82  O   UNL A   1      33.024  34.098  32.867  1.00  0.00    -0.744 OA
ENDBRANCH  78  79
ENDBRANCH  46  71
BRANCH  58  83
ATOM     83  C   UNL A   1      42.919  29.348  33.843  1.00  0.00     0.058 A 
ATOM     84  C   UNL A   1      43.107  29.655  35.203  1.00  0.00     0.135 A 
ATOM     85  C   UNL A   1      42.445  28.061  33.540  1.00  0.00     0.135 A 
ATOM     86  F   UNL A   1      43.462  30.888  35.590  1.00  0.00    -0.206 F 
ATOM     87  C   UNL A   1      42.870  28.715  36.209  1.00  0.00     0.059 A 
ATOM     88  C   UNL A   1      42.171  27.119  34.527  1.00  0.00     0.059 A 
ATOM     89  F   UNL A   1      42.190  27.721  32.265  1.00  0.00    -0.206 F 
ATOM     90  C   UNL A   1      42.398  27.449  35.862  1.00  0.00     0.060 A 
BRANCH  90  91
ATOM     91  S   UNL A   1      42.011  26.261  37.165  1.00  0.00     0.124 S 
ATOM     92  O   UNL A   1      42.082  24.990  36.454  1.00  0.00    -0.237 OA
ATOM     93  O   UNL A   1      43.070  26.501  38.141  1.00  0.00    -0.237 OA
ATOM     94  O   UNL A   1      40.673  26.657  37.603  1.00  0.00    -0.744 OA
ENDBRANCH  90  91
ENDBRANCH  58  83
ENDBRANCH  32  33
ENDBRANCH  24  27
ENDBRANCH   1  23
TORSDOF 15
ENDMDL
MODEL 3
REMARK VINA RESULT:     -10.5      3.642      6.770
REMARK SMILES CC(C)c1nc(C(=O)NCCCNC(=O)c2ccc(-c3c4nc(c(-c5c(F)cc(S(=O)(=O)[O-])cc5F)c5ccc([nH]5)c(-c5c(F)cc(S(=O)(=O)[O-])cc5F)c5nc(c(-c6c(F)cc(S(=O)(=O)[O-])cc6F)c6ccc3[nH]6)C=C5)C=C4)cc2)nn1-c1ccccc1F
REMARK SMILES IDX 12 1 11 2 10 3 9 4 7 5 8 6 6 8 4 9 5 10 83 11 82 12 2 13
REMARK SMILES IDX 1 14 3 15 84 16 85 17 89 18 86 19 88 20 90 21 87 22 13 23
REMARK SMILES IDX 14 24 15 26 16 27 17 28 81 29 18 30 80 31 19 32 20 33 21 34
REMARK SMILES IDX 74 35 22 36 79 37 73 38 75 39 23 40 78 41 72 42 71 43 24 45
REMARK SMILES IDX 58 46 37 47 57 48 38 49 41 50 56 51 76 52 39 53 40 54 55 56
REMARK SMILES IDX 77 57 42 58 25 59 26 60 35 61 27 62 28 63 34 64 36 65 29 66
REMARK SMILES IDX 30 67 31 68 32 69 33 70 59 71 60 72 69 73 61 74 62 75 68 76
REMARK SMILES IDX 70 77 63 78 64 79 65 80 66 81 67 82 43 83 44 84 53 85 45 86
REMARK SMILES IDX 46 87 52 88 54 89 47 90 48 91 49 92 50 93 51 94
REMARK H PARENT 9 7 13 25 75 44 41 55
REMARK Flexibility Score: inf
ROOT
ATOM      1  C   UNL A   1      37.572  23.128  26.169  1.00  0.00     0.118 C 
ENDROOT
BRANCH   1   2
ATOM      2  C   UNL A   1      36.991  23.079  24.762  1.00  0.00     0.042 C 
BRANCH   2   3
ATOM      3  C   UNL A   1      35.683  22.283  24.727  1.00  0.00     0.118 C 
BRANCH   3   4
ATOM      4  N   UNL A   1      35.128  22.042  26.053  1.00  0.00    -0.349 N 
ATOM      5  C   UNL A   1      34.085  22.654  26.732  1.00  0.00     0.290 C 
ATOM      6  O   UNL A   1      33.840  22.241  27.868  1.00  0.00    -0.266 OA
ATOM      7  H   UNL A   1      35.571  21.320  26.556  1.00  0.00     0.163 HD
BRANCH   5   8
ATOM      8  C   UNL A   1      33.320  23.761  26.113  1.00  0.00     0.239 A 
ATOM      9  C   UNL A   1      31.742  24.820  25.120  1.00  0.00     0.136 A 
ATOM     10  N   UNL A   1      32.103  23.597  25.476  1.00  0.00    -0.207 NA
ATOM     11  N   UNL A   1      32.653  25.702  25.673  1.00  0.00    -0.214 N 
ATOM     12  N   UNL A   1      33.754  25.028  26.051  1.00  0.00    -0.140 NA
BRANCH   9  13
ATOM     13  C   UNL A   1      30.738  25.100  24.026  1.00  0.00     0.051 C 
ATOM     14  C   UNL A   1      29.660  26.136  24.305  1.00  0.00     0.016 C 
ATOM     15  C   UNL A   1      31.486  25.489  22.742  1.00  0.00     0.016 C 
ENDBRANCH   9  13
BRANCH  11  16
ATOM     16  C   UNL A   1      32.603  27.075  25.959  1.00  0.00     0.102 A 
ATOM     17  C   UNL A   1      31.805  27.526  27.018  1.00  0.00     0.031 A 
ATOM     18  C   UNL A   1      33.209  27.992  25.107  1.00  0.00     0.148 A 
ATOM     19  C   UNL A   1      31.708  28.893  27.275  1.00  0.00     0.002 A 
ATOM     20  C   UNL A   1      33.107  29.356  25.357  1.00  0.00     0.041 A 
ATOM     21  F   UNL A   1      33.824  27.591  23.986  1.00  0.00    -0.205 F 
ATOM     22  C   UNL A   1      32.370  29.807  26.452  1.00  0.00     0.003 A 
ENDBRANCH  11  16
ENDBRANCH   5   8
ENDBRANCH   3   4
ENDBRANCH   2   3
ENDBRANCH   1   2
BRANCH   1  23
ATOM     23  N   UNL A   1      38.684  22.191  26.347  1.00  0.00    -0.352 N 
ATOM     24  C   UNL A   1      40.017  22.466  26.594  1.00  0.00     0.251 C 
ATOM     25  H   UNL A   1      38.451  21.237  26.282  1.00  0.00     0.163 HD
ATOM     26  O   UNL A   1      40.864  21.603  26.428  1.00  0.00    -0.269 OA
BRANCH  24  27
ATOM     27  C   UNL A   1      40.396  23.826  27.028  1.00  0.00     0.039 A 
ATOM     28  C   UNL A   1      39.761  24.945  26.484  1.00  0.00     0.014 A 
ATOM     29  C   UNL A   1      41.360  23.974  28.020  1.00  0.00     0.014 A 
ATOM     30  C   UNL A   1      40.030  26.200  27.026  1.00  0.00     0.010 A 
ATOM     31  C   UNL A   1      41.520  25.190  28.646  1.00  0.00     0.010 A 
ATOM     32  C   UNL A   1      40.883  26.316  28.138  1.00  0.00    -0.014 A 
BRANCH  32  33
ATOM     33  C   UNL A   1      41.003  27.598  28.837  1.00  0.00     0.031 A 
ATOM     34  C   UNL A   1      42.073  28.499  28.316  1.00  0.00     0.074 A 
ATOM     35  C   UNL A   1      40.124  28.060  29.753  1.00  0.00     0.049 A 
ATOM     36  N   UNL A   1      43.174  28.837  28.901  1.00  0.00    -0.248 NA
ATOM     37  C   UNL A   1      41.967  28.980  26.929  1.00  0.00     0.031 C 
ATOM     38  C   UNL A   1      38.843  27.480  30.172  1.00  0.00     0.029 A 
ATOM     39  N   UNL A   1      40.159  29.232  30.446  1.00  0.00    -0.354 N 
ATOM     40  C   UNL A   1      43.805  29.743  28.051  1.00  0.00     0.074 A 
ATOM     41  C   UNL A   1      43.108  29.661  26.794  1.00  0.00     0.031 C 
ATOM     42  C   UNL A   1      38.129  28.401  30.856  1.00  0.00     0.029 A 
ATOM     43  C   UNL A   1      38.969  29.561  31.085  1.00  0.00     0.049 A 
ATOM     44  H   UNL A   1      40.962  29.800  30.492  1.00  0.00     0.167 HD
ATOM     45  C   UNL A   1      44.717  30.642  28.520  1.00  0.00     0.037 A 
ATOM     46  C   UNL A   1      38.689  30.710  31.750  1.00  0.00     0.037 A 
ATOM     47  C   UNL A   1      45.164  30.286  29.844  1.00  0.00     0.049 A 
ATOM     48  C   UNL A   1      39.989  31.317  32.132  1.00  0.00     0.074 A 
ATOM     49  C   UNL A   1      45.793  29.187  30.397  1.00  0.00     0.029 A 
ATOM     50  N   UNL A   1      44.635  30.983  30.904  1.00  0.00    -0.354 N 
ATOM     51  N   UNL A   1      40.815  30.789  32.992  1.00  0.00    -0.248 NA
ATOM     52  C   UNL A   1      40.568  32.302  31.234  1.00  0.00     0.031 C 
ATOM     53  C   UNL A   1      45.188  29.023  31.678  1.00  0.00     0.029 A 
ATOM     54  C   UNL A   1      44.278  30.066  31.858  1.00  0.00     0.049 A 
ATOM     55  H   UNL A   1      44.532  31.960  30.966  1.00  0.00     0.167 HD
ATOM     56  C   UNL A   1      42.075  31.039  32.470  1.00  0.00     0.074 A 
ATOM     57  C   UNL A   1      41.864  32.062  31.448  1.00  0.00     0.031 C 
ATOM     58  C   UNL A   1      43.126  30.203  32.723  1.00  0.00     0.037 A 
BRANCH  45  59
ATOM     59  C   UNL A   1      44.949  32.024  27.950  1.00  0.00     0.058 A 
ATOM     60  C   UNL A   1      46.206  32.341  27.390  1.00  0.00     0.135 A 
ATOM     61  C   UNL A   1      44.097  33.126  28.187  1.00  0.00     0.135 A 
ATOM     62  F   UNL A   1      47.100  31.375  27.125  1.00  0.00    -0.206 F 
ATOM     63  C   UNL A   1      46.616  33.656  27.160  1.00  0.00     0.059 A 
ATOM     64  C   UNL A   1      44.465  34.439  27.912  1.00  0.00     0.059 A 
ATOM     65  F   UNL A   1      42.907  32.993  28.783  1.00  0.00    -0.206 F 
ATOM     66  C   UNL A   1      45.741  34.700  27.442  1.00  0.00     0.060 A 
BRANCH  66  67
ATOM     67  S   UNL A   1      46.303  36.400  27.247  1.00  0.00     0.124 S 
ATOM     68  O   UNL A   1      45.073  37.142  27.494  1.00  0.00    -0.237 OA
ATOM     69  O   UNL A   1      47.330  36.500  28.279  1.00  0.00    -0.237 OA
ATOM     70  O   UNL A   1      46.799  36.433  25.874  1.00  0.00    -0.744 OA
ENDBRANCH  66  67
ENDBRANCH  45  59
BRANCH  46  71
ATOM     71  C   UNL A   1      37.407  31.459  31.816  1.00  0.00     0.058 A 
ATOM     72  C   UNL A   1      36.834  31.803  33.054  1.00  0.00     0.135 A 
ATOM     73  C   UNL A   1      36.878  32.110  30.684  1.00  0.00     0.135 A 
ATOM     74  F   UNL A   1      37.283  31.239  34.185  1.00  0.00    -0.206 F 
ATOM     75  C   UNL A   1      35.847  32.786  33.171  1.00  0.00     0.059 A 
ATOM     76  C   UNL A   1      35.886  33.087  30.775  1.00  0.00     0.059 A 
ATOM     77  F   UNL A   1      37.381  31.888  29.460  1.00  0.00    -0.206 F 
ATOM     78  C   UNL A   1      35.398  33.442  32.027  1.00  0.00     0.060 A 
BRANCH  78  79
ATOM     79  S   UNL A   1      34.275  34.851  32.198  1.00  0.00     0.124 S 
ATOM     80  O   UNL A   1      35.083  35.789  32.970  1.00  0.00    -0.237 OA
ATOM     81  O   UNL A   1      34.029  35.218  30.807  1.00  0.00    -0.237 OA
ATOM     82  O   UNL A   1      33.127  34.286  32.902  1.00  0.00    -0.744 OA
ENDBRANCH  78  79
ENDBRANCH  46  71
BRANCH  58  83
ATOM     83  C   UNL A   1      42.996  29.199  33.840  1.00  0.00     0.058 A 
ATOM     84  C   UNL A   1      43.259  29.463  35.196  1.00  0.00     0.135 A 
ATOM     85  C   UNL A   1      42.429  27.952  33.531  1.00  0.00     0.135 A 
ATOM     86  F   UNL A   1      43.708  30.662  35.592  1.00  0.00    -0.206 F 
ATOM     87  C   UNL A   1      43.002  28.517  36.193  1.00  0.00     0.059 A 
ATOM     88  C   UNL A   1      42.135  27.007  34.510  1.00  0.00     0.059 A 
ATOM     89  F   UNL A   1      42.101  27.657  32.262  1.00  0.00    -0.206 F 
ATOM     90  C   UNL A   1      42.436  27.293  35.840  1.00  0.00     0.060 A 
BRANCH  90  91
ATOM     91  S   UNL A   1      42.027  26.103  37.135  1.00  0.00     0.124 S 
ATOM     92  O   UNL A   1      42.270  24.828  36.470  1.00  0.00    -0.237 OA
ATOM     93  O   UNL A   1      42.965  26.452  38.198  1.00  0.00    -0.237 OA
ATOM     94  O   UNL A   1      40.626  26.392  37.435  1.00  0.00    -0.744 OA
ENDBRANCH  90  91
ENDBRANCH  58  83
ENDBRANCH  32  33
ENDBRANCH  24  27
ENDBRANCH   1  23
TORSDOF 15
ENDMDL
