MODEL 1
REMARK VINA RESULT:     -13.9      0.000      0.000
REMARK SMILES Cc1cc(C)c(S(=O)(=O)Nc2ccc(N3CC[NH+](C)CC3)c(C(=O)NCCCNC(=O)c3ccc(-c4c5nc(c(-c6c(F)cc(S(=O)(=O)[O-])cc6F)c6ccc([nH]6)c(-c6c(F)cc(S(=O)(=O)[O-])cc6F)c6nc(c(-c7c(F)cc(S(=O)(=O)[O-])cc7F)c7ccc4[nH]7)C=C6)C=C5)cc3)c2)c(C)c1
REMARK SMILES IDX 27 1 26 2 25 3 23 4 24 5 22 7 11 8 12 9 98 10 13 11 14 12
REMARK SMILES IDX 10 13 7 15 8 16 9 17 6 18 1 19 2 20 3 21 101 22 4 23 99 24
REMARK SMILES IDX 5 25 100 26 15 27 16 28 21 29 17 30 20 31 18 32 19 33 28 35
REMARK SMILES IDX 29 36 30 37 31 39 32 40 33 41 97 42 34 43 96 44 35 45 36 46
REMARK SMILES IDX 37 47 90 48 38 49 95 50 89 51 91 52 39 53 94 54 88 55 87 56
REMARK SMILES IDX 40 58 74 59 53 60 73 61 54 62 57 63 72 64 92 65 55 66 56 67
REMARK SMILES IDX 71 69 93 70 58 71 41 72 42 73 51 74 43 75 44 76 50 77 52 78
REMARK SMILES IDX 45 79 46 80 47 81 48 82 49 83 75 84 76 85 85 86 77 87 78 88
REMARK SMILES IDX 84 89 86 90 79 91 80 92 81 93 82 94 83 95 59 96 60 97 69 98
REMARK SMILES IDX 61 99 62 100 68 101 70 102 63 103 64 104 65 105 66 106
REMARK SMILES IDX 67 107
REMARK H PARENT 25 6 10 14 18 34 29 38 91 57 57 68
REMARK Flexibility Score: inf
ROOT
ATOM      1  C   UNL A   1      37.518  23.712  25.545  1.00  0.00     0.042 C 
ENDROOT
BRANCH   1   2
ATOM      2  C   UNL A   1      37.135  22.235  25.632  1.00  0.00     0.118 C 
BRANCH   2   3
ATOM      3  N   UNL A   1      36.057  22.031  26.576  1.00  0.00    -0.352 N 
ATOM      4  C   UNL A   1      34.689  22.107  26.484  1.00  0.00     0.253 C 
ATOM      5  O   UNL A   1      34.100  22.027  27.563  1.00  0.00    -0.269 OA
ATOM      6  H   UNL A   1      36.371  21.784  27.476  1.00  0.00     0.163 HD
BRANCH   4   7
ATOM      7  C   UNL A   1      33.940  22.281  25.192  1.00  0.00     0.065 A 
ATOM      8  C   UNL A   1      33.377  23.676  23.279  1.00  0.00     0.050 A 
ATOM      9  C   UNL A   1      32.584  22.661  22.758  1.00  0.00     0.029 A 
ATOM     10  C   UNL A   1      33.900  23.538  24.560  1.00  0.00     0.042 A 
ATOM     11  C   UNL A   1      32.551  21.426  23.395  1.00  0.00     0.029 A 
ATOM     12  C   UNL A   1      33.319  21.175  24.548  1.00  0.00     0.050 A 
BRANCH   8  13
ATOM     13  N   UNL A   1      33.706  24.729  22.387  1.00  0.00    -0.280 N 
ATOM     14  H   UNL A   1      34.563  24.645  21.910  1.00  0.00     0.180 HD
BRANCH  13  15
ATOM     15  S   UNL A   1      32.803  26.094  22.056  1.00  0.00     0.262 S 
ATOM     16  O   UNL A   1      31.583  25.628  21.419  1.00  0.00    -0.201 OA
ATOM     17  O   UNL A   1      33.714  26.985  21.374  1.00  0.00    -0.201 OA
BRANCH  15  18
ATOM     18  C   UNL A   1      32.292  26.965  23.555  1.00  0.00     0.093 A 
ATOM     19  C   UNL A   1      31.609  28.085  27.686  1.00  0.00     0.044 C 
ATOM     20  C   UNL A   1      31.803  27.738  26.239  1.00  0.00    -0.051 A 
ATOM     21  C   UNL A   1      31.010  26.770  25.632  1.00  0.00     0.008 A 
ATOM     22  C   UNL A   1      32.726  28.424  25.451  1.00  0.00     0.008 A 
ATOM     23  C   UNL A   1      31.233  26.373  24.299  1.00  0.00    -0.030 A 
ATOM     24  C   UNL A   1      32.952  28.088  24.094  1.00  0.00    -0.030 A 
ATOM     25  C   UNL A   1      30.235  25.388  23.736  1.00  0.00     0.046 C 
ATOM     26  C   UNL A   1      33.864  29.017  23.352  1.00  0.00     0.046 C 
ENDBRANCH  15  18
ENDBRANCH  13  15
ENDBRANCH   8  13
BRANCH  12  27
ATOM     27  N   UNL A   1      33.560  19.851  24.879  1.00  0.00    -0.360 N 
ATOM     28  C   UNL A   1      34.865  19.219  24.652  1.00  0.00     0.178 C 
ATOM     29  C   UNL A   1      32.768  19.213  25.937  1.00  0.00     0.178 C 
ATOM     30  C   UNL A   1      34.636  17.721  24.319  1.00  0.00     0.283 C 
ATOM     31  C   UNL A   1      32.593  17.711  25.625  1.00  0.00     0.283 C 
ATOM     32  N   UNL A   1      33.875  17.008  25.384  1.00  0.00    -0.334 N 
ATOM     33  C   UNL A   1      33.617  15.626  24.986  1.00  0.00     0.332 C 
ATOM     34  H   UNL A   1      34.427  17.002  26.242  1.00  0.00     0.347 HD
ENDBRANCH  12  27
ENDBRANCH   4   7
ENDBRANCH   2   3
ENDBRANCH   1   2
BRANCH   1  35
ATOM     35  C   UNL A   1      38.514  24.132  26.618  1.00  0.00     0.118 C 
BRANCH  35  36
ATOM     36  N   UNL A   1      39.883  24.109  26.124  1.00  0.00    -0.352 N 
ATOM     37  C   UNL A   1      40.923  24.952  26.420  1.00  0.00     0.251 C 
ATOM     38  H   UNL A   1      40.091  23.386  25.489  1.00  0.00     0.163 HD
ATOM     39  O   UNL A   1      41.950  24.901  25.747  1.00  0.00    -0.269 OA
BRANCH  37  40
ATOM     40  C   UNL A   1      40.806  25.924  27.530  1.00  0.00     0.039 A 
ATOM     41  C   UNL A   1      39.824  25.716  28.503  1.00  0.00     0.014 A 
ATOM     42  C   UNL A   1      41.628  27.054  27.596  1.00  0.00     0.014 A 
ATOM     43  C   UNL A   1      39.685  26.625  29.555  1.00  0.00     0.010 A 
ATOM     44  C   UNL A   1      41.533  27.921  28.681  1.00  0.00     0.010 A 
ATOM     45  C   UNL A   1      40.547  27.728  29.658  1.00  0.00    -0.014 A 
BRANCH  45  46
ATOM     46  C   UNL A   1      40.397  28.714  30.757  1.00  0.00     0.031 A 
ATOM     47  C   UNL A   1      41.256  28.602  31.987  1.00  0.00     0.074 A 
ATOM     48  C   UNL A   1      39.456  29.675  30.672  1.00  0.00     0.049 A 
ATOM     49  N   UNL A   1      41.242  29.327  33.075  1.00  0.00    -0.248 NA
ATOM     50  C   UNL A   1      42.242  27.509  32.009  1.00  0.00     0.031 C 
ATOM     51  C   UNL A   1      38.522  29.849  29.558  1.00  0.00     0.029 A 
ATOM     52  N   UNL A   1      39.127  30.681  31.543  1.00  0.00    -0.354 N 
ATOM     53  C   UNL A   1      42.188  28.762  33.922  1.00  0.00     0.074 A 
ATOM     54  C   UNL A   1      42.733  27.609  33.236  1.00  0.00     0.031 C 
ATOM     55  C   UNL A   1      37.738  30.912  29.804  1.00  0.00     0.029 A 
ATOM     56  C   UNL A   1      38.101  31.480  31.099  1.00  0.00     0.049 A 
ATOM     57  H   UNL A   1      39.583  30.819  32.404  1.00  0.00     0.167 HD
ATOM     58  C   UNL A   1      42.584  29.175  35.149  1.00  0.00     0.037 A 
ATOM     59  C   UNL A   1      37.523  32.554  31.670  1.00  0.00     0.037 A 
ATOM     60  C   UNL A   1      42.078  30.351  35.805  1.00  0.00     0.049 A 
ATOM     61  C   UNL A   1      38.031  33.042  32.998  1.00  0.00     0.074 A 
ATOM     62  C   UNL A   1      42.460  30.896  37.017  1.00  0.00     0.029 A 
ATOM     63  N   UNL A   1      41.085  31.173  35.292  1.00  0.00    -0.354 N 
ATOM     64  N   UNL A   1      38.968  32.528  33.759  1.00  0.00    -0.248 NA
ATOM     65  C   UNL A   1      37.417  34.263  33.537  1.00  0.00     0.031 C 
ATOM     66  C   UNL A   1      41.686  32.041  37.246  1.00  0.00     0.029 A 
ATOM     67  C   UNL A   1      40.841  32.221  36.163  1.00  0.00     0.049 A 
ATOM     68  H   UNL A   1      40.622  31.032  34.435  1.00  0.00     0.167 HD
ATOM     69  C   UNL A   1      39.068  33.372  34.859  1.00  0.00     0.074 A 
ATOM     70  C   UNL A   1      38.105  34.436  34.658  1.00  0.00     0.031 C 
ATOM     71  C   UNL A   1      39.883  33.275  35.938  1.00  0.00     0.037 A 
BRANCH  58  72
ATOM     72  C   UNL A   1      43.622  28.347  35.853  1.00  0.00     0.058 A 
ATOM     73  C   UNL A   1      44.995  28.578  35.668  1.00  0.00     0.135 A 
ATOM     74  C   UNL A   1      43.241  27.312  36.721  1.00  0.00     0.135 A 
ATOM     75  F   UNL A   1      45.411  29.544  34.835  1.00  0.00    -0.206 F 
ATOM     76  C   UNL A   1      45.954  27.786  36.290  1.00  0.00     0.059 A 
ATOM     77  C   UNL A   1      44.186  26.522  37.372  1.00  0.00     0.059 A 
ATOM     78  F   UNL A   1      41.942  27.049  36.933  1.00  0.00    -0.206 F 
ATOM     79  C   UNL A   1      45.539  26.754  37.134  1.00  0.00     0.060 A 
BRANCH  79  80
ATOM     80  S   UNL A   1      46.792  25.720  37.921  1.00  0.00     0.124 S 
ATOM     81  O   UNL A   1      46.070  24.462  38.082  1.00  0.00    -0.237 OA
ATOM     82  O   UNL A   1      47.866  25.710  36.932  1.00  0.00    -0.237 OA
ATOM     83  O   UNL A   1      47.092  26.435  39.158  1.00  0.00    -0.744 OA
ENDBRANCH  79  80
ENDBRANCH  58  72
BRANCH  59  84
ATOM     84  C   UNL A   1      36.431  33.267  30.960  1.00  0.00     0.058 A 
ATOM     85  C   UNL A   1      35.106  33.178  31.409  1.00  0.00     0.135 A 
ATOM     86  C   UNL A   1      36.693  34.075  29.844  1.00  0.00     0.135 A 
ATOM     87  F   UNL A   1      34.808  32.413  32.471  1.00  0.00    -0.206 F 
ATOM     88  C   UNL A   1      34.074  33.857  30.772  1.00  0.00     0.059 A 
ATOM     89  C   UNL A   1      35.679  34.779  29.200  1.00  0.00     0.059 A 
ATOM     90  F   UNL A   1      37.948  34.205  29.388  1.00  0.00    -0.206 F 
ATOM     91  C   UNL A   1      34.371  34.658  29.667  1.00  0.00     0.060 A 
BRANCH  91  92
ATOM     92  S   UNL A   1      33.035  35.587  28.882  1.00  0.00     0.124 S 
ATOM     93  O   UNL A   1      32.295  36.071  30.040  1.00  0.00    -0.237 OA
ATOM     94  O   UNL A   1      33.765  36.598  28.123  1.00  0.00    -0.237 OA
ATOM     95  O   UNL A   1      32.358  34.577  28.075  1.00  0.00    -0.744 OA
ENDBRANCH  91  92
ENDBRANCH  59  84
BRANCH  71  96
ATOM     96  C   UNL A   1      39.786  34.360  36.969  1.00  0.00     0.058 A 
ATOM     97  C   UNL A   1      39.001  34.208  38.121  1.00  0.00     0.135 A 
ATOM     98  C   UNL A   1      40.519  35.548  36.821  1.00  0.00     0.135 A 
ATOM     99  F   UNL A   1      38.278  33.091  38.303  1.00  0.00    -0.206 F 
ATOM    100  C   UNL A   1      38.928  35.207  39.085  1.00  0.00     0.059 A 
ATOM    101  C   UNL A   1      40.476  36.552  37.782  1.00  0.00     0.059 A 
ATOM    102  F   UNL A   1      41.292  35.735  35.740  1.00  0.00    -0.206 F 
ATOM    103  C   UNL A   1      39.667  36.378  38.905  1.00  0.00     0.060 A 
BRANCH 103 104
ATOM    104  S   UNL A   1      39.591  37.660  40.173  1.00  0.00     0.124 S 
ATOM    105  O   UNL A   1      39.170  36.894  41.341  1.00  0.00    -0.237 OA
ATOM    106  O   UNL A   1      40.963  38.160  40.204  1.00  0.00    -0.237 OA
ATOM    107  O   UNL A   1      38.604  38.598  39.645  1.00  0.00    -0.744 OA
ENDBRANCH 103 104
ENDBRANCH  71  96
ENDBRANCH  45  46
ENDBRANCH  37  40
ENDBRANCH  35  36
ENDBRANCH   1  35
TORSDOF 17
ENDMDL
MODEL 2
REMARK VINA RESULT:     -13.3      6.414     12.197
REMARK SMILES Cc1cc(C)c(S(=O)(=O)Nc2ccc(N3CC[NH+](C)CC3)c(C(=O)NCCCNC(=O)c3ccc(-c4c5nc(c(-c6c(F)cc(S(=O)(=O)[O-])cc6F)c6ccc([nH]6)c(-c6c(F)cc(S(=O)(=O)[O-])cc6F)c6nc(c(-c7c(F)cc(S(=O)(=O)[O-])cc7F)c7ccc4[nH]7)C=C6)C=C5)cc3)c2)c(C)c1
REMARK SMILES IDX 27 1 26 2 25 3 23 4 24 5 22 7 11 8 12 9 98 10 13 11 14 12
REMARK SMILES IDX 10 13 7 15 8 16 9 17 6 18 1 19 2 20 3 21 101 22 4 23 99 24
REMARK SMILES IDX 5 25 100 26 15 27 16 28 21 29 17 30 20 31 18 32 19 33 28 35
REMARK SMILES IDX 29 36 30 37 31 39 32 40 33 41 97 42 34 43 96 44 35 45 36 46
REMARK SMILES IDX 37 47 90 48 38 49 95 50 89 51 91 52 39 53 94 54 88 55 87 56
REMARK SMILES IDX 40 58 74 59 53 60 73 61 54 62 57 63 72 64 92 65 55 66 56 67
REMARK SMILES IDX 71 69 93 70 58 71 41 72 42 73 51 74 43 75 44 76 50 77 52 78
REMARK SMILES IDX 45 79 46 80 47 81 48 82 49 83 75 84 76 85 85 86 77 87 78 88
REMARK SMILES IDX 84 89 86 90 79 91 80 92 81 93 82 94 83 95 59 96 60 97 69 98
REMARK SMILES IDX 61 99 62 100 68 101 70 102 63 103 64 104 65 105 66 106
REMARK SMILES IDX 67 107
REMARK H PARENT 25 6 10 14 18 34 29 38 91 57 57 68
REMARK Flexibility Score: inf
ROOT
ATOM      1  C   UNL A   1      34.409  28.932  27.540  1.00  0.00     0.042 C 
ENDROOT
BRANCH   1   2
ATOM      2  C   UNL A   1      33.155  29.249  26.726  1.00  0.00     0.118 C 
BRANCH   2   3
ATOM      3  N   UNL A   1      32.100  28.298  27.002  1.00  0.00    -0.352 N 
ATOM      4  C   UNL A   1      31.636  27.182  26.350  1.00  0.00     0.253 C 
ATOM      5  O   UNL A   1      30.593  26.718  26.813  1.00  0.00    -0.269 OA
ATOM      6  H   UNL A   1      31.611  28.492  27.833  1.00  0.00     0.163 HD
BRANCH   4   7
ATOM      7  C   UNL A   1      32.315  26.556  25.163  1.00  0.00     0.065 A 
ATOM      8  C   UNL A   1      33.537  24.681  24.209  1.00  0.00     0.050 A 
ATOM      9  C   UNL A   1      33.581  25.321  22.977  1.00  0.00     0.029 A 
ATOM     10  C   UNL A   1      33.062  25.373  25.317  1.00  0.00     0.042 A 
ATOM     11  C   UNL A   1      32.907  26.525  22.810  1.00  0.00     0.029 A 
ATOM     12  C   UNL A   1      32.163  27.101  23.858  1.00  0.00     0.050 A 
BRANCH   8  13
ATOM     13  N   UNL A   1      33.859  23.299  24.204  1.00  0.00    -0.280 N 
ATOM     14  H   UNL A   1      33.191  22.697  23.803  1.00  0.00     0.180 HD
BRANCH  13  15
ATOM     15  S   UNL A   1      35.242  22.580  24.800  1.00  0.00     0.262 S 
ATOM     16  O   UNL A   1      35.407  23.081  26.155  1.00  0.00    -0.201 OA
ATOM     17  O   UNL A   1      36.246  22.810  23.787  1.00  0.00    -0.201 OA
BRANCH  15  18
ATOM     18  C   UNL A   1      35.083  20.785  24.940  1.00  0.00     0.093 A 
ATOM     19  C   UNL A   1      34.262  16.607  24.130  1.00  0.00     0.044 C 
ATOM     20  C   UNL A   1      34.550  18.040  24.470  1.00  0.00    -0.051 A 
ATOM     21  C   UNL A   1      33.516  18.909  24.805  1.00  0.00     0.008 A 
ATOM     22  C   UNL A   1      35.859  18.517  24.532  1.00  0.00     0.008 A 
ATOM     23  C   UNL A   1      33.759  20.275  25.046  1.00  0.00    -0.030 A 
ATOM     24  C   UNL A   1      36.151  19.874  24.813  1.00  0.00    -0.030 A 
ATOM     25  C   UNL A   1      32.563  21.080  25.498  1.00  0.00     0.046 C 
ATOM     26  C   UNL A   1      37.605  20.187  24.991  1.00  0.00     0.046 C 
ENDBRANCH  15  18
ENDBRANCH  13  15
ENDBRANCH   8  13
BRANCH  12  27
ATOM     27  N   UNL A   1      31.207  28.045  23.519  1.00  0.00    -0.360 N 
ATOM     28  C   UNL A   1      31.501  29.483  23.515  1.00  0.00     0.178 C 
ATOM     29  C   UNL A   1      30.093  27.666  22.641  1.00  0.00     0.178 C 
ATOM     30  C   UNL A   1      30.216  30.251  23.919  1.00  0.00     0.283 C 
ATOM     31  C   UNL A   1      28.833  28.476  23.016  1.00  0.00     0.283 C 
ATOM     32  N   UNL A   1      29.060  29.940  23.032  1.00  0.00    -0.334 N 
ATOM     33  C   UNL A   1      27.858  30.625  23.504  1.00  0.00     0.332 C 
ATOM     34  H   UNL A   1      29.269  30.263  22.087  1.00  0.00     0.347 HD
ENDBRANCH  12  27
ENDBRANCH   4   7
ENDBRANCH   2   3
ENDBRANCH   1   2
BRANCH   1  35
ATOM     35  C   UNL A   1      35.309  30.145  27.742  1.00  0.00     0.118 C 
BRANCH  35  36
ATOM     36  N   UNL A   1      35.329  30.579  29.130  1.00  0.00    -0.352 N 
ATOM     37  C   UNL A   1      36.329  30.455  30.061  1.00  0.00     0.251 C 
ATOM     38  H   UNL A   1      34.510  31.024  29.446  1.00  0.00     0.163 HD
ATOM     39  O   UNL A   1      36.087  30.696  31.241  1.00  0.00    -0.269 OA
BRANCH  37  40
ATOM     40  C   UNL A   1      37.684  30.023  29.650  1.00  0.00     0.039 A 
ATOM     41  C   UNL A   1      38.611  29.689  30.641  1.00  0.00     0.014 A 
ATOM     42  C   UNL A   1      38.056  29.983  28.302  1.00  0.00     0.014 A 
ATOM     43  C   UNL A   1      39.900  29.289  30.280  1.00  0.00     0.010 A 
ATOM     44  C   UNL A   1      39.319  29.520  27.942  1.00  0.00     0.010 A 
ATOM     45  C   UNL A   1      40.259  29.190  28.927  1.00  0.00    -0.014 A 
BRANCH  45  46
ATOM     46  C   UNL A   1      41.632  28.789  28.529  1.00  0.00     0.031 A 
ATOM     47  C   UNL A   1      42.729  29.818  28.485  1.00  0.00     0.074 A 
ATOM     48  C   UNL A   1      41.878  27.517  28.160  1.00  0.00     0.049 A 
ATOM     49  N   UNL A   1      43.976  29.682  28.113  1.00  0.00    -0.248 NA
ATOM     50  C   UNL A   1      42.369  31.189  28.881  1.00  0.00     0.031 C 
ATOM     51  C   UNL A   1      40.884  26.444  28.103  1.00  0.00     0.029 A 
ATOM     52  N   UNL A   1      43.042  26.915  27.754  1.00  0.00    -0.354 N 
ATOM     53  C   UNL A   1      44.538  30.950  28.199  1.00  0.00     0.074 A 
ATOM     54  C   UNL A   1      43.487  31.850  28.622  1.00  0.00     0.031 C 
ATOM     55  C   UNL A   1      41.485  25.309  27.707  1.00  0.00     0.029 A 
ATOM     56  C   UNL A   1      42.899  25.580  27.462  1.00  0.00     0.049 A 
ATOM     57  H   UNL A   1      43.899  27.393  27.680  1.00  0.00     0.167 HD
ATOM     58  C   UNL A   1      45.818  31.328  27.967  1.00  0.00     0.037 A 
ATOM     59  C   UNL A   1      43.807  24.676  27.051  1.00  0.00     0.037 A 
ATOM     60  C   UNL A   1      46.872  30.421  27.598  1.00  0.00     0.049 A 
ATOM     61  C   UNL A   1      45.238  25.100  26.875  1.00  0.00     0.074 A 
ATOM     62  C   UNL A   1      48.215  30.689  27.406  1.00  0.00     0.029 A 
ATOM     63  N   UNL A   1      46.699  29.062  27.376  1.00  0.00    -0.354 N 
ATOM     64  N   UNL A   1      45.766  26.294  27.017  1.00  0.00    -0.248 NA
ATOM     65  C   UNL A   1      46.201  24.056  26.500  1.00  0.00     0.031 C 
ATOM     66  C   UNL A   1      48.854  29.494  27.053  1.00  0.00     0.029 A 
ATOM     67  C   UNL A   1      47.911  28.478  27.050  1.00  0.00     0.049 A 
ATOM     68  H   UNL A   1      45.842  28.584  27.441  1.00  0.00     0.167 HD
ATOM     69  C   UNL A   1      47.124  26.141  26.766  1.00  0.00     0.074 A 
ATOM     70  C   UNL A   1      47.339  24.737  26.475  1.00  0.00     0.031 C 
ATOM     71  C   UNL A   1      48.104  27.077  26.774  1.00  0.00     0.037 A 
BRANCH  58  72
ATOM     72  C   UNL A   1      46.143  32.787  28.116  1.00  0.00     0.058 A 
ATOM     73  C   UNL A   1      45.996  33.685  27.046  1.00  0.00     0.135 A 
ATOM     74  C   UNL A   1      46.605  33.296  29.340  1.00  0.00     0.135 A 
ATOM     75  F   UNL A   1      45.574  33.247  25.850  1.00  0.00    -0.206 F 
ATOM     76  C   UNL A   1      46.334  35.028  27.173  1.00  0.00     0.059 A 
ATOM     77  C   UNL A   1      46.928  34.642  29.496  1.00  0.00     0.059 A 
ATOM     78  F   UNL A   1      46.763  32.481  30.395  1.00  0.00    -0.206 F 
ATOM     79  C   UNL A   1      46.807  35.496  28.400  1.00  0.00     0.060 A 
BRANCH  79  80
ATOM     80  S   UNL A   1      47.261  37.236  28.550  1.00  0.00     0.124 S 
ATOM     81  O   UNL A   1      48.597  37.139  29.129  1.00  0.00    -0.237 OA
ATOM     82  O   UNL A   1      47.204  37.701  27.167  1.00  0.00    -0.237 OA
ATOM     83  O   UNL A   1      46.232  37.779  29.431  1.00  0.00    -0.744 OA
ENDBRANCH  79  80
ENDBRANCH  58  72
BRANCH  59  84
ATOM     84  C   UNL A   1      43.394  23.267  26.825  1.00  0.00     0.058 A 
ATOM     85  C   UNL A   1      43.363  22.727  25.532  1.00  0.00     0.135 A 
ATOM     86  C   UNL A   1      43.057  22.426  27.896  1.00  0.00     0.135 A 
ATOM     87  F   UNL A   1      43.675  23.496  24.477  1.00  0.00    -0.206 F 
ATOM     88  C   UNL A   1      43.002  21.404  25.304  1.00  0.00     0.059 A 
ATOM     89  C   UNL A   1      42.709  21.094  27.695  1.00  0.00     0.059 A 
ATOM     90  F   UNL A   1      43.089  22.893  29.154  1.00  0.00    -0.206 F 
ATOM     91  C   UNL A   1      42.678  20.593  26.393  1.00  0.00     0.060 A 
BRANCH  91  92
ATOM     92  S   UNL A   1      42.271  18.859  26.095  1.00  0.00     0.124 S 
ATOM     93  O   UNL A   1      40.859  18.946  25.744  1.00  0.00    -0.237 OA
ATOM     94  O   UNL A   1      43.178  18.509  25.007  1.00  0.00    -0.237 OA
ATOM     95  O   UNL A   1      42.567  18.224  27.376  1.00  0.00    -0.744 OA
ENDBRANCH  91  92
ENDBRANCH  59  84
BRANCH  71  96
ATOM     96  C   UNL A   1      49.500  26.609  26.486  1.00  0.00     0.058 A 
ATOM     97  C   UNL A   1      50.298  26.029  27.483  1.00  0.00     0.135 A 
ATOM     98  C   UNL A   1      50.030  26.706  25.191  1.00  0.00     0.135 A 
ATOM     99  F   UNL A   1      49.836  25.919  28.740  1.00  0.00    -0.206 F 
ATOM    100  C   UNL A   1      51.585  25.577  27.210  1.00  0.00     0.059 A 
ATOM    101  C   UNL A   1      51.306  26.244  24.890  1.00  0.00     0.059 A 
ATOM    102  F   UNL A   1      49.301  27.246  24.201  1.00  0.00    -0.206 F 
ATOM    103  C   UNL A   1      52.082  25.692  25.911  1.00  0.00     0.060 A 
BRANCH 103 104
ATOM    104  S   UNL A   1      53.742  25.079  25.555  1.00  0.00     0.124 S 
ATOM    105  O   UNL A   1      54.059  25.790  24.321  1.00  0.00    -0.237 OA
ATOM    106  O   UNL A   1      54.494  25.492  26.736  1.00  0.00    -0.237 OA
ATOM    107  O   UNL A   1      53.547  23.638  25.419  1.00  0.00    -0.744 OA
ENDBRANCH 103 104
ENDBRANCH  71  96
ENDBRANCH  45  46
ENDBRANCH  37  40
ENDBRANCH  35  36
ENDBRANCH   1  35
TORSDOF 17
ENDMDL
MODEL 3
REMARK VINA RESULT:     -13.3      3.298      9.769
REMARK SMILES Cc1cc(C)c(S(=O)(=O)Nc2ccc(N3CC[NH+](C)CC3)c(C(=O)NCCCNC(=O)c3ccc(-c4c5nc(c(-c6c(F)cc(S(=O)(=O)[O-])cc6F)c6ccc([nH]6)c(-c6c(F)cc(S(=O)(=O)[O-])cc6F)c6nc(c(-c7c(F)cc(S(=O)(=O)[O-])cc7F)c7ccc4[nH]7)C=C6)C=C5)cc3)c2)c(C)c1
REMARK SMILES IDX 27 1 26 2 25 3 23 4 24 5 22 7 11 8 12 9 98 10 13 11 14 12
REMARK SMILES IDX 10 13 7 15 8 16 9 17 6 18 1 19 2 20 3 21 101 22 4 23 99 24
REMARK SMILES IDX 5 25 100 26 15 27 16 28 21 29 17 30 20 31 18 32 19 33 28 35
REMARK SMILES IDX 29 36 30 37 31 39 32 40 33 41 97 42 34 43 96 44 35 45 36 46
REMARK SMILES IDX 37 47 90 48 38 49 95 50 89 51 91 52 39 53 94 54 88 55 87 56
REMARK SMILES IDX 40 58 74 59 53 60 73 61 54 62 57 63 72 64 92 65 55 66 56 67
REMARK SMILES IDX 71 69 93 70 58 71 41 72 42 73 51 74 43 75 44 76 50 77 52 78
REMARK SMILES IDX 45 79 46 80 47 81 48 82 49 83 75 84 76 85 85 86 77 87 78 88
REMARK SMILES IDX 84 89 86 90 79 91 80 92 81 93 82 94 83 95 59 96 60 97 69 98
REMARK SMILES IDX 61 99 62 100 68 101 70 102 63 103 64 104 65 105 66 106
REMARK SMILES IDX 67 107
REMARK H PARENT 25 6 10 14 18 34 29 38 91 57 57 68
REMARK Flexibility Score: inf
ROOT
ATOM      1  C   UNL A   1      33.382  27.915  26.956  1.00  0.00     0.042 C 
ENDROOT
BRANCH   1   2
ATOM      2  C   UNL A   1      31.935  28.357  27.170  1.00  0.00     0.118 C 
BRANCH   2   3
ATOM      3  N   UNL A   1      31.023  27.240  27.041  1.00  0.00    -0.352 N 
ATOM      4  C   UNL A   1      30.914  26.204  26.145  1.00  0.00     0.253 C 
ATOM      5  O   UNL A   1      29.890  25.532  26.266  1.00  0.00    -0.269 OA
ATOM      6  H   UNL A   1      30.336  27.217  27.744  1.00  0.00     0.163 HD
BRANCH   4   7
ATOM      7  C   UNL A   1      31.938  25.894  25.088  1.00  0.00     0.065 A 
ATOM      8  C   UNL A   1      33.522  24.324  24.117  1.00  0.00     0.050 A 
ATOM      9  C   UNL A   1      33.844  25.242  23.126  1.00  0.00     0.029 A 
ATOM     10  C   UNL A   1      32.710  24.721  25.173  1.00  0.00     0.042 A 
ATOM     11  C   UNL A   1      33.142  26.440  23.053  1.00  0.00     0.029 A 
ATOM     12  C   UNL A   1      32.098  26.735  23.952  1.00  0.00     0.050 A 
BRANCH   8  13
ATOM     13  N   UNL A   1      33.947  22.989  23.890  1.00  0.00    -0.280 N 
ATOM     14  H   UNL A   1      33.468  22.492  23.188  1.00  0.00     0.180 HD
BRANCH  13  15
ATOM     15  S   UNL A   1      35.168  22.167  24.678  1.00  0.00     0.262 S 
ATOM     16  O   UNL A   1      35.197  22.690  26.034  1.00  0.00    -0.201 OA
ATOM     17  O   UNL A   1      36.314  22.278  23.805  1.00  0.00    -0.201 OA
BRANCH  15  18
ATOM     18  C   UNL A   1      34.828  20.398  24.824  1.00  0.00     0.093 A 
ATOM     19  C   UNL A   1      33.647  16.309  24.007  1.00  0.00     0.044 C 
ATOM     20  C   UNL A   1      34.055  17.712  24.350  1.00  0.00    -0.051 A 
ATOM     21  C   UNL A   1      33.095  18.681  24.622  1.00  0.00     0.008 A 
ATOM     22  C   UNL A   1      35.399  18.061  24.477  1.00  0.00     0.008 A 
ATOM     23  C   UNL A   1      33.457  20.020  24.864  1.00  0.00    -0.030 A 
ATOM     24  C   UNL A   1      35.807  19.386  24.761  1.00  0.00    -0.030 A 
ATOM     25  C   UNL A   1      32.323  20.943  25.246  1.00  0.00     0.046 C 
ATOM     26  C   UNL A   1      37.274  19.560  25.013  1.00  0.00     0.046 C 
ENDBRANCH  15  18
ENDBRANCH  13  15
ENDBRANCH   8  13
BRANCH  12  27
ATOM     27  N   UNL A   1      31.194  27.716  23.581  1.00  0.00    -0.360 N 
ATOM     28  C   UNL A   1      31.557  29.138  23.557  1.00  0.00     0.178 C 
ATOM     29  C   UNL A   1      30.078  27.375  22.691  1.00  0.00     0.178 C 
ATOM     30  C   UNL A   1      30.304  29.975  23.926  1.00  0.00     0.283 C 
ATOM     31  C   UNL A   1      28.852  28.251  23.030  1.00  0.00     0.283 C 
ATOM     32  N   UNL A   1      29.149  29.703  23.024  1.00  0.00    -0.334 N 
ATOM     33  C   UNL A   1      27.974  30.452  23.463  1.00  0.00     0.332 C 
ATOM     34  H   UNL A   1      29.388  29.998  22.077  1.00  0.00     0.347 HD
ENDBRANCH  12  27
ENDBRANCH   4   7
ENDBRANCH   2   3
ENDBRANCH   1   2
BRANCH   1  35
ATOM     35  C   UNL A   1      34.213  28.945  26.202  1.00  0.00     0.118 C 
BRANCH  35  36
ATOM     36  N   UNL A   1      33.897  30.303  26.618  1.00  0.00    -0.352 N 
ATOM     37  C   UNL A   1      34.491  31.071  27.587  1.00  0.00     0.251 C 
ATOM     38  H   UNL A   1      33.154  30.731  26.135  1.00  0.00     0.163 HD
ATOM     39  O   UNL A   1      33.955  32.119  27.938  1.00  0.00    -0.269 OA
BRANCH  37  40
ATOM     40  C   UNL A   1      35.760  30.635  28.214  1.00  0.00     0.039 A 
ATOM     41  C   UNL A   1      35.707  29.730  29.277  1.00  0.00     0.014 A 
ATOM     42  C   UNL A   1      36.992  31.142  27.787  1.00  0.00     0.014 A 
ATOM     43  C   UNL A   1      36.888  29.312  29.893  1.00  0.00     0.010 A 
ATOM     44  C   UNL A   1      38.172  30.673  28.358  1.00  0.00     0.010 A 
ATOM     45  C   UNL A   1      38.131  29.771  29.430  1.00  0.00    -0.014 A 
BRANCH  45  46
ATOM     46  C   UNL A   1      39.393  29.354  30.089  1.00  0.00     0.031 A 
ATOM     47  C   UNL A   1      39.861  30.067  31.330  1.00  0.00     0.074 A 
ATOM     48  C   UNL A   1      40.142  28.375  29.546  1.00  0.00     0.049 A 
ATOM     49  N   UNL A   1      40.957  29.890  32.021  1.00  0.00    -0.248 NA
ATOM     50  C   UNL A   1      38.996  31.141  31.843  1.00  0.00     0.031 C 
ATOM     51  C   UNL A   1      39.825  27.651  28.314  1.00  0.00     0.029 A 
ATOM     52  N   UNL A   1      41.328  27.825  29.959  1.00  0.00    -0.354 N 
ATOM     53  C   UNL A   1      40.930  30.849  33.027  1.00  0.00     0.074 A 
ATOM     54  C   UNL A   1      39.727  31.629  32.834  1.00  0.00     0.031 C 
ATOM     55  C   UNL A   1      40.782  26.738  28.082  1.00  0.00     0.029 A 
ATOM     56  C   UNL A   1      41.789  26.826  29.136  1.00  0.00     0.049 A 
ATOM     57  H   UNL A   1      41.804  28.117  30.769  1.00  0.00     0.167 HD
ATOM     58  C   UNL A   1      41.815  31.049  34.033  1.00  0.00     0.037 A 
ATOM     59  C   UNL A   1      42.894  26.063  29.226  1.00  0.00     0.037 A 
ATOM     60  C   UNL A   1      42.983  30.238  34.251  1.00  0.00     0.049 A 
ATOM     61  C   UNL A   1      43.822  26.250  30.393  1.00  0.00     0.074 A 
ATOM     62  C   UNL A   1      43.907  30.312  35.278  1.00  0.00     0.029 A 
ATOM     63  N   UNL A   1      43.379  29.192  33.431  1.00  0.00    -0.354 N 
ATOM     64  N   UNL A   1      43.751  27.124  31.369  1.00  0.00    -0.248 NA
ATOM     65  C   UNL A   1      44.971  25.338  30.482  1.00  0.00     0.031 C 
ATOM     66  C   UNL A   1      44.872  29.320  35.071  1.00  0.00     0.029 A 
ATOM     67  C   UNL A   1      44.534  28.612  33.929  1.00  0.00     0.049 A 
ATOM     68  H   UNL A   1      42.909  28.903  32.616  1.00  0.00     0.167 HD
ATOM     69  C   UNL A   1      44.834  26.857  32.198  1.00  0.00     0.074 A 
ATOM     70  C   UNL A   1      45.539  25.733  31.615  1.00  0.00     0.031 C 
ATOM     71  C   UNL A   1      45.213  27.486  33.337  1.00  0.00     0.037 A 
BRANCH  58  72
ATOM     72  C   UNL A   1      41.542  32.188  34.973  1.00  0.00     0.058 A 
ATOM     73  C   UNL A   1      40.660  32.051  36.058  1.00  0.00     0.135 A 
ATOM     74  C   UNL A   1      42.168  33.432  34.791  1.00  0.00     0.135 A 
ATOM     75  F   UNL A   1      40.023  30.888  36.267  1.00  0.00    -0.206 F 
ATOM     76  C   UNL A   1      40.378  33.117  36.905  1.00  0.00     0.059 A 
ATOM     77  C   UNL A   1      41.917  34.506  35.641  1.00  0.00     0.059 A 
ATOM     78  F   UNL A   1      43.019  33.617  33.770  1.00  0.00    -0.206 F 
ATOM     79  C   UNL A   1      41.006  34.344  36.683  1.00  0.00     0.060 A 
BRANCH  79  80
ATOM     80  S   UNL A   1      40.619  35.728  37.776  1.00  0.00     0.124 S 
ATOM     81  O   UNL A   1      39.899  36.619  36.873  1.00  0.00    -0.237 OA
ATOM     82  O   UNL A   1      39.813  35.096  38.816  1.00  0.00    -0.237 OA
ATOM     83  O   UNL A   1      41.933  36.196  38.206  1.00  0.00    -0.744 OA
ENDBRANCH  79  80
ENDBRANCH  58  72
BRANCH  59  84
ATOM     84  C   UNL A   1      43.154  25.019  28.202  1.00  0.00     0.058 A 
ATOM     85  C   UNL A   1      43.775  25.345  26.987  1.00  0.00     0.135 A 
ATOM     86  C   UNL A   1      42.820  23.676  28.429  1.00  0.00     0.135 A 
ATOM     87  F   UNL A   1      44.108  26.618  26.726  1.00  0.00    -0.206 F 
ATOM     88  C   UNL A   1      44.047  24.377  26.027  1.00  0.00     0.059 A 
ATOM     89  C   UNL A   1      43.099  22.687  27.490  1.00  0.00     0.059 A 
ATOM     90  F   UNL A   1      42.240  23.313  29.584  1.00  0.00    -0.206 F 
ATOM     91  C   UNL A   1      43.707  23.049  26.288  1.00  0.00     0.060 A 
BRANCH  91  92
ATOM     92  S   UNL A   1      44.120  21.788  25.063  1.00  0.00     0.124 S 
ATOM     93  O   UNL A   1      43.105  20.776  25.329  1.00  0.00    -0.237 OA
ATOM     94  O   UNL A   1      43.979  22.518  23.807  1.00  0.00    -0.237 OA
ATOM     95  O   UNL A   1      45.489  21.420  25.413  1.00  0.00    -0.744 OA
ENDBRANCH  91  92
ENDBRANCH  59  84
BRANCH  71  96
ATOM     96  C   UNL A   1      46.427  26.956  34.041  1.00  0.00     0.058 A 
ATOM     97  C   UNL A   1      46.328  25.946  35.010  1.00  0.00     0.135 A 
ATOM     98  C   UNL A   1      47.704  27.436  33.715  1.00  0.00     0.135 A 
ATOM     99  F   UNL A   1      45.126  25.460  35.360  1.00  0.00    -0.206 F 
ATOM    100  C   UNL A   1      47.457  25.441  35.647  1.00  0.00     0.059 A 
ATOM    101  C   UNL A   1      48.848  26.932  34.325  1.00  0.00     0.059 A 
ATOM    102  F   UNL A   1      47.849  28.395  32.787  1.00  0.00    -0.206 F 
ATOM    103  C   UNL A   1      48.712  25.943  35.301  1.00  0.00     0.060 A 
BRANCH 103 104
ATOM    104  S   UNL A   1      50.176  25.265  36.111  1.00  0.00     0.124 S 
ATOM    105  O   UNL A   1      51.219  25.575  35.139  1.00  0.00    -0.237 OA
ATOM    106  O   UNL A   1      50.228  26.021  37.359  1.00  0.00    -0.237 OA
ATOM    107  O   UNL A   1      49.853  23.849  36.259  1.00  0.00    -0.744 OA
ENDBRANCH 103 104
ENDBRANCH  71  96
ENDBRANCH  45  46
ENDBRANCH  37  40
ENDBRANCH  35  36
ENDBRANCH   1  35
TORSDOF 17
ENDMDL
