MODEL 1
REMARK VINA RESULT:     -12.1      0.000      0.000
REMARK SMILES NC(=O)[C@@H]1CCCCN1C(=O)N[C@H]1C=C[C@@H](C(=O)NCCCNC(=O)c2ccc(-c3c4nc(c(-c5c(F)cc(S(=O)(=O)[O-])cc5F)c5ccc([nH]5)c(-c5c(F)cc(S(=O)(=O)[O-])cc5F)c5nc(c(-c6c(F)cc(S(=O)(=O)[O-])cc6F)c6ccc3[nH]6)C=C5)C=C4)cc2)C1
REMARK SMILES IDX 21 1 20 2 19 3 17 4 18 5 16 7 13 8 14 9 92 10 15 11 12 12
REMARK SMILES IDX 10 13 11 14 9 16 4 17 5 18 6 19 8 20 7 21 2 22 1 23 3 26
REMARK SMILES IDX 22 27 23 28 24 29 25 31 26 32 27 33 91 34 28 35 90 36 29 37
REMARK SMILES IDX 30 38 31 39 84 40 32 41 89 42 83 43 85 44 33 45 88 46 82 47
REMARK SMILES IDX 81 48 34 50 68 51 47 52 67 53 48 54 51 55 66 56 86 57 49 58
REMARK SMILES IDX 50 59 65 61 87 62 52 63 35 64 36 65 45 66 37 67 38 68 44 69
REMARK SMILES IDX 46 70 39 71 40 72 41 73 42 74 43 75 69 76 70 77 79 78 71 79
REMARK SMILES IDX 72 80 78 81 80 82 73 83 74 84 75 85 76 86 77 87 53 88 54 89
REMARK SMILES IDX 63 90 55 91 56 92 62 93 64 94 57 95 58 96 59 97 60 98 61 99
REMARK H PARENT 19 6 12 15 1 24 1 25 23 30 85 49 51 60
REMARK Flexibility Score: inf
ROOT
ATOM      1  C   UNL A   1      40.997  21.907  27.317  1.00  0.00     0.042 C 
ENDROOT
BRANCH   1   2
ATOM      2  C   UNL A   1      39.656  22.473  26.871  1.00  0.00     0.117 C 
BRANCH   2   3
ATOM      3  N   UNL A   1      38.857  21.538  26.098  1.00  0.00    -0.356 N 
ATOM      4  C   UNL A   1      37.802  21.756  25.266  1.00  0.00     0.227 C 
ATOM      5  O   UNL A   1      37.365  20.790  24.631  1.00  0.00    -0.274 OA
ATOM      6  H   UNL A   1      39.123  20.594  26.190  1.00  0.00     0.163 HD
BRANCH   4   7
ATOM      7  C   UNL A   1      37.089  23.110  25.177  1.00  0.00     0.103 C 
ATOM      8  C   UNL A   1      35.157  23.903  23.838  1.00  0.00     0.107 C 
ATOM      9  C   UNL A   1      34.852  23.802  25.308  1.00  0.00    -0.006 C 
ATOM     10  C   UNL A   1      36.578  23.347  23.761  1.00  0.00     0.047 C 
ATOM     11  C   UNL A   1      35.888  23.349  26.029  1.00  0.00    -0.016 C 
BRANCH   8  12
ATOM     12  N   UNL A   1      34.166  23.123  23.118  1.00  0.00    -0.332 N 
ATOM     13  C   UNL A   1      32.833  23.099  22.933  1.00  0.00     0.318 C 
ATOM     14  O   UNL A   1      32.461  22.157  22.232  1.00  0.00    -0.249 OA
ATOM     15  H   UNL A   1      34.597  22.393  22.617  1.00  0.00     0.165 HD
BRANCH  13  16
ATOM     16  N   UNL A   1      31.967  24.020  23.443  1.00  0.00    -0.313 N 
ATOM     17  C   UNL A   1      31.864  25.377  22.830  1.00  0.00     0.176 C 
ATOM     18  C   UNL A   1      32.222  26.437  23.894  1.00  0.00     0.035 C 
ATOM     19  C   UNL A   1      31.358  26.303  25.147  1.00  0.00     0.004 C 
ATOM     20  C   UNL A   1      31.052  23.868  24.567  1.00  0.00     0.122 C 
ATOM     21  C   UNL A   1      31.377  24.873  25.676  1.00  0.00     0.022 C 
BRANCH  17  22
ATOM     22  C   UNL A   1      32.639  25.754  21.543  1.00  0.00     0.240 C 
ATOM     23  N   UNL A   1      31.902  25.720  20.390  1.00  0.00    -0.368 N 
ATOM     24  H   UNL A   1      32.323  25.947  19.530  1.00  0.00     0.159 HD
ATOM     25  H   UNL A   1      30.951  25.469  20.420  1.00  0.00     0.159 HD
ATOM     26  O   UNL A   1      33.823  26.080  21.531  1.00  0.00    -0.273 OA
ENDBRANCH  17  22
ENDBRANCH  13  16
ENDBRANCH   8  12
ENDBRANCH   4   7
ENDBRANCH   2   3
ENDBRANCH   1   2
BRANCH   1  27
ATOM     27  C   UNL A   1      42.110  22.939  27.432  1.00  0.00     0.118 C 
BRANCH  27  28
ATOM     28  N   UNL A   1      42.200  23.805  26.262  1.00  0.00    -0.352 N 
ATOM     29  C   UNL A   1      41.977  25.155  26.136  1.00  0.00     0.251 C 
ATOM     30  H   UNL A   1      42.463  23.350  25.430  1.00  0.00     0.163 HD
ATOM     31  O   UNL A   1      41.899  25.650  25.016  1.00  0.00    -0.269 OA
BRANCH  29  32
ATOM     32  C   UNL A   1      41.828  26.005  27.336  1.00  0.00     0.039 A 
ATOM     33  C   UNL A   1      42.802  26.969  27.610  1.00  0.00     0.014 A 
ATOM     34  C   UNL A   1      40.747  25.837  28.205  1.00  0.00     0.014 A 
ATOM     35  C   UNL A   1      42.651  27.812  28.714  1.00  0.00     0.010 A 
ATOM     36  C   UNL A   1      40.556  26.730  29.254  1.00  0.00     0.010 A 
ATOM     37  C   UNL A   1      41.506  27.726  29.521  1.00  0.00    -0.014 A 
BRANCH  37  38
ATOM     38  C   UNL A   1      41.272  28.674  30.641  1.00  0.00     0.031 A 
ATOM     39  C   UNL A   1      42.085  28.571  31.903  1.00  0.00     0.074 A 
ATOM     40  C   UNL A   1      40.274  29.576  30.550  1.00  0.00     0.049 A 
ATOM     41  N   UNL A   1      41.965  29.240  33.020  1.00  0.00    -0.248 NA
ATOM     42  C   UNL A   1      43.158  27.564  31.919  1.00  0.00     0.031 C 
ATOM     43  C   UNL A   1      39.384  29.738  29.398  1.00  0.00     0.029 A 
ATOM     44  N   UNL A   1      39.830  30.518  31.444  1.00  0.00    -0.354 N 
ATOM     45  C   UNL A   1      42.933  28.727  33.876  1.00  0.00     0.074 A 
ATOM     46  C   UNL A   1      43.599  27.656  33.166  1.00  0.00     0.031 C 
ATOM     47  C   UNL A   1      38.518  30.733  29.646  1.00  0.00     0.029 A 
ATOM     48  C   UNL A   1      38.754  31.246  30.991  1.00  0.00     0.049 A 
ATOM     49  H   UNL A   1      40.242  30.659  32.326  1.00  0.00     0.167 HD
ATOM     50  C   UNL A   1      43.252  29.126  35.131  1.00  0.00     0.037 A 
ATOM     51  C   UNL A   1      38.026  32.203  31.598  1.00  0.00     0.037 A 
ATOM     52  C   UNL A   1      42.594  30.206  35.820  1.00  0.00     0.049 A 
ATOM     53  C   UNL A   1      38.386  32.616  33.000  1.00  0.00     0.074 A 
ATOM     54  C   UNL A   1      42.878  30.726  37.072  1.00  0.00     0.029 A 
ATOM     55  N   UNL A   1      41.519  30.929  35.324  1.00  0.00    -0.354 N 
ATOM     56  N   UNL A   1      39.344  32.163  33.774  1.00  0.00    -0.248 NA
ATOM     57  C   UNL A   1      37.566  33.668  33.616  1.00  0.00     0.031 C 
ATOM     58  C   UNL A   1      41.941  31.725  37.352  1.00  0.00     0.029 A 
ATOM     59  C   UNL A   1      41.110  31.870  36.254  1.00  0.00     0.049 A 
ATOM     60  H   UNL A   1      41.107  30.792  34.439  1.00  0.00     0.167 HD
ATOM     61  C   UNL A   1      39.260  32.893  34.954  1.00  0.00     0.074 A 
ATOM     62  C   UNL A   1      38.164  33.825  34.789  1.00  0.00     0.031 C 
ATOM     63  C   UNL A   1      40.020  32.798  36.072  1.00  0.00     0.037 A 
BRANCH  50  64
ATOM     64  C   UNL A   1      44.359  28.394  35.840  1.00  0.00     0.058 A 
ATOM     65  C   UNL A   1      45.705  28.766  35.691  1.00  0.00     0.135 A 
ATOM     66  C   UNL A   1      44.070  27.332  36.713  1.00  0.00     0.135 A 
ATOM     67  F   UNL A   1      46.043  29.766  34.860  1.00  0.00    -0.206 F 
ATOM     68  C   UNL A   1      46.725  28.095  36.356  1.00  0.00     0.059 A 
ATOM     69  C   UNL A   1      45.071  26.666  37.413  1.00  0.00     0.059 A 
ATOM     70  F   UNL A   1      42.801  26.933  36.895  1.00  0.00    -0.206 F 
ATOM     71  C   UNL A   1      46.398  27.047  37.217  1.00  0.00     0.060 A 
BRANCH  71  72
ATOM     72  S   UNL A   1      47.735  26.192  38.080  1.00  0.00     0.124 S 
ATOM     73  O   UNL A   1      48.189  27.224  39.007  1.00  0.00    -0.237 OA
ATOM     74  O   UNL A   1      47.040  25.060  38.684  1.00  0.00    -0.237 OA
ATOM     75  O   UNL A   1      48.670  25.853  37.012  1.00  0.00    -0.744 OA
ENDBRANCH  71  72
ENDBRANCH  50  64
BRANCH  51  76
ATOM     76  C   UNL A   1      36.890  32.841  30.879  1.00  0.00     0.058 A 
ATOM     77  C   UNL A   1      35.563  32.520  31.198  1.00  0.00     0.135 A 
ATOM     78  C   UNL A   1      37.107  33.791  29.869  1.00  0.00     0.135 A 
ATOM     79  F   UNL A   1      35.303  31.610  32.151  1.00  0.00    -0.206 F 
ATOM     80  C   UNL A   1      34.489  33.103  30.531  1.00  0.00     0.059 A 
ATOM     81  C   UNL A   1      36.050  34.409  29.207  1.00  0.00     0.059 A 
ATOM     82  F   UNL A   1      38.356  34.146  29.531  1.00  0.00    -0.206 F 
ATOM     83  C   UNL A   1      34.744  34.050  29.538  1.00  0.00     0.060 A 
BRANCH  83  84
ATOM     84  S   UNL A   1      33.346  34.831  28.703  1.00  0.00     0.124 S 
ATOM     85  O   UNL A   1      32.955  33.796  27.752  1.00  0.00    -0.237 OA
ATOM     86  O   UNL A   1      32.422  35.068  29.807  1.00  0.00    -0.237 OA
ATOM     87  O   UNL A   1      33.936  36.034  28.119  1.00  0.00    -0.744 OA
ENDBRANCH  83  84
ENDBRANCH  51  76
BRANCH  63  88
ATOM     88  C   UNL A   1      39.721  33.748  37.200  1.00  0.00     0.058 A 
ATOM     89  C   UNL A   1      38.827  33.417  38.229  1.00  0.00     0.135 A 
ATOM     90  C   UNL A   1      40.394  34.979  37.288  1.00  0.00     0.135 A 
ATOM     91  F   UNL A   1      38.150  32.258  38.188  1.00  0.00    -0.206 F 
ATOM     92  C   UNL A   1      38.597  34.277  39.297  1.00  0.00     0.059 A 
ATOM     93  C   UNL A   1      40.203  35.841  38.364  1.00  0.00     0.059 A 
ATOM     94  F   UNL A   1      41.268  35.342  36.336  1.00  0.00    -0.206 F 
ATOM     95  C   UNL A   1      39.296  35.484  39.359  1.00  0.00     0.060 A 
BRANCH  95  96
ATOM     96  S   UNL A   1      39.026  36.566  40.780  1.00  0.00     0.124 S 
ATOM     97  O   UNL A   1      38.482  37.760  40.143  1.00  0.00    -0.237 OA
ATOM     98  O   UNL A   1      38.086  35.792  41.585  1.00  0.00    -0.237 OA
ATOM     99  O   UNL A   1      40.361  36.714  41.354  1.00  0.00    -0.744 OA
ENDBRANCH  95  96
ENDBRANCH  63  88
ENDBRANCH  37  38
ENDBRANCH  29  32
ENDBRANCH  27  28
ENDBRANCH   1  27
TORSDOF 16
ENDMDL
MODEL 2
REMARK VINA RESULT:     -12.0      5.289     12.332
REMARK SMILES NC(=O)[C@@H]1CCCCN1C(=O)N[C@H]1C=C[C@@H](C(=O)NCCCNC(=O)c2ccc(-c3c4nc(c(-c5c(F)cc(S(=O)(=O)[O-])cc5F)c5ccc([nH]5)c(-c5c(F)cc(S(=O)(=O)[O-])cc5F)c5nc(c(-c6c(F)cc(S(=O)(=O)[O-])cc6F)c6ccc3[nH]6)C=C5)C=C4)cc2)C1
REMARK SMILES IDX 21 1 20 2 19 3 17 4 18 5 16 7 13 8 14 9 92 10 15 11 12 12
REMARK SMILES IDX 10 13 11 14 9 16 4 17 5 18 6 19 8 20 7 21 2 22 1 23 3 26
REMARK SMILES IDX 22 27 23 28 24 29 25 31 26 32 27 33 91 34 28 35 90 36 29 37
REMARK SMILES IDX 30 38 31 39 84 40 32 41 89 42 83 43 85 44 33 45 88 46 82 47
REMARK SMILES IDX 81 48 34 50 68 51 47 52 67 53 48 54 51 55 66 56 86 57 49 58
REMARK SMILES IDX 50 59 65 61 87 62 52 63 35 64 36 65 45 66 37 67 38 68 44 69
REMARK SMILES IDX 46 70 39 71 40 72 41 73 42 74 43 75 69 76 70 77 79 78 71 79
REMARK SMILES IDX 72 80 78 81 80 82 73 83 74 84 75 85 76 86 77 87 53 88 54 89
REMARK SMILES IDX 63 90 55 91 56 92 62 93 64 94 57 95 58 96 59 97 60 98 61 99
REMARK H PARENT 19 6 12 15 1 24 1 25 23 30 85 49 51 60
REMARK Flexibility Score: inf
ROOT
ATOM      1  C   UNL A   1      33.583  33.668  28.358  1.00  0.00     0.042 C 
ENDROOT
BRANCH   1   2
ATOM      2  C   UNL A   1      34.014  34.629  29.457  1.00  0.00     0.117 C 
BRANCH   2   3
ATOM      3  N   UNL A   1      33.571  34.234  30.783  1.00  0.00    -0.356 N 
ATOM      4  C   UNL A   1      34.276  34.066  31.935  1.00  0.00     0.227 C 
ATOM      5  O   UNL A   1      33.637  33.835  32.967  1.00  0.00    -0.274 OA
ATOM      6  H   UNL A   1      32.605  34.061  30.860  1.00  0.00     0.163 HD
BRANCH   4   7
ATOM      7  C   UNL A   1      35.809  34.051  31.968  1.00  0.00     0.103 C 
ATOM      8  C   UNL A   1      37.452  32.338  32.690  1.00  0.00     0.107 C 
ATOM      9  C   UNL A   1      37.455  32.568  31.202  1.00  0.00    -0.006 C 
ATOM     10  C   UNL A   1      36.303  33.231  33.155  1.00  0.00     0.047 C 
ATOM     11  C   UNL A   1      36.548  33.474  30.809  1.00  0.00    -0.016 C 
BRANCH   8  12
ATOM     12  N   UNL A   1      37.246  30.920  32.926  1.00  0.00    -0.332 N 
ATOM     13  C   UNL A   1      37.913  29.870  33.440  1.00  0.00     0.318 C 
ATOM     14  O   UNL A   1      37.283  28.814  33.362  1.00  0.00    -0.249 OA
ATOM     15  H   UNL A   1      36.352  30.644  32.617  1.00  0.00     0.165 HD
BRANCH  13  16
ATOM     16  N   UNL A   1      39.150  29.945  34.009  1.00  0.00    -0.313 N 
ATOM     17  C   UNL A   1      39.316  30.524  35.375  1.00  0.00     0.176 C 
ATOM     18  C   UNL A   1      40.258  31.745  35.290  1.00  0.00     0.035 C 
ATOM     19  C   UNL A   1      41.598  31.390  34.648  1.00  0.00     0.004 C 
ATOM     20  C   UNL A   1      40.423  29.504  33.455  1.00  0.00     0.122 C 
ATOM     21  C   UNL A   1      41.394  30.681  33.313  1.00  0.00     0.022 C 
BRANCH  17  22
ATOM     22  C   UNL A   1      38.102  30.954  36.235  1.00  0.00     0.240 C 
ATOM     23  N   UNL A   1      37.746  30.070  37.219  1.00  0.00    -0.368 N 
ATOM     24  H   UNL A   1      36.984  30.272  37.809  1.00  0.00     0.159 HD
ATOM     25  H   UNL A   1      38.252  29.235  37.337  1.00  0.00     0.159 HD
ATOM     26  O   UNL A   1      37.495  32.010  36.079  1.00  0.00    -0.273 OA
ENDBRANCH  17  22
ENDBRANCH  13  16
ENDBRANCH   8  12
ENDBRANCH   4   7
ENDBRANCH   2   3
ENDBRANCH   1   2
BRANCH   1  27
ATOM     27  C   UNL A   1      34.577  32.551  28.073  1.00  0.00     0.118 C 
BRANCH  27  28
ATOM     28  N   UNL A   1      33.950  31.235  28.024  1.00  0.00    -0.352 N 
ATOM     29  C   UNL A   1      34.513  29.982  27.987  1.00  0.00     0.251 C 
ATOM     30  H   UNL A   1      32.966  31.247  28.016  1.00  0.00     0.163 HD
ATOM     31  O   UNL A   1      33.806  29.012  27.730  1.00  0.00    -0.269 OA
BRANCH  29  32
ATOM     32  C   UNL A   1      35.957  29.802  28.249  1.00  0.00     0.039 A 
ATOM     33  C   UNL A   1      36.373  29.427  29.529  1.00  0.00     0.014 A 
ATOM     34  C   UNL A   1      36.902  30.027  27.244  1.00  0.00     0.014 A 
ATOM     35  C   UNL A   1      37.730  29.207  29.780  1.00  0.00     0.010 A 
ATOM     36  C   UNL A   1      38.241  29.727  27.473  1.00  0.00     0.010 A 
ATOM     37  C   UNL A   1      38.670  29.315  28.743  1.00  0.00    -0.014 A 
BRANCH  37  38
ATOM     38  C   UNL A   1      40.104  28.990  28.957  1.00  0.00     0.031 A 
ATOM     39  C   UNL A   1      41.055  30.049  29.443  1.00  0.00     0.074 A 
ATOM     40  C   UNL A   1      40.560  27.762  28.639  1.00  0.00     0.049 A 
ATOM     41  N   UNL A   1      42.352  29.986  29.598  1.00  0.00    -0.248 NA
ATOM     42  C   UNL A   1      40.475  31.361  29.773  1.00  0.00     0.031 C 
ATOM     43  C   UNL A   1      39.744  26.667  28.111  1.00  0.00     0.029 A 
ATOM     44  N   UNL A   1      41.825  27.231  28.700  1.00  0.00    -0.354 N 
ATOM     45  C   UNL A   1      42.745  31.248  30.028  1.00  0.00     0.074 A 
ATOM     46  C   UNL A   1      41.556  32.072  30.060  1.00  0.00     0.031 C 
ATOM     47  C   UNL A   1      40.521  25.590  27.918  1.00  0.00     0.029 A 
ATOM     48  C   UNL A   1      41.899  25.930  28.258  1.00  0.00     0.049 A 
ATOM     49  H   UNL A   1      42.605  27.733  29.028  1.00  0.00     0.167 HD
ATOM     50  C   UNL A   1      43.981  31.675  30.383  1.00  0.00     0.037 A 
ATOM     51  C   UNL A   1      42.959  25.111  28.122  1.00  0.00     0.037 A 
ATOM     52  C   UNL A   1      45.155  30.841  30.364  1.00  0.00     0.049 A 
ATOM     53  C   UNL A   1      44.326  25.614  28.502  1.00  0.00     0.074 A 
ATOM     54  C   UNL A   1      46.443  31.161  30.757  1.00  0.00     0.029 A 
ATOM     55  N   UNL A   1      45.187  29.525  29.924  1.00  0.00    -0.354 N 
ATOM     56  N   UNL A   1      44.672  26.792  28.966  1.00  0.00    -0.248 NA
ATOM     57  C   UNL A   1      45.448  24.680  28.342  1.00  0.00     0.031 C 
ATOM     58  C   UNL A   1      47.263  30.057  30.504  1.00  0.00     0.029 A 
ATOM     59  C   UNL A   1      46.478  29.029  30.010  1.00  0.00     0.049 A 
ATOM     60  H   UNL A   1      44.408  29.019  29.599  1.00  0.00     0.167 HD
ATOM     61  C   UNL A   1      46.044  26.731  29.178  1.00  0.00     0.074 A 
ATOM     62  C   UNL A   1      46.465  25.397  28.803  1.00  0.00     0.031 C 
ATOM     63  C   UNL A   1      46.880  27.693  29.640  1.00  0.00     0.037 A 
BRANCH  50  64
ATOM     64  C   UNL A   1      44.129  33.107  30.822  1.00  0.00     0.058 A 
ATOM     65  C   UNL A   1      44.188  34.162  29.897  1.00  0.00     0.135 A 
ATOM     66  C   UNL A   1      44.170  33.436  32.187  1.00  0.00     0.135 A 
ATOM     67  F   UNL A   1      44.167  33.907  28.578  1.00  0.00    -0.206 F 
ATOM     68  C   UNL A   1      44.314  35.485  30.305  1.00  0.00     0.059 A 
ATOM     69  C   UNL A   1      44.263  34.755  32.620  1.00  0.00     0.059 A 
ATOM     70  F   UNL A   1      44.115  32.469  33.117  1.00  0.00    -0.206 F 
ATOM     71  C   UNL A   1      44.348  35.772  31.671  1.00  0.00     0.060 A 
BRANCH  71  72
ATOM     72  S   UNL A   1      44.502  37.497  32.185  1.00  0.00     0.124 S 
ATOM     73  O   UNL A   1      45.931  37.589  32.468  1.00  0.00    -0.237 OA
ATOM     74  O   UNL A   1      44.042  38.216  31.001  1.00  0.00    -0.237 OA
ATOM     75  O   UNL A   1      43.626  37.586  33.349  1.00  0.00    -0.744 OA
ENDBRANCH  71  72
ENDBRANCH  50  64
BRANCH  51  76
ATOM     76  C   UNL A   1      42.769  23.727  27.608  1.00  0.00     0.058 A 
ATOM     77  C   UNL A   1      42.567  22.652  28.488  1.00  0.00     0.135 A 
ATOM     78  C   UNL A   1      42.774  23.451  26.232  1.00  0.00     0.135 A 
ATOM     79  F   UNL A   1      42.563  22.862  29.814  1.00  0.00    -0.206 F 
ATOM     80  C   UNL A   1      42.393  21.352  28.024  1.00  0.00     0.059 A 
ATOM     81  C   UNL A   1      42.574  22.164  25.743  1.00  0.00     0.059 A 
ATOM     82  F   UNL A   1      42.951  24.442  25.345  1.00  0.00    -0.206 F 
ATOM     83  C   UNL A   1      42.395  21.119  26.647  1.00  0.00     0.060 A 
BRANCH  83  84
ATOM     84  S   UNL A   1      42.131  19.434  26.051  1.00  0.00     0.124 S 
ATOM     85  O   UNL A   1      42.605  18.644  27.182  1.00  0.00    -0.237 OA
ATOM     86  O   UNL A   1      40.692  19.414  25.814  1.00  0.00    -0.237 OA
ATOM     87  O   UNL A   1      42.958  19.372  24.848  1.00  0.00    -0.744 OA
ENDBRANCH  83  84
ENDBRANCH  51  76
BRANCH  63  88
ATOM     88  C   UNL A   1      48.332  27.335  29.800  1.00  0.00     0.058 A 
ATOM     89  C   UNL A   1      49.265  27.548  28.774  1.00  0.00     0.135 A 
ATOM     90  C   UNL A   1      48.809  26.838  31.026  1.00  0.00     0.135 A 
ATOM     91  F   UNL A   1      48.862  28.013  27.581  1.00  0.00    -0.206 F 
ATOM     92  C   UNL A   1      50.615  27.267  28.949  1.00  0.00     0.059 A 
ATOM     93  C   UNL A   1      50.161  26.578  31.233  1.00  0.00     0.059 A 
ATOM     94  F   UNL A   1      47.962  26.625  32.044  1.00  0.00    -0.206 F 
ATOM     95  C   UNL A   1      51.055  26.789  30.185  1.00  0.00     0.060 A 
BRANCH  95  96
ATOM     96  S   UNL A   1      52.819  26.478  30.414  1.00  0.00     0.124 S 
ATOM     97  O   UNL A   1      53.243  26.169  29.053  1.00  0.00    -0.237 OA
ATOM     98  O   UNL A   1      53.291  27.750  30.952  1.00  0.00    -0.237 OA
ATOM     99  O   UNL A   1      52.849  25.358  31.351  1.00  0.00    -0.744 OA
ENDBRANCH  95  96
ENDBRANCH  63  88
ENDBRANCH  37  38
ENDBRANCH  29  32
ENDBRANCH  27  28
ENDBRANCH   1  27
TORSDOF 16
ENDMDL
MODEL 3
REMARK VINA RESULT:     -11.9      6.318     10.986
REMARK SMILES NC(=O)[C@@H]1CCCCN1C(=O)N[C@H]1C=C[C@@H](C(=O)NCCCNC(=O)c2ccc(-c3c4nc(c(-c5c(F)cc(S(=O)(=O)[O-])cc5F)c5ccc([nH]5)c(-c5c(F)cc(S(=O)(=O)[O-])cc5F)c5nc(c(-c6c(F)cc(S(=O)(=O)[O-])cc6F)c6ccc3[nH]6)C=C5)C=C4)cc2)C1
REMARK SMILES IDX 21 1 20 2 19 3 17 4 18 5 16 7 13 8 14 9 92 10 15 11 12 12
REMARK SMILES IDX 10 13 11 14 9 16 4 17 5 18 6 19 8 20 7 21 2 22 1 23 3 26
REMARK SMILES IDX 22 27 23 28 24 29 25 31 26 32 27 33 91 34 28 35 90 36 29 37
REMARK SMILES IDX 30 38 31 39 84 40 32 41 89 42 83 43 85 44 33 45 88 46 82 47
REMARK SMILES IDX 81 48 34 50 68 51 47 52 67 53 48 54 51 55 66 56 86 57 49 58
REMARK SMILES IDX 50 59 65 61 87 62 52 63 35 64 36 65 45 66 37 67 38 68 44 69
REMARK SMILES IDX 46 70 39 71 40 72 41 73 42 74 43 75 69 76 70 77 79 78 71 79
REMARK SMILES IDX 72 80 78 81 80 82 73 83 74 84 75 85 76 86 77 87 53 88 54 89
REMARK SMILES IDX 63 90 55 91 56 92 62 93 64 94 57 95 58 96 59 97 60 98 61 99
REMARK H PARENT 19 6 12 15 1 24 1 25 23 30 85 49 51 60
REMARK Flexibility Score: inf
ROOT
ATOM      1  C   UNL A   1      38.164  19.884  25.083  1.00  0.00     0.042 C 
ENDROOT
BRANCH   1   2
ATOM      2  C   UNL A   1      37.069  20.935  24.961  1.00  0.00     0.117 C 
BRANCH   2   3
ATOM      3  N   UNL A   1      35.734  20.415  25.198  1.00  0.00    -0.356 N 
ATOM      4  C   UNL A   1      34.574  21.063  25.496  1.00  0.00     0.227 C 
ATOM      5  O   UNL A   1      33.538  20.391  25.536  1.00  0.00    -0.274 OA
ATOM      6  H   UNL A   1      35.655  19.436  25.131  1.00  0.00     0.163 HD
BRANCH   4   7
ATOM      7  C   UNL A   1      34.534  22.546  25.880  1.00  0.00     0.103 C 
ATOM      8  C   UNL A   1      33.106  24.433  25.134  1.00  0.00     0.107 C 
ATOM      9  C   UNL A   1      32.845  24.024  26.559  1.00  0.00    -0.006 C 
ATOM     10  C   UNL A   1      34.128  23.392  24.679  1.00  0.00     0.047 C 
ATOM     11  C   UNL A   1      33.598  22.987  26.954  1.00  0.00    -0.016 C 
BRANCH   8  12
ATOM     12  N   UNL A   1      31.844  24.392  24.415  1.00  0.00    -0.332 N 
ATOM     13  C   UNL A   1      31.014  25.236  23.775  1.00  0.00     0.318 C 
ATOM     14  O   UNL A   1      29.996  24.684  23.356  1.00  0.00    -0.249 OA
ATOM     15  H   UNL A   1      31.490  23.473  24.390  1.00  0.00     0.165 HD
BRANCH  13  16
ATOM     16  N   UNL A   1      31.261  26.563  23.583  1.00  0.00    -0.313 N 
ATOM     17  C   UNL A   1      32.155  27.010  22.475  1.00  0.00     0.176 C 
ATOM     18  C   UNL A   1      33.348  27.786  23.076  1.00  0.00     0.035 C 
ATOM     19  C   UNL A   1      32.889  28.951  23.951  1.00  0.00     0.004 C 
ATOM     20  C   UNL A   1      30.737  27.693  24.339  1.00  0.00     0.122 C 
ATOM     21  C   UNL A   1      31.874  28.488  24.991  1.00  0.00     0.022 C 
BRANCH  17  22
ATOM     22  C   UNL A   1      32.742  26.013  21.445  1.00  0.00     0.240 C 
ATOM     23  N   UNL A   1      31.983  25.825  20.321  1.00  0.00    -0.368 N 
ATOM     24  H   UNL A   1      32.288  25.207  19.619  1.00  0.00     0.159 HD
ATOM     25  H   UNL A   1      31.132  26.308  20.215  1.00  0.00     0.159 HD
ATOM     26  O   UNL A   1      33.815  25.434  21.591  1.00  0.00    -0.273 OA
ENDBRANCH  17  22
ENDBRANCH  13  16
ENDBRANCH   8  12
ENDBRANCH   4   7
ENDBRANCH   2   3
ENDBRANCH   1   2
BRANCH   1  27
ATOM     27  C   UNL A   1      39.393  20.342  25.858  1.00  0.00     0.118 C 
BRANCH  27  28
ATOM     28  N   UNL A   1      40.384  19.285  26.018  1.00  0.00    -0.352 N 
ATOM     29  C   UNL A   1      41.747  19.361  26.172  1.00  0.00     0.251 C 
ATOM     30  H   UNL A   1      40.018  18.371  26.016  1.00  0.00     0.163 HD
ATOM     31  O   UNL A   1      42.421  18.340  26.075  1.00  0.00    -0.269 OA
BRANCH  29  32
ATOM     32  C   UNL A   1      42.399  20.658  26.448  1.00  0.00     0.039 A 
ATOM     33  C   UNL A   1      42.909  21.402  25.380  1.00  0.00     0.014 A 
ATOM     34  C   UNL A   1      42.533  21.130  27.756  1.00  0.00     0.014 A 
ATOM     35  C   UNL A   1      43.486  22.652  25.619  1.00  0.00     0.010 A 
ATOM     36  C   UNL A   1      43.031  22.409  27.983  1.00  0.00     0.010 A 
ATOM     37  C   UNL A   1      43.514  23.184  26.918  1.00  0.00    -0.014 A 
BRANCH  37  38
ATOM     38  C   UNL A   1      44.031  24.551  27.188  1.00  0.00     0.031 A 
ATOM     39  C   UNL A   1      43.088  25.648  27.600  1.00  0.00     0.074 A 
ATOM     40  C   UNL A   1      45.336  24.818  26.985  1.00  0.00     0.049 A 
ATOM     41  N   UNL A   1      43.331  26.920  27.785  1.00  0.00    -0.248 NA
ATOM     42  C   UNL A   1      41.680  25.271  27.805  1.00  0.00     0.031 C 
ATOM     43  C   UNL A   1      46.338  23.848  26.537  1.00  0.00     0.029 A 
ATOM     44  N   UNL A   1      46.044  25.987  27.116  1.00  0.00    -0.354 N 
ATOM     45  C   UNL A   1      42.110  27.497  28.113  1.00  0.00     0.074 A 
ATOM     46  C   UNL A   1      41.117  26.446  28.051  1.00  0.00     0.031 C 
ATOM     47  C   UNL A   1      47.533  24.455  26.452  1.00  0.00     0.029 A 
ATOM     48  C   UNL A   1      47.375  25.866  26.789  1.00  0.00     0.049 A 
ATOM     49  H   UNL A   1      45.638  26.832  27.415  1.00  0.00     0.167 HD
ATOM     50  C   UNL A   1      41.844  28.781  28.454  1.00  0.00     0.037 A 
ATOM     51  C   UNL A   1      48.353  26.791  26.745  1.00  0.00     0.037 A 
ATOM     52  C   UNL A   1      42.844  29.814  28.529  1.00  0.00     0.049 A 
ATOM     53  C   UNL A   1      48.029  28.215  27.107  1.00  0.00     0.074 A 
ATOM     54  C   UNL A   1      42.687  31.134  28.919  1.00  0.00     0.029 A 
ATOM     55  N   UNL A   1      44.183  29.650  28.205  1.00  0.00    -0.354 N 
ATOM     56  N   UNL A   1      46.881  28.733  27.475  1.00  0.00    -0.248 NA
ATOM     57  C   UNL A   1      49.132  29.185  27.050  1.00  0.00     0.031 C 
ATOM     58  C   UNL A   1      43.920  31.779  28.778  1.00  0.00     0.029 A 
ATOM     59  C   UNL A   1      44.858  30.850  28.359  1.00  0.00     0.049 A 
ATOM     60  H   UNL A   1      44.592  28.805  27.909  1.00  0.00     0.167 HD
ATOM     61  C   UNL A   1      47.128  30.079  27.718  1.00  0.00     0.074 A 
ATOM     62  C   UNL A   1      48.538  30.295  27.467  1.00  0.00     0.031 C 
ATOM     63  C   UNL A   1      46.266  31.048  28.112  1.00  0.00     0.037 A 
BRANCH  50  64
ATOM     64  C   UNL A   1      40.417  29.141  28.771  1.00  0.00     0.058 A 
ATOM     65  C   UNL A   1      39.965  29.272  30.094  1.00  0.00     0.135 A 
ATOM     66  C   UNL A   1      39.499  29.399  27.740  1.00  0.00     0.135 A 
ATOM     67  F   UNL A   1      40.794  29.024  31.121  1.00  0.00    -0.206 F 
ATOM     68  C   UNL A   1      38.649  29.616  30.384  1.00  0.00     0.059 A 
ATOM     69  C   UNL A   1      38.186  29.776  28.006  1.00  0.00     0.059 A 
ATOM     70  F   UNL A   1      39.875  29.291  26.456  1.00  0.00    -0.206 F 
ATOM     71  C   UNL A   1      37.766  29.868  29.333  1.00  0.00     0.060 A 
BRANCH  71  72
ATOM     72  S   UNL A   1      36.064  30.322  29.727  1.00  0.00     0.124 S 
ATOM     73  O   UNL A   1      35.860  29.617  30.989  1.00  0.00    -0.237 OA
ATOM     74  O   UNL A   1      36.144  31.776  29.820  1.00  0.00    -0.237 OA
ATOM     75  O   UNL A   1      35.302  29.810  28.594  1.00  0.00    -0.744 OA
ENDBRANCH  71  72
ENDBRANCH  50  64
BRANCH  51  76
ATOM     76  C   UNL A   1      49.732  26.396  26.348  1.00  0.00     0.058 A 
ATOM     77  C   UNL A   1      50.616  25.830  27.279  1.00  0.00     0.135 A 
ATOM     78  C   UNL A   1      50.191  26.567  25.033  1.00  0.00     0.135 A 
ATOM     79  F   UNL A   1      50.228  25.655  28.552  1.00  0.00    -0.206 F 
ATOM     80  C   UNL A   1      51.911  25.461  26.925  1.00  0.00     0.059 A 
ATOM     81  C   UNL A   1      51.471  26.180  24.649  1.00  0.00     0.059 A 
ATOM     82  F   UNL A   1      49.384  27.093  24.098  1.00  0.00    -0.206 F 
ATOM     83  C   UNL A   1      52.328  25.638  25.605  1.00  0.00     0.060 A 
BRANCH  83  84
ATOM     84  S   UNL A   1      53.997  25.122  25.144  1.00  0.00     0.124 S 
ATOM     85  O   UNL A   1      53.807  23.697  24.900  1.00  0.00    -0.237 OA
ATOM     86  O   UNL A   1      54.258  25.944  23.967  1.00  0.00    -0.237 OA
ATOM     87  O   UNL A   1      54.788  25.460  26.325  1.00  0.00    -0.744 OA
ENDBRANCH  83  84
ENDBRANCH  51  76
BRANCH  63  88
ATOM     88  C   UNL A   1      46.822  32.428  28.331  1.00  0.00     0.058 A 
ATOM     89  C   UNL A   1      47.423  32.800  29.544  1.00  0.00     0.135 A 
ATOM     90  C   UNL A   1      46.818  33.369  27.287  1.00  0.00     0.135 A 
ATOM     91  F   UNL A   1      47.446  31.943  30.577  1.00  0.00    -0.206 F 
ATOM     92  C   UNL A   1      47.985  34.060  29.720  1.00  0.00     0.059 A 
ATOM     93  C   UNL A   1      47.402  34.624  27.431  1.00  0.00     0.059 A 
ATOM     94  F   UNL A   1      46.265  33.063  26.103  1.00  0.00    -0.206 F 
ATOM     95  C   UNL A   1      47.976  34.963  28.655  1.00  0.00     0.060 A 
BRANCH  95  96
ATOM     96  S   UNL A   1      48.757  36.575  28.883  1.00  0.00     0.124 S 
ATOM     97  O   UNL A   1      50.130  36.196  29.200  1.00  0.00    -0.237 OA
ATOM     98  O   UNL A   1      48.558  37.203  27.580  1.00  0.00    -0.237 OA
ATOM     99  O   UNL A   1      48.000  37.168  29.981  1.00  0.00    -0.744 OA
ENDBRANCH  95  96
ENDBRANCH  63  88
ENDBRANCH  37  38
ENDBRANCH  29  32
ENDBRANCH  27  28
ENDBRANCH   1  27
TORSDOF 16
ENDMDL
