MODEL 1
REMARK VINA RESULT:     -14.2      0.000      0.000
REMARK SMILES Cc1ccc(S(=O)(=O)Nc2cc(C(=O)NCCCNC(=O)c3ccc(-c4c5nc(c(-c6c(F)cc(S(=O)(=O)[O-])cc6F)c6ccc([nH]6)c(-c6c(F)cc(S(=O)(=O)[O-])cc6F)c6nc(c(-c7c(F)cc(S(=O)(=O)[O-])cc7F)c7ccc4[nH]7)C=C6)C=C5)cc3)ccc2C)c(Br)c1
REMARK SMILES IDX 17 1 16 2 15 3 13 4 14 5 12 7 10 8 11 9 90 10 89 11 91 12
REMARK SMILES IDX 88 13 9 14 6 16 7 17 8 18 5 19 1 20 2 21 3 22 94 23 4 24
REMARK SMILES IDX 92 25 93 26 18 27 19 28 20 29 21 31 22 32 23 33 87 34 24 35
REMARK SMILES IDX 86 36 25 37 26 38 27 39 80 40 28 41 85 42 79 43 81 44 29 45
REMARK SMILES IDX 84 46 78 47 77 48 30 50 64 51 43 52 63 53 44 54 47 55 62 56
REMARK SMILES IDX 82 57 45 58 46 59 61 61 83 62 48 63 31 64 32 65 41 66 33 67
REMARK SMILES IDX 34 68 40 69 42 70 35 71 36 72 37 73 38 74 39 75 65 76 66 77
REMARK SMILES IDX 75 78 67 79 68 80 74 81 76 82 69 83 70 84 71 85 72 86 73 87
REMARK SMILES IDX 49 88 50 89 59 90 51 91 52 92 58 93 60 94 53 95 54 96 55 97
REMARK SMILES IDX 56 98 57 99
REMARK H PARENT 15 6 9 15 19 30 81 49 47 60
REMARK Flexibility Score: inf
ROOT
ATOM      1  C   UNL A   1      32.794  29.696  26.900  1.00  0.00     0.042 C 
ENDROOT
BRANCH   1   2
ATOM      2  C   UNL A   1      32.936  29.575  25.383  1.00  0.00     0.118 C 
BRANCH   2   3
ATOM      3  N   UNL A   1      31.668  29.729  24.688  1.00  0.00    -0.352 N 
ATOM      4  C   UNL A   1      30.912  28.853  23.949  1.00  0.00     0.251 C 
ATOM      5  O   UNL A   1      29.799  29.228  23.573  1.00  0.00    -0.269 OA
ATOM      6  H   UNL A   1      31.279  30.630  24.761  1.00  0.00     0.163 HD
BRANCH   4   7
ATOM      7  C   UNL A   1      31.333  27.457  23.612  1.00  0.00     0.041 A 
ATOM      8  C   UNL A   1      31.264  25.039  23.835  1.00  0.00     0.053 A 
ATOM      9  C   UNL A   1      30.952  26.312  24.315  1.00  0.00     0.040 A 
ATOM     10  C   UNL A   1      32.204  24.892  22.804  1.00  0.00    -0.027 A 
ATOM     11  C   UNL A   1      32.644  26.036  22.129  1.00  0.00     0.006 A 
ATOM     12  C   UNL A   1      32.725  23.552  22.360  1.00  0.00     0.046 C 
ATOM     13  C   UNL A   1      32.185  27.300  22.507  1.00  0.00     0.014 A 
BRANCH   8  14
ATOM     14  N   UNL A   1      30.734  23.838  24.418  1.00  0.00    -0.279 N 
ATOM     15  H   UNL A   1      30.008  23.370  23.945  1.00  0.00     0.180 HD
BRANCH  14  16
ATOM     16  S   UNL A   1      31.297  23.185  25.887  1.00  0.00     0.263 S 
ATOM     17  O   UNL A   1      30.602  21.913  25.953  1.00  0.00    -0.201 OA
ATOM     18  O   UNL A   1      31.070  24.209  26.883  1.00  0.00    -0.201 OA
BRANCH  16  19
ATOM     19  C   UNL A   1      33.042  22.854  25.842  1.00  0.00     0.101 A 
ATOM     20  C   UNL A   1      37.229  22.497  24.858  1.00  0.00     0.044 C 
ATOM     21  C   UNL A   1      35.788  22.584  25.276  1.00  0.00    -0.050 A 
ATOM     22  C   UNL A   1      35.332  23.628  26.087  1.00  0.00     0.005 A 
ATOM     23  C   UNL A   1      34.880  21.603  24.862  1.00  0.00     0.020 A 
ATOM     24  C   UNL A   1      33.969  23.752  26.388  1.00  0.00     0.024 A 
ATOM     25  C   UNL A   1      33.513  21.731  25.142  1.00  0.00     0.038 A 
ATOM     26  Br  UNL A   1      32.407  20.296  24.561  1.00  0.00    -0.049 Br
ENDBRANCH  16  19
ENDBRANCH  14  16
ENDBRANCH   8  14
ENDBRANCH   4   7
ENDBRANCH   2   3
ENDBRANCH   1   2
BRANCH   1  27
ATOM     27  C   UNL A   1      34.122  29.529  27.612  1.00  0.00     0.118 C 
BRANCH  27  28
ATOM     28  N   UNL A   1      34.717  30.774  28.077  1.00  0.00    -0.352 N 
ATOM     29  C   UNL A   1      35.970  30.956  28.655  1.00  0.00     0.251 C 
ATOM     30  H   UNL A   1      34.168  31.584  27.969  1.00  0.00     0.163 HD
ATOM     31  O   UNL A   1      36.310  32.016  29.119  1.00  0.00    -0.269 OA
BRANCH  29  32
ATOM     32  C   UNL A   1      36.896  29.794  28.629  1.00  0.00     0.039 A 
ATOM     33  C   UNL A   1      37.070  29.051  29.800  1.00  0.00     0.014 A 
ATOM     34  C   UNL A   1      37.750  29.625  27.545  1.00  0.00     0.014 A 
ATOM     35  C   UNL A   1      38.220  28.273  29.951  1.00  0.00     0.010 A 
ATOM     36  C   UNL A   1      38.948  28.974  27.750  1.00  0.00     0.010 A 
ATOM     37  C   UNL A   1      39.204  28.318  28.962  1.00  0.00    -0.014 A 
BRANCH  37  38
ATOM     38  C   UNL A   1      40.552  27.770  29.106  1.00  0.00     0.031 A 
ATOM     39  C   UNL A   1      40.852  26.394  28.628  1.00  0.00     0.074 A 
ATOM     40  C   UNL A   1      41.571  28.543  29.553  1.00  0.00     0.049 A 
ATOM     41  N   UNL A   1      41.849  25.679  29.033  1.00  0.00    -0.248 NA
ATOM     42  C   UNL A   1      40.013  25.692  27.663  1.00  0.00     0.031 C 
ATOM     43  C   UNL A   1      42.997  28.260  29.406  1.00  0.00     0.029 A 
ATOM     44  N   UNL A   1      41.538  29.647  30.409  1.00  0.00    -0.354 N 
ATOM     45  C   UNL A   1      41.960  24.590  28.193  1.00  0.00     0.074 A 
ATOM     46  C   UNL A   1      40.757  24.615  27.399  1.00  0.00     0.031 C 
ATOM     47  C   UNL A   1      43.668  28.929  30.354  1.00  0.00     0.029 A 
ATOM     48  C   UNL A   1      42.684  29.556  31.217  1.00  0.00     0.049 A 
ATOM     49  H   UNL A   1      40.850  30.350  30.438  1.00  0.00     0.167 HD
ATOM     50  C   UNL A   1      43.122  23.870  28.169  1.00  0.00     0.037 A 
ATOM     51  C   UNL A   1      42.691  29.496  32.581  1.00  0.00     0.037 A 
ATOM     52  C   UNL A   1      44.081  24.390  29.142  1.00  0.00     0.049 A 
ATOM     53  C   UNL A   1      43.423  28.291  33.122  1.00  0.00     0.074 A 
ATOM     54  C   UNL A   1      45.165  25.244  29.013  1.00  0.00     0.029 A 
ATOM     55  N   UNL A   1      43.836  24.262  30.503  1.00  0.00    -0.354 N 
ATOM     56  N   UNL A   1      43.720  27.247  32.403  1.00  0.00    -0.248 NA
ATOM     57  C   UNL A   1      43.840  28.141  34.514  1.00  0.00     0.031 C 
ATOM     58  C   UNL A   1      45.563  25.647  30.309  1.00  0.00     0.029 A 
ATOM     59  C   UNL A   1      44.721  25.040  31.224  1.00  0.00     0.049 A 
ATOM     60  H   UNL A   1      43.132  23.699  30.898  1.00  0.00     0.167 HD
ATOM     61  C   UNL A   1      44.316  26.294  33.190  1.00  0.00     0.074 A 
ATOM     62  C   UNL A   1      44.387  26.912  34.500  1.00  0.00     0.031 C 
ATOM     63  C   UNL A   1      44.682  25.079  32.680  1.00  0.00     0.037 A 
BRANCH  50  64
ATOM     64  C   UNL A   1      43.518  22.893  27.071  1.00  0.00     0.058 A 
ATOM     65  C   UNL A   1      42.841  21.659  26.924  1.00  0.00     0.135 A 
ATOM     66  C   UNL A   1      44.578  23.079  26.163  1.00  0.00     0.135 A 
ATOM     67  F   UNL A   1      41.730  21.378  27.617  1.00  0.00    -0.206 F 
ATOM     68  C   UNL A   1      43.266  20.649  26.059  1.00  0.00     0.059 A 
ATOM     69  C   UNL A   1      45.057  22.064  25.325  1.00  0.00     0.059 A 
ATOM     70  F   UNL A   1      45.157  24.274  26.001  1.00  0.00    -0.206 F 
ATOM     71  C   UNL A   1      44.405  20.843  25.293  1.00  0.00     0.060 A 
BRANCH  71  72
ATOM     72  S   UNL A   1      44.994  19.492  24.255  1.00  0.00     0.124 S 
ATOM     73  O   UNL A   1      44.539  19.902  22.930  1.00  0.00    -0.237 OA
ATOM     74  O   UNL A   1      46.435  19.543  24.476  1.00  0.00    -0.237 OA
ATOM     75  O   UNL A   1      44.317  18.321  24.806  1.00  0.00    -0.744 OA
ENDBRANCH  71  72
ENDBRANCH  50  64
BRANCH  51  76
ATOM     76  C   UNL A   1      41.533  30.152  33.234  1.00  0.00     0.058 A 
ATOM     77  C   UNL A   1      41.566  31.552  33.352  1.00  0.00     0.135 A 
ATOM     78  C   UNL A   1      40.285  29.515  33.274  1.00  0.00     0.135 A 
ATOM     79  F   UNL A   1      42.742  32.200  33.356  1.00  0.00    -0.206 F 
ATOM     80  C   UNL A   1      40.401  32.306  33.304  1.00  0.00     0.059 A 
ATOM     81  C   UNL A   1      39.103  30.253  33.228  1.00  0.00     0.059 A 
ATOM     82  F   UNL A   1      40.204  28.182  33.156  1.00  0.00    -0.206 F 
ATOM     83  C   UNL A   1      39.184  31.645  33.158  1.00  0.00     0.060 A 
BRANCH  83  84
ATOM     84  S   UNL A   1      37.759  32.626  32.626  1.00  0.00     0.124 S 
ATOM     85  O   UNL A   1      38.278  33.298  31.441  1.00  0.00    -0.237 OA
ATOM     86  O   UNL A   1      36.773  31.576  32.378  1.00  0.00    -0.237 OA
ATOM     87  O   UNL A   1      37.500  33.477  33.781  1.00  0.00    -0.744 OA
ENDBRANCH  83  84
ENDBRANCH  51  76
BRANCH  63  88
ATOM     88  C   UNL A   1      45.139  23.862  33.457  1.00  0.00     0.058 A 
ATOM     89  C   UNL A   1      46.448  23.664  33.926  1.00  0.00     0.135 A 
ATOM     90  C   UNL A   1      44.198  22.884  33.875  1.00  0.00     0.135 A 
ATOM     91  F   UNL A   1      47.412  24.569  33.713  1.00  0.00    -0.206 F 
ATOM     92  C   UNL A   1      46.817  22.547  34.682  1.00  0.00     0.059 A 
ATOM     93  C   UNL A   1      44.531  21.793  34.675  1.00  0.00     0.059 A 
ATOM     94  F   UNL A   1      42.904  22.962  33.531  1.00  0.00    -0.206 F 
ATOM     95  C   UNL A   1      45.853  21.614  35.051  1.00  0.00     0.060 A 
BRANCH  95  96
ATOM     96  S   UNL A   1      46.305  20.201  36.072  1.00  0.00     0.124 S 
ATOM     97  O   UNL A   1      45.759  20.591  37.368  1.00  0.00    -0.237 OA
ATOM     98  O   UNL A   1      45.624  19.090  35.412  1.00  0.00    -0.237 OA
ATOM     99  O   UNL A   1      47.761  20.175  35.978  1.00  0.00    -0.744 OA
ENDBRANCH  95  96
ENDBRANCH  63  88
ENDBRANCH  37  38
ENDBRANCH  29  32
ENDBRANCH  27  28
ENDBRANCH   1  27
TORSDOF 16
ENDMDL
MODEL 2
REMARK VINA RESULT:     -14.1      1.324      1.941
REMARK SMILES Cc1ccc(S(=O)(=O)Nc2cc(C(=O)NCCCNC(=O)c3ccc(-c4c5nc(c(-c6c(F)cc(S(=O)(=O)[O-])cc6F)c6ccc([nH]6)c(-c6c(F)cc(S(=O)(=O)[O-])cc6F)c6nc(c(-c7c(F)cc(S(=O)(=O)[O-])cc7F)c7ccc4[nH]7)C=C6)C=C5)cc3)ccc2C)c(Br)c1
REMARK SMILES IDX 17 1 16 2 15 3 13 4 14 5 12 7 10 8 11 9 90 10 89 11 91 12
REMARK SMILES IDX 88 13 9 14 6 16 7 17 8 18 5 19 1 20 2 21 3 22 94 23 4 24
REMARK SMILES IDX 92 25 93 26 18 27 19 28 20 29 21 31 22 32 23 33 87 34 24 35
REMARK SMILES IDX 86 36 25 37 26 38 27 39 80 40 28 41 85 42 79 43 81 44 29 45
REMARK SMILES IDX 84 46 78 47 77 48 30 50 64 51 43 52 63 53 44 54 47 55 62 56
REMARK SMILES IDX 82 57 45 58 46 59 61 61 83 62 48 63 31 64 32 65 41 66 33 67
REMARK SMILES IDX 34 68 40 69 42 70 35 71 36 72 37 73 38 74 39 75 65 76 66 77
REMARK SMILES IDX 75 78 67 79 68 80 74 81 76 82 69 83 70 84 71 85 72 86 73 87
REMARK SMILES IDX 49 88 50 89 59 90 51 91 52 92 58 93 60 94 53 95 54 96 55 97
REMARK SMILES IDX 56 98 57 99
REMARK H PARENT 15 6 9 15 19 30 81 49 47 60
REMARK Flexibility Score: inf
ROOT
ATOM      1  C   UNL A   1      32.863  29.725  27.119  1.00  0.00     0.042 C 
ENDROOT
BRANCH   1   2
ATOM      2  C   UNL A   1      32.202  29.794  25.743  1.00  0.00     0.118 C 
BRANCH   2   3
ATOM      3  N   UNL A   1      33.165  29.753  24.655  1.00  0.00    -0.352 N 
ATOM      4  C   UNL A   1      33.454  28.792  23.718  1.00  0.00     0.251 C 
ATOM      5  O   UNL A   1      34.250  29.083  22.822  1.00  0.00    -0.269 OA
ATOM      6  H   UNL A   1      33.715  30.567  24.576  1.00  0.00     0.163 HD
BRANCH   4   7
ATOM      7  C   UNL A   1      32.828  27.434  23.688  1.00  0.00     0.041 A 
ATOM      8  C   UNL A   1      32.529  25.147  24.454  1.00  0.00     0.053 A 
ATOM      9  C   UNL A   1      33.270  26.331  24.423  1.00  0.00     0.040 A 
ATOM     10  C   UNL A   1      31.494  24.947  23.529  1.00  0.00    -0.027 A 
ATOM     11  C   UNL A   1      31.080  26.026  22.740  1.00  0.00     0.006 A 
ATOM     12  C   UNL A   1      30.776  23.633  23.381  1.00  0.00     0.046 C 
ATOM     13  C   UNL A   1      31.718  27.264  22.846  1.00  0.00     0.014 A 
BRANCH   8  14
ATOM     14  N   UNL A   1      32.841  24.061  25.339  1.00  0.00    -0.279 N 
ATOM     15  H   UNL A   1      32.183  23.817  26.030  1.00  0.00     0.180 HD
BRANCH  14  16
ATOM     16  S   UNL A   1      34.293  23.172  25.255  1.00  0.00     0.263 S 
ATOM     17  O   UNL A   1      34.746  23.178  26.633  1.00  0.00    -0.201 OA
ATOM     18  O   UNL A   1      35.074  23.800  24.212  1.00  0.00    -0.201 OA
BRANCH  16  19
ATOM     19  C   UNL A   1      34.011  21.484  24.777  1.00  0.00     0.101 A 
ATOM     20  C   UNL A   1      33.239  17.242  24.584  1.00  0.00     0.044 C 
ATOM     21  C   UNL A   1      33.510  18.720  24.565  1.00  0.00    -0.050 A 
ATOM     22  C   UNL A   1      32.476  19.643  24.379  1.00  0.00     0.005 A 
ATOM     23  C   UNL A   1      34.817  19.193  24.724  1.00  0.00     0.020 A 
ATOM     24  C   UNL A   1      32.728  21.020  24.463  1.00  0.00     0.024 A 
ATOM     25  C   UNL A   1      35.074  20.567  24.828  1.00  0.00     0.038 A 
ATOM     26  Br  UNL A   1      36.903  21.063  24.991  1.00  0.00    -0.049 Br
ENDBRANCH  16  19
ENDBRANCH  14  16
ENDBRANCH   8  14
ENDBRANCH   4   7
ENDBRANCH   2   3
ENDBRANCH   1   2
BRANCH   1  27
ATOM     27  C   UNL A   1      34.375  29.783  27.029  1.00  0.00     0.118 C 
BRANCH  27  28
ATOM     28  N   UNL A   1      34.964  31.005  27.558  1.00  0.00    -0.352 N 
ATOM     29  C   UNL A   1      36.163  31.143  28.252  1.00  0.00     0.251 C 
ATOM     30  H   UNL A   1      34.454  31.833  27.406  1.00  0.00     0.163 HD
ATOM     31  O   UNL A   1      36.491  32.189  28.755  1.00  0.00    -0.269 OA
BRANCH  29  32
ATOM     32  C   UNL A   1      37.049  29.952  28.303  1.00  0.00     0.039 A 
ATOM     33  C   UNL A   1      37.162  29.253  29.509  1.00  0.00     0.014 A 
ATOM     34  C   UNL A   1      37.930  29.710  27.255  1.00  0.00     0.014 A 
ATOM     35  C   UNL A   1      38.280  28.445  29.729  1.00  0.00     0.010 A 
ATOM     36  C   UNL A   1      39.099  29.030  27.526  1.00  0.00     0.010 A 
ATOM     37  C   UNL A   1      39.295  28.417  28.771  1.00  0.00    -0.014 A 
BRANCH  37  38
ATOM     38  C   UNL A   1      40.619  27.832  28.980  1.00  0.00     0.031 A 
ATOM     39  C   UNL A   1      40.893  26.436  28.547  1.00  0.00     0.074 A 
ATOM     40  C   UNL A   1      41.643  28.585  29.448  1.00  0.00     0.049 A 
ATOM     41  N   UNL A   1      41.851  25.701  29.008  1.00  0.00    -0.248 NA
ATOM     42  C   UNL A   1      40.070  25.736  27.567  1.00  0.00     0.031 C 
ATOM     43  C   UNL A   1      43.064  28.255  29.364  1.00  0.00     0.029 A 
ATOM     44  N   UNL A   1      41.612  29.710  30.276  1.00  0.00    -0.354 N 
ATOM     45  C   UNL A   1      41.961  24.589  28.200  1.00  0.00     0.074 A 
ATOM     46  C   UNL A   1      40.790  24.630  27.358  1.00  0.00     0.031 C 
ATOM     47  C   UNL A   1      43.719  28.927  30.321  1.00  0.00     0.029 A 
ATOM     48  C   UNL A   1      42.722  29.605  31.130  1.00  0.00     0.049 A 
ATOM     49  H   UNL A   1      40.946  30.434  30.261  1.00  0.00     0.167 HD
ATOM     50  C   UNL A   1      43.099  23.833  28.238  1.00  0.00     0.037 A 
ATOM     51  C   UNL A   1      42.676  29.579  32.494  1.00  0.00     0.037 A 
ATOM     52  C   UNL A   1      44.035  24.349  29.235  1.00  0.00     0.049 A 
ATOM     53  C   UNL A   1      43.348  28.366  33.093  1.00  0.00     0.074 A 
ATOM     54  C   UNL A   1      45.150  25.165  29.128  1.00  0.00     0.029 A 
ATOM     55  N   UNL A   1      43.735  24.262  30.588  1.00  0.00    -0.354 N 
ATOM     56  N   UNL A   1      43.640  27.295  32.411  1.00  0.00    -0.248 NA
ATOM     57  C   UNL A   1      43.706  28.238  34.502  1.00  0.00     0.031 C 
ATOM     58  C   UNL A   1      45.511  25.588  30.429  1.00  0.00     0.029 A 
ATOM     59  C   UNL A   1      44.616  25.031  31.324  1.00  0.00     0.049 A 
ATOM     60  H   UNL A   1      42.999  23.730  30.968  1.00  0.00     0.167 HD
ATOM     61  C   UNL A   1      44.175  26.345  33.243  1.00  0.00     0.074 A 
ATOM     62  C   UNL A   1      44.215  26.993  34.539  1.00  0.00     0.031 C 
ATOM     63  C   UNL A   1      44.521  25.107  32.776  1.00  0.00     0.037 A 
BRANCH  50  64
ATOM     64  C   UNL A   1      43.506  22.818  27.180  1.00  0.00     0.058 A 
ATOM     65  C   UNL A   1      42.790  21.607  27.028  1.00  0.00     0.135 A 
ATOM     66  C   UNL A   1      44.612  22.943  26.317  1.00  0.00     0.135 A 
ATOM     67  F   UNL A   1      41.639  21.383  27.675  1.00  0.00    -0.206 F 
ATOM     68  C   UNL A   1      43.215  20.563  26.204  1.00  0.00     0.059 A 
ATOM     69  C   UNL A   1      45.089  21.893  25.523  1.00  0.00     0.059 A 
ATOM     70  F   UNL A   1      45.244  24.113  26.157  1.00  0.00    -0.206 F 
ATOM     71  C   UNL A   1      44.393  20.696  25.487  1.00  0.00     0.060 A 
BRANCH  71  72
ATOM     72  S   UNL A   1      44.976  19.302  24.506  1.00  0.00     0.124 S 
ATOM     73  O   UNL A   1      44.554  19.676  23.159  1.00  0.00    -0.237 OA
ATOM     74  O   UNL A   1      46.413  19.333  24.753  1.00  0.00    -0.237 OA
ATOM     75  O   UNL A   1      44.266  18.162  25.082  1.00  0.00    -0.744 OA
ENDBRANCH  71  72
ENDBRANCH  50  64
BRANCH  51  76
ATOM     76  C   UNL A   1      41.514  30.286  33.086  1.00  0.00     0.058 A 
ATOM     77  C   UNL A   1      41.581  31.688  33.160  1.00  0.00     0.135 A 
ATOM     78  C   UNL A   1      40.249  29.683  33.103  1.00  0.00     0.135 A 
ATOM     79  F   UNL A   1      42.773  32.304  33.185  1.00  0.00    -0.206 F 
ATOM     80  C   UNL A   1      40.440  32.470  33.048  1.00  0.00     0.059 A 
ATOM     81  C   UNL A   1      39.090  30.449  32.992  1.00  0.00     0.059 A 
ATOM     82  F   UNL A   1      40.135  28.349  33.024  1.00  0.00    -0.206 F 
ATOM     83  C   UNL A   1      39.210  31.836  32.881  1.00  0.00     0.060 A 
BRANCH  83  84
ATOM     84  S   UNL A   1      37.832  32.836  32.270  1.00  0.00     0.124 S 
ATOM     85  O   UNL A   1      37.547  33.694  33.414  1.00  0.00    -0.237 OA
ATOM     86  O   UNL A   1      38.451  33.496  31.122  1.00  0.00    -0.237 OA
ATOM     87  O   UNL A   1      36.818  31.837  31.953  1.00  0.00    -0.744 OA
ENDBRANCH  83  84
ENDBRANCH  51  76
BRANCH  63  88
ATOM     88  C   UNL A   1      44.911  23.896  33.599  1.00  0.00     0.058 A 
ATOM     89  C   UNL A   1      44.025  22.873  33.976  1.00  0.00     0.135 A 
ATOM     90  C   UNL A   1      46.271  23.664  33.932  1.00  0.00     0.135 A 
ATOM     91  F   UNL A   1      42.733  22.900  33.620  1.00  0.00    -0.206 F 
ATOM     92  C   UNL A   1      44.436  21.747  34.696  1.00  0.00     0.059 A 
ATOM     93  C   UNL A   1      46.712  22.524  34.600  1.00  0.00     0.059 A 
ATOM     94  F   UNL A   1      47.234  24.539  33.605  1.00  0.00    -0.206 F 
ATOM     95  C   UNL A   1      45.782  21.581  35.007  1.00  0.00     0.060 A 
BRANCH  95  96
ATOM     96  S   UNL A   1      46.333  20.107  35.884  1.00  0.00     0.124 S 
ATOM     97  O   UNL A   1      47.783  20.224  35.770  1.00  0.00    -0.237 OA
ATOM     98  O   UNL A   1      45.789  20.304  37.225  1.00  0.00    -0.237 OA
ATOM     99  O   UNL A   1      45.722  19.021  35.124  1.00  0.00    -0.744 OA
ENDBRANCH  95  96
ENDBRANCH  63  88
ENDBRANCH  37  38
ENDBRANCH  29  32
ENDBRANCH  27  28
ENDBRANCH   1  27
TORSDOF 16
ENDMDL
MODEL 3
REMARK VINA RESULT:     -13.8      4.563     11.303
REMARK SMILES Cc1ccc(S(=O)(=O)Nc2cc(C(=O)NCCCNC(=O)c3ccc(-c4c5nc(c(-c6c(F)cc(S(=O)(=O)[O-])cc6F)c6ccc([nH]6)c(-c6c(F)cc(S(=O)(=O)[O-])cc6F)c6nc(c(-c7c(F)cc(S(=O)(=O)[O-])cc7F)c7ccc4[nH]7)C=C6)C=C5)cc3)ccc2C)c(Br)c1
REMARK SMILES IDX 17 1 16 2 15 3 13 4 14 5 12 7 10 8 11 9 90 10 89 11 91 12
REMARK SMILES IDX 88 13 9 14 6 16 7 17 8 18 5 19 1 20 2 21 3 22 94 23 4 24
REMARK SMILES IDX 92 25 93 26 18 27 19 28 20 29 21 31 22 32 23 33 87 34 24 35
REMARK SMILES IDX 86 36 25 37 26 38 27 39 80 40 28 41 85 42 79 43 81 44 29 45
REMARK SMILES IDX 84 46 78 47 77 48 30 50 64 51 43 52 63 53 44 54 47 55 62 56
REMARK SMILES IDX 82 57 45 58 46 59 61 61 83 62 48 63 31 64 32 65 41 66 33 67
REMARK SMILES IDX 34 68 40 69 42 70 35 71 36 72 37 73 38 74 39 75 65 76 66 77
REMARK SMILES IDX 75 78 67 79 68 80 74 81 76 82 69 83 70 84 71 85 72 86 73 87
REMARK SMILES IDX 49 88 50 89 59 90 51 91 52 92 58 93 60 94 53 95 54 96 55 97
REMARK SMILES IDX 56 98 57 99
REMARK H PARENT 15 6 9 15 19 30 81 49 47 60
REMARK Flexibility Score: inf
ROOT
ATOM      1  C   UNL A   1      37.533  22.603  24.882  1.00  0.00     0.042 C 
ENDROOT
BRANCH   1   2
ATOM      2  C   UNL A   1      36.985  21.205  25.165  1.00  0.00     0.118 C 
BRANCH   2   3
ATOM      3  N   UNL A   1      35.895  21.215  26.126  1.00  0.00    -0.352 N 
ATOM      4  C   UNL A   1      34.663  21.823  26.115  1.00  0.00     0.251 C 
ATOM      5  O   UNL A   1      33.879  21.553  27.027  1.00  0.00    -0.269 OA
ATOM      6  H   UNL A   1      36.072  20.687  26.939  1.00  0.00     0.163 HD
BRANCH   4   7
ATOM      7  C   UNL A   1      34.197  22.754  25.041  1.00  0.00     0.041 A 
ATOM      8  C   UNL A   1      33.894  24.939  24.022  1.00  0.00     0.053 A 
ATOM      9  C   UNL A   1      34.197  24.149  25.132  1.00  0.00     0.040 A 
ATOM     10  C   UNL A   1      33.307  24.356  22.888  1.00  0.00    -0.027 A 
ATOM     11  C   UNL A   1      33.242  22.960  22.809  1.00  0.00     0.006 A 
ATOM     12  C   UNL A   1      32.786  25.166  21.733  1.00  0.00     0.046 C 
ATOM     13  C   UNL A   1      33.715  22.171  23.859  1.00  0.00     0.014 A 
BRANCH   8  14
ATOM     14  N   UNL A   1      34.065  26.365  24.015  1.00  0.00    -0.279 N 
ATOM     15  H   UNL A   1      34.810  26.744  23.494  1.00  0.00     0.180 HD
BRANCH  14  16
ATOM     16  S   UNL A   1      33.044  27.433  24.864  1.00  0.00     0.263 S 
ATOM     17  O   UNL A   1      33.835  28.648  24.917  1.00  0.00    -0.201 OA
ATOM     18  O   UNL A   1      32.670  26.736  26.075  1.00  0.00    -0.201 OA
BRANCH  16  19
ATOM     19  C   UNL A   1      31.555  27.787  23.962  1.00  0.00     0.101 A 
ATOM     20  C   UNL A   1      27.681  29.113  22.597  1.00  0.00     0.044 C 
ATOM     21  C   UNL A   1      29.043  28.617  22.994  1.00  0.00    -0.050 A 
ATOM     22  C   UNL A   1      30.197  29.342  22.680  1.00  0.00     0.005 A 
ATOM     23  C   UNL A   1      29.172  27.405  23.682  1.00  0.00     0.020 A 
ATOM     24  C   UNL A   1      31.451  28.919  23.142  1.00  0.00     0.024 A 
ATOM     25  C   UNL A   1      30.420  26.986  24.164  1.00  0.00     0.038 A 
ATOM     26  Br  UNL A   1      30.450  25.294  25.034  1.00  0.00    -0.049 Br
ENDBRANCH  16  19
ENDBRANCH  14  16
ENDBRANCH   8  14
ENDBRANCH   4   7
ENDBRANCH   2   3
ENDBRANCH   1   2
BRANCH   1  27
ATOM     27  C   UNL A   1      38.034  23.285  26.139  1.00  0.00     0.118 C 
BRANCH  27  28
ATOM     28  N   UNL A   1      39.428  23.013  26.458  1.00  0.00    -0.352 N 
ATOM     29  C   UNL A   1      40.409  23.925  26.839  1.00  0.00     0.251 C 
ATOM     30  H   UNL A   1      39.711  22.072  26.399  1.00  0.00     0.163 HD
ATOM     31  O   UNL A   1      41.566  23.604  26.957  1.00  0.00    -0.269 OA
BRANCH  29  32
ATOM     32  C   UNL A   1      39.958  25.307  27.145  1.00  0.00     0.039 A 
ATOM     33  C   UNL A   1      40.479  26.363  26.390  1.00  0.00     0.014 A 
ATOM     34  C   UNL A   1      39.246  25.551  28.313  1.00  0.00     0.014 A 
ATOM     35  C   UNL A   1      40.446  27.658  26.913  1.00  0.00     0.010 A 
ATOM     36  C   UNL A   1      39.341  26.799  28.890  1.00  0.00     0.010 A 
ATOM     37  C   UNL A   1      39.964  27.854  28.209  1.00  0.00    -0.014 A 
BRANCH  37  38
ATOM     38  C   UNL A   1      40.111  29.093  28.970  1.00  0.00     0.031 A 
ATOM     39  C   UNL A   1      39.025  30.111  28.953  1.00  0.00     0.074 A 
ATOM     40  C   UNL A   1      41.166  29.278  29.798  1.00  0.00     0.049 A 
ATOM     41  N   UNL A   1      39.187  31.358  29.246  1.00  0.00    -0.248 NA
ATOM     42  C   UNL A   1      37.655  29.798  28.562  1.00  0.00     0.031 C 
ATOM     43  C   UNL A   1      41.260  30.268  30.868  1.00  0.00     0.029 A 
ATOM     44  N   UNL A   1      42.457  28.748  29.723  1.00  0.00    -0.354 N 
ATOM     45  C   UNL A   1      37.937  31.929  29.379  1.00  0.00     0.074 A 
ATOM     46  C   UNL A   1      37.023  30.931  28.881  1.00  0.00     0.031 C 
ATOM     47  C   UNL A   1      42.554  30.501  31.128  1.00  0.00     0.029 A 
ATOM     48  C   UNL A   1      43.329  29.766  30.144  1.00  0.00     0.049 A 
ATOM     49  H   UNL A   1      42.706  27.841  29.434  1.00  0.00     0.167 HD
ATOM     50  C   UNL A   1      37.806  33.128  30.023  1.00  0.00     0.037 A 
ATOM     51  C   UNL A   1      44.354  30.290  29.410  1.00  0.00     0.037 A 
ATOM     52  C   UNL A   1      39.108  33.645  30.437  1.00  0.00     0.049 A 
ATOM     53  C   UNL A   1      44.270  31.790  29.249  1.00  0.00     0.074 A 
ATOM     54  C   UNL A   1      39.782  33.609  31.647  1.00  0.00     0.029 A 
ATOM     55  N   UNL A   1      40.026  34.071  29.485  1.00  0.00    -0.354 N 
ATOM     56  N   UNL A   1      43.188  32.478  29.478  1.00  0.00    -0.248 NA
ATOM     57  C   UNL A   1      45.370  32.627  28.782  1.00  0.00     0.031 C 
ATOM     58  C   UNL A   1      41.121  33.998  31.417  1.00  0.00     0.029 A 
ATOM     59  C   UNL A   1      41.263  34.269  30.068  1.00  0.00     0.049 A 
ATOM     60  H   UNL A   1      39.825  34.209  28.531  1.00  0.00     0.167 HD
ATOM     61  C   UNL A   1      43.404  33.798  29.175  1.00  0.00     0.074 A 
ATOM     62  C   UNL A   1      44.794  33.844  28.764  1.00  0.00     0.031 C 
ATOM     63  C   UNL A   1      42.404  34.724  29.284  1.00  0.00     0.037 A 
BRANCH  50  64
ATOM     64  C   UNL A   1      36.495  33.692  30.552  1.00  0.00     0.058 A 
ATOM     65  C   UNL A   1      35.511  34.185  29.662  1.00  0.00     0.135 A 
ATOM     66  C   UNL A   1      36.158  33.825  31.913  1.00  0.00     0.135 A 
ATOM     67  F   UNL A   1      35.611  34.020  28.338  1.00  0.00    -0.206 F 
ATOM     68  C   UNL A   1      34.372  34.874  30.084  1.00  0.00     0.059 A 
ATOM     69  C   UNL A   1      35.052  34.556  32.361  1.00  0.00     0.059 A 
ATOM     70  F   UNL A   1      36.853  33.196  32.869  1.00  0.00    -0.206 F 
ATOM     71  C   UNL A   1      34.171  35.095  31.438  1.00  0.00     0.060 A 
BRANCH  71  72
ATOM     72  S   UNL A   1      32.747  36.069  31.957  1.00  0.00     0.124 S 
ATOM     73  O   UNL A   1      31.872  35.052  32.533  1.00  0.00    -0.237 OA
ATOM     74  O   UNL A   1      33.345  37.004  32.905  1.00  0.00    -0.237 OA
ATOM     75  O   UNL A   1      32.268  36.662  30.711  1.00  0.00    -0.744 OA
ENDBRANCH  71  72
ENDBRANCH  50  64
BRANCH  51  76
ATOM     76  C   UNL A   1      44.937  29.360  28.413  1.00  0.00     0.058 A 
ATOM     77  C   UNL A   1      45.922  28.464  28.865  1.00  0.00     0.135 A 
ATOM     78  C   UNL A   1      44.230  29.031  27.248  1.00  0.00     0.135 A 
ATOM     79  F   UNL A   1      46.649  28.757  29.955  1.00  0.00    -0.206 F 
ATOM     80  C   UNL A   1      46.058  27.201  28.305  1.00  0.00     0.059 A 
ATOM     81  C   UNL A   1      44.352  27.769  26.669  1.00  0.00     0.059 A 
ATOM     82  F   UNL A   1      43.275  29.850  26.785  1.00  0.00    -0.206 F 
ATOM     83  C   UNL A   1      45.208  26.839  27.262  1.00  0.00     0.060 A 
BRANCH  83  84
ATOM     84  S   UNL A   1      45.069  25.078  26.872  1.00  0.00     0.124 S 
ATOM     85  O   UNL A   1      44.462  24.544  28.086  1.00  0.00    -0.237 OA
ATOM     86  O   UNL A   1      44.202  25.118  25.696  1.00  0.00    -0.237 OA
ATOM     87  O   UNL A   1      46.452  24.687  26.625  1.00  0.00    -0.744 OA
ENDBRANCH  83  84
ENDBRANCH  51  76
BRANCH  63  88
ATOM     88  C   UNL A   1      42.424  36.155  28.785  1.00  0.00     0.058 A 
ATOM     89  C   UNL A   1      43.021  37.227  29.468  1.00  0.00     0.135 A 
ATOM     90  C   UNL A   1      41.934  36.467  27.490  1.00  0.00     0.135 A 
ATOM     91  F   UNL A   1      43.635  37.051  30.646  1.00  0.00    -0.206 F 
ATOM     92  C   UNL A   1      43.060  38.524  28.948  1.00  0.00     0.059 A 
ATOM     93  C   UNL A   1      42.011  37.740  26.928  1.00  0.00     0.059 A 
ATOM     94  F   UNL A   1      41.368  35.535  26.708  1.00  0.00    -0.206 F 
ATOM     95  C   UNL A   1      42.550  38.773  27.677  1.00  0.00     0.060 A 
BRANCH  95  96
ATOM     96  S   UNL A   1      42.645  40.429  26.973  1.00  0.00     0.124 S 
ATOM     97  O   UNL A   1      43.469  40.196  25.791  1.00  0.00    -0.237 OA
ATOM     98  O   UNL A   1      41.245  40.752  26.711  1.00  0.00    -0.237 OA
ATOM     99  O   UNL A   1      43.268  41.207  28.038  1.00  0.00    -0.744 OA
ENDBRANCH  95  96
ENDBRANCH  63  88
ENDBRANCH  37  38
ENDBRANCH  29  32
ENDBRANCH  27  28
ENDBRANCH   1  27
TORSDOF 16
ENDMDL
