MODEL 1
REMARK VINA RESULT:     -13.3      0.000      0.000
REMARK SMILES COc1ccccc1C(=O)N1[C@@H](C(=O)NCCCNC(=O)c2ccc(-c3c4nc(c(-c5c(F)cc(S(=O)(=O)[O-])cc5F)c5ccc([nH]5)c(-c5c(F)cc(S(=O)(=O)[O-])cc5F)c5nc(c(-c6c(F)cc(S(=O)(=O)[O-])cc6F)c6ccc3[nH]6)C=C5)C=C4)cc2)COC12CC[NH+](Cc1ccccc1)CC2
REMARK SMILES IDX 17 1 16 2 15 3 13 4 14 5 12 7 11 8 90 9 88 10 89 11 91 12
REMARK SMILES IDX 102 13 92 14 101 15 93 16 9 18 10 19 8 20 3 21 4 22 5 23
REMARK SMILES IDX 7 24 6 25 2 26 1 27 94 28 95 29 96 30 100 31 97 32 99 33
REMARK SMILES IDX 98 34 18 35 19 36 20 37 21 39 22 40 23 41 87 42 24 43 86 44
REMARK SMILES IDX 25 45 26 46 27 47 80 48 28 49 85 50 79 51 81 52 29 53 84 54
REMARK SMILES IDX 78 55 77 56 30 58 64 59 43 60 63 61 44 62 47 63 62 64 82 65
REMARK SMILES IDX 45 66 46 67 61 69 83 70 48 71 31 72 32 73 41 74 33 75 34 76
REMARK SMILES IDX 40 77 42 78 35 79 36 80 37 81 38 82 39 83 65 84 66 85 75 86
REMARK SMILES IDX 67 87 68 88 74 89 76 90 69 91 70 92 71 93 72 94 73 95 49 96
REMARK SMILES IDX 50 97 59 98 51 99 52 100 58 101 60 102 53 103 54 104 55 105
REMARK SMILES IDX 56 106 57 107
REMARK H PARENT 15 6 93 17 19 38 81 57 47 68
REMARK Flexibility Score: inf
ROOT
ATOM      1  C   UNL A   1      33.989  30.892  27.292  1.00  0.00     0.042 C 
ENDROOT
BRANCH   1   2
ATOM      2  C   UNL A   1      33.337  29.894  26.356  1.00  0.00     0.117 C 
BRANCH   2   3
ATOM      3  N   UNL A   1      32.133  29.277  26.848  1.00  0.00    -0.354 N 
ATOM      4  C   UNL A   1      31.798  27.955  26.791  1.00  0.00     0.245 C 
ATOM      5  O   UNL A   1      31.004  27.544  27.644  1.00  0.00    -0.273 OA
ATOM      6  H   UNL A   1      31.478  29.877  27.274  1.00  0.00     0.163 HD
BRANCH   4   7
ATOM      7  C   UNL A   1      32.355  27.012  25.706  1.00  0.00     0.203 C 
ATOM      8  N   UNL A   1      31.580  25.807  25.410  1.00  0.00    -0.295 N 
ATOM      9  C   UNL A   1      32.490  24.645  25.509  1.00  0.00     0.155 C 
ATOM     10  C   UNL A   1      33.750  26.521  26.022  1.00  0.00     0.198 C 
ATOM     11  O   UNL A   1      33.589  25.127  26.327  1.00  0.00    -0.352 OA
ATOM     12  C   UNL A   1      31.857  23.450  26.230  1.00  0.00     0.120 C 
ATOM     13  C   UNL A   1      33.098  24.188  24.168  1.00  0.00     0.120 C 
ATOM     14  C   UNL A   1      32.793  22.255  26.331  1.00  0.00     0.267 C 
ATOM     15  C   UNL A   1      33.950  22.916  24.314  1.00  0.00     0.267 C 
ATOM     16  N   UNL A   1      33.313  21.822  25.042  1.00  0.00    -0.331 N 
ATOM     17  H   UNL A   1      34.085  21.186  25.242  1.00  0.00     0.348 HD
BRANCH   8  18
ATOM     18  C   UNL A   1      30.690  25.920  24.340  1.00  0.00     0.260 C 
ATOM     19  O   UNL A   1      30.056  24.926  23.972  1.00  0.00    -0.269 OA
BRANCH  18  20
ATOM     20  C   UNL A   1      30.541  27.188  23.546  1.00  0.00     0.082 A 
ATOM     21  C   UNL A   1      31.487  27.806  22.722  1.00  0.00     0.131 A 
ATOM     22  C   UNL A   1      31.226  29.063  22.140  1.00  0.00     0.047 A 
ATOM     23  C   UNL A   1      29.982  29.668  22.271  1.00  0.00     0.004 A 
ATOM     24  C   UNL A   1      29.279  27.816  23.646  1.00  0.00     0.018 A 
ATOM     25  C   UNL A   1      28.995  29.030  23.006  1.00  0.00     0.001 A 
BRANCH  21  26
ATOM     26  O   UNL A   1      32.715  27.266  22.468  1.00  0.00    -0.496 OA
ATOM     27  C   UNL A   1      33.714  28.283  22.510  1.00  0.00     0.278 C 
ENDBRANCH  21  26
ENDBRANCH  18  20
ENDBRANCH   8  18
BRANCH  16  28
ATOM     28  C   UNL A   1      32.477  20.880  24.289  1.00  0.00     0.299 C 
BRANCH  28  29
ATOM     29  C   UNL A   1      33.060  19.526  23.950  1.00  0.00     0.006 A 
ATOM     30  C   UNL A   1      34.229  19.060  24.567  1.00  0.00     0.009 A 
ATOM     31  C   UNL A   1      32.417  18.693  23.021  1.00  0.00     0.009 A 
ATOM     32  C   UNL A   1      34.697  17.768  24.315  1.00  0.00     0.001 A 
ATOM     33  C   UNL A   1      32.867  17.392  22.794  1.00  0.00     0.001 A 
ATOM     34  C   UNL A   1      34.002  16.927  23.448  1.00  0.00     0.000 A 
ENDBRANCH  28  29
ENDBRANCH  16  28
ENDBRANCH   4   7
ENDBRANCH   2   3
ENDBRANCH   1   2
BRANCH   1  35
ATOM     35  C   UNL A   1      35.103  30.235  28.096  1.00  0.00     0.118 C 
BRANCH  35  36
ATOM     36  N   UNL A   1      35.259  30.778  29.447  1.00  0.00    -0.352 N 
ATOM     37  C   UNL A   1      36.343  30.719  30.290  1.00  0.00     0.251 C 
ATOM     38  H   UNL A   1      34.474  31.254  29.803  1.00  0.00     0.163 HD
ATOM     39  O   UNL A   1      36.282  31.214  31.412  1.00  0.00    -0.269 OA
BRANCH  37  40
ATOM     40  C   UNL A   1      37.547  29.992  29.849  1.00  0.00     0.039 A 
ATOM     41  C   UNL A   1      37.955  30.108  28.520  1.00  0.00     0.014 A 
ATOM     42  C   UNL A   1      38.330  29.308  30.779  1.00  0.00     0.014 A 
ATOM     43  C   UNL A   1      39.211  29.629  28.149  1.00  0.00     0.010 A 
ATOM     44  C   UNL A   1      39.623  28.947  30.437  1.00  0.00     0.010 A 
ATOM     45  C   UNL A   1      40.079  29.104  29.119  1.00  0.00    -0.014 A 
BRANCH  45  46
ATOM     46  C   UNL A   1      41.471  28.708  28.794  1.00  0.00     0.031 A 
ATOM     47  C   UNL A   1      42.552  29.753  28.784  1.00  0.00     0.074 A 
ATOM     48  C   UNL A   1      41.734  27.444  28.404  1.00  0.00     0.049 A 
ATOM     49  N   UNL A   1      43.793  29.656  28.384  1.00  0.00    -0.248 NA
ATOM     50  C   UNL A   1      42.174  31.104  29.234  1.00  0.00     0.031 C 
ATOM     51  C   UNL A   1      40.752  26.362  28.296  1.00  0.00     0.029 A 
ATOM     52  N   UNL A   1      42.912  26.857  28.013  1.00  0.00    -0.354 N 
ATOM     53  C   UNL A   1      44.324  30.935  28.493  1.00  0.00     0.074 A 
ATOM     54  C   UNL A   1      43.256  31.804  28.934  1.00  0.00     0.031 C 
ATOM     55  C   UNL A   1      41.373  25.237  27.904  1.00  0.00     0.029 A 
ATOM     56  C   UNL A   1      42.786  25.525  27.693  1.00  0.00     0.049 A 
ATOM     57  H   UNL A   1      43.766  27.344  27.967  1.00  0.00     0.167 HD
ATOM     58  C   UNL A   1      45.597  31.343  28.280  1.00  0.00     0.037 A 
ATOM     59  C   UNL A   1      43.710  24.640  27.274  1.00  0.00     0.037 A 
ATOM     60  C   UNL A   1      46.666  30.455  27.915  1.00  0.00     0.049 A 
ATOM     61  C   UNL A   1      45.132  25.101  27.105  1.00  0.00     0.074 A 
ATOM     62  C   UNL A   1      48.010  30.742  27.764  1.00  0.00     0.029 A 
ATOM     63  N   UNL A   1      46.512  29.100  27.660  1.00  0.00    -0.354 N 
ATOM     64  N   UNL A   1      45.632  26.303  27.276  1.00  0.00    -0.248 NA
ATOM     65  C   UNL A   1      46.115  24.091  26.693  1.00  0.00     0.031 C 
ATOM     66  C   UNL A   1      48.666  29.563  27.391  1.00  0.00     0.029 A 
ATOM     67  C   UNL A   1      47.735  28.537  27.344  1.00  0.00     0.049 A 
ATOM     68  H   UNL A   1      45.658  28.612  27.697  1.00  0.00     0.167 HD
ATOM     69  C   UNL A   1      46.992  26.188  27.010  1.00  0.00     0.074 A 
ATOM     70  C   UNL A   1      47.237  24.798  26.683  1.00  0.00     0.031 C 
ATOM     71  C   UNL A   1      47.951  27.146  27.032  1.00  0.00     0.037 A 
BRANCH  58  72
ATOM     72  C   UNL A   1      45.895  32.804  28.468  1.00  0.00     0.058 A 
ATOM     73  C   UNL A   1      45.823  33.714  27.400  1.00  0.00     0.135 A 
ATOM     74  C   UNL A   1      46.256  33.304  29.729  1.00  0.00     0.135 A 
ATOM     75  F   UNL A   1      45.503  33.286  26.169  1.00  0.00    -0.206 F 
ATOM     76  C   UNL A   1      46.136  35.057  27.566  1.00  0.00     0.059 A 
ATOM     77  C   UNL A   1      46.545  34.652  29.924  1.00  0.00     0.059 A 
ATOM     78  F   UNL A   1      46.342  32.479  30.785  1.00  0.00    -0.206 F 
ATOM     79  C   UNL A   1      46.501  35.516  28.832  1.00  0.00     0.060 A 
BRANCH  79  80
ATOM     80  S   UNL A   1      46.913  37.263  29.030  1.00  0.00     0.124 S 
ATOM     81  O   UNL A   1      45.809  37.902  28.320  1.00  0.00    -0.237 OA
ATOM     82  O   UNL A   1      46.911  37.424  30.480  1.00  0.00    -0.237 OA
ATOM     83  O   UNL A   1      48.220  37.378  28.391  1.00  0.00    -0.744 OA
ENDBRANCH  79  80
ENDBRANCH  58  72
BRANCH  59  84
ATOM     84  C   UNL A   1      43.329  23.224  27.025  1.00  0.00     0.058 A 
ATOM     85  C   UNL A   1      43.251  22.724  25.716  1.00  0.00     0.135 A 
ATOM     86  C   UNL A   1      43.056  22.341  28.080  1.00  0.00     0.135 A 
ATOM     87  F   UNL A   1      43.501  23.531  24.674  1.00  0.00    -0.206 F 
ATOM     88  C   UNL A   1      42.899  21.403  25.460  1.00  0.00     0.059 A 
ATOM     89  C   UNL A   1      42.722  21.009  27.850  1.00  0.00     0.059 A 
ATOM     90  F   UNL A   1      43.136  22.764  29.351  1.00  0.00    -0.206 F 
ATOM     91  C   UNL A   1      42.637  20.551  26.535  1.00  0.00     0.060 A 
BRANCH  91  92
ATOM     92  S   UNL A   1      42.228  18.826  26.193  1.00  0.00     0.124 S 
ATOM     93  O   UNL A   1      42.406  18.216  27.506  1.00  0.00    -0.237 OA
ATOM     94  O   UNL A   1      40.852  18.924  25.715  1.00  0.00    -0.237 OA
ATOM     95  O   UNL A   1      43.209  18.444  25.181  1.00  0.00    -0.744 OA
ENDBRANCH  91  92
ENDBRANCH  59  84
BRANCH  71  96
ATOM     96  C   UNL A   1      49.354  26.721  26.715  1.00  0.00     0.058 A 
ATOM     97  C   UNL A   1      50.181  26.142  27.688  1.00  0.00     0.135 A 
ATOM     98  C   UNL A   1      49.852  26.835  25.406  1.00  0.00     0.135 A 
ATOM     99  F   UNL A   1      49.751  26.018  28.954  1.00  0.00    -0.206 F 
ATOM    100  C   UNL A   1      51.464  25.702  27.379  1.00  0.00     0.059 A 
ATOM    101  C   UNL A   1      51.122  26.380  25.070  1.00  0.00     0.059 A 
ATOM    102  F   UNL A   1      49.094  27.374  24.439  1.00  0.00    -0.206 F 
ATOM    103  C   UNL A   1      51.924  25.824  26.066  1.00  0.00     0.060 A 
BRANCH 103 104
ATOM    104  S   UNL A   1      53.572  25.207  25.667  1.00  0.00     0.124 S 
ATOM    105  O   UNL A   1      54.278  25.422  26.926  1.00  0.00    -0.237 OA
ATOM    106  O   UNL A   1      53.310  23.815  25.316  1.00  0.00    -0.237 OA
ATOM    107  O   UNL A   1      53.993  26.057  24.557  1.00  0.00    -0.744 OA
ENDBRANCH 103 104
ENDBRANCH  71  96
ENDBRANCH  45  46
ENDBRANCH  37  40
ENDBRANCH  35  36
ENDBRANCH   1  35
TORSDOF 18
ENDMDL
MODEL 2
REMARK VINA RESULT:     -13.3      4.526     10.405
REMARK SMILES COc1ccccc1C(=O)N1[C@@H](C(=O)NCCCNC(=O)c2ccc(-c3c4nc(c(-c5c(F)cc(S(=O)(=O)[O-])cc5F)c5ccc([nH]5)c(-c5c(F)cc(S(=O)(=O)[O-])cc5F)c5nc(c(-c6c(F)cc(S(=O)(=O)[O-])cc6F)c6ccc3[nH]6)C=C5)C=C4)cc2)COC12CC[NH+](Cc1ccccc1)CC2
REMARK SMILES IDX 17 1 16 2 15 3 13 4 14 5 12 7 11 8 90 9 88 10 89 11 91 12
REMARK SMILES IDX 102 13 92 14 101 15 93 16 9 18 10 19 8 20 3 21 4 22 5 23
REMARK SMILES IDX 7 24 6 25 2 26 1 27 94 28 95 29 96 30 100 31 97 32 99 33
REMARK SMILES IDX 98 34 18 35 19 36 20 37 21 39 22 40 23 41 87 42 24 43 86 44
REMARK SMILES IDX 25 45 26 46 27 47 80 48 28 49 85 50 79 51 81 52 29 53 84 54
REMARK SMILES IDX 78 55 77 56 30 58 64 59 43 60 63 61 44 62 47 63 62 64 82 65
REMARK SMILES IDX 45 66 46 67 61 69 83 70 48 71 31 72 32 73 41 74 33 75 34 76
REMARK SMILES IDX 40 77 42 78 35 79 36 80 37 81 38 82 39 83 65 84 66 85 75 86
REMARK SMILES IDX 67 87 68 88 74 89 76 90 69 91 70 92 71 93 72 94 73 95 49 96
REMARK SMILES IDX 50 97 59 98 51 99 52 100 58 101 60 102 53 103 54 104 55 105
REMARK SMILES IDX 56 106 57 107
REMARK H PARENT 15 6 93 17 19 38 81 57 47 68
REMARK Flexibility Score: inf
ROOT
ATOM      1  C   UNL A   1      35.996  22.633  26.108  1.00  0.00     0.042 C 
ENDROOT
BRANCH   1   2
ATOM      2  C   UNL A   1      34.948  22.062  25.174  1.00  0.00     0.117 C 
BRANCH   2   3
ATOM      3  N   UNL A   1      33.609  22.014  25.701  1.00  0.00    -0.354 N 
ATOM      4  C   UNL A   1      32.492  22.597  25.176  1.00  0.00     0.245 C 
ATOM      5  O   UNL A   1      31.406  22.082  25.463  1.00  0.00    -0.273 OA
ATOM      6  H   UNL A   1      33.485  21.502  26.533  1.00  0.00     0.163 HD
BRANCH   4   7
ATOM      7  C   UNL A   1      32.562  23.854  24.286  1.00  0.00     0.203 C 
ATOM      8  N   UNL A   1      32.129  25.118  24.883  1.00  0.00    -0.295 N 
ATOM      9  C   UNL A   1      31.126  25.727  23.982  1.00  0.00     0.155 C 
ATOM     10  C   UNL A   1      31.752  23.715  23.016  1.00  0.00     0.198 C 
ATOM     11  O   UNL A   1      30.642  24.610  23.188  1.00  0.00    -0.352 OA
ATOM     12  C   UNL A   1      29.929  26.320  24.735  1.00  0.00     0.120 C 
ATOM     13  C   UNL A   1      31.693  26.765  22.995  1.00  0.00     0.120 C 
ATOM     14  C   UNL A   1      28.898  26.946  23.808  1.00  0.00     0.267 C 
ATOM     15  C   UNL A   1      30.593  27.440  22.158  1.00  0.00     0.267 C 
ATOM     16  N   UNL A   1      29.459  27.953  22.921  1.00  0.00    -0.331 N 
ATOM     17  H   UNL A   1      28.753  28.135  22.208  1.00  0.00     0.348 HD
BRANCH   8  18
ATOM     18  C   UNL A   1      33.149  25.895  25.434  1.00  0.00     0.260 C 
ATOM     19  O   UNL A   1      34.277  25.409  25.569  1.00  0.00    -0.269 OA
BRANCH  18  20
ATOM     20  C   UNL A   1      32.910  27.281  25.967  1.00  0.00     0.082 A 
ATOM     21  C   UNL A   1      33.523  28.474  25.575  1.00  0.00     0.131 A 
ATOM     22  C   UNL A   1      33.270  29.678  26.263  1.00  0.00     0.047 A 
ATOM     23  C   UNL A   1      32.316  29.737  27.273  1.00  0.00     0.004 A 
ATOM     24  C   UNL A   1      31.931  27.374  26.983  1.00  0.00     0.018 A 
ATOM     25  C   UNL A   1      31.625  28.585  27.617  1.00  0.00     0.001 A 
BRANCH  21  26
ATOM     26  O   UNL A   1      34.423  28.543  24.550  1.00  0.00    -0.496 OA
ATOM     27  C   UNL A   1      33.777  28.996  23.362  1.00  0.00     0.278 C 
ENDBRANCH  21  26
ENDBRANCH  18  20
ENDBRANCH   8  18
BRANCH  16  28
ATOM     28  C   UNL A   1      29.544  29.316  23.459  1.00  0.00     0.299 C 
BRANCH  28  29
ATOM     29  C   UNL A   1      28.926  30.438  22.655  1.00  0.00     0.006 A 
ATOM     30  C   UNL A   1      28.842  31.741  23.165  1.00  0.00     0.009 A 
ATOM     31  C   UNL A   1      28.443  30.196  21.359  1.00  0.00     0.009 A 
ATOM     32  C   UNL A   1      28.358  32.784  22.371  1.00  0.00     0.001 A 
ATOM     33  C   UNL A   1      27.991  31.243  20.556  1.00  0.00     0.001 A 
ATOM     34  C   UNL A   1      27.956  32.539  21.060  1.00  0.00     0.000 A 
ENDBRANCH  28  29
ENDBRANCH  16  28
ENDBRANCH   4   7
ENDBRANCH   2   3
ENDBRANCH   1   2
BRANCH   1  35
ATOM     35  C   UNL A   1      37.127  23.283  25.322  1.00  0.00     0.118 C 
BRANCH  35  36
ATOM     36  N   UNL A   1      38.404  22.573  25.424  1.00  0.00    -0.352 N 
ATOM     37  C   UNL A   1      39.562  22.950  26.061  1.00  0.00     0.251 C 
ATOM     38  H   UNL A   1      38.438  21.700  24.970  1.00  0.00     0.163 HD
ATOM     39  O   UNL A   1      40.555  22.229  26.017  1.00  0.00    -0.269 OA
BRANCH  37  40
ATOM     40  C   UNL A   1      39.609  24.260  26.734  1.00  0.00     0.039 A 
ATOM     41  C   UNL A   1      39.005  24.397  27.984  1.00  0.00     0.014 A 
ATOM     42  C   UNL A   1      40.356  25.302  26.185  1.00  0.00     0.014 A 
ATOM     43  C   UNL A   1      39.245  25.548  28.734  1.00  0.00     0.010 A 
ATOM     44  C   UNL A   1      40.693  26.384  26.981  1.00  0.00     0.010 A 
ATOM     45  C   UNL A   1      40.143  26.520  28.265  1.00  0.00    -0.014 A 
BRANCH  45  46
ATOM     46  C   UNL A   1      40.531  27.691  29.087  1.00  0.00     0.031 A 
ATOM     47  C   UNL A   1      41.829  27.664  29.845  1.00  0.00     0.074 A 
ATOM     48  C   UNL A   1      39.671  28.720  29.236  1.00  0.00     0.049 A 
ATOM     49  N   UNL A   1      42.286  28.506  30.734  1.00  0.00    -0.248 NA
ATOM     50  C   UNL A   1      42.708  26.504  29.613  1.00  0.00     0.031 C 
ATOM     51  C   UNL A   1      38.347  28.823  28.615  1.00  0.00     0.029 A 
ATOM     52  N   UNL A   1      39.779  29.875  29.969  1.00  0.00    -0.354 N 
ATOM     53  C   UNL A   1      43.477  27.957  31.194  1.00  0.00     0.074 A 
ATOM     54  C   UNL A   1      43.640  26.679  30.536  1.00  0.00     0.031 C 
ATOM     55  C   UNL A   1      37.784  29.991  28.964  1.00  0.00     0.029 A 
ATOM     56  C   UNL A   1      38.684  30.701  29.863  1.00  0.00     0.049 A 
ATOM     57  H   UNL A   1      40.566  30.092  30.519  1.00  0.00     0.167 HD
ATOM     58  C   UNL A   1      44.373  28.485  32.060  1.00  0.00     0.037 A 
ATOM     59  C   UNL A   1      38.438  31.897  30.433  1.00  0.00     0.037 A 
ATOM     60  C   UNL A   1      44.235  29.789  32.649  1.00  0.00     0.049 A 
ATOM     61  C   UNL A   1      39.476  32.494  31.342  1.00  0.00     0.074 A 
ATOM     62  C   UNL A   1      45.124  30.463  33.466  1.00  0.00     0.029 A 
ATOM     63  N   UNL A   1      43.141  30.623  32.469  1.00  0.00    -0.354 N 
ATOM     64  N   UNL A   1      40.629  31.990  31.717  1.00  0.00    -0.248 NA
ATOM     65  C   UNL A   1      39.187  33.820  31.902  1.00  0.00     0.031 C 
ATOM     66  C   UNL A   1      44.556  31.697  33.801  1.00  0.00     0.029 A 
ATOM     67  C   UNL A   1      43.329  31.803  33.166  1.00  0.00     0.049 A 
ATOM     68  H   UNL A   1      42.349  30.407  31.926  1.00  0.00     0.167 HD
ATOM     69  C   UNL A   1      41.211  32.946  32.542  1.00  0.00     0.074 A 
ATOM     70  C   UNL A   1      40.289  34.064  32.598  1.00  0.00     0.031 C 
ATOM     71  C   UNL A   1      42.398  32.904  33.195  1.00  0.00     0.037 A 
BRANCH  58  72
ATOM     72  C   UNL A   1      45.585  27.661  32.390  1.00  0.00     0.058 A 
ATOM     73  C   UNL A   1      46.784  27.792  31.669  1.00  0.00     0.135 A 
ATOM     74  C   UNL A   1      45.552  26.729  33.440  1.00  0.00     0.135 A 
ATOM     75  F   UNL A   1      46.864  28.654  30.643  1.00  0.00    -0.206 F 
ATOM     76  C   UNL A   1      47.892  27.003  31.950  1.00  0.00     0.059 A 
ATOM     77  C   UNL A   1      46.660  25.949  33.757  1.00  0.00     0.059 A 
ATOM     78  F   UNL A   1      44.432  26.561  34.160  1.00  0.00    -0.206 F 
ATOM     79  C   UNL A   1      47.819  26.079  32.994  1.00  0.00     0.060 A 
BRANCH  79  80
ATOM     80  S   UNL A   1      49.265  25.055  33.341  1.00  0.00     0.124 S 
ATOM     81  O   UNL A   1      50.030  25.927  34.229  1.00  0.00    -0.237 OA
ATOM     82  O   UNL A   1      48.673  23.877  33.967  1.00  0.00    -0.237 OA
ATOM     83  O   UNL A   1      49.849  24.834  32.022  1.00  0.00    -0.744 OA
ENDBRANCH  79  80
ENDBRANCH  58  72
BRANCH  59  84
ATOM     84  C   UNL A   1      37.176  32.623  30.128  1.00  0.00     0.058 A 
ATOM     85  C   UNL A   1      37.131  33.578  29.101  1.00  0.00     0.135 A 
ATOM     86  C   UNL A   1      35.992  32.366  30.836  1.00  0.00     0.135 A 
ATOM     87  F   UNL A   1      38.238  33.859  28.398  1.00  0.00    -0.206 F 
ATOM     88  C   UNL A   1      35.961  34.266  28.797  1.00  0.00     0.059 A 
ATOM     89  C   UNL A   1      34.804  33.027  30.535  1.00  0.00     0.059 A 
ATOM     90  F   UNL A   1      35.978  31.447  31.814  1.00  0.00    -0.206 F 
ATOM     91  C   UNL A   1      34.801  33.982  29.520  1.00  0.00     0.060 A 
BRANCH  91  92
ATOM     92  S   UNL A   1      33.276  34.848  29.085  1.00  0.00     0.124 S 
ATOM     93  O   UNL A   1      33.793  36.107  28.561  1.00  0.00    -0.237 OA
ATOM     94  O   UNL A   1      32.679  33.945  28.105  1.00  0.00    -0.237 OA
ATOM     95  O   UNL A   1      32.567  34.937  30.358  1.00  0.00    -0.744 OA
ENDBRANCH  91  92
ENDBRANCH  59  84
BRANCH  71  96
ATOM     96  C   UNL A   1      42.777  34.105  34.009  1.00  0.00     0.058 A 
ATOM     97  C   UNL A   1      42.545  34.156  35.391  1.00  0.00     0.135 A 
ATOM     98  C   UNL A   1      43.439  35.189  33.409  1.00  0.00     0.135 A 
ATOM     99  F   UNL A   1      41.910  33.147  36.008  1.00  0.00    -0.206 F 
ATOM    100  C   UNL A   1      42.943  35.250  36.152  1.00  0.00     0.059 A 
ATOM    101  C   UNL A   1      43.867  36.282  34.154  1.00  0.00     0.059 A 
ATOM    102  F   UNL A   1      43.692  35.181  32.091  1.00  0.00    -0.206 F 
ATOM    103  C   UNL A   1      43.606  36.307  35.524  1.00  0.00     0.060 A 
BRANCH 103 104
ATOM    104  S   UNL A   1      44.159  37.700  36.529  1.00  0.00     0.124 S 
ATOM    105  O   UNL A   1      45.488  37.257  36.938  1.00  0.00    -0.237 OA
ATOM    106  O   UNL A   1      44.124  38.807  35.579  1.00  0.00    -0.237 OA
ATOM    107  O   UNL A   1      43.163  37.766  37.595  1.00  0.00    -0.744 OA
ENDBRANCH 103 104
ENDBRANCH  71  96
ENDBRANCH  45  46
ENDBRANCH  37  40
ENDBRANCH  35  36
ENDBRANCH   1  35
TORSDOF 18
ENDMDL
MODEL 3
REMARK VINA RESULT:     -13.1      2.546      4.060
REMARK SMILES COc1ccccc1C(=O)N1[C@@H](C(=O)NCCCNC(=O)c2ccc(-c3c4nc(c(-c5c(F)cc(S(=O)(=O)[O-])cc5F)c5ccc([nH]5)c(-c5c(F)cc(S(=O)(=O)[O-])cc5F)c5nc(c(-c6c(F)cc(S(=O)(=O)[O-])cc6F)c6ccc3[nH]6)C=C5)C=C4)cc2)COC12CC[NH+](Cc1ccccc1)CC2
REMARK SMILES IDX 17 1 16 2 15 3 13 4 14 5 12 7 11 8 90 9 88 10 89 11 91 12
REMARK SMILES IDX 102 13 92 14 101 15 93 16 9 18 10 19 8 20 3 21 4 22 5 23
REMARK SMILES IDX 7 24 6 25 2 26 1 27 94 28 95 29 96 30 100 31 97 32 99 33
REMARK SMILES IDX 98 34 18 35 19 36 20 37 21 39 22 40 23 41 87 42 24 43 86 44
REMARK SMILES IDX 25 45 26 46 27 47 80 48 28 49 85 50 79 51 81 52 29 53 84 54
REMARK SMILES IDX 78 55 77 56 30 58 64 59 43 60 63 61 44 62 47 63 62 64 82 65
REMARK SMILES IDX 45 66 46 67 61 69 83 70 48 71 31 72 32 73 41 74 33 75 34 76
REMARK SMILES IDX 40 77 42 78 35 79 36 80 37 81 38 82 39 83 65 84 66 85 75 86
REMARK SMILES IDX 67 87 68 88 74 89 76 90 69 91 70 92 71 93 72 94 73 95 49 96
REMARK SMILES IDX 50 97 59 98 51 99 52 100 58 101 60 102 53 103 54 104 55 105
REMARK SMILES IDX 56 106 57 107
REMARK H PARENT 15 6 93 17 19 38 81 57 47 68
REMARK Flexibility Score: inf
ROOT
ATOM      1  C   UNL A   1      33.404  29.314  25.291  1.00  0.00     0.042 C 
ENDROOT
BRANCH   1   2
ATOM      2  C   UNL A   1      32.055  28.817  24.811  1.00  0.00     0.117 C 
BRANCH   2   3
ATOM      3  N   UNL A   1      32.043  28.233  23.495  1.00  0.00    -0.354 N 
ATOM      4  C   UNL A   1      31.674  26.963  23.158  1.00  0.00     0.245 C 
ATOM      5  O   UNL A   1      31.276  26.786  22.001  1.00  0.00    -0.273 OA
ATOM      6  H   UNL A   1      32.332  28.816  22.756  1.00  0.00     0.163 HD
BRANCH   4   7
ATOM      7  C   UNL A   1      31.767  25.788  24.152  1.00  0.00     0.203 C 
ATOM      8  N   UNL A   1      32.837  24.815  23.935  1.00  0.00    -0.295 N 
ATOM      9  C   UNL A   1      32.228  23.467  23.905  1.00  0.00     0.155 C 
ATOM     10  C   UNL A   1      30.493  24.974  24.212  1.00  0.00     0.198 C 
ATOM     11  O   UNL A   1      30.830  23.720  23.599  1.00  0.00    -0.352 OA
ATOM     12  C   UNL A   1      32.798  22.578  22.793  1.00  0.00     0.120 C 
ATOM     13  C   UNL A   1      32.262  22.715  25.250  1.00  0.00     0.120 C 
ATOM     14  C   UNL A   1      32.171  21.193  22.763  1.00  0.00     0.267 C 
ATOM     15  C   UNL A   1      31.713  21.284  25.134  1.00  0.00     0.267 C 
ATOM     16  N   UNL A   1      32.261  20.494  24.036  1.00  0.00    -0.331 N 
ATOM     17  H   UNL A   1      31.627  19.698  23.973  1.00  0.00     0.348 HD
BRANCH   8  18
ATOM     18  C   UNL A   1      34.008  25.046  24.660  1.00  0.00     0.260 C 
ATOM     19  O   UNL A   1      34.188  26.152  25.183  1.00  0.00    -0.269 OA
BRANCH  18  20
ATOM     20  C   UNL A   1      35.113  24.032  24.753  1.00  0.00     0.082 A 
ATOM     21  C   UNL A   1      35.558  23.342  25.885  1.00  0.00     0.131 A 
ATOM     22  C   UNL A   1      36.694  22.509  25.823  1.00  0.00     0.047 A 
ATOM     23  C   UNL A   1      37.331  22.257  24.613  1.00  0.00     0.004 A 
ATOM     24  C   UNL A   1      35.768  23.742  23.534  1.00  0.00     0.018 A 
ATOM     25  C   UNL A   1      36.850  22.856  23.460  1.00  0.00     0.001 A 
BRANCH  21  26
ATOM     26  O   UNL A   1      34.963  23.462  27.107  1.00  0.00    -0.496 OA
ATOM     27  C   UNL A   1      34.581  22.176  27.593  1.00  0.00     0.278 C 
ENDBRANCH  21  26
ENDBRANCH  18  20
ENDBRANCH   8  18
BRANCH  16  28
ATOM     28  C   UNL A   1      33.496  19.737  24.275  1.00  0.00     0.299 C 
BRANCH  28  29
ATOM     29  C   UNL A   1      33.378  18.260  24.580  1.00  0.00     0.006 A 
ATOM     30  C   UNL A   1      32.586  17.795  25.639  1.00  0.00     0.009 A 
ATOM     31  C   UNL A   1      34.047  17.318  23.781  1.00  0.00     0.009 A 
ATOM     32  C   UNL A   1      32.411  16.424  25.844  1.00  0.00     0.001 A 
ATOM     33  C   UNL A   1      33.846  15.951  23.967  1.00  0.00     0.001 A 
ATOM     34  C   UNL A   1      33.020  15.504  24.994  1.00  0.00     0.000 A 
ENDBRANCH  28  29
ENDBRANCH  16  28
ENDBRANCH   4   7
ENDBRANCH   2   3
ENDBRANCH   1   2
BRANCH   1  35
ATOM     35  C   UNL A   1      33.545  29.133  26.796  1.00  0.00     0.118 C 
BRANCH  35  36
ATOM     36  N   UNL A   1      33.536  30.390  27.548  1.00  0.00    -0.352 N 
ATOM     37  C   UNL A   1      34.538  30.969  28.290  1.00  0.00     0.251 C 
ATOM     38  H   UNL A   1      32.690  30.893  27.518  1.00  0.00     0.163 HD
ATOM     39  O   UNL A   1      34.338  32.026  28.881  1.00  0.00    -0.269 OA
BRANCH  37  40
ATOM     40  C   UNL A   1      35.826  30.263  28.418  1.00  0.00     0.039 A 
ATOM     41  C   UNL A   1      36.753  30.360  27.380  1.00  0.00     0.014 A 
ATOM     42  C   UNL A   1      36.156  29.621  29.611  1.00  0.00     0.014 A 
ATOM     43  C   UNL A   1      38.055  29.905  27.585  1.00  0.00     0.010 A 
ATOM     44  C   UNL A   1      37.477  29.285  29.854  1.00  0.00     0.010 A 
ATOM     45  C   UNL A   1      38.443  29.425  28.846  1.00  0.00    -0.014 A 
BRANCH  45  46
ATOM     46  C   UNL A   1      39.847  29.057  29.147  1.00  0.00     0.031 A 
ATOM     47  C   UNL A   1      40.764  30.082  29.755  1.00  0.00     0.074 A 
ATOM     48  C   UNL A   1      40.319  27.850  28.775  1.00  0.00     0.049 A 
ATOM     49  N   UNL A   1      42.055  30.023  29.956  1.00  0.00    -0.248 NA
ATOM     50  C   UNL A   1      40.159  31.371  30.137  1.00  0.00     0.031 C 
ATOM     51  C   UNL A   1      39.545  26.801  28.104  1.00  0.00     0.029 A 
ATOM     52  N   UNL A   1      41.572  27.303  28.898  1.00  0.00    -0.354 N 
ATOM     53  C   UNL A   1      42.417  31.272  30.445  1.00  0.00     0.074 A 
ATOM     54  C   UNL A   1      41.225  32.090  30.448  1.00  0.00     0.031 C 
ATOM     55  C   UNL A   1      40.330  25.728  27.909  1.00  0.00     0.029 A 
ATOM     56  C   UNL A   1      41.669  26.024  28.401  1.00  0.00     0.049 A 
ATOM     57  H   UNL A   1      42.330  27.782  29.304  1.00  0.00     0.167 HD
ATOM     58  C   UNL A   1      43.626  31.689  30.885  1.00  0.00     0.037 A 
ATOM     59  C   UNL A   1      42.724  25.189  28.349  1.00  0.00     0.037 A 
ATOM     60  C   UNL A   1      44.786  30.842  30.946  1.00  0.00     0.049 A 
ATOM     61  C   UNL A   1      44.043  25.652  28.903  1.00  0.00     0.074 A 
ATOM     62  C   UNL A   1      46.037  31.131  31.460  1.00  0.00     0.029 A 
ATOM     63  N   UNL A   1      44.829  29.532  30.491  1.00  0.00    -0.354 N 
ATOM     64  N   UNL A   1      44.354  26.816  29.422  1.00  0.00    -0.248 NA
ATOM     65  C   UNL A   1      45.153  24.690  28.869  1.00  0.00     0.031 C 
ATOM     66  C   UNL A   1      46.846  30.001  31.292  1.00  0.00     0.029 A 
ATOM     67  C   UNL A   1      46.088  29.000  30.705  1.00  0.00     0.049 A 
ATOM     68  H   UNL A   1      44.075  29.053  30.078  1.00  0.00     0.167 HD
ATOM     69  C   UNL A   1      45.690  26.721  29.795  1.00  0.00     0.074 A 
ATOM     70  C   UNL A   1      46.123  25.380  29.454  1.00  0.00     0.031 C 
ATOM     71  C   UNL A   1      46.488  27.658  30.364  1.00  0.00     0.037 A 
BRANCH  58  72
ATOM     72  C   UNL A   1      43.737  33.111  31.359  1.00  0.00     0.058 A 
ATOM     73  C   UNL A   1      43.280  33.503  32.628  1.00  0.00     0.135 A 
ATOM     74  C   UNL A   1      44.308  34.096  30.537  1.00  0.00     0.135 A 
ATOM     75  F   UNL A   1      42.708  32.606  33.446  1.00  0.00    -0.206 F 
ATOM     76  C   UNL A   1      43.348  34.825  33.050  1.00  0.00     0.059 A 
ATOM     77  C   UNL A   1      44.413  35.421  30.951  1.00  0.00     0.059 A 
ATOM     78  F   UNL A   1      44.760  33.778  29.313  1.00  0.00    -0.206 F 
ATOM     79  C   UNL A   1      43.913  35.779  32.202  1.00  0.00     0.060 A 
BRANCH  79  80
ATOM     80  S   UNL A   1      43.987  37.494  32.761  1.00  0.00     0.124 S 
ATOM     81  O   UNL A   1      45.346  37.567  33.288  1.00  0.00    -0.237 OA
ATOM     82  O   UNL A   1      43.744  38.237  31.529  1.00  0.00    -0.237 OA
ATOM     83  O   UNL A   1      42.922  37.572  33.756  1.00  0.00    -0.744 OA
ENDBRANCH  79  80
ENDBRANCH  58  72
BRANCH  59  84
ATOM     84  C   UNL A   1      42.565  23.820  27.788  1.00  0.00     0.058 A 
ATOM     85  C   UNL A   1      42.612  23.605  26.403  1.00  0.00     0.135 A 
ATOM     86  C   UNL A   1      42.385  22.703  28.619  1.00  0.00     0.135 A 
ATOM     87  F   UNL A   1      42.781  24.642  25.569  1.00  0.00    -0.206 F 
ATOM     88  C   UNL A   1      42.469  22.333  25.857  1.00  0.00     0.059 A 
ATOM     89  C   UNL A   1      42.260  21.418  28.097  1.00  0.00     0.059 A 
ATOM     90  F   UNL A   1      42.352  22.853  29.952  1.00  0.00    -0.206 F 
ATOM     91  C   UNL A   1      42.294  21.245  26.714  1.00  0.00     0.060 A 
BRANCH  91  92
ATOM     92  S   UNL A   1      42.157  19.592  25.997  1.00  0.00     0.124 S 
ATOM     93  O   UNL A   1      40.725  19.506  25.731  1.00  0.00    -0.237 OA
ATOM     94  O   UNL A   1      43.020  19.693  24.824  1.00  0.00    -0.237 OA
ATOM     95  O   UNL A   1      42.655  18.724  27.060  1.00  0.00    -0.744 OA
ENDBRANCH  91  92
ENDBRANCH  59  84
BRANCH  71  96
ATOM     96  C   UNL A   1      47.900  27.260  30.674  1.00  0.00     0.058 A 
ATOM     97  C   UNL A   1      48.250  26.708  31.915  1.00  0.00     0.135 A 
ATOM     98  C   UNL A   1      48.901  27.372  29.695  1.00  0.00     0.135 A 
ATOM     99  F   UNL A   1      47.329  26.586  32.885  1.00  0.00    -0.206 F 
ATOM    100  C   UNL A   1      49.550  26.293  32.182  1.00  0.00     0.059 A 
ATOM    101  C   UNL A   1      50.202  26.943  29.932  1.00  0.00     0.059 A 
ATOM    102  F   UNL A   1      48.612  27.885  28.489  1.00  0.00    -0.206 F 
ATOM    103  C   UNL A   1      50.519  26.413  31.183  1.00  0.00     0.060 A 
BRANCH 103 104
ATOM    104  S   UNL A   1      52.191  25.828  31.525  1.00  0.00     0.124 S 
ATOM    105  O   UNL A   1      52.836  26.007  30.228  1.00  0.00    -0.237 OA
ATOM    106  O   UNL A   1      52.630  26.734  32.582  1.00  0.00    -0.237 OA
ATOM    107  O   UNL A   1      51.988  24.444  31.940  1.00  0.00    -0.744 OA
ENDBRANCH 103 104
ENDBRANCH  71  96
ENDBRANCH  45  46
ENDBRANCH  37  40
ENDBRANCH  35  36
ENDBRANCH   1  35
TORSDOF 18
ENDMDL
