MODEL 1
REMARK VINA RESULT:     -11.8      0.000      0.000
REMARK SMILES Cc1csc([C@H](C)Nc2cc(C)c(N)c(C(=O)NCCCNC(=O)c3ccc(-c4c5nc(c(-c6c(F)cc(S(=O)(=O)[O-])cc6F)c6ccc([nH]6)c(-c6c(F)cc(S(=O)(=O)[O-])cc6F)c6nc(c(-c7c(F)cc(S(=O)(=O)[O-])cc7F)c7ccc4[nH]7)C=C6)C=C5)cc3)c2)n1
REMARK SMILES IDX 20 1 19 2 18 3 16 4 17 5 15 7 9 8 10 9 91 10 11 11 12 12
REMARK SMILES IDX 13 13 8 14 6 16 7 17 5 18 1 19 2 20 3 21 92 22 4 23 14 24
REMARK SMILES IDX 21 27 22 28 23 29 24 31 25 32 26 33 90 34 27 35 89 36 28 37
REMARK SMILES IDX 29 38 30 39 83 40 31 41 88 42 82 43 84 44 32 45 87 46 81 47
REMARK SMILES IDX 80 48 33 50 67 51 46 52 66 53 47 54 50 55 65 56 85 57 48 58
REMARK SMILES IDX 49 59 64 61 86 62 51 63 34 64 35 65 44 66 36 67 37 68 43 69
REMARK SMILES IDX 45 70 38 71 39 72 40 73 41 74 42 75 68 76 69 77 78 78 70 79
REMARK SMILES IDX 71 80 77 81 79 82 72 83 73 84 74 85 75 86 76 87 52 88 53 89
REMARK SMILES IDX 62 90 54 91 55 92 61 93 63 94 56 95 57 96 58 97 59 98 60 99
REMARK H PARENT 18 6 8 15 14 25 14 26 22 30 84 49 50 60
REMARK Flexibility Score: inf
ROOT
ATOM      1  C   UNL A   1      39.588  22.546  26.711  1.00  0.00     0.042 C 
ENDROOT
BRANCH   1   2
ATOM      2  C   UNL A   1      38.478  23.495  26.250  1.00  0.00     0.118 C 
BRANCH   2   3
ATOM      3  N   UNL A   1      37.951  23.096  24.957  1.00  0.00    -0.352 N 
ATOM      4  C   UNL A   1      36.692  23.076  24.406  1.00  0.00     0.253 C 
ATOM      5  O   UNL A   1      36.628  22.674  23.239  1.00  0.00    -0.269 OA
ATOM      6  H   UNL A   1      38.646  22.769  24.341  1.00  0.00     0.163 HD
BRANCH   4   7
ATOM      7  C   UNL A   1      35.442  23.526  25.108  1.00  0.00     0.065 A 
ATOM      8  C   UNL A   1      33.636  25.161  25.412  1.00  0.00     0.036 A 
ATOM      9  C   UNL A   1      33.095  24.365  26.415  1.00  0.00     0.031 A 
ATOM     10  C   UNL A   1      34.818  24.739  24.800  1.00  0.00     0.041 A 
ATOM     11  C   UNL A   1      33.718  23.163  26.803  1.00  0.00    -0.025 A 
ATOM     12  C   UNL A   1      33.088  22.344  27.899  1.00  0.00     0.046 C 
ATOM     13  C   UNL A   1      34.908  22.742  26.164  1.00  0.00     0.047 A 
BRANCH   8  14
ATOM     14  N   UNL A   1      33.037  26.302  24.925  1.00  0.00    -0.376 N 
ATOM     15  H   UNL A   1      32.063  26.281  24.784  1.00  0.00     0.161 HD
BRANCH  14  16
ATOM     16  C   UNL A   1      33.740  27.548  24.602  1.00  0.00     0.135 C 
ATOM     17  C   UNL A   1      33.275  27.904  23.179  1.00  0.00     0.039 C 
BRANCH  16  18
ATOM     18  C   UNL A   1      33.508  28.689  25.594  1.00  0.00     0.115 A 
ATOM     19  C   UNL A   1      34.846  30.996  28.028  1.00  0.00     0.067 C 
ATOM     20  C   UNL A   1      33.931  30.254  27.125  1.00  0.00     0.049 A 
ATOM     21  C   UNL A   1      32.584  30.488  26.945  1.00  0.00     0.090 A 
ATOM     22  N   UNL A   1      34.445  29.218  26.362  1.00  0.00    -0.244 NA
ATOM     23  S   UNL A   1      31.961  29.444  25.746  1.00  0.00    -0.125 S 
ENDBRANCH  16  18
ENDBRANCH  14  16
ENDBRANCH   8  14
BRANCH  13  24
ATOM     24  N   UNL A   1      35.444  21.484  26.478  1.00  0.00    -0.398 N 
ATOM     25  H   UNL A   1      35.523  20.794  25.780  1.00  0.00     0.156 HD
ATOM     26  H   UNL A   1      35.744  21.292  27.395  1.00  0.00     0.156 HD
ENDBRANCH  13  24
ENDBRANCH   4   7
ENDBRANCH   2   3
ENDBRANCH   1   2
BRANCH   1  27
ATOM     27  C   UNL A   1      40.832  23.273  27.220  1.00  0.00     0.118 C 
BRANCH  27  28
ATOM     28  N   UNL A   1      41.469  24.052  26.168  1.00  0.00    -0.352 N 
ATOM     29  C   UNL A   1      41.667  25.406  26.067  1.00  0.00     0.251 C 
ATOM     30  H   UNL A   1      41.813  23.526  25.411  1.00  0.00     0.163 HD
ATOM     31  O   UNL A   1      42.005  25.881  24.986  1.00  0.00    -0.269 OA
BRANCH  29  32
ATOM     32  C   UNL A   1      41.475  26.292  27.237  1.00  0.00     0.039 A 
ATOM     33  C   UNL A   1      42.347  27.371  27.413  1.00  0.00     0.014 A 
ATOM     34  C   UNL A   1      40.485  26.033  28.189  1.00  0.00     0.014 A 
ATOM     35  C   UNL A   1      42.198  28.215  28.516  1.00  0.00     0.010 A 
ATOM     36  C   UNL A   1      40.296  26.913  29.253  1.00  0.00     0.010 A 
ATOM     37  C   UNL A   1      41.155  28.008  29.433  1.00  0.00    -0.014 A 
BRANCH  37  38
ATOM     38  C   UNL A   1      40.948  28.925  30.583  1.00  0.00     0.031 A 
ATOM     39  C   UNL A   1      41.777  28.777  31.829  1.00  0.00     0.074 A 
ATOM     40  C   UNL A   1      39.969  29.850  30.525  1.00  0.00     0.049 A 
ATOM     41  N   UNL A   1      41.691  29.429  32.961  1.00  0.00    -0.248 NA
ATOM     42  C   UNL A   1      42.822  27.741  31.813  1.00  0.00     0.031 C 
ATOM     43  C   UNL A   1      39.070  30.058  29.388  1.00  0.00     0.029 A 
ATOM     44  N   UNL A   1      39.556  30.778  31.447  1.00  0.00    -0.354 N 
ATOM     45  C   UNL A   1      42.656  28.874  33.794  1.00  0.00     0.074 A 
ATOM     46  C   UNL A   1      43.284  27.801  33.054  1.00  0.00     0.031 C 
ATOM     47  C   UNL A   1      38.225  31.061  29.672  1.00  0.00     0.029 A 
ATOM     48  C   UNL A   1      38.495  31.542  31.024  1.00  0.00     0.049 A 
ATOM     49  H   UNL A   1      39.981  30.886  32.329  1.00  0.00     0.167 HD
ATOM     50  C   UNL A   1      43.000  29.239  35.052  1.00  0.00     0.037 A 
ATOM     51  C   UNL A   1      37.810  32.515  31.656  1.00  0.00     0.037 A 
ATOM     52  C   UNL A   1      42.388  30.327  35.771  1.00  0.00     0.049 A 
ATOM     53  C   UNL A   1      38.216  32.911  33.048  1.00  0.00     0.074 A 
ATOM     54  C   UNL A   1      42.702  30.815  37.027  1.00  0.00     0.029 A 
ATOM     55  N   UNL A   1      41.335  31.097  35.297  1.00  0.00    -0.354 N 
ATOM     56  N   UNL A   1      39.169  32.414  33.800  1.00  0.00    -0.248 NA
ATOM     57  C   UNL A   1      37.462  34.003  33.678  1.00  0.00     0.031 C 
ATOM     58  C   UNL A   1      41.815  31.854  37.328  1.00  0.00     0.029 A 
ATOM     59  C   UNL A   1      40.977  32.045  36.241  1.00  0.00     0.049 A 
ATOM     60  H   UNL A   1      40.905  30.986  34.418  1.00  0.00     0.167 HD
ATOM     61  C   UNL A   1      39.147  33.149  34.980  1.00  0.00     0.074 A 
ATOM     62  C   UNL A   1      38.093  34.131  34.837  1.00  0.00     0.031 C 
ATOM     63  C   UNL A   1      39.930  33.022  36.079  1.00  0.00     0.037 A 
BRANCH  50  64
ATOM     64  C   UNL A   1      44.093  28.459  35.732  1.00  0.00     0.058 A 
ATOM     65  C   UNL A   1      43.809  27.356  36.553  1.00  0.00     0.135 A 
ATOM     66  C   UNL A   1      45.442  28.795  35.534  1.00  0.00     0.135 A 
ATOM     67  F   UNL A   1      42.536  26.997  36.788  1.00  0.00    -0.206 F 
ATOM     68  C   UNL A   1      44.820  26.634  37.180  1.00  0.00     0.059 A 
ATOM     69  C   UNL A   1      46.472  28.071  36.128  1.00  0.00     0.059 A 
ATOM     70  F   UNL A   1      45.772  29.839  34.757  1.00  0.00    -0.206 F 
ATOM     71  C   UNL A   1      46.149  27.001  36.963  1.00  0.00     0.060 A 
BRANCH  71  72
ATOM     72  S   UNL A   1      47.450  26.054  37.782  1.00  0.00     0.124 S 
ATOM     73  O   UNL A   1      46.686  24.954  38.363  1.00  0.00    -0.237 OA
ATOM     74  O   UNL A   1      48.325  25.698  36.670  1.00  0.00    -0.237 OA
ATOM     75  O   UNL A   1      48.011  27.002  38.738  1.00  0.00    -0.744 OA
ENDBRANCH  71  72
ENDBRANCH  50  64
BRANCH  51  76
ATOM     76  C   UNL A   1      36.684  33.196  30.963  1.00  0.00     0.058 A 
ATOM     77  C   UNL A   1      36.923  34.090  29.908  1.00  0.00     0.135 A 
ATOM     78  C   UNL A   1      35.350  32.949  31.320  1.00  0.00     0.135 A 
ATOM     79  F   UNL A   1      38.183  34.363  29.534  1.00  0.00    -0.206 F 
ATOM     80  C   UNL A   1      35.881  34.725  29.240  1.00  0.00     0.059 A 
ATOM     81  C   UNL A   1      34.290  33.553  30.651  1.00  0.00     0.059 A 
ATOM     82  F   UNL A   1      35.067  32.088  32.310  1.00  0.00    -0.206 F 
ATOM     83  C   UNL A   1      34.566  34.446  29.616  1.00  0.00     0.060 A 
BRANCH  83  84
ATOM     84  S   UNL A   1      33.219  35.229  28.705  1.00  0.00     0.124 S 
ATOM     85  O   UNL A   1      33.946  36.154  27.842  1.00  0.00    -0.237 OA
ATOM     86  O   UNL A   1      32.595  34.091  28.038  1.00  0.00    -0.237 OA
ATOM     87  O   UNL A   1      32.416  35.845  29.757  1.00  0.00    -0.744 OA
ENDBRANCH  83  84
ENDBRANCH  51  76
BRANCH  63  88
ATOM     88  C   UNL A   1      39.702  33.992  37.205  1.00  0.00     0.058 A 
ATOM     89  C   UNL A   1      38.937  33.649  38.330  1.00  0.00     0.135 A 
ATOM     90  C   UNL A   1      40.304  35.260  37.182  1.00  0.00     0.135 A 
ATOM     91  F   UNL A   1      38.334  32.451  38.398  1.00  0.00    -0.206 F 
ATOM     92  C   UNL A   1      38.760  34.537  39.386  1.00  0.00     0.059 A 
ATOM     93  C   UNL A   1      40.163  36.155  38.238  1.00  0.00     0.059 A 
ATOM     94  F   UNL A   1      41.054  35.634  36.133  1.00  0.00    -0.206 F 
ATOM     95  C   UNL A   1      39.380  35.788  39.331  1.00  0.00     0.060 A 
BRANCH  95  96
ATOM     96  S   UNL A   1      39.176  36.917  40.725  1.00  0.00     0.124 S 
ATOM     97  O   UNL A   1      40.562  37.229  41.056  1.00  0.00    -0.237 OA
ATOM     98  O   UNL A   1      38.404  38.006  40.135  1.00  0.00    -0.237 OA
ATOM     99  O   UNL A   1      38.460  36.114  41.712  1.00  0.00    -0.744 OA
ENDBRANCH  95  96
ENDBRANCH  63  88
ENDBRANCH  37  38
ENDBRANCH  29  32
ENDBRANCH  27  28
ENDBRANCH   1  27
TORSDOF 17
ENDMDL
MODEL 2
REMARK VINA RESULT:     -11.6      1.648      2.433
REMARK SMILES Cc1csc([C@H](C)Nc2cc(C)c(N)c(C(=O)NCCCNC(=O)c3ccc(-c4c5nc(c(-c6c(F)cc(S(=O)(=O)[O-])cc6F)c6ccc([nH]6)c(-c6c(F)cc(S(=O)(=O)[O-])cc6F)c6nc(c(-c7c(F)cc(S(=O)(=O)[O-])cc7F)c7ccc4[nH]7)C=C6)C=C5)cc3)c2)n1
REMARK SMILES IDX 20 1 19 2 18 3 16 4 17 5 15 7 9 8 10 9 91 10 11 11 12 12
REMARK SMILES IDX 13 13 8 14 6 16 7 17 5 18 1 19 2 20 3 21 92 22 4 23 14 24
REMARK SMILES IDX 21 27 22 28 23 29 24 31 25 32 26 33 90 34 27 35 89 36 28 37
REMARK SMILES IDX 29 38 30 39 83 40 31 41 88 42 82 43 84 44 32 45 87 46 81 47
REMARK SMILES IDX 80 48 33 50 67 51 46 52 66 53 47 54 50 55 65 56 85 57 48 58
REMARK SMILES IDX 49 59 64 61 86 62 51 63 34 64 35 65 44 66 36 67 37 68 43 69
REMARK SMILES IDX 45 70 38 71 39 72 40 73 41 74 42 75 68 76 69 77 78 78 70 79
REMARK SMILES IDX 71 80 77 81 79 82 72 83 73 84 74 85 75 86 76 87 52 88 53 89
REMARK SMILES IDX 62 90 54 91 55 92 61 93 63 94 56 95 57 96 58 97 59 98 60 99
REMARK H PARENT 18 6 8 15 14 25 14 26 22 30 84 49 50 60
REMARK Flexibility Score: inf
ROOT
ATOM      1  C   UNL A   1      37.738  23.104  25.721  1.00  0.00     0.042 C 
ENDROOT
BRANCH   1   2
ATOM      2  C   UNL A   1      36.260  23.499  25.670  1.00  0.00     0.118 C 
BRANCH   2   3
ATOM      3  N   UNL A   1      35.483  22.754  26.645  1.00  0.00    -0.352 N 
ATOM      4  C   UNL A   1      34.335  22.002  26.574  1.00  0.00     0.253 C 
ATOM      5  O   UNL A   1      33.968  21.491  27.638  1.00  0.00    -0.269 OA
ATOM      6  H   UNL A   1      35.861  22.796  27.553  1.00  0.00     0.163 HD
BRANCH   4   7
ATOM      7  C   UNL A   1      33.548  21.755  25.318  1.00  0.00     0.065 A 
ATOM      8  C   UNL A   1      32.230  22.596  23.426  1.00  0.00     0.036 A 
ATOM      9  C   UNL A   1      32.083  21.294  22.960  1.00  0.00     0.031 A 
ATOM     10  C   UNL A   1      32.934  22.796  24.616  1.00  0.00     0.041 A 
ATOM     11  C   UNL A   1      32.633  20.205  23.663  1.00  0.00    -0.025 A 
ATOM     12  C   UNL A   1      32.438  18.818  23.113  1.00  0.00     0.046 C 
ATOM     13  C   UNL A   1      33.356  20.425  24.859  1.00  0.00     0.047 A 
BRANCH   8  14
ATOM     14  N   UNL A   1      31.793  23.713  22.748  1.00  0.00    -0.376 N 
ATOM     15  H   UNL A   1      30.907  23.668  22.321  1.00  0.00     0.161 HD
BRANCH  14  16
ATOM     16  C   UNL A   1      32.547  24.963  22.612  1.00  0.00     0.135 C 
ATOM     17  C   UNL A   1      32.823  25.095  21.104  1.00  0.00     0.039 C 
BRANCH  16  18
ATOM     18  C   UNL A   1      31.847  26.196  23.187  1.00  0.00     0.115 A 
ATOM     19  C   UNL A   1      29.501  28.907  22.756  1.00  0.00     0.067 C 
ATOM     20  C   UNL A   1      30.505  27.971  23.323  1.00  0.00     0.049 A 
ATOM     21  C   UNL A   1      31.021  27.995  24.601  1.00  0.00     0.090 A 
ATOM     22  N   UNL A   1      30.992  26.952  22.520  1.00  0.00    -0.244 NA
ATOM     23  S   UNL A   1      32.080  26.674  24.831  1.00  0.00    -0.125 S 
ENDBRANCH  16  18
ENDBRANCH  14  16
ENDBRANCH   8  14
BRANCH  13  24
ATOM     24  N   UNL A   1      33.999  19.342  25.478  1.00  0.00    -0.398 N 
ATOM     25  H   UNL A   1      34.486  18.682  24.934  1.00  0.00     0.156 HD
ATOM     26  H   UNL A   1      33.965  19.244  26.457  1.00  0.00     0.156 HD
ENDBRANCH  13  24
ENDBRANCH   4   7
ENDBRANCH   2   3
ENDBRANCH   1   2
BRANCH   1  27
ATOM     27  C   UNL A   1      38.597  24.075  26.531  1.00  0.00     0.118 C 
BRANCH  27  28
ATOM     28  N   UNL A   1      40.007  23.960  26.192  1.00  0.00    -0.352 N 
ATOM     29  C   UNL A   1      41.066  24.767  26.525  1.00  0.00     0.251 C 
ATOM     30  H   UNL A   1      40.239  23.182  25.636  1.00  0.00     0.163 HD
ATOM     31  O   UNL A   1      42.133  24.628  25.933  1.00  0.00    -0.269 OA
BRANCH  29  32
ATOM     32  C   UNL A   1      40.934  25.797  27.580  1.00  0.00     0.039 A 
ATOM     33  C   UNL A   1      39.889  25.684  28.502  1.00  0.00     0.014 A 
ATOM     34  C   UNL A   1      41.791  26.899  27.630  1.00  0.00     0.014 A 
ATOM     35  C   UNL A   1      39.731  26.649  29.500  1.00  0.00     0.010 A 
ATOM     36  C   UNL A   1      41.674  27.827  28.664  1.00  0.00     0.010 A 
ATOM     37  C   UNL A   1      40.639  27.717  29.604  1.00  0.00    -0.014 A 
BRANCH  37  38
ATOM     38  C   UNL A   1      40.520  28.724  30.689  1.00  0.00     0.031 A 
ATOM     39  C   UNL A   1      41.377  28.616  31.921  1.00  0.00     0.074 A 
ATOM     40  C   UNL A   1      39.594  29.698  30.590  1.00  0.00     0.049 A 
ATOM     41  N   UNL A   1      41.363  29.351  33.004  1.00  0.00    -0.248 NA
ATOM     42  C   UNL A   1      42.360  27.522  31.952  1.00  0.00     0.031 C 
ATOM     43  C   UNL A   1      38.674  29.878  29.465  1.00  0.00     0.029 A 
ATOM     44  N   UNL A   1      39.263  30.713  31.453  1.00  0.00    -0.354 N 
ATOM     45  C   UNL A   1      42.320  28.800  33.849  1.00  0.00     0.074 A 
ATOM     46  C   UNL A   1      42.863  27.642  33.172  1.00  0.00     0.031 C 
ATOM     47  C   UNL A   1      37.896  30.947  29.699  1.00  0.00     0.029 A 
ATOM     48  C   UNL A   1      38.235  31.506  31.004  1.00  0.00     0.049 A 
ATOM     49  H   UNL A   1      39.720  30.858  32.313  1.00  0.00     0.167 HD
ATOM     50  C   UNL A   1      42.723  29.233  35.068  1.00  0.00     0.037 A 
ATOM     51  C   UNL A   1      37.626  32.560  31.582  1.00  0.00     0.037 A 
ATOM     52  C   UNL A   1      42.197  30.404  35.722  1.00  0.00     0.049 A 
ATOM     53  C   UNL A   1      38.097  33.029  32.930  1.00  0.00     0.074 A 
ATOM     54  C   UNL A   1      42.577  30.960  36.930  1.00  0.00     0.029 A 
ATOM     55  N   UNL A   1      41.175  31.199  35.221  1.00  0.00    -0.354 N 
ATOM     56  N   UNL A   1      39.043  32.531  33.690  1.00  0.00    -0.248 NA
ATOM     57  C   UNL A   1      37.426  34.206  33.498  1.00  0.00     0.031 C 
ATOM     58  C   UNL A   1      41.759  32.068  37.179  1.00  0.00     0.029 A 
ATOM     59  C   UNL A   1      40.901  32.231  36.103  1.00  0.00     0.049 A 
ATOM     60  H   UNL A   1      40.713  31.051  34.364  1.00  0.00     0.167 HD
ATOM     61  C   UNL A   1      39.099  33.348  34.814  1.00  0.00     0.074 A 
ATOM     62  C   UNL A   1      38.098  34.379  34.628  1.00  0.00     0.031 C 
ATOM     63  C   UNL A   1      39.907  33.254  35.898  1.00  0.00     0.037 A 
BRANCH  50  64
ATOM     64  C   UNL A   1      43.790  28.440  35.773  1.00  0.00     0.058 A 
ATOM     65  C   UNL A   1      43.469  27.404  36.666  1.00  0.00     0.135 A 
ATOM     66  C   UNL A   1      45.149  28.693  35.529  1.00  0.00     0.135 A 
ATOM     67  F   UNL A   1      42.186  27.127  36.947  1.00  0.00    -0.206 F 
ATOM     68  C   UNL A   1      44.457  26.671  37.317  1.00  0.00     0.059 A 
ATOM     69  C   UNL A   1      46.155  27.953  36.147  1.00  0.00     0.059 A 
ATOM     70  F   UNL A   1      45.514  29.669  34.683  1.00  0.00    -0.206 F 
ATOM     71  C   UNL A   1      45.797  26.954  37.052  1.00  0.00     0.060 A 
BRANCH  71  72
ATOM     72  S   UNL A   1      47.067  25.992  37.903  1.00  0.00     0.124 S 
ATOM     73  O   UNL A   1      47.074  26.623  39.219  1.00  0.00    -0.237 OA
ATOM     74  O   UNL A   1      46.520  24.640  37.852  1.00  0.00    -0.237 OA
ATOM     75  O   UNL A   1      48.260  26.213  37.094  1.00  0.00    -0.744 OA
ENDBRANCH  71  72
ENDBRANCH  50  64
BRANCH  51  76
ATOM     76  C   UNL A   1      36.520  33.255  30.871  1.00  0.00     0.058 A 
ATOM     77  C   UNL A   1      35.192  33.119  31.298  1.00  0.00     0.135 A 
ATOM     78  C   UNL A   1      36.770  34.089  29.770  1.00  0.00     0.135 A 
ATOM     79  F   UNL A   1      34.901  32.328  32.343  1.00  0.00    -0.206 F 
ATOM     80  C   UNL A   1      34.147  33.774  30.653  1.00  0.00     0.059 A 
ATOM     81  C   UNL A   1      35.746  34.773  29.123  1.00  0.00     0.059 A 
ATOM     82  F   UNL A   1      38.027  34.267  29.333  1.00  0.00    -0.206 F 
ATOM     83  C   UNL A   1      34.435  34.603  29.568  1.00  0.00     0.060 A 
BRANCH  83  84
ATOM     84  S   UNL A   1      33.081  35.494  28.774  1.00  0.00     0.124 S 
ATOM     85  O   UNL A   1      32.445  34.435  27.999  1.00  0.00    -0.237 OA
ATOM     86  O   UNL A   1      32.324  35.989  29.920  1.00  0.00    -0.237 OA
ATOM     87  O   UNL A   1      33.766  36.522  27.996  1.00  0.00    -0.744 OA
ENDBRANCH  83  84
ENDBRANCH  51  76
BRANCH  63  88
ATOM     88  C   UNL A   1      39.770  34.313  36.956  1.00  0.00     0.058 A 
ATOM     89  C   UNL A   1      38.903  34.156  38.049  1.00  0.00     0.135 A 
ATOM     90  C   UNL A   1      40.557  35.475  36.904  1.00  0.00     0.135 A 
ATOM     91  F   UNL A   1      38.124  33.067  38.142  1.00  0.00    -0.206 F 
ATOM     92  C   UNL A   1      38.808  35.123  39.044  1.00  0.00     0.059 A 
ATOM     93  C   UNL A   1      40.497  36.443  37.901  1.00  0.00     0.059 A 
ATOM     94  F   UNL A   1      41.408  35.669  35.884  1.00  0.00    -0.206 F 
ATOM     95  C   UNL A   1      39.612  36.262  38.963  1.00  0.00     0.060 A 
BRANCH  95  96
ATOM     96  S   UNL A   1      39.507  37.491  40.280  1.00  0.00     0.124 S 
ATOM     97  O   UNL A   1      38.656  38.507  39.669  1.00  0.00    -0.237 OA
ATOM     98  O   UNL A   1      38.905  36.732  41.371  1.00  0.00    -0.237 OA
ATOM     99  O   UNL A   1      40.898  37.884  40.491  1.00  0.00    -0.744 OA
ENDBRANCH  95  96
ENDBRANCH  63  88
ENDBRANCH  37  38
ENDBRANCH  29  32
ENDBRANCH  27  28
ENDBRANCH   1  27
TORSDOF 17
ENDMDL
MODEL 3
REMARK VINA RESULT:     -11.5      6.568     12.206
REMARK SMILES Cc1csc([C@H](C)Nc2cc(C)c(N)c(C(=O)NCCCNC(=O)c3ccc(-c4c5nc(c(-c6c(F)cc(S(=O)(=O)[O-])cc6F)c6ccc([nH]6)c(-c6c(F)cc(S(=O)(=O)[O-])cc6F)c6nc(c(-c7c(F)cc(S(=O)(=O)[O-])cc7F)c7ccc4[nH]7)C=C6)C=C5)cc3)c2)n1
REMARK SMILES IDX 20 1 19 2 18 3 16 4 17 5 15 7 9 8 10 9 91 10 11 11 12 12
REMARK SMILES IDX 13 13 8 14 6 16 7 17 5 18 1 19 2 20 3 21 92 22 4 23 14 24
REMARK SMILES IDX 21 27 22 28 23 29 24 31 25 32 26 33 90 34 27 35 89 36 28 37
REMARK SMILES IDX 29 38 30 39 83 40 31 41 88 42 82 43 84 44 32 45 87 46 81 47
REMARK SMILES IDX 80 48 33 50 67 51 46 52 66 53 47 54 50 55 65 56 85 57 48 58
REMARK SMILES IDX 49 59 64 61 86 62 51 63 34 64 35 65 44 66 36 67 37 68 43 69
REMARK SMILES IDX 45 70 38 71 39 72 40 73 41 74 42 75 68 76 69 77 78 78 70 79
REMARK SMILES IDX 71 80 77 81 79 82 72 83 73 84 74 85 75 86 76 87 52 88 53 89
REMARK SMILES IDX 62 90 54 91 55 92 61 93 63 94 56 95 57 96 58 97 59 98 60 99
REMARK H PARENT 18 6 8 15 14 25 14 26 22 30 84 49 50 60
REMARK Flexibility Score: inf
ROOT
ATOM      1  C   UNL A   1      34.530  31.157  27.532  1.00  0.00     0.042 C 
ENDROOT
BRANCH   1   2
ATOM      2  C   UNL A   1      34.549  29.646  27.289  1.00  0.00     0.118 C 
BRANCH   2   3
ATOM      3  N   UNL A   1      33.316  29.026  27.744  1.00  0.00    -0.352 N 
ATOM      4  C   UNL A   1      32.493  28.053  27.229  1.00  0.00     0.253 C 
ATOM      5  O   UNL A   1      31.512  27.764  27.925  1.00  0.00    -0.269 OA
ATOM      6  H   UNL A   1      33.003  29.379  28.608  1.00  0.00     0.163 HD
BRANCH   4   7
ATOM      7  C   UNL A   1      32.726  27.330  25.932  1.00  0.00     0.065 A 
ATOM      8  C   UNL A   1      33.922  25.636  24.619  1.00  0.00     0.036 A 
ATOM      9  C   UNL A   1      33.157  25.969  23.508  1.00  0.00     0.031 A 
ATOM     10  C   UNL A   1      33.712  26.348  25.803  1.00  0.00     0.041 A 
ATOM     11  C   UNL A   1      32.191  26.991  23.571  1.00  0.00    -0.025 A 
ATOM     12  C   UNL A   1      31.395  27.310  22.334  1.00  0.00     0.046 C 
ATOM     13  C   UNL A   1      31.979  27.694  24.781  1.00  0.00     0.047 A 
BRANCH   8  14
ATOM     14  N   UNL A   1      34.823  24.594  24.653  1.00  0.00    -0.376 N 
ATOM     15  H   UNL A   1      35.392  24.509  25.451  1.00  0.00     0.161 HD
BRANCH  14  16
ATOM     16  C   UNL A   1      34.999  23.601  23.589  1.00  0.00     0.135 C 
ATOM     17  C   UNL A   1      36.478  23.186  23.678  1.00  0.00     0.039 C 
BRANCH  16  18
ATOM     18  C   UNL A   1      34.052  22.402  23.671  1.00  0.00     0.115 A 
ATOM     19  C   UNL A   1      33.158  19.263  25.217  1.00  0.00     0.067 C 
ATOM     20  C   UNL A   1      33.171  20.470  24.352  1.00  0.00     0.049 A 
ATOM     21  C   UNL A   1      32.233  20.809  23.400  1.00  0.00     0.090 A 
ATOM     22  N   UNL A   1      34.211  21.375  24.489  1.00  0.00    -0.244 NA
ATOM     23  S   UNL A   1      32.615  22.326  22.713  1.00  0.00    -0.125 S 
ENDBRANCH  16  18
ENDBRANCH  14  16
ENDBRANCH   8  14
BRANCH  13  24
ATOM     24  N   UNL A   1      30.930  28.623  24.858  1.00  0.00    -0.398 N 
ATOM     25  H   UNL A   1      30.384  28.815  24.062  1.00  0.00     0.156 HD
ATOM     26  H   UNL A   1      30.740  29.080  25.708  1.00  0.00     0.156 HD
ENDBRANCH  13  24
ENDBRANCH   4   7
ENDBRANCH   2   3
ENDBRANCH   1   2
BRANCH   1  27
ATOM     27  C   UNL A   1      35.715  31.652  28.359  1.00  0.00     0.118 C 
BRANCH  27  28
ATOM     28  N   UNL A   1      35.588  31.280  29.760  1.00  0.00    -0.352 N 
ATOM     29  C   UNL A   1      36.401  30.502  30.546  1.00  0.00     0.251 C 
ATOM     30  H   UNL A   1      34.795  31.642  30.217  1.00  0.00     0.163 HD
ATOM     31  O   UNL A   1      35.985  30.111  31.633  1.00  0.00    -0.269 OA
BRANCH  29  32
ATOM     32  C   UNL A   1      37.761  30.130  30.098  1.00  0.00     0.039 A 
ATOM     33  C   UNL A   1      38.742  29.880  31.063  1.00  0.00     0.014 A 
ATOM     34  C   UNL A   1      38.092  30.086  28.740  1.00  0.00     0.014 A 
ATOM     35  C   UNL A   1      40.039  29.541  30.668  1.00  0.00     0.010 A 
ATOM     36  C   UNL A   1      39.367  29.684  28.347  1.00  0.00     0.010 A 
ATOM     37  C   UNL A   1      40.356  29.416  29.305  1.00  0.00    -0.014 A 
BRANCH  37  38
ATOM     38  C   UNL A   1      41.715  29.005  28.867  1.00  0.00     0.031 A 
ATOM     39  C   UNL A   1      42.822  30.019  28.781  1.00  0.00     0.074 A 
ATOM     40  C   UNL A   1      41.931  27.730  28.486  1.00  0.00     0.049 A 
ATOM     41  N   UNL A   1      44.049  29.869  28.349  1.00  0.00    -0.248 NA
ATOM     42  C   UNL A   1      42.503  31.390  29.213  1.00  0.00     0.031 C 
ATOM     43  C   UNL A   1      40.923  26.668  28.481  1.00  0.00     0.029 A 
ATOM     44  N   UNL A   1      43.063  27.114  28.015  1.00  0.00    -0.354 N 
ATOM     45  C   UNL A   1      44.640  31.123  28.440  1.00  0.00     0.074 A 
ATOM     46  C   UNL A   1      43.625  32.033  28.925  1.00  0.00     0.031 C 
ATOM     47  C   UNL A   1      41.486  25.529  28.048  1.00  0.00     0.029 A 
ATOM     48  C   UNL A   1      42.882  25.787  27.707  1.00  0.00     0.049 A 
ATOM     49  H   UNL A   1      43.924  27.580  27.909  1.00  0.00     0.167 HD
ATOM     50  C   UNL A   1      45.918  31.480  28.165  1.00  0.00     0.037 A 
ATOM     51  C   UNL A   1      43.741  24.881  27.200  1.00  0.00     0.037 A 
ATOM     52  C   UNL A   1      46.930  30.561  27.709  1.00  0.00     0.049 A 
ATOM     53  C   UNL A   1      45.157  25.296  26.912  1.00  0.00     0.074 A 
ATOM     54  C   UNL A   1      48.267  30.808  27.455  1.00  0.00     0.029 A 
ATOM     55  N   UNL A   1      46.714  29.217  27.437  1.00  0.00    -0.354 N 
ATOM     56  N   UNL A   1      45.715  26.474  27.059  1.00  0.00    -0.248 NA
ATOM     57  C   UNL A   1      46.063  24.261  26.397  1.00  0.00     0.031 C 
ATOM     58  C   UNL A   1      48.852  29.624  26.994  1.00  0.00     0.029 A 
ATOM     59  C   UNL A   1      47.890  28.626  27.004  1.00  0.00     0.049 A 
ATOM     60  H   UNL A   1      45.852  28.751  27.537  1.00  0.00     0.167 HD
ATOM     61  C   UNL A   1      47.043  26.316  26.679  1.00  0.00     0.074 A 
ATOM     62  C   UNL A   1      47.207  24.926  26.306  1.00  0.00     0.031 C 
ATOM     63  C   UNL A   1      48.037  27.238  26.645  1.00  0.00     0.037 A 
BRANCH  50  64
ATOM     64  C   UNL A   1      46.298  32.923  28.354  1.00  0.00     0.058 A 
ATOM     65  C   UNL A   1      46.148  33.865  27.323  1.00  0.00     0.135 A 
ATOM     66  C   UNL A   1      46.784  33.380  29.589  1.00  0.00     0.135 A 
ATOM     67  F   UNL A   1      45.700  33.482  26.116  1.00  0.00    -0.206 F 
ATOM     68  C   UNL A   1      46.498  35.201  27.499  1.00  0.00     0.059 A 
ATOM     69  C   UNL A   1      47.114  34.717  29.798  1.00  0.00     0.059 A 
ATOM     70  F   UNL A   1      46.945  32.524  30.611  1.00  0.00    -0.206 F 
ATOM     71  C   UNL A   1      46.982  35.616  28.740  1.00  0.00     0.060 A 
BRANCH  71  72
ATOM     72  S   UNL A   1      47.430  37.352  28.954  1.00  0.00     0.124 S 
ATOM     73  O   UNL A   1      48.881  37.262  29.091  1.00  0.00    -0.237 OA
ATOM     74  O   UNL A   1      46.948  37.955  27.715  1.00  0.00    -0.237 OA
ATOM     75  O   UNL A   1      46.709  37.745  30.160  1.00  0.00    -0.744 OA
ENDBRANCH  71  72
ENDBRANCH  50  64
BRANCH  51  76
ATOM     76  C   UNL A   1      43.285  23.487  26.958  1.00  0.00     0.058 A 
ATOM     77  C   UNL A   1      43.056  23.021  25.655  1.00  0.00     0.135 A 
ATOM     78  C   UNL A   1      43.096  22.586  28.016  1.00  0.00     0.135 A 
ATOM     79  F   UNL A   1      43.218  23.847  24.609  1.00  0.00    -0.206 F 
ATOM     80  C   UNL A   1      42.643  21.715  25.409  1.00  0.00     0.059 A 
ATOM     81  C   UNL A   1      42.707  21.268  27.795  1.00  0.00     0.059 A 
ATOM     82  F   UNL A   1      43.320  22.977  29.281  1.00  0.00    -0.206 F 
ATOM     83  C   UNL A   1      42.475  20.844  26.487  1.00  0.00     0.060 A 
BRANCH  83  84
ATOM     84  S   UNL A   1      41.997  19.136  26.154  1.00  0.00     0.124 S 
ATOM     85  O   UNL A   1      40.584  19.285  25.821  1.00  0.00    -0.237 OA
ATOM     86  O   UNL A   1      42.880  18.778  25.049  1.00  0.00    -0.237 OA
ATOM     87  O   UNL A   1      42.280  18.457  27.416  1.00  0.00    -0.744 OA
ENDBRANCH  83  84
ENDBRANCH  51  76
BRANCH  63  88
ATOM     88  C   UNL A   1      49.401  26.768  26.222  1.00  0.00     0.058 A 
ATOM     89  C   UNL A   1      49.852  26.906  24.900  1.00  0.00     0.135 A 
ATOM     90  C   UNL A   1      50.288  26.224  27.165  1.00  0.00     0.135 A 
ATOM     91  F   UNL A   1      49.040  27.414  23.959  1.00  0.00    -0.206 F 
ATOM     92  C   UNL A   1      51.128  26.504  24.523  1.00  0.00     0.059 A 
ATOM     93  C   UNL A   1      51.578  25.839  26.817  1.00  0.00     0.059 A 
ATOM     94  F   UNL A   1      49.909  26.079  28.445  1.00  0.00    -0.206 F 
ATOM     95  C   UNL A   1      51.986  25.974  25.490  1.00  0.00     0.060 A 
BRANCH  95  96
ATOM     96  S   UNL A   1      53.654  25.491  24.997  1.00  0.00     0.124 S 
ATOM     97  O   UNL A   1      53.616  24.047  25.205  1.00  0.00    -0.237 OA
ATOM     98  O   UNL A   1      53.710  25.931  23.607  1.00  0.00    -0.237 OA
ATOM     99  O   UNL A   1      54.510  26.234  25.918  1.00  0.00    -0.744 OA
ENDBRANCH  95  96
ENDBRANCH  63  88
ENDBRANCH  37  38
ENDBRANCH  29  32
ENDBRANCH  27  28
ENDBRANCH   1  27
TORSDOF 17
ENDMDL
