MODEL 1
REMARK VINA RESULT:     -12.9      0.000      0.000
REMARK SMILES CNS(=O)(=O)c1ccc([C@H]2CC(=O)Nc3cc(O)c(C(=O)NCCCNC(=O)c4ccc(-c5c6nc(c(-c7c(F)cc(S(=O)(=O)[O-])cc7F)c7ccc([nH]7)c(-c7c(F)cc(S(=O)(=O)[O-])cc7F)c7nc(c(-c8c(F)cc(S(=O)(=O)[O-])cc8F)c8ccc5[nH]8)C=C7)C=C6)cc4)cc32)cc1
REMARK SMILES IDX 24 1 23 2 22 3 20 4 21 5 19 7 10 8 11 9 96 10 12 11 15 12
REMARK SMILES IDX 95 13 13 14 14 15 16 16 17 18 9 19 6 20 7 21 98 22 8 23
REMARK SMILES IDX 97 24 3 25 4 26 5 27 2 28 1 29 18 31 25 33 26 34 27 35 28 37
REMARK SMILES IDX 29 38 30 39 94 40 31 41 93 42 32 43 33 44 34 45 87 46 35 47
REMARK SMILES IDX 92 48 86 49 88 50 36 51 91 52 85 53 84 54 37 56 71 57 50 58
REMARK SMILES IDX 70 59 51 60 54 61 69 62 89 63 52 64 53 65 68 67 90 68 55 69
REMARK SMILES IDX 38 70 39 71 48 72 40 73 41 74 47 75 49 76 42 77 43 78 44 79
REMARK SMILES IDX 45 80 46 81 72 82 73 83 82 84 74 85 75 86 81 87 83 88 76 89
REMARK SMILES IDX 77 90 78 91 79 92 80 93 56 94 57 95 66 96 58 97 59 98 65 99
REMARK SMILES IDX 67 100 60 101 61 102 62 103 63 104 64 105
REMARK H PARENT 22 6 14 17 2 30 18 32 26 36 88 55 54 66
REMARK Flexibility Score: inf
ROOT
ATOM      1  C   UNL A   1      39.946  21.952  26.439  1.00  0.00     0.042 C 
ENDROOT
BRANCH   1   2
ATOM      2  C   UNL A   1      38.477  21.679  26.129  1.00  0.00     0.118 C 
BRANCH   2   3
ATOM      3  N   UNL A   1      38.012  22.441  24.987  1.00  0.00    -0.352 N 
ATOM      4  C   UNL A   1      36.815  22.804  24.446  1.00  0.00     0.255 C 
ATOM      5  O   UNL A   1      36.905  23.367  23.346  1.00  0.00    -0.269 OA
ATOM      6  H   UNL A   1      38.766  22.790  24.459  1.00  0.00     0.163 HD
BRANCH   4   7
ATOM      7  C   UNL A   1      35.445  22.632  25.023  1.00  0.00     0.082 A 
ATOM      8  C   UNL A   1      32.363  24.544  26.374  1.00  0.00     0.061 C 
ATOM      9  C   UNL A   1      31.122  24.023  27.138  1.00  0.00     0.113 C 
ATOM     10  C   UNL A   1      33.271  23.413  25.903  1.00  0.00    -0.015 A 
ATOM     11  C   UNL A   1      30.580  22.697  26.680  1.00  0.00     0.225 C 
ATOM     12  C   UNL A   1      32.795  22.101  25.864  1.00  0.00     0.048 A 
ATOM     13  C   UNL A   1      34.604  23.661  25.486  1.00  0.00     0.024 A 
ATOM     14  O   UNL A   1      29.407  22.371  26.852  1.00  0.00    -0.275 OA
ATOM     15  N   UNL A   1      31.477  21.803  26.190  1.00  0.00    -0.326 N 
ATOM     16  C   UNL A   1      33.612  21.059  25.449  1.00  0.00     0.073 A 
ATOM     17  H   UNL A   1      31.172  20.877  26.057  1.00  0.00     0.169 HD
ATOM     18  C   UNL A   1      34.914  21.323  25.034  1.00  0.00     0.130 A 
BRANCH   8  19
ATOM     19  C   UNL A   1      31.930  25.592  25.338  1.00  0.00    -0.040 A 
ATOM     20  C   UNL A   1      30.779  27.588  23.725  1.00  0.00     0.082 A 
ATOM     21  C   UNL A   1      31.321  27.930  24.962  1.00  0.00     0.022 A 
ATOM     22  C   UNL A   1      30.893  26.281  23.243  1.00  0.00     0.022 A 
ATOM     23  C   UNL A   1      31.931  26.946  25.736  1.00  0.00     0.006 A 
ATOM     24  C   UNL A   1      31.459  25.286  24.052  1.00  0.00     0.006 A 
BRANCH  20  25
ATOM     25  S   UNL A   1      29.745  28.768  22.898  1.00  0.00     0.240 S 
ATOM     26  O   UNL A   1      28.365  28.372  23.077  1.00  0.00    -0.207 OA
ATOM     27  O   UNL A   1      30.291  28.998  21.576  1.00  0.00    -0.207 OA
BRANCH  25  28
ATOM     28  N   UNL A   1      29.999  30.193  23.747  1.00  0.00    -0.214 NA
ATOM     29  C   UNL A   1      29.004  31.255  23.650  1.00  0.00     0.120 C 
ATOM     30  H   UNL A   1      30.076  29.945  24.734  1.00  0.00     0.141 HD
ENDBRANCH  25  28
ENDBRANCH  20  25
ENDBRANCH   8  19
BRANCH  18  31
ATOM     31  O   UNL A   1      35.601  20.205  24.623  1.00  0.00    -0.507 OA
ATOM     32  H   UNL A   1      36.092  20.225  23.825  1.00  0.00     0.293 HD
ENDBRANCH  18  31
ENDBRANCH   4   7
ENDBRANCH   2   3
ENDBRANCH   1   2
BRANCH   1  33
ATOM     33  C   UNL A   1      40.250  23.407  26.803  1.00  0.00     0.118 C 
BRANCH  33  34
ATOM     34  N   UNL A   1      41.254  24.003  25.933  1.00  0.00    -0.352 N 
ATOM     35  C   UNL A   1      41.816  25.256  25.944  1.00  0.00     0.251 C 
ATOM     36  H   UNL A   1      41.585  23.410  25.219  1.00  0.00     0.163 HD
ATOM     37  O   UNL A   1      42.483  25.616  24.977  1.00  0.00    -0.269 OA
BRANCH  35  38
ATOM     38  C   UNL A   1      41.626  26.169  27.092  1.00  0.00     0.039 A 
ATOM     39  C   UNL A   1      40.636  25.869  28.034  1.00  0.00     0.014 A 
ATOM     40  C   UNL A   1      42.361  27.353  27.210  1.00  0.00     0.014 A 
ATOM     41  C   UNL A   1      40.414  26.730  29.112  1.00  0.00     0.010 A 
ATOM     42  C   UNL A   1      42.183  28.176  28.321  1.00  0.00     0.010 A 
ATOM     43  C   UNL A   1      41.199  27.883  29.275  1.00  0.00    -0.014 A 
BRANCH  43  44
ATOM     44  C   UNL A   1      40.979  28.810  30.415  1.00  0.00     0.031 A 
ATOM     45  C   UNL A   1      41.819  28.686  31.660  1.00  0.00     0.074 A 
ATOM     46  C   UNL A   1      39.993  29.724  30.356  1.00  0.00     0.049 A 
ATOM     47  N   UNL A   1      41.734  29.348  32.785  1.00  0.00    -0.248 NA
ATOM     48  C   UNL A   1      42.875  27.660  31.646  1.00  0.00     0.031 C 
ATOM     49  C   UNL A   1      39.082  29.914  29.225  1.00  0.00     0.029 A 
ATOM     50  N   UNL A   1      39.583  30.660  31.272  1.00  0.00    -0.354 N 
ATOM     51  C   UNL A   1      42.706  28.807  33.618  1.00  0.00     0.074 A 
ATOM     52  C   UNL A   1      43.337  27.730  32.886  1.00  0.00     0.031 C 
ATOM     53  C   UNL A   1      38.231  30.914  29.507  1.00  0.00     0.029 A 
ATOM     54  C   UNL A   1      38.518  31.418  30.848  1.00  0.00     0.049 A 
ATOM     55  H   UNL A   1      40.012  30.778  32.150  1.00  0.00     0.167 HD
ATOM     56  C   UNL A   1      43.056  29.185  34.872  1.00  0.00     0.037 A 
ATOM     57  C   UNL A   1      37.845  32.407  31.470  1.00  0.00     0.037 A 
ATOM     58  C   UNL A   1      42.450  30.279  35.584  1.00  0.00     0.049 A 
ATOM     59  C   UNL A   1      38.277  32.837  32.845  1.00  0.00     0.074 A 
ATOM     60  C   UNL A   1      42.763  30.773  36.839  1.00  0.00     0.029 A 
ATOM     61  N   UNL A   1      41.408  31.057  35.098  1.00  0.00    -0.354 N 
ATOM     62  N   UNL A   1      39.228  32.343  33.601  1.00  0.00    -0.248 NA
ATOM     63  C   UNL A   1      37.556  33.967  33.445  1.00  0.00     0.031 C 
ATOM     64  C   UNL A   1      41.893  31.832  37.123  1.00  0.00     0.029 A 
ATOM     65  C   UNL A   1      41.065  32.023  36.029  1.00  0.00     0.049 A 
ATOM     66  H   UNL A   1      40.976  30.938  34.222  1.00  0.00     0.167 HD
ATOM     67  C   UNL A   1      39.242  33.123  34.752  1.00  0.00     0.074 A 
ATOM     68  C   UNL A   1      38.208  34.124  34.589  1.00  0.00     0.031 C 
ATOM     69  C   UNL A   1      40.041  33.023  35.843  1.00  0.00     0.037 A 
BRANCH  56  70
ATOM     70  C   UNL A   1      44.152  28.406  35.550  1.00  0.00     0.058 A 
ATOM     71  C   UNL A   1      43.871  27.298  36.365  1.00  0.00     0.135 A 
ATOM     72  C   UNL A   1      45.498  28.764  35.373  1.00  0.00     0.135 A 
ATOM     73  F   UNL A   1      42.600  26.921  36.581  1.00  0.00    -0.206 F 
ATOM     74  C   UNL A   1      44.882  26.596  37.014  1.00  0.00     0.059 A 
ATOM     75  C   UNL A   1      46.528  28.058  35.990  1.00  0.00     0.059 A 
ATOM     76  F   UNL A   1      45.824  29.813  34.603  1.00  0.00    -0.206 F 
ATOM     77  C   UNL A   1      46.208  26.988  36.824  1.00  0.00     0.060 A 
BRANCH  77  78
ATOM     78  S   UNL A   1      47.510  26.078  37.683  1.00  0.00     0.124 S 
ATOM     79  O   UNL A   1      46.806  25.625  38.878  1.00  0.00    -0.237 OA
ATOM     80  O   UNL A   1      47.856  25.038  36.719  1.00  0.00    -0.237 OA
ATOM     81  O   UNL A   1      48.540  27.088  37.906  1.00  0.00    -0.744 OA
ENDBRANCH  77  78
ENDBRANCH  56  70
BRANCH  57  82
ATOM     82  C   UNL A   1      36.720  33.085  30.775  1.00  0.00     0.058 A 
ATOM     83  C   UNL A   1      35.392  32.854  31.162  1.00  0.00     0.135 A 
ATOM     84  C   UNL A   1      36.948  33.992  29.730  1.00  0.00     0.135 A 
ATOM     85  F   UNL A   1      35.123  31.990  32.154  1.00  0.00    -0.206 F 
ATOM     86  C   UNL A   1      34.327  33.487  30.531  1.00  0.00     0.059 A 
ATOM     87  C   UNL A   1      35.902  34.657  29.098  1.00  0.00     0.059 A 
ATOM     88  F   UNL A   1      38.203  34.263  29.335  1.00  0.00    -0.206 F 
ATOM     89  C   UNL A   1      34.593  34.391  29.501  1.00  0.00     0.060 A 
BRANCH  89  90
ATOM     90  S   UNL A   1      33.209  35.258  28.729  1.00  0.00     0.124 S 
ATOM     91  O   UNL A   1      33.902  36.258  27.925  1.00  0.00    -0.237 OA
ATOM     92  O   UNL A   1      32.549  34.188  27.989  1.00  0.00    -0.237 OA
ATOM     93  O   UNL A   1      32.459  35.773  29.871  1.00  0.00    -0.744 OA
ENDBRANCH  89  90
ENDBRANCH  57  82
BRANCH  69  94
ATOM     94  C   UNL A   1      39.863  34.051  36.924  1.00  0.00     0.058 A 
ATOM     95  C   UNL A   1      40.597  35.247  36.937  1.00  0.00     0.135 A 
ATOM     96  C   UNL A   1      38.921  33.847  37.945  1.00  0.00     0.135 A 
ATOM     97  F   UNL A   1      41.514  35.487  35.986  1.00  0.00    -0.206 F 
ATOM     98  C   UNL A   1      40.424  36.193  37.942  1.00  0.00     0.059 A 
ATOM     99  C   UNL A   1      38.714  34.790  38.946  1.00  0.00     0.059 A 
ATOM    100  F   UNL A   1      38.185  32.725  37.972  1.00  0.00    -0.206 F 
ATOM    101  C   UNL A   1      39.482  35.954  38.944  1.00  0.00     0.060 A 
BRANCH 101 102
ATOM    102  S   UNL A   1      39.253  37.193  40.237  1.00  0.00     0.124 S 
ATOM    103  O   UNL A   1      38.592  36.413  41.277  1.00  0.00    -0.237 OA
ATOM    104  O   UNL A   1      40.625  37.602  40.528  1.00  0.00    -0.237 OA
ATOM    105  O   UNL A   1      38.428  38.209  39.591  1.00  0.00    -0.744 OA
ENDBRANCH 101 102
ENDBRANCH  69  94
ENDBRANCH  43  44
ENDBRANCH  35  38
ENDBRANCH  33  34
ENDBRANCH   1  33
TORSDOF 17
ENDMDL
MODEL 2
REMARK VINA RESULT:     -12.8      6.654     13.171
REMARK SMILES CNS(=O)(=O)c1ccc([C@H]2CC(=O)Nc3cc(O)c(C(=O)NCCCNC(=O)c4ccc(-c5c6nc(c(-c7c(F)cc(S(=O)(=O)[O-])cc7F)c7ccc([nH]7)c(-c7c(F)cc(S(=O)(=O)[O-])cc7F)c7nc(c(-c8c(F)cc(S(=O)(=O)[O-])cc8F)c8ccc5[nH]8)C=C7)C=C6)cc4)cc32)cc1
REMARK SMILES IDX 24 1 23 2 22 3 20 4 21 5 19 7 10 8 11 9 96 10 12 11 15 12
REMARK SMILES IDX 95 13 13 14 14 15 16 16 17 18 9 19 6 20 7 21 98 22 8 23
REMARK SMILES IDX 97 24 3 25 4 26 5 27 2 28 1 29 18 31 25 33 26 34 27 35 28 37
REMARK SMILES IDX 29 38 30 39 94 40 31 41 93 42 32 43 33 44 34 45 87 46 35 47
REMARK SMILES IDX 92 48 86 49 88 50 36 51 91 52 85 53 84 54 37 56 71 57 50 58
REMARK SMILES IDX 70 59 51 60 54 61 69 62 89 63 52 64 53 65 68 67 90 68 55 69
REMARK SMILES IDX 38 70 39 71 48 72 40 73 41 74 47 75 49 76 42 77 43 78 44 79
REMARK SMILES IDX 45 80 46 81 72 82 73 83 82 84 74 85 75 86 81 87 83 88 76 89
REMARK SMILES IDX 77 90 78 91 79 92 80 93 56 94 57 95 66 96 58 97 59 98 65 99
REMARK SMILES IDX 67 100 60 101 61 102 62 103 63 104 64 105
REMARK H PARENT 22 6 14 17 2 30 18 32 26 36 88 55 54 66
REMARK Flexibility Score: inf
ROOT
ATOM      1  C   UNL A   1      34.852  30.864  27.283  1.00  0.00     0.042 C 
ENDROOT
BRANCH   1   2
ATOM      2  C   UNL A   1      33.726  31.638  27.963  1.00  0.00     0.118 C 
BRANCH   2   3
ATOM      3  N   UNL A   1      33.981  33.065  27.980  1.00  0.00    -0.352 N 
ATOM      4  C   UNL A   1      34.638  33.956  28.776  1.00  0.00     0.255 C 
ATOM      5  O   UNL A   1      34.469  35.141  28.458  1.00  0.00    -0.269 OA
ATOM      6  H   UNL A   1      33.567  33.511  27.207  1.00  0.00     0.163 HD
BRANCH   4   7
ATOM      7  C   UNL A   1      35.536  33.675  29.940  1.00  0.00     0.082 A 
ATOM      8  C   UNL A   1      39.181  32.845  30.942  1.00  0.00     0.061 C 
ATOM      9  C   UNL A   1      39.761  32.377  32.299  1.00  0.00     0.113 C 
ATOM     10  C   UNL A   1      37.700  33.196  31.034  1.00  0.00    -0.015 A 
ATOM     11  C   UNL A   1      39.163  33.017  33.521  1.00  0.00     0.225 C 
ATOM     12  C   UNL A   1      37.107  33.413  32.280  1.00  0.00     0.048 A 
ATOM     13  C   UNL A   1      36.897  33.324  29.872  1.00  0.00     0.024 A 
ATOM     14  O   UNL A   1      39.775  33.103  34.584  1.00  0.00    -0.275 OA
ATOM     15  N   UNL A   1      37.855  33.375  33.450  1.00  0.00    -0.326 N 
ATOM     16  C   UNL A   1      35.758  33.722  32.382  1.00  0.00     0.073 A 
ATOM     17  H   UNL A   1      37.404  33.625  34.289  1.00  0.00     0.169 HD
ATOM     18  C   UNL A   1      34.988  33.853  31.230  1.00  0.00     0.130 A 
BRANCH   8  19
ATOM     19  C   UNL A   1      40.123  33.878  30.306  1.00  0.00    -0.040 A 
ATOM     20  C   UNL A   1      41.836  35.493  28.768  1.00  0.00     0.082 A 
ATOM     21  C   UNL A   1      40.497  35.369  28.405  1.00  0.00     0.022 A 
ATOM     22  C   UNL A   1      42.305  34.899  29.943  1.00  0.00     0.022 A 
ATOM     23  C   UNL A   1      39.643  34.606  29.196  1.00  0.00     0.006 A 
ATOM     24  C   UNL A   1      41.451  34.088  30.703  1.00  0.00     0.006 A 
BRANCH  20  25
ATOM     25  S   UNL A   1      42.968  36.202  27.601  1.00  0.00     0.240 S 
ATOM     26  O   UNL A   1      43.452  35.149  26.735  1.00  0.00    -0.207 OA
ATOM     27  O   UNL A   1      43.887  37.055  28.326  1.00  0.00    -0.207 OA
BRANCH  25  28
ATOM     28  N   UNL A   1      42.012  37.237  26.689  1.00  0.00    -0.214 NA
ATOM     29  C   UNL A   1      42.010  38.659  27.014  1.00  0.00     0.120 C 
ATOM     30  H   UNL A   1      42.317  37.152  25.719  1.00  0.00     0.141 HD
ENDBRANCH  25  28
ENDBRANCH  20  25
ENDBRANCH   8  19
BRANCH  18  31
ATOM     31  O   UNL A   1      33.677  34.190  31.474  1.00  0.00    -0.507 OA
ATOM     32  H   UNL A   1      33.454  34.670  32.248  1.00  0.00     0.293 HD
ENDBRANCH  18  31
ENDBRANCH   4   7
ENDBRANCH   2   3
ENDBRANCH   1   2
BRANCH   1  33
ATOM     33  C   UNL A   1      35.381  29.682  28.097  1.00  0.00     0.118 C 
BRANCH  33  34
ATOM     34  N   UNL A   1      35.487  29.982  29.518  1.00  0.00    -0.352 N 
ATOM     35  C   UNL A   1      36.537  29.828  30.388  1.00  0.00     0.251 C 
ATOM     36  H   UNL A   1      34.670  30.358  29.921  1.00  0.00     0.163 HD
ATOM     37  O   UNL A   1      36.331  29.942  31.594  1.00  0.00    -0.269 OA
BRANCH  35  38
ATOM     38  C   UNL A   1      37.900  29.526  29.898  1.00  0.00     0.039 A 
ATOM     39  C   UNL A   1      38.853  29.055  30.808  1.00  0.00     0.014 A 
ATOM     40  C   UNL A   1      38.267  29.769  28.571  1.00  0.00     0.014 A 
ATOM     41  C   UNL A   1      40.157  28.791  30.380  1.00  0.00     0.010 A 
ATOM     42  C   UNL A   1      39.548  29.441  28.131  1.00  0.00     0.010 A 
ATOM     43  C   UNL A   1      40.511  28.964  29.033  1.00  0.00    -0.014 A 
BRANCH  43  44
ATOM     44  C   UNL A   1      41.891  28.686  28.557  1.00  0.00     0.031 A 
ATOM     45  C   UNL A   1      42.264  27.303  28.092  1.00  0.00     0.074 A 
ATOM     46  C   UNL A   1      42.822  29.659  28.594  1.00  0.00     0.049 A 
ATOM     47  N   UNL A   1      43.428  26.843  27.711  1.00  0.00    -0.248 NA
ATOM     48  C   UNL A   1      41.190  26.296  28.084  1.00  0.00     0.031 C 
ATOM     49  C   UNL A   1      42.597  31.027  29.065  1.00  0.00     0.029 A 
ATOM     50  N   UNL A   1      44.147  29.644  28.239  1.00  0.00    -0.354 N 
ATOM     51  C   UNL A   1      43.233  25.494  27.439  1.00  0.00     0.074 A 
ATOM     52  C   UNL A   1      41.850  25.198  27.746  1.00  0.00     0.031 C 
ATOM     53  C   UNL A   1      43.740  31.724  28.955  1.00  0.00     0.029 A 
ATOM     54  C   UNL A   1      44.784  30.846  28.433  1.00  0.00     0.049 A 
ATOM     55  H   UNL A   1      44.599  28.847  27.880  1.00  0.00     0.167 HD
ATOM     56  C   UNL A   1      44.120  24.587  26.960  1.00  0.00     0.037 A 
ATOM     57  C   UNL A   1      46.067  31.202  28.216  1.00  0.00     0.037 A 
ATOM     58  C   UNL A   1      45.486  24.894  26.625  1.00  0.00     0.049 A 
ATOM     59  C   UNL A   1      47.022  30.190  27.646  1.00  0.00     0.074 A 
ATOM     60  C   UNL A   1      46.452  24.060  26.088  1.00  0.00     0.029 A 
ATOM     61  N   UNL A   1      46.078  26.139  26.786  1.00  0.00    -0.354 N 
ATOM     62  N   UNL A   1      46.809  28.929  27.353  1.00  0.00    -0.248 NA
ATOM     63  C   UNL A   1      48.387  30.653  27.361  1.00  0.00     0.031 C 
ATOM     64  C   UNL A   1      47.636  24.793  25.950  1.00  0.00     0.029 A 
ATOM     65  C   UNL A   1      47.396  26.094  26.363  1.00  0.00     0.049 A 
ATOM     66  H   UNL A   1      45.629  26.935  27.149  1.00  0.00     0.167 HD
ATOM     67  C   UNL A   1      48.003  28.457  26.819  1.00  0.00     0.074 A 
ATOM     68  C   UNL A   1      48.931  29.568  26.825  1.00  0.00     0.031 C 
ATOM     69  C   UNL A   1      48.303  27.216  26.362  1.00  0.00     0.037 A 
BRANCH  56  70
ATOM     70  C   UNL A   1      43.632  23.176  26.768  1.00  0.00     0.058 A 
ATOM     71  C   UNL A   1      43.366  22.334  27.859  1.00  0.00     0.135 A 
ATOM     72  C   UNL A   1      43.417  22.663  25.478  1.00  0.00     0.135 A 
ATOM     73  F   UNL A   1      43.568  22.768  29.114  1.00  0.00    -0.206 F 
ATOM     74  C   UNL A   1      42.942  21.021  27.680  1.00  0.00     0.059 A 
ATOM     75  C   UNL A   1      42.966  21.362  25.276  1.00  0.00     0.059 A 
ATOM     76  F   UNL A   1      43.654  23.426  24.399  1.00  0.00    -0.206 F 
ATOM     77  C   UNL A   1      42.750  20.542  26.383  1.00  0.00     0.060 A 
BRANCH  77  78
ATOM     78  S   UNL A   1      42.214  18.832  26.163  1.00  0.00     0.124 S 
ATOM     79  O   UNL A   1      42.427  18.288  27.501  1.00  0.00    -0.237 OA
ATOM     80  O   UNL A   1      40.821  18.989  25.756  1.00  0.00    -0.237 OA
ATOM     81  O   UNL A   1      43.112  18.325  25.129  1.00  0.00    -0.744 OA
ENDBRANCH  77  78
ENDBRANCH  56  70
BRANCH  57  82
ATOM     82  C   UNL A   1      46.505  32.593  28.500  1.00  0.00     0.058 A 
ATOM     83  C   UNL A   1      46.470  33.576  27.500  1.00  0.00     0.135 A 
ATOM     84  C   UNL A   1      46.943  32.974  29.777  1.00  0.00     0.135 A 
ATOM     85  F   UNL A   1      46.063  33.258  26.261  1.00  0.00    -0.206 F 
ATOM     86  C   UNL A   1      46.865  34.885  27.751  1.00  0.00     0.059 A 
ATOM     87  C   UNL A   1      47.321  34.282  30.060  1.00  0.00     0.059 A 
ATOM     88  F   UNL A   1      46.976  32.074  30.773  1.00  0.00    -0.206 F 
ATOM     89  C   UNL A   1      47.287  35.230  29.036  1.00  0.00     0.060 A 
BRANCH  89  90
ATOM     90  S   UNL A   1      47.738  36.947  29.370  1.00  0.00     0.124 S 
ATOM     91  O   UNL A   1      46.775  37.307  30.404  1.00  0.00    -0.237 OA
ATOM     92  O   UNL A   1      49.126  36.822  29.804  1.00  0.00    -0.237 OA
ATOM     93  O   UNL A   1      47.551  37.599  28.077  1.00  0.00    -0.744 OA
ENDBRANCH  89  90
ENDBRANCH  57  82
BRANCH  69  94
ATOM     94  C   UNL A   1      49.674  27.007  25.783  1.00  0.00     0.058 A 
ATOM     95  C   UNL A   1      49.941  27.207  24.420  1.00  0.00     0.135 A 
ATOM     96  C   UNL A   1      50.741  26.632  26.614  1.00  0.00     0.135 A 
ATOM     97  F   UNL A   1      48.953  27.562  23.583  1.00  0.00    -0.206 F 
ATOM     98  C   UNL A   1      51.214  27.011  23.894  1.00  0.00     0.059 A 
ATOM     99  C   UNL A   1      52.027  26.455  26.115  1.00  0.00     0.059 A 
ATOM    100  F   UNL A   1      50.541  26.439  27.927  1.00  0.00    -0.206 F 
ATOM    101  C   UNL A   1      52.250  26.632  24.750  1.00  0.00     0.060 A 
BRANCH 101 102
ATOM    102  S   UNL A   1      53.903  26.396  24.063  1.00  0.00     0.124 S 
ATOM    103  O   UNL A   1      54.345  25.198  24.769  1.00  0.00    -0.237 OA
ATOM    104  O   UNL A   1      53.631  26.225  22.638  1.00  0.00    -0.237 OA
ATOM    105  O   UNL A   1      54.597  27.629  24.418  1.00  0.00    -0.744 OA
ENDBRANCH 101 102
ENDBRANCH  69  94
ENDBRANCH  43  44
ENDBRANCH  35  38
ENDBRANCH  33  34
ENDBRANCH   1  33
TORSDOF 17
ENDMDL
MODEL 3
REMARK VINA RESULT:     -12.8      6.253     11.957
REMARK SMILES CNS(=O)(=O)c1ccc([C@H]2CC(=O)Nc3cc(O)c(C(=O)NCCCNC(=O)c4ccc(-c5c6nc(c(-c7c(F)cc(S(=O)(=O)[O-])cc7F)c7ccc([nH]7)c(-c7c(F)cc(S(=O)(=O)[O-])cc7F)c7nc(c(-c8c(F)cc(S(=O)(=O)[O-])cc8F)c8ccc5[nH]8)C=C7)C=C6)cc4)cc32)cc1
REMARK SMILES IDX 24 1 23 2 22 3 20 4 21 5 19 7 10 8 11 9 96 10 12 11 15 12
REMARK SMILES IDX 95 13 13 14 14 15 16 16 17 18 9 19 6 20 7 21 98 22 8 23
REMARK SMILES IDX 97 24 3 25 4 26 5 27 2 28 1 29 18 31 25 33 26 34 27 35 28 37
REMARK SMILES IDX 29 38 30 39 94 40 31 41 93 42 32 43 33 44 34 45 87 46 35 47
REMARK SMILES IDX 92 48 86 49 88 50 36 51 91 52 85 53 84 54 37 56 71 57 50 58
REMARK SMILES IDX 70 59 51 60 54 61 69 62 89 63 52 64 53 65 68 67 90 68 55 69
REMARK SMILES IDX 38 70 39 71 48 72 40 73 41 74 47 75 49 76 42 77 43 78 44 79
REMARK SMILES IDX 45 80 46 81 72 82 73 83 82 84 74 85 75 86 81 87 83 88 76 89
REMARK SMILES IDX 77 90 78 91 79 92 80 93 56 94 57 95 66 96 58 97 59 98 65 99
REMARK SMILES IDX 67 100 60 101 61 102 62 103 63 104 64 105
REMARK H PARENT 22 6 14 17 2 30 18 32 26 36 88 55 54 66
REMARK Flexibility Score: inf
ROOT
ATOM      1  C   UNL A   1      34.229  31.750  28.237  1.00  0.00     0.042 C 
ENDROOT
BRANCH   1   2
ATOM      2  C   UNL A   1      33.624  30.908  27.118  1.00  0.00     0.118 C 
BRANCH   2   3
ATOM      3  N   UNL A   1      33.024  29.688  27.620  1.00  0.00    -0.352 N 
ATOM      4  C   UNL A   1      32.467  28.558  27.099  1.00  0.00     0.255 C 
ATOM      5  O   UNL A   1      31.944  27.815  27.941  1.00  0.00    -0.269 OA
ATOM      6  H   UNL A   1      33.017  29.671  28.604  1.00  0.00     0.163 HD
BRANCH   4   7
ATOM      7  C   UNL A   1      32.438  28.110  25.671  1.00  0.00     0.082 A 
ATOM      8  C   UNL A   1      33.737  25.414  23.217  1.00  0.00     0.061 C 
ATOM      9  C   UNL A   1      33.687  25.365  21.671  1.00  0.00     0.113 C 
ATOM     10  C   UNL A   1      32.972  26.604  23.785  1.00  0.00    -0.015 A 
ATOM     11  C   UNL A   1      32.422  25.880  21.041  1.00  0.00     0.225 C 
ATOM     12  C   UNL A   1      32.055  27.294  22.988  1.00  0.00     0.048 A 
ATOM     13  C   UNL A   1      33.157  27.031  25.125  1.00  0.00     0.024 A 
ATOM     14  O   UNL A   1      32.046  25.515  19.929  1.00  0.00    -0.275 OA
ATOM     15  N   UNL A   1      31.775  26.881  21.691  1.00  0.00    -0.326 N 
ATOM     16  C   UNL A   1      31.359  28.386  23.486  1.00  0.00     0.073 A 
ATOM     17  H   UNL A   1      31.055  27.348  21.208  1.00  0.00     0.169 HD
ATOM     18  C   UNL A   1      31.547  28.784  24.806  1.00  0.00     0.130 A 
BRANCH   8  19
ATOM     19  C   UNL A   1      33.424  24.024  23.789  1.00  0.00    -0.040 A 
ATOM     20  C   UNL A   1      33.044  21.316  24.447  1.00  0.00     0.082 A 
ATOM     21  C   UNL A   1      34.335  21.837  24.396  1.00  0.00     0.022 A 
ATOM     22  C   UNL A   1      31.939  22.153  24.270  1.00  0.00     0.022 A 
ATOM     23  C   UNL A   1      34.515  23.189  24.116  1.00  0.00     0.006 A 
ATOM     24  C   UNL A   1      32.131  23.500  23.934  1.00  0.00     0.006 A 
BRANCH  20  25
ATOM     25  S   UNL A   1      32.843  19.554  24.497  1.00  0.00     0.240 S 
ATOM     26  O   UNL A   1      32.343  19.114  23.213  1.00  0.00    -0.207 OA
ATOM     27  O   UNL A   1      32.153  19.214  25.724  1.00  0.00    -0.207 OA
BRANCH  25  28
ATOM     28  N   UNL A   1      34.408  18.975  24.681  1.00  0.00    -0.214 NA
ATOM     29  C   UNL A   1      34.700  17.604  24.276  1.00  0.00     0.120 C 
ATOM     30  H   UNL A   1      35.020  19.584  24.139  1.00  0.00     0.141 HD
ENDBRANCH  25  28
ENDBRANCH  20  25
ENDBRANCH   8  19
BRANCH  18  31
ATOM     31  O   UNL A   1      30.774  29.860  25.176  1.00  0.00    -0.507 OA
ATOM     32  H   UNL A   1      30.819  30.659  24.688  1.00  0.00     0.293 HD
ENDBRANCH  18  31
ENDBRANCH   4   7
ENDBRANCH   2   3
ENDBRANCH   1   2
BRANCH   1  33
ATOM     33  C   UNL A   1      35.558  31.217  28.776  1.00  0.00     0.118 C 
BRANCH  33  34
ATOM     34  N   UNL A   1      35.551  31.057  30.224  1.00  0.00    -0.352 N 
ATOM     35  C   UNL A   1      36.469  30.474  31.062  1.00  0.00     0.251 C 
ATOM     36  H   UNL A   1      34.758  31.428  30.675  1.00  0.00     0.163 HD
ATOM     37  O   UNL A   1      36.152  30.256  32.229  1.00  0.00    -0.269 OA
BRANCH  35  38
ATOM     38  C   UNL A   1      37.818  30.105  30.582  1.00  0.00     0.039 A 
ATOM     39  C   UNL A   1      38.079  30.148  29.208  1.00  0.00     0.014 A 
ATOM     40  C   UNL A   1      38.804  29.648  31.462  1.00  0.00     0.014 A 
ATOM     41  C   UNL A   1      39.336  29.775  28.723  1.00  0.00     0.010 A 
ATOM     42  C   UNL A   1      40.077  29.341  30.984  1.00  0.00     0.010 A 
ATOM     43  C   UNL A   1      40.352  29.386  29.609  1.00  0.00    -0.014 A 
BRANCH  43  44
ATOM     44  C   UNL A   1      41.695  28.988  29.114  1.00  0.00     0.031 A 
ATOM     45  C   UNL A   1      42.803  30.006  29.039  1.00  0.00     0.074 A 
ATOM     46  C   UNL A   1      41.905  27.730  28.681  1.00  0.00     0.049 A 
ATOM     47  N   UNL A   1      44.017  29.875  28.570  1.00  0.00    -0.248 NA
ATOM     48  C   UNL A   1      42.493  31.359  29.529  1.00  0.00     0.031 C 
ATOM     49  C   UNL A   1      40.901  26.664  28.660  1.00  0.00     0.029 A 
ATOM     50  N   UNL A   1      43.029  27.136  28.165  1.00  0.00    -0.354 N 
ATOM     51  C   UNL A   1      44.607  31.128  28.688  1.00  0.00     0.074 A 
ATOM     52  C   UNL A   1      43.602  32.018  29.228  1.00  0.00     0.031 C 
ATOM     53  C   UNL A   1      41.459  25.544  28.173  1.00  0.00     0.029 A 
ATOM     54  C   UNL A   1      42.849  25.818  27.820  1.00  0.00     0.049 A 
ATOM     55  H   UNL A   1      43.885  27.610  28.052  1.00  0.00     0.167 HD
ATOM     56  C   UNL A   1      45.877  31.501  28.392  1.00  0.00     0.037 A 
ATOM     57  C   UNL A   1      43.708  24.930  27.280  1.00  0.00     0.037 A 
ATOM     58  C   UNL A   1      46.884  30.604  27.887  1.00  0.00     0.049 A 
ATOM     59  C   UNL A   1      45.122  25.354  26.997  1.00  0.00     0.074 A 
ATOM     60  C   UNL A   1      48.211  30.870  27.600  1.00  0.00     0.029 A 
ATOM     61  N   UNL A   1      46.675  29.262  27.601  1.00  0.00    -0.354 N 
ATOM     62  N   UNL A   1      45.676  26.533  27.157  1.00  0.00    -0.248 NA
ATOM     63  C   UNL A   1      46.033  24.326  26.478  1.00  0.00     0.031 C 
ATOM     64  C   UNL A   1      48.799  29.696  27.115  1.00  0.00     0.029 A 
ATOM     65  C   UNL A   1      47.848  28.689  27.138  1.00  0.00     0.049 A 
ATOM     66  H   UNL A   1      45.820  28.788  27.710  1.00  0.00     0.167 HD
ATOM     67  C   UNL A   1      47.008  26.380  26.788  1.00  0.00     0.074 A 
ATOM     68  C   UNL A   1      47.177  24.994  26.403  1.00  0.00     0.031 C 
ATOM     69  C   UNL A   1      48.002  27.302  26.773  1.00  0.00     0.037 A 
BRANCH  56  70
ATOM     70  C   UNL A   1      46.245  32.943  28.614  1.00  0.00     0.058 A 
ATOM     71  C   UNL A   1      46.736  33.397  29.848  1.00  0.00     0.135 A 
ATOM     72  C   UNL A   1      46.115  33.882  27.577  1.00  0.00     0.135 A 
ATOM     73  F   UNL A   1      46.866  32.545  30.879  1.00  0.00    -0.206 F 
ATOM     74  C   UNL A   1      47.049  34.735  30.061  1.00  0.00     0.059 A 
ATOM     75  C   UNL A   1      46.448  35.221  27.759  1.00  0.00     0.059 A 
ATOM     76  F   UNL A   1      45.651  33.502  26.376  1.00  0.00    -0.206 F 
ATOM     77  C   UNL A   1      46.896  35.642  29.010  1.00  0.00     0.060 A 
BRANCH  77  78
ATOM     78  S   UNL A   1      47.291  37.379  29.303  1.00  0.00     0.124 S 
ATOM     79  O   UNL A   1      46.217  37.771  30.211  1.00  0.00    -0.237 OA
ATOM     80  O   UNL A   1      48.624  37.304  29.893  1.00  0.00    -0.237 OA
ATOM     81  O   UNL A   1      47.232  37.970  27.969  1.00  0.00    -0.744 OA
ENDBRANCH  77  78
ENDBRANCH  56  70
BRANCH  57  82
ATOM     82  C   UNL A   1      43.259  23.539  27.013  1.00  0.00     0.058 A 
ATOM     83  C   UNL A   1      43.012  23.102  25.703  1.00  0.00     0.135 A 
ATOM     84  C   UNL A   1      43.090  22.613  28.053  1.00  0.00     0.135 A 
ATOM     85  F   UNL A   1      43.154  23.953  24.675  1.00  0.00    -0.206 F 
ATOM     86  C   UNL A   1      42.602  21.802  25.432  1.00  0.00     0.059 A 
ATOM     87  C   UNL A   1      42.704  21.300  27.807  1.00  0.00     0.059 A 
ATOM     88  F   UNL A   1      43.332  22.977  29.323  1.00  0.00    -0.206 F 
ATOM     89  C   UNL A   1      42.454  20.906  26.492  1.00  0.00     0.060 A 
BRANCH  89  90
ATOM     90  S   UNL A   1      41.983  19.200  26.127  1.00  0.00     0.124 S 
ATOM     91  O   UNL A   1      42.266  18.540  27.396  1.00  0.00    -0.237 OA
ATOM     92  O   UNL A   1      40.573  19.338  25.778  1.00  0.00    -0.237 OA
ATOM     93  O   UNL A   1      42.862  18.841  25.018  1.00  0.00    -0.744 OA
ENDBRANCH  89  90
ENDBRANCH  57  82
BRANCH  69  94
ATOM     94  C   UNL A   1      49.372  26.831  26.376  1.00  0.00     0.058 A 
ATOM     95  C   UNL A   1      50.223  26.177  27.280  1.00  0.00     0.135 A 
ATOM     96  C   UNL A   1      49.827  27.012  25.059  1.00  0.00     0.135 A 
ATOM     97  F   UNL A   1      49.836  25.984  28.551  1.00  0.00    -0.206 F 
ATOM     98  C   UNL A   1      51.490  25.745  26.901  1.00  0.00     0.059 A 
ATOM     99  C   UNL A   1      51.080  26.566  24.652  1.00  0.00     0.059 A 
ATOM    100  F   UNL A   1      49.047  27.622  24.153  1.00  0.00    -0.206 F 
ATOM    101  C   UNL A   1      51.910  25.947  25.585  1.00  0.00     0.060 A 
BRANCH 101 102
ATOM    102  S   UNL A   1      53.550  25.369  25.098  1.00  0.00     0.124 S 
ATOM    103  O   UNL A   1      53.489  23.962  25.477  1.00  0.00    -0.237 OA
ATOM    104  O   UNL A   1      53.565  25.638  23.662  1.00  0.00    -0.237 OA
ATOM    105  O   UNL A   1      54.451  26.197  25.892  1.00  0.00    -0.744 OA
ENDBRANCH 101 102
ENDBRANCH  69  94
ENDBRANCH  43  44
ENDBRANCH  35  38
ENDBRANCH  33  34
ENDBRANCH   1  33
TORSDOF 17
ENDMDL
