MODEL 1
REMARK VINA RESULT:     -13.7      0.000      0.000
REMARK SMILES Cc1ccc(C(=O)C2=C(NCCCNC(=O)c3ccc(-c4c5nc(c(-c6c(F)cc(S(=O)(=O)[O-])cc6F)c6ccc([nH]6)c(-c6c(F)cc(S(=O)(=O)[O-])cc6F)c6nc(c(-c7c(F)cc(S(=O)(=O)[O-])cc7F)c7ccc4[nH]7)C=C6)C=C5)cc3)C(=O)N(CCCC(=O)[O-])[C@H]2c2ccc3c(c2)OCO3)cc1
REMARK SMILES IDX 11 1 10 2 9 4 8 5 92 6 83 7 85 8 84 9 6 10 7 11 5 12 1 13
REMARK SMILES IDX 2 14 3 15 103 16 4 17 102 18 93 19 94 20 98 21 95 22 97 23
REMARK SMILES IDX 96 24 99 25 101 26 100 27 86 28 87 29 88 30 89 31 90 32
REMARK SMILES IDX 91 33 12 34 13 35 14 36 15 37 16 39 17 40 18 41 82 42 19 43
REMARK SMILES IDX 81 44 20 45 21 46 22 47 75 48 23 49 80 50 74 51 76 52 24 53
REMARK SMILES IDX 79 54 73 55 72 56 25 58 59 59 38 60 58 61 39 62 42 63 57 64
REMARK SMILES IDX 77 65 40 66 41 67 56 69 78 70 43 71 26 72 27 73 36 74 28 75
REMARK SMILES IDX 29 76 35 77 37 78 30 79 31 80 32 81 33 82 34 83 60 84 61 85
REMARK SMILES IDX 70 86 62 87 63 88 69 89 71 90 64 91 65 92 66 93 67 94 68 95
REMARK SMILES IDX 44 96 45 97 54 98 46 99 47 100 53 101 55 102 48 103 49 104
REMARK SMILES IDX 50 105 51 106 52 107
REMARK H PARENT 10 3 14 38 76 57 42 68
REMARK Flexibility Score: inf
ROOT
ATOM      1  C   UNL A   1      32.666  28.287  27.428  1.00  0.00     0.115 C 
ENDROOT
BRANCH   1   2
ATOM      2  N   UNL A   1      31.660  28.238  26.362  1.00  0.00    -0.380 N 
ATOM      3  H   UNL A   1      30.838  28.769  26.469  1.00  0.00     0.160 HD
BRANCH   2   4
ATOM      4  C   UNL A   1      31.804  27.493  25.225  1.00  0.00     0.110 C 
ATOM      5  C   UNL A   1      31.526  26.213  24.911  1.00  0.00     0.056 C 
ATOM      6  C   UNL A   1      31.800  25.964  23.450  1.00  0.00     0.153 C 
ATOM      7  C   UNL A   1      32.354  28.110  23.958  1.00  0.00     0.271 C 
ATOM      8  N   UNL A   1      31.863  27.315  22.922  1.00  0.00    -0.326 N 
ATOM      9  O   UNL A   1      32.953  29.151  23.834  1.00  0.00    -0.267 OA
BRANCH   5  10
ATOM     10  C   UNL A   1      31.031  25.221  25.913  1.00  0.00     0.193 C 
ATOM     11  O   UNL A   1      30.302  25.589  26.831  1.00  0.00    -0.289 OA
BRANCH  10  12
ATOM     12  C   UNL A   1      31.513  23.799  25.925  1.00  0.00     0.022 A 
ATOM     13  C   UNL A   1      33.491  19.945  25.792  1.00  0.00     0.044 C 
ATOM     14  C   UNL A   1      32.724  21.234  25.907  1.00  0.00    -0.051 A 
ATOM     15  C   UNL A   1      33.064  22.172  26.885  1.00  0.00     0.004 A 
ATOM     16  C   UNL A   1      31.675  21.538  25.034  1.00  0.00     0.004 A 
ATOM     17  C   UNL A   1      32.471  23.444  26.888  1.00  0.00     0.012 A 
ATOM     18  C   UNL A   1      31.058  22.803  25.058  1.00  0.00     0.012 A 
ENDBRANCH  10  12
ENDBRANCH   5  10
BRANCH   6  19
ATOM     19  C   UNL A   1      33.134  25.210  23.288  1.00  0.00    -0.017 A 
ATOM     20  C   UNL A   1      33.216  24.058  22.470  1.00  0.00     0.010 A 
ATOM     21  C   UNL A   1      34.181  25.480  24.194  1.00  0.00     0.056 A 
ATOM     22  C   UNL A   1      34.179  23.072  22.738  1.00  0.00     0.051 A 
ATOM     23  C   UNL A   1      35.033  24.456  24.503  1.00  0.00     0.166 A 
ATOM     24  C   UNL A   1      35.007  23.265  23.825  1.00  0.00     0.165 A 
ATOM     25  O   UNL A   1      35.843  24.428  25.594  1.00  0.00    -0.454 OA
ATOM     26  O   UNL A   1      35.787  22.328  24.436  1.00  0.00    -0.454 OA
ATOM     27  C   UNL A   1      36.064  23.012  25.685  1.00  0.00     0.468 C 
ENDBRANCH   6  19
BRANCH   8  28
ATOM     28  C   UNL A   1      30.693  27.940  22.302  1.00  0.00     0.121 C 
BRANCH  28  29
ATOM     29  C   UNL A   1      30.665  29.469  22.435  1.00  0.00     0.028 C 
BRANCH  29  30
ATOM     30  C   UNL A   1      29.421  29.972  23.158  1.00  0.00     0.054 C 
BRANCH  30  31
ATOM     31  C   UNL A   1      28.175  29.969  22.311  1.00  0.00     0.041 C 
ATOM     32  O   UNL A   1      28.147  30.030  21.092  1.00  0.00    -0.550 OA
ATOM     33  O   UNL A   1      27.022  29.928  23.004  1.00  0.00    -0.550 OA
ENDBRANCH  30  31
ENDBRANCH  29  30
ENDBRANCH  28  29
ENDBRANCH   8  28
ENDBRANCH   2   4
ENDBRANCH   1   2
BRANCH   1  34
ATOM     34  C   UNL A   1      33.515  29.544  27.271  1.00  0.00     0.042 C 
BRANCH  34  35
ATOM     35  C   UNL A   1      34.964  29.179  27.053  1.00  0.00     0.118 C 
BRANCH  35  36
ATOM     36  N   UNL A   1      35.870  30.319  27.027  1.00  0.00    -0.352 N 
ATOM     37  C   UNL A   1      36.924  30.493  27.916  1.00  0.00     0.251 C 
ATOM     38  H   UNL A   1      35.726  31.009  26.338  1.00  0.00     0.163 HD
ATOM     39  O   UNL A   1      37.230  31.565  28.419  1.00  0.00    -0.269 OA
BRANCH  37  40
ATOM     40  C   UNL A   1      37.780  29.305  28.097  1.00  0.00     0.039 A 
ATOM     41  C   UNL A   1      37.647  28.583  29.291  1.00  0.00     0.014 A 
ATOM     42  C   UNL A   1      38.908  29.191  27.294  1.00  0.00     0.014 A 
ATOM     43  C   UNL A   1      38.748  27.908  29.793  1.00  0.00     0.010 A 
ATOM     44  C   UNL A   1      40.038  28.685  27.869  1.00  0.00     0.010 A 
ATOM     45  C   UNL A   1      39.952  28.073  29.125  1.00  0.00    -0.014 A 
BRANCH  45  46
ATOM     46  C   UNL A   1      41.203  27.479  29.525  1.00  0.00     0.031 A 
ATOM     47  C   UNL A   1      41.388  26.088  29.080  1.00  0.00     0.074 A 
ATOM     48  C   UNL A   1      42.157  28.329  29.958  1.00  0.00     0.049 A 
ATOM     49  N   UNL A   1      42.351  25.324  29.431  1.00  0.00    -0.248 NA
ATOM     50  C   UNL A   1      40.438  25.422  28.184  1.00  0.00     0.031 C 
ATOM     51  C   UNL A   1      43.600  28.151  30.021  1.00  0.00     0.029 A 
ATOM     52  N   UNL A   1      41.929  29.515  30.667  1.00  0.00    -0.354 N 
ATOM     53  C   UNL A   1      42.350  24.241  28.571  1.00  0.00     0.074 A 
ATOM     54  C   UNL A   1      41.076  24.285  27.909  1.00  0.00     0.031 C 
ATOM     55  C   UNL A   1      44.090  28.970  30.973  1.00  0.00     0.029 A 
ATOM     56  C   UNL A   1      42.945  29.573  31.642  1.00  0.00     0.049 A 
ATOM     57  H   UNL A   1      41.210  30.171  30.517  1.00  0.00     0.167 HD
ATOM     58  C   UNL A   1      43.521  23.560  28.421  1.00  0.00     0.037 A 
ATOM     59  C   UNL A   1      42.607  29.349  32.950  1.00  0.00     0.037 A 
ATOM     60  C   UNL A   1      44.485  24.078  29.396  1.00  0.00     0.049 A 
ATOM     61  C   UNL A   1      43.218  28.061  33.466  1.00  0.00     0.074 A 
ATOM     62  C   UNL A   1      45.472  25.046  29.300  1.00  0.00     0.029 A 
ATOM     63  N   UNL A   1      44.204  23.930  30.750  1.00  0.00    -0.354 N 
ATOM     64  N   UNL A   1      43.492  27.019  32.720  1.00  0.00    -0.248 NA
ATOM     65  C   UNL A   1      43.693  27.907  34.837  1.00  0.00     0.031 C 
ATOM     66  C   UNL A   1      45.704  25.555  30.609  1.00  0.00     0.029 A 
ATOM     67  C   UNL A   1      44.868  24.890  31.493  1.00  0.00     0.049 A 
ATOM     68  H   UNL A   1      43.615  23.237  31.128  1.00  0.00     0.167 HD
ATOM     69  C   UNL A   1      44.205  26.103  33.456  1.00  0.00     0.074 A 
ATOM     70  C   UNL A   1      44.300  26.710  34.773  1.00  0.00     0.031 C 
ATOM     71  C   UNL A   1      44.701  24.937  32.938  1.00  0.00     0.037 A 
BRANCH  58  72
ATOM     72  C   UNL A   1      43.903  22.655  27.265  1.00  0.00     0.058 A 
ATOM     73  C   UNL A   1      43.129  21.500  27.003  1.00  0.00     0.135 A 
ATOM     74  C   UNL A   1      45.018  22.805  26.413  1.00  0.00     0.135 A 
ATOM     75  F   UNL A   1      42.017  21.229  27.699  1.00  0.00    -0.206 F 
ATOM     76  C   UNL A   1      43.455  20.562  26.023  1.00  0.00     0.059 A 
ATOM     77  C   UNL A   1      45.378  21.868  25.437  1.00  0.00     0.059 A 
ATOM     78  F   UNL A   1      45.804  23.883  26.449  1.00  0.00    -0.206 F 
ATOM     79  C   UNL A   1      44.590  20.745  25.249  1.00  0.00     0.060 A 
BRANCH  79  80
ATOM     80  S   UNL A   1      44.986  19.526  23.985  1.00  0.00     0.124 S 
ATOM     81  O   UNL A   1      44.247  18.355  24.449  1.00  0.00    -0.237 OA
ATOM     82  O   UNL A   1      44.475  20.162  22.776  1.00  0.00    -0.237 OA
ATOM     83  O   UNL A   1      46.440  19.412  24.063  1.00  0.00    -0.744 OA
ENDBRANCH  79  80
ENDBRANCH  58  72
BRANCH  59  84
ATOM     84  C   UNL A   1      41.262  29.932  33.283  1.00  0.00     0.058 A 
ATOM     85  C   UNL A   1      41.211  31.334  33.469  1.00  0.00     0.135 A 
ATOM     86  C   UNL A   1      40.059  29.296  32.945  1.00  0.00     0.135 A 
ATOM     87  F   UNL A   1      42.322  31.998  33.828  1.00  0.00    -0.206 F 
ATOM     88  C   UNL A   1      40.087  32.088  33.136  1.00  0.00     0.059 A 
ATOM     89  C   UNL A   1      38.906  30.036  32.639  1.00  0.00     0.059 A 
ATOM     90  F   UNL A   1      40.020  27.968  32.771  1.00  0.00    -0.206 F 
ATOM     91  C   UNL A   1      38.958  31.432  32.658  1.00  0.00     0.060 A 
BRANCH  91  92
ATOM     92  S   UNL A   1      37.638  32.435  31.923  1.00  0.00     0.124 S 
ATOM     93  O   UNL A   1      37.241  33.280  33.044  1.00  0.00    -0.237 OA
ATOM     94  O   UNL A   1      38.331  33.117  30.827  1.00  0.00    -0.237 OA
ATOM     95  O   UNL A   1      36.653  31.443  31.507  1.00  0.00    -0.744 OA
ENDBRANCH  91  92
ENDBRANCH  59  84
BRANCH  71  96
ATOM     96  C   UNL A   1      45.164  23.738  33.744  1.00  0.00     0.058 A 
ATOM     97  C   UNL A   1      46.478  23.563  34.205  1.00  0.00     0.135 A 
ATOM     98  C   UNL A   1      44.225  22.787  34.229  1.00  0.00     0.135 A 
ATOM     99  F   UNL A   1      47.443  24.456  33.947  1.00  0.00    -0.206 F 
ATOM    100  C   UNL A   1      46.854  22.483  35.003  1.00  0.00     0.059 A 
ATOM    101  C   UNL A   1      44.562  21.757  35.099  1.00  0.00     0.059 A 
ATOM    102  F   UNL A   1      42.928  22.833  33.893  1.00  0.00    -0.206 F 
ATOM    103  C   UNL A   1      45.889  21.586  35.447  1.00  0.00     0.060 A 
BRANCH 103 104
ATOM    104  S   UNL A   1      46.378  20.220  36.506  1.00  0.00     0.124 S 
ATOM    105  O   UNL A   1      47.820  20.188  36.281  1.00  0.00    -0.237 OA
ATOM    106  O   UNL A   1      45.955  20.675  37.827  1.00  0.00    -0.237 OA
ATOM    107  O   UNL A   1      45.629  19.089  35.970  1.00  0.00    -0.744 OA
ENDBRANCH 103 104
ENDBRANCH  71  96
ENDBRANCH  45  46
ENDBRANCH  37  40
ENDBRANCH  35  36
ENDBRANCH  34  35
ENDBRANCH   1  34
TORSDOF 20
ENDMDL
MODEL 2
REMARK VINA RESULT:     -13.7      1.601      2.236
REMARK SMILES Cc1ccc(C(=O)C2=C(NCCCNC(=O)c3ccc(-c4c5nc(c(-c6c(F)cc(S(=O)(=O)[O-])cc6F)c6ccc([nH]6)c(-c6c(F)cc(S(=O)(=O)[O-])cc6F)c6nc(c(-c7c(F)cc(S(=O)(=O)[O-])cc7F)c7ccc4[nH]7)C=C6)C=C5)cc3)C(=O)N(CCCC(=O)[O-])[C@H]2c2ccc3c(c2)OCO3)cc1
REMARK SMILES IDX 11 1 10 2 9 4 8 5 92 6 83 7 85 8 84 9 6 10 7 11 5 12 1 13
REMARK SMILES IDX 2 14 3 15 103 16 4 17 102 18 93 19 94 20 98 21 95 22 97 23
REMARK SMILES IDX 96 24 99 25 101 26 100 27 86 28 87 29 88 30 89 31 90 32
REMARK SMILES IDX 91 33 12 34 13 35 14 36 15 37 16 39 17 40 18 41 82 42 19 43
REMARK SMILES IDX 81 44 20 45 21 46 22 47 75 48 23 49 80 50 74 51 76 52 24 53
REMARK SMILES IDX 79 54 73 55 72 56 25 58 59 59 38 60 58 61 39 62 42 63 57 64
REMARK SMILES IDX 77 65 40 66 41 67 56 69 78 70 43 71 26 72 27 73 36 74 28 75
REMARK SMILES IDX 29 76 35 77 37 78 30 79 31 80 32 81 33 82 34 83 60 84 61 85
REMARK SMILES IDX 70 86 62 87 63 88 69 89 71 90 64 91 65 92 66 93 67 94 68 95
REMARK SMILES IDX 44 96 45 97 54 98 46 99 47 100 53 101 55 102 48 103 49 104
REMARK SMILES IDX 50 105 51 106 52 107
REMARK H PARENT 10 3 14 38 76 57 42 68
REMARK Flexibility Score: inf
ROOT
ATOM      1  C   UNL A   1      31.876  30.291  25.667  1.00  0.00     0.115 C 
ENDROOT
BRANCH   1   2
ATOM      2  N   UNL A   1      32.444  29.111  25.007  1.00  0.00    -0.380 N 
ATOM      3  H   UNL A   1      33.421  28.991  25.020  1.00  0.00     0.160 HD
BRANCH   2   4
ATOM      4  C   UNL A   1      31.686  28.166  24.373  1.00  0.00     0.110 C 
ATOM      5  C   UNL A   1      31.086  27.030  24.778  1.00  0.00     0.056 C 
ATOM      6  C   UNL A   1      30.281  26.436  23.652  1.00  0.00     0.153 C 
ATOM      7  C   UNL A   1      31.339  28.307  22.907  1.00  0.00     0.271 C 
ATOM      8  N   UNL A   1      30.174  27.558  22.735  1.00  0.00    -0.326 N 
ATOM      9  O   UNL A   1      31.849  29.029  22.086  1.00  0.00    -0.267 OA
BRANCH   5  10
ATOM     10  C   UNL A   1      31.243  26.478  26.158  1.00  0.00     0.193 C 
ATOM     11  O   UNL A   1      31.015  27.190  27.133  1.00  0.00    -0.289 OA
BRANCH  10  12
ATOM     12  C   UNL A   1      31.813  25.111  26.404  1.00  0.00     0.022 A 
ATOM     13  C   UNL A   1      33.669  21.195  26.487  1.00  0.00     0.044 C 
ATOM     14  C   UNL A   1      33.033  22.555  26.574  1.00  0.00    -0.051 A 
ATOM     15  C   UNL A   1      33.814  23.707  26.458  1.00  0.00     0.004 A 
ATOM     16  C   UNL A   1      31.654  22.705  26.750  1.00  0.00     0.004 A 
ATOM     17  C   UNL A   1      33.210  24.971  26.364  1.00  0.00     0.012 A 
ATOM     18  C   UNL A   1      31.051  23.975  26.688  1.00  0.00     0.012 A 
ENDBRANCH  10  12
ENDBRANCH   5  10
BRANCH   6  19
ATOM     19  C   UNL A   1      31.041  25.247  23.034  1.00  0.00    -0.017 A 
ATOM     20  C   UNL A   1      30.544  23.928  23.166  1.00  0.00     0.010 A 
ATOM     21  C   UNL A   1      32.376  25.436  22.619  1.00  0.00     0.056 A 
ATOM     22  C   UNL A   1      31.429  22.837  23.141  1.00  0.00     0.051 A 
ATOM     23  C   UNL A   1      33.226  24.368  22.712  1.00  0.00     0.166 A 
ATOM     24  C   UNL A   1      32.775  23.108  23.008  1.00  0.00     0.165 A 
ATOM     25  O   UNL A   1      34.582  24.460  22.708  1.00  0.00    -0.454 OA
ATOM     26  O   UNL A   1      33.810  22.256  23.256  1.00  0.00    -0.454 OA
ATOM     27  C   UNL A   1      34.902  23.206  23.333  1.00  0.00     0.468 C 
ENDBRANCH   6  19
BRANCH   8  28
ATOM     28  C   UNL A   1      28.997  28.428  22.737  1.00  0.00     0.121 C 
BRANCH  28  29
ATOM     29  C   UNL A   1      29.277  29.847  23.250  1.00  0.00     0.028 C 
BRANCH  29  30
ATOM     30  C   UNL A   1      28.863  30.922  22.253  1.00  0.00     0.054 C 
BRANCH  30  31
ATOM     31  C   UNL A   1      27.929  31.959  22.820  1.00  0.00     0.041 C 
ATOM     32  O   UNL A   1      27.086  31.759  23.679  1.00  0.00    -0.550 OA
ATOM     33  O   UNL A   1      28.052  33.186  22.279  1.00  0.00    -0.550 OA
ENDBRANCH  30  31
ENDBRANCH  29  30
ENDBRANCH  28  29
ENDBRANCH   8  28
ENDBRANCH   2   4
ENDBRANCH   1   2
BRANCH   1  34
ATOM     34  C   UNL A   1      32.232  30.266  27.151  1.00  0.00     0.042 C 
BRANCH  34  35
ATOM     35  C   UNL A   1      33.708  30.008  27.335  1.00  0.00     0.118 C 
BRANCH  35  36
ATOM     36  N   UNL A   1      34.525  31.214  27.363  1.00  0.00    -0.352 N 
ATOM     37  C   UNL A   1      35.518  31.457  28.305  1.00  0.00     0.251 C 
ATOM     38  H   UNL A   1      34.364  31.898  26.673  1.00  0.00     0.163 HD
ATOM     39  O   UNL A   1      35.717  32.542  28.830  1.00  0.00    -0.269 OA
BRANCH  37  40
ATOM     40  C   UNL A   1      36.451  30.334  28.521  1.00  0.00     0.039 A 
ATOM     41  C   UNL A   1      36.421  29.692  29.767  1.00  0.00     0.014 A 
ATOM     42  C   UNL A   1      37.543  30.226  27.669  1.00  0.00     0.014 A 
ATOM     43  C   UNL A   1      37.583  29.118  30.254  1.00  0.00     0.010 A 
ATOM     44  C   UNL A   1      38.728  29.827  28.215  1.00  0.00     0.010 A 
ATOM     45  C   UNL A   1      38.741  29.302  29.513  1.00  0.00    -0.014 A 
BRANCH  45  46
ATOM     46  C   UNL A   1      40.043  28.809  29.885  1.00  0.00     0.031 A 
ATOM     47  C   UNL A   1      40.362  27.470  29.361  1.00  0.00     0.074 A 
ATOM     48  C   UNL A   1      40.911  29.719  30.373  1.00  0.00     0.049 A 
ATOM     49  N   UNL A   1      41.393  26.784  29.672  1.00  0.00    -0.248 NA
ATOM     50  C   UNL A   1      39.480  26.769  28.423  1.00  0.00     0.031 C 
ATOM     51  C   UNL A   1      42.364  29.679  30.434  1.00  0.00     0.029 A 
ATOM     52  N   UNL A   1      40.570  30.835  31.148  1.00  0.00    -0.354 N 
ATOM     53  C   UNL A   1      41.498  25.758  28.751  1.00  0.00     0.074 A 
ATOM     54  C   UNL A   1      40.226  25.717  28.086  1.00  0.00     0.031 C 
ATOM     55  C   UNL A   1      42.773  30.483  31.434  1.00  0.00     0.029 A 
ATOM     56  C   UNL A   1      41.574  30.933  32.130  1.00  0.00     0.049 A 
ATOM     57  H   UNL A   1      39.791  31.426  31.032  1.00  0.00     0.167 HD
ATOM     58  C   UNL A   1      42.728  25.202  28.569  1.00  0.00     0.037 A 
ATOM     59  C   UNL A   1      41.260  30.602  33.421  1.00  0.00     0.037 A 
ATOM     60  C   UNL A   1      43.638  25.753  29.578  1.00  0.00     0.049 A 
ATOM     61  C   UNL A   1      41.992  29.351  33.865  1.00  0.00     0.074 A 
ATOM     62  C   UNL A   1      44.527  26.815  29.544  1.00  0.00     0.029 A 
ATOM     63  N   UNL A   1      43.372  25.500  30.919  1.00  0.00    -0.354 N 
ATOM     64  N   UNL A   1      42.366  28.386  33.062  1.00  0.00    -0.248 NA
ATOM     65  C   UNL A   1      42.479  29.163  35.227  1.00  0.00     0.031 C 
ATOM     66  C   UNL A   1      44.708  27.267  30.882  1.00  0.00     0.029 A 
ATOM     67  C   UNL A   1      43.940  26.473  31.720  1.00  0.00     0.049 A 
ATOM     68  H   UNL A   1      42.853  24.732  31.252  1.00  0.00     0.167 HD
ATOM     69  C   UNL A   1      43.163  27.501  33.747  1.00  0.00     0.074 A 
ATOM     70  C   UNL A   1      43.199  28.036  35.098  1.00  0.00     0.031 C 
ATOM     71  C   UNL A   1      43.770  26.420  33.165  1.00  0.00     0.037 A 
BRANCH  58  72
ATOM     72  C   UNL A   1      43.197  24.407  27.365  1.00  0.00     0.058 A 
ATOM     73  C   UNL A   1      43.560  23.049  27.528  1.00  0.00     0.135 A 
ATOM     74  C   UNL A   1      43.370  24.893  26.051  1.00  0.00     0.135 A 
ATOM     75  F   UNL A   1      43.422  22.425  28.706  1.00  0.00    -0.206 F 
ATOM     76  C   UNL A   1      44.088  22.265  26.502  1.00  0.00     0.059 A 
ATOM     77  C   UNL A   1      43.917  24.134  25.010  1.00  0.00     0.059 A 
ATOM     78  F   UNL A   1      42.988  26.120  25.688  1.00  0.00    -0.206 F 
ATOM     79  C   UNL A   1      44.276  22.817  25.245  1.00  0.00     0.060 A 
BRANCH  79  80
ATOM     80  S   UNL A   1      44.950  21.784  23.935  1.00  0.00     0.124 S 
ATOM     81  O   UNL A   1      44.252  22.291  22.757  1.00  0.00    -0.237 OA
ATOM     82  O   UNL A   1      46.375  22.088  24.008  1.00  0.00    -0.237 OA
ATOM     83  O   UNL A   1      44.580  20.431  24.341  1.00  0.00    -0.744 OA
ENDBRANCH  79  80
ENDBRANCH  58  72
BRANCH  59  84
ATOM     84  C   UNL A   1      39.865  31.032  33.779  1.00  0.00     0.058 A 
ATOM     85  C   UNL A   1      39.669  32.416  34.003  1.00  0.00     0.135 A 
ATOM     86  C   UNL A   1      38.732  30.283  33.433  1.00  0.00     0.135 A 
ATOM     87  F   UNL A   1      40.709  33.184  34.371  1.00  0.00    -0.206 F 
ATOM     88  C   UNL A   1      38.469  33.057  33.698  1.00  0.00     0.059 A 
ATOM     89  C   UNL A   1      37.504  30.905  33.156  1.00  0.00     0.059 A 
ATOM     90  F   UNL A   1      38.829  28.963  33.224  1.00  0.00    -0.206 F 
ATOM     91  C   UNL A   1      37.410  32.299  33.212  1.00  0.00     0.060 A 
BRANCH  91  92
ATOM     92  S   UNL A   1      35.985  33.177  32.514  1.00  0.00     0.124 S 
ATOM     93  O   UNL A   1      36.622  34.067  31.549  1.00  0.00    -0.237 OA
ATOM     94  O   UNL A   1      35.190  32.086  31.944  1.00  0.00    -0.237 OA
ATOM     95  O   UNL A   1      35.392  33.832  33.674  1.00  0.00    -0.744 OA
ENDBRANCH  91  92
ENDBRANCH  59  84
BRANCH  71  96
ATOM     96  C   UNL A   1      44.346  25.226  33.903  1.00  0.00     0.058 A 
ATOM     97  C   UNL A   1      43.576  24.313  34.639  1.00  0.00     0.135 A 
ATOM     98  C   UNL A   1      45.712  24.869  33.743  1.00  0.00     0.135 A 
ATOM     99  F   UNL A   1      42.247  24.441  34.757  1.00  0.00    -0.206 F 
ATOM    100  C   UNL A   1      44.128  23.187  35.248  1.00  0.00     0.059 A 
ATOM    101  C   UNL A   1      46.263  23.704  34.265  1.00  0.00     0.059 A 
ATOM    102  F   UNL A   1      46.571  25.630  33.050  1.00  0.00    -0.206 F 
ATOM    103  C   UNL A   1      45.472  22.889  35.054  1.00  0.00     0.060 A 
BRANCH 103 104
ATOM    104  S   UNL A   1      46.165  21.415  35.812  1.00  0.00     0.124 S 
ATOM    105  O   UNL A   1      45.330  20.373  35.224  1.00  0.00    -0.237 OA
ATOM    106  O   UNL A   1      47.552  21.446  35.356  1.00  0.00    -0.237 OA
ATOM    107  O   UNL A   1      45.976  21.646  37.240  1.00  0.00    -0.744 OA
ENDBRANCH 103 104
ENDBRANCH  71  96
ENDBRANCH  45  46
ENDBRANCH  37  40
ENDBRANCH  35  36
ENDBRANCH  34  35
ENDBRANCH   1  34
TORSDOF 20
ENDMDL
MODEL 3
REMARK VINA RESULT:     -13.6      1.055      1.486
REMARK SMILES Cc1ccc(C(=O)C2=C(NCCCNC(=O)c3ccc(-c4c5nc(c(-c6c(F)cc(S(=O)(=O)[O-])cc6F)c6ccc([nH]6)c(-c6c(F)cc(S(=O)(=O)[O-])cc6F)c6nc(c(-c7c(F)cc(S(=O)(=O)[O-])cc7F)c7ccc4[nH]7)C=C6)C=C5)cc3)C(=O)N(CCCC(=O)[O-])[C@H]2c2ccc3c(c2)OCO3)cc1
REMARK SMILES IDX 11 1 10 2 9 4 8 5 92 6 83 7 85 8 84 9 6 10 7 11 5 12 1 13
REMARK SMILES IDX 2 14 3 15 103 16 4 17 102 18 93 19 94 20 98 21 95 22 97 23
REMARK SMILES IDX 96 24 99 25 101 26 100 27 86 28 87 29 88 30 89 31 90 32
REMARK SMILES IDX 91 33 12 34 13 35 14 36 15 37 16 39 17 40 18 41 82 42 19 43
REMARK SMILES IDX 81 44 20 45 21 46 22 47 75 48 23 49 80 50 74 51 76 52 24 53
REMARK SMILES IDX 79 54 73 55 72 56 25 58 59 59 38 60 58 61 39 62 42 63 57 64
REMARK SMILES IDX 77 65 40 66 41 67 56 69 78 70 43 71 26 72 27 73 36 74 28 75
REMARK SMILES IDX 29 76 35 77 37 78 30 79 31 80 32 81 33 82 34 83 60 84 61 85
REMARK SMILES IDX 70 86 62 87 63 88 69 89 71 90 64 91 65 92 66 93 67 94 68 95
REMARK SMILES IDX 44 96 45 97 54 98 46 99 47 100 53 101 55 102 48 103 49 104
REMARK SMILES IDX 50 105 51 106 52 107
REMARK H PARENT 10 3 14 38 76 57 42 68
REMARK Flexibility Score: inf
ROOT
ATOM      1  C   UNL A   1      32.638  28.347  27.409  1.00  0.00     0.115 C 
ENDROOT
BRANCH   1   2
ATOM      2  N   UNL A   1      31.616  28.331  26.357  1.00  0.00    -0.380 N 
ATOM      3  H   UNL A   1      30.801  28.868  26.488  1.00  0.00     0.160 HD
BRANCH   2   4
ATOM      4  C   UNL A   1      31.736  27.609  25.203  1.00  0.00     0.110 C 
ATOM      5  C   UNL A   1      31.430  26.342  24.863  1.00  0.00     0.056 C 
ATOM      6  C   UNL A   1      31.686  26.119  23.396  1.00  0.00     0.153 C 
ATOM      7  C   UNL A   1      32.288  28.243  23.945  1.00  0.00     0.271 C 
ATOM      8  N   UNL A   1      31.772  27.481  22.896  1.00  0.00    -0.326 N 
ATOM      9  O   UNL A   1      32.907  29.274  23.839  1.00  0.00    -0.267 OA
BRANCH   5  10
ATOM     10  C   UNL A   1      30.923  25.338  25.848  1.00  0.00     0.193 C 
ATOM     11  O   UNL A   1      30.169  25.692  26.753  1.00  0.00    -0.289 OA
BRANCH  10  12
ATOM     12  C   UNL A   1      31.419  23.921  25.862  1.00  0.00     0.022 A 
ATOM     13  C   UNL A   1      33.434  20.086  25.719  1.00  0.00     0.044 C 
ATOM     14  C   UNL A   1      32.656  21.368  25.838  1.00  0.00    -0.051 A 
ATOM     15  C   UNL A   1      33.006  22.317  26.802  1.00  0.00     0.004 A 
ATOM     16  C   UNL A   1      31.586  21.654  24.985  1.00  0.00     0.004 A 
ATOM     17  C   UNL A   1      32.401  23.584  26.808  1.00  0.00     0.012 A 
ATOM     18  C   UNL A   1      30.956  22.913  25.012  1.00  0.00     0.012 A 
ENDBRANCH  10  12
ENDBRANCH   5  10
BRANCH   6  19
ATOM     19  C   UNL A   1      33.003  25.343  23.205  1.00  0.00    -0.017 A 
ATOM     20  C   UNL A   1      33.057  24.212  22.356  1.00  0.00     0.010 A 
ATOM     21  C   UNL A   1      34.061  25.567  24.112  1.00  0.00     0.056 A 
ATOM     22  C   UNL A   1      34.000  23.199  22.592  1.00  0.00     0.051 A 
ATOM     23  C   UNL A   1      34.893  24.517  24.388  1.00  0.00     0.166 A 
ATOM     24  C   UNL A   1      34.838  23.346  23.678  1.00  0.00     0.165 A 
ATOM     25  O   UNL A   1      35.708  24.444  25.473  1.00  0.00    -0.454 OA
ATOM     26  O   UNL A   1      35.602  22.377  24.260  1.00  0.00    -0.454 OA
ATOM     27  C   UNL A   1      35.900  23.021  25.524  1.00  0.00     0.468 C 
ENDBRANCH   6  19
BRANCH   8  28
ATOM     28  C   UNL A   1      30.609  28.143  22.301  1.00  0.00     0.121 C 
BRANCH  28  29
ATOM     29  C   UNL A   1      29.361  28.121  23.193  1.00  0.00     0.028 C 
BRANCH  29  30
ATOM     30  C   UNL A   1      28.317  29.145  22.765  1.00  0.00     0.054 C 
BRANCH  30  31
ATOM     31  C   UNL A   1      28.435  30.473  23.466  1.00  0.00     0.041 C 
ATOM     32  O   UNL A   1      29.444  30.906  23.998  1.00  0.00    -0.550 OA
ATOM     33  O   UNL A   1      27.296  31.190  23.512  1.00  0.00    -0.550 OA
ENDBRANCH  30  31
ENDBRANCH  29  30
ENDBRANCH  28  29
ENDBRANCH   8  28
ENDBRANCH   2   4
ENDBRANCH   1   2
BRANCH   1  34
ATOM     34  C   UNL A   1      33.492  29.603  27.272  1.00  0.00     0.042 C 
BRANCH  34  35
ATOM     35  C   UNL A   1      34.958  29.242  27.220  1.00  0.00     0.118 C 
BRANCH  35  36
ATOM     36  N   UNL A   1      35.852  30.387  27.118  1.00  0.00    -0.352 N 
ATOM     37  C   UNL A   1      36.967  30.575  27.926  1.00  0.00     0.251 C 
ATOM     38  H   UNL A   1      35.653  31.070  26.437  1.00  0.00     0.163 HD
ATOM     39  O   UNL A   1      37.303  31.653  28.397  1.00  0.00    -0.269 OA
BRANCH  37  40
ATOM     40  C   UNL A   1      37.842  29.394  28.055  1.00  0.00     0.039 A 
ATOM     41  C   UNL A   1      37.743  28.634  29.229  1.00  0.00     0.014 A 
ATOM     42  C   UNL A   1      38.954  29.319  27.226  1.00  0.00     0.014 A 
ATOM     43  C   UNL A   1      38.862  27.960  29.688  1.00  0.00     0.010 A 
ATOM     44  C   UNL A   1      40.102  28.811  27.762  1.00  0.00     0.010 A 
ATOM     45  C   UNL A   1      40.050  28.161  29.001  1.00  0.00    -0.014 A 
BRANCH  45  46
ATOM     46  C   UNL A   1      41.316  27.572  29.357  1.00  0.00     0.031 A 
ATOM     47  C   UNL A   1      41.458  26.155  28.983  1.00  0.00     0.074 A 
ATOM     48  C   UNL A   1      42.305  28.430  29.681  1.00  0.00     0.049 A 
ATOM     49  N   UNL A   1      42.431  25.398  29.318  1.00  0.00    -0.248 NA
ATOM     50  C   UNL A   1      40.446  25.453  28.187  1.00  0.00     0.031 C 
ATOM     51  C   UNL A   1      43.747  28.236  29.666  1.00  0.00     0.029 A 
ATOM     52  N   UNL A   1      42.135  29.658  30.333  1.00  0.00    -0.354 N 
ATOM     53  C   UNL A   1      42.365  24.268  28.524  1.00  0.00     0.074 A 
ATOM     54  C   UNL A   1      41.053  24.292  27.940  1.00  0.00     0.031 C 
ATOM     55  C   UNL A   1      44.305  29.099  30.537  1.00  0.00     0.029 A 
ATOM     56  C   UNL A   1      43.210  29.757  31.238  1.00  0.00     0.049 A 
ATOM     57  H   UNL A   1      41.416  30.316  30.189  1.00  0.00     0.167 HD
ATOM     58  C   UNL A   1      43.516  23.561  28.343  1.00  0.00     0.037 A 
ATOM     59  C   UNL A   1      42.951  29.614  32.575  1.00  0.00     0.037 A 
ATOM     60  C   UNL A   1      44.545  24.120  29.225  1.00  0.00     0.049 A 
ATOM     61  C   UNL A   1      43.579  28.348  33.127  1.00  0.00     0.074 A 
ATOM     62  C   UNL A   1      45.535  25.066  29.013  1.00  0.00     0.029 A 
ATOM     63  N   UNL A   1      44.347  24.054  30.600  1.00  0.00    -0.354 N 
ATOM     64  N   UNL A   1      43.794  27.261  32.428  1.00  0.00    -0.248 NA
ATOM     65  C   UNL A   1      44.136  28.266  34.473  1.00  0.00     0.031 C 
ATOM     66  C   UNL A   1      45.854  25.646  30.274  1.00  0.00     0.029 A 
ATOM     67  C   UNL A   1      45.066  25.044  31.244  1.00  0.00     0.049 A 
ATOM     68  H   UNL A   1      43.775  23.393  31.053  1.00  0.00     0.167 HD
ATOM     69  C   UNL A   1      44.540  26.378  33.170  1.00  0.00     0.074 A 
ATOM     70  C   UNL A   1      44.724  27.057  34.442  1.00  0.00     0.031 C 
ATOM     71  C   UNL A   1      44.990  25.177  32.691  1.00  0.00     0.037 A 
BRANCH  58  72
ATOM     72  C   UNL A   1      43.816  22.586  27.221  1.00  0.00     0.058 A 
ATOM     73  C   UNL A   1      43.042  21.409  27.099  1.00  0.00     0.135 A 
ATOM     74  C   UNL A   1      44.854  22.691  26.270  1.00  0.00     0.135 A 
ATOM     75  F   UNL A   1      41.996  21.172  27.903  1.00  0.00    -0.206 F 
ATOM     76  C   UNL A   1      43.300  20.411  26.159  1.00  0.00     0.059 A 
ATOM     77  C   UNL A   1      45.147  21.696  25.330  1.00  0.00     0.059 A 
ATOM     78  F   UNL A   1      45.623  23.778  26.170  1.00  0.00    -0.206 F 
ATOM     79  C   UNL A   1      44.364  20.554  25.282  1.00  0.00     0.060 A 
BRANCH  79  80
ATOM     80  S   UNL A   1      44.673  19.259  24.072  1.00  0.00     0.124 S 
ATOM     81  O   UNL A   1      43.672  18.260  24.432  1.00  0.00    -0.237 OA
ATOM     82  O   UNL A   1      44.448  19.958  22.811  1.00  0.00    -0.237 OA
ATOM     83  O   UNL A   1      46.057  18.872  24.331  1.00  0.00    -0.744 OA
ENDBRANCH  79  80
ENDBRANCH  58  72
BRANCH  59  84
ATOM     84  C   UNL A   1      41.637  30.235  32.955  1.00  0.00     0.058 A 
ATOM     85  C   UNL A   1      40.609  29.345  33.349  1.00  0.00     0.135 A 
ATOM     86  C   UNL A   1      41.528  31.560  33.400  1.00  0.00     0.135 A 
ATOM     87  F   UNL A   1      40.636  28.070  32.927  1.00  0.00    -0.206 F 
ATOM     88  C   UNL A   1      39.647  29.692  34.297  1.00  0.00     0.059 A 
ATOM     89  C   UNL A   1      40.545  31.938  34.328  1.00  0.00     0.059 A 
ATOM     90  F   UNL A   1      42.450  32.469  33.054  1.00  0.00    -0.206 F 
ATOM     91  C   UNL A   1      39.665  30.976  34.830  1.00  0.00     0.060 A 
BRANCH  91  92
ATOM     92  S   UNL A   1      38.633  31.308  36.284  1.00  0.00     0.124 S 
ATOM     93  O   UNL A   1      39.557  32.030  37.151  1.00  0.00    -0.237 OA
ATOM     94  O   UNL A   1      37.538  32.101  35.721  1.00  0.00    -0.237 OA
ATOM     95  O   UNL A   1      38.257  29.975  36.742  1.00  0.00    -0.744 OA
ENDBRANCH  91  92
ENDBRANCH  59  84
BRANCH  71  96
ATOM     96  C   UNL A   1      45.488  24.019  33.536  1.00  0.00     0.058 A 
ATOM     97  C   UNL A   1      46.769  23.959  34.107  1.00  0.00     0.135 A 
ATOM     98  C   UNL A   1      44.600  22.986  33.942  1.00  0.00     0.135 A 
ATOM     99  F   UNL A   1      47.668  24.935  33.930  1.00  0.00    -0.206 F 
ATOM    100  C   UNL A   1      47.171  22.912  34.936  1.00  0.00     0.059 A 
ATOM    101  C   UNL A   1      44.953  21.985  34.839  1.00  0.00     0.059 A 
ATOM    102  F   UNL A   1      43.337  22.918  33.498  1.00  0.00    -0.206 F 
ATOM    103  C   UNL A   1      46.256  21.930  35.298  1.00  0.00     0.060 A 
BRANCH 103 104
ATOM    104  S   UNL A   1      46.774  20.607  36.397  1.00  0.00     0.124 S 
ATOM    105  O   UNL A   1      46.746  21.283  37.690  1.00  0.00    -0.237 OA
ATOM    106  O   UNL A   1      45.738  19.599  36.189  1.00  0.00    -0.237 OA
ATOM    107  O   UNL A   1      48.097  20.250  35.898  1.00  0.00    -0.744 OA
ENDBRANCH 103 104
ENDBRANCH  71  96
ENDBRANCH  45  46
ENDBRANCH  37  40
ENDBRANCH  35  36
ENDBRANCH  34  35
ENDBRANCH   1  34
TORSDOF 20
ENDMDL
