MODEL 1
REMARK VINA RESULT:     -11.2      0.000      0.000
REMARK SMILES CC[C@H]1CC[C@](Cc2cccc(OC)n2)(C(=O)NCCCNC(=O)c2ccc(-c3c4nc(c(-c5c(F)cc(S(=O)(=O)[O-])cc5F)c5ccc([nH]5)c(-c5c(F)cc(S(=O)(=O)[O-])cc5F)c5nc(c(-c6c(F)cc(S(=O)(=O)[O-])cc6F)c6ccc3[nH]6)C=C5)C=C4)cc2)C1
REMARK SMILES IDX 20 1 19 2 18 3 16 4 17 5 6 7 3 8 4 9 91 10 5 11 2 12 1 13
REMARK SMILES IDX 7 14 8 15 9 16 15 17 10 18 12 19 11 20 13 21 14 22 21 23
REMARK SMILES IDX 22 24 23 25 24 27 25 28 26 29 90 30 27 31 89 32 28 33 29 34
REMARK SMILES IDX 30 35 83 36 31 37 88 38 82 39 84 40 32 41 87 42 81 43 80 44
REMARK SMILES IDX 33 46 67 47 46 48 66 49 47 50 50 51 65 52 85 53 48 54 49 55
REMARK SMILES IDX 64 57 86 58 51 59 34 60 35 61 44 62 36 63 37 64 43 65 45 66
REMARK SMILES IDX 38 67 39 68 40 69 41 70 42 71 68 72 69 73 78 74 70 75 71 76
REMARK SMILES IDX 77 77 79 78 72 79 73 80 74 81 75 82 76 83 52 84 53 85 62 86
REMARK SMILES IDX 54 87 55 88 61 89 63 90 56 91 57 92 58 93 59 94 60 95
REMARK H PARENT 18 6 22 26 84 45 50 56
REMARK Flexibility Score: inf
ROOT
ATOM      1  C   UNL A   1      37.858  20.075  25.067  1.00  0.00     0.042 C 
ENDROOT
BRANCH   1   2
ATOM      2  C   UNL A   1      36.726  21.090  24.935  1.00  0.00     0.117 C 
BRANCH   2   3
ATOM      3  N   UNL A   1      35.860  21.082  26.103  1.00  0.00    -0.356 N 
ATOM      4  C   UNL A   1      34.772  21.771  26.517  1.00  0.00     0.226 C 
ATOM      5  O   UNL A   1      34.396  21.464  27.659  1.00  0.00    -0.274 OA
ATOM      6  H   UNL A   1      36.137  20.403  26.760  1.00  0.00     0.163 HD
BRANCH   4   7
ATOM      7  C   UNL A   1      33.976  22.840  25.709  1.00  0.00     0.055 C 
ATOM      8  C   UNL A   1      31.476  22.936  25.764  1.00  0.00    -0.010 C 
ATOM      9  C   UNL A   1      31.914  21.762  24.899  1.00  0.00     0.005 C 
ATOM     10  C   UNL A   1      32.750  23.263  26.568  1.00  0.00     0.021 C 
ATOM     11  C   UNL A   1      33.360  22.067  24.510  1.00  0.00     0.017 C 
BRANCH   8  12
ATOM     12  C   UNL A   1      30.857  24.155  25.042  1.00  0.00     0.000 C 
ATOM     13  C   UNL A   1      30.345  25.310  25.890  1.00  0.00     0.004 C 
ENDBRANCH   8  12
BRANCH   7  14
ATOM     14  C   UNL A   1      34.826  24.038  25.248  1.00  0.00     0.073 C 
BRANCH  14  15
ATOM     15  C   UNL A   1      34.208  25.273  24.638  1.00  0.00     0.045 A 
ATOM     16  C   UNL A   1      33.924  26.386  25.425  1.00  0.00     0.024 A 
ATOM     17  N   UNL A   1      34.079  25.294  23.290  1.00  0.00    -0.219 NA
ATOM     18  C   UNL A   1      33.449  27.540  24.815  1.00  0.00     0.007 A 
ATOM     19  C   UNL A   1      33.626  26.427  22.710  1.00  0.00     0.213 A 
ATOM     20  C   UNL A   1      33.303  27.566  23.433  1.00  0.00     0.068 A 
BRANCH  19  21
ATOM     21  O   UNL A   1      33.581  26.359  21.345  1.00  0.00    -0.481 OA
ATOM     22  C   UNL A   1      32.476  25.630  20.827  1.00  0.00     0.280 C 
ENDBRANCH  19  21
ENDBRANCH  14  15
ENDBRANCH   7  14
ENDBRANCH   4   7
ENDBRANCH   2   3
ENDBRANCH   1   2
BRANCH   1  23
ATOM     23  C   UNL A   1      39.084  20.667  25.755  1.00  0.00     0.118 C 
BRANCH  23  24
ATOM     24  N   UNL A   1      40.069  19.635  26.062  1.00  0.00    -0.352 N 
ATOM     25  C   UNL A   1      41.417  19.740  26.276  1.00  0.00     0.251 C 
ATOM     26  H   UNL A   1      39.708  18.721  26.125  1.00  0.00     0.163 HD
ATOM     27  O   UNL A   1      42.113  18.723  26.239  1.00  0.00    -0.269 OA
BRANCH  25  28
ATOM     28  C   UNL A   1      42.033  21.050  26.554  1.00  0.00     0.039 A 
ATOM     29  C   UNL A   1      42.333  21.393  27.876  1.00  0.00     0.014 A 
ATOM     30  C   UNL A   1      42.261  21.964  25.522  1.00  0.00     0.014 A 
ATOM     31  C   UNL A   1      42.898  22.638  28.156  1.00  0.00     0.010 A 
ATOM     32  C   UNL A   1      42.896  23.171  25.792  1.00  0.00     0.010 A 
ATOM     33  C   UNL A   1      43.203  23.527  27.113  1.00  0.00    -0.014 A 
BRANCH  33  34
ATOM     34  C   UNL A   1      43.813  24.852  27.379  1.00  0.00     0.031 A 
ATOM     35  C   UNL A   1      42.946  25.991  27.846  1.00  0.00     0.074 A 
ATOM     36  C   UNL A   1      45.123  25.043  27.138  1.00  0.00     0.049 A 
ATOM     37  N   UNL A   1      43.261  27.246  28.035  1.00  0.00    -0.248 NA
ATOM     38  C   UNL A   1      41.528  25.684  28.106  1.00  0.00     0.031 C 
ATOM     39  C   UNL A   1      46.051  24.022  26.643  1.00  0.00     0.029 A 
ATOM     40  N   UNL A   1      45.902  26.165  27.263  1.00  0.00    -0.354 N 
ATOM     41  C   UNL A   1      42.083  27.879  28.414  1.00  0.00     0.074 A 
ATOM     42  C   UNL A   1      41.035  26.883  28.376  1.00  0.00     0.031 C 
ATOM     43  C   UNL A   1      47.276  24.559  26.529  1.00  0.00     0.029 A 
ATOM     44  C   UNL A   1      47.214  25.968  26.903  1.00  0.00     0.049 A 
ATOM     45  H   UNL A   1      45.554  27.029  27.582  1.00  0.00     0.167 HD
ATOM     46  C   UNL A   1      41.897  29.168  28.785  1.00  0.00     0.037 A 
ATOM     47  C   UNL A   1      48.249  26.832  26.872  1.00  0.00     0.037 A 
ATOM     48  C   UNL A   1      42.955  30.141  28.853  1.00  0.00     0.049 A 
ATOM     49  C   UNL A   1      48.018  28.256  27.298  1.00  0.00     0.074 A 
ATOM     50  C   UNL A   1      42.886  31.462  29.261  1.00  0.00     0.029 A 
ATOM     51  N   UNL A   1      44.277  29.896  28.512  1.00  0.00    -0.354 N 
ATOM     52  N   UNL A   1      46.906  28.828  27.696  1.00  0.00    -0.248 NA
ATOM     53  C   UNL A   1      49.183  29.151  27.280  1.00  0.00     0.031 C 
ATOM     54  C   UNL A   1      44.162  32.024  29.135  1.00  0.00     0.029 A 
ATOM     55  C   UNL A   1      45.033  31.042  28.691  1.00  0.00     0.049 A 
ATOM     56  H   UNL A   1      44.627  29.033  28.190  1.00  0.00     0.167 HD
ATOM     57  C   UNL A   1      47.243  30.141  28.002  1.00  0.00     0.074 A 
ATOM     58  C   UNL A   1      48.664  30.276  27.755  1.00  0.00     0.031 C 
ATOM     59  C   UNL A   1      46.450  31.145  28.451  1.00  0.00     0.037 A 
BRANCH  46  60
ATOM     60  C   UNL A   1      40.503  29.593  29.160  1.00  0.00     0.058 A 
ATOM     61  C   UNL A   1      39.488  29.715  28.196  1.00  0.00     0.135 A 
ATOM     62  C   UNL A   1      40.167  29.853  30.499  1.00  0.00     0.135 A 
ATOM     63  F   UNL A   1      39.757  29.496  26.900  1.00  0.00    -0.206 F 
ATOM     64  C   UNL A   1      38.200  30.109  28.542  1.00  0.00     0.059 A 
ATOM     65  C   UNL A   1      38.878  30.221  30.871  1.00  0.00     0.059 A 
ATOM     66  F   UNL A   1      41.098  29.753  31.461  1.00  0.00    -0.206 F 
ATOM     67  C   UNL A   1      37.904  30.361  29.882  1.00  0.00     0.060 A 
BRANCH  67  68
ATOM     68  S   UNL A   1      36.225  30.864  30.314  1.00  0.00     0.124 S 
ATOM     69  O   UNL A   1      35.530  30.673  29.045  1.00  0.00    -0.237 OA
ATOM     70  O   UNL A   1      35.879  29.921  31.374  1.00  0.00    -0.237 OA
ATOM     71  O   UNL A   1      36.385  32.251  30.741  1.00  0.00    -0.744 OA
ENDBRANCH  67  68
ENDBRANCH  46  60
BRANCH  47  72
ATOM     72  C   UNL A   1      49.595  26.367  26.450  1.00  0.00     0.058 A 
ATOM     73  C   UNL A   1      50.449  25.722  27.357  1.00  0.00     0.135 A 
ATOM     74  C   UNL A   1      50.054  26.548  25.136  1.00  0.00     0.135 A 
ATOM     75  F   UNL A   1      50.056  25.528  28.625  1.00  0.00    -0.206 F 
ATOM     76  C   UNL A   1      51.718  25.293  26.985  1.00  0.00     0.059 A 
ATOM     77  C   UNL A   1      51.310  26.105  24.733  1.00  0.00     0.059 A 
ATOM     78  F   UNL A   1      49.267  27.140  24.224  1.00  0.00    -0.206 F 
ATOM     79  C   UNL A   1      52.140  25.489  25.669  1.00  0.00     0.060 A 
BRANCH  79  80
ATOM     80  S   UNL A   1      53.776  24.895  25.184  1.00  0.00     0.124 S 
ATOM     81  O   UNL A   1      53.992  25.620  23.938  1.00  0.00    -0.237 OA
ATOM     82  O   UNL A   1      54.600  25.307  26.315  1.00  0.00    -0.237 OA
ATOM     83  O   UNL A   1      53.582  23.454  25.052  1.00  0.00    -0.744 OA
ENDBRANCH  79  80
ENDBRANCH  47  72
BRANCH  59  84
ATOM     84  C   UNL A   1      47.108  32.464  28.742  1.00  0.00     0.058 A 
ATOM     85  C   UNL A   1      47.679  32.743  29.994  1.00  0.00     0.135 A 
ATOM     86  C   UNL A   1      47.213  33.440  27.739  1.00  0.00     0.135 A 
ATOM     87  F   UNL A   1      47.598  31.845  30.989  1.00  0.00    -0.206 F 
ATOM     88  C   UNL A   1      48.314  33.954  30.247  1.00  0.00     0.059 A 
ATOM     89  C   UNL A   1      47.867  34.648  27.961  1.00  0.00     0.059 A 
ATOM     90  F   UNL A   1      46.693  33.218  26.522  1.00  0.00    -0.206 F 
ATOM     91  C   UNL A   1      48.405  34.899  29.223  1.00  0.00     0.060 A 
BRANCH  91  92
ATOM     92  S   UNL A   1      49.262  36.453  29.552  1.00  0.00     0.124 S 
ATOM     93  O   UNL A   1      50.634  36.113  29.193  1.00  0.00    -0.237 OA
ATOM     94  O   UNL A   1      48.583  37.382  28.653  1.00  0.00    -0.237 OA
ATOM     95  O   UNL A   1      49.023  36.679  30.974  1.00  0.00    -0.744 OA
ENDBRANCH  91  92
ENDBRANCH  59  84
ENDBRANCH  33  34
ENDBRANCH  25  28
ENDBRANCH  23  24
ENDBRANCH   1  23
TORSDOF 17
ENDMDL
MODEL 2
REMARK VINA RESULT:     -11.2      3.337      7.816
REMARK SMILES CC[C@H]1CC[C@](Cc2cccc(OC)n2)(C(=O)NCCCNC(=O)c2ccc(-c3c4nc(c(-c5c(F)cc(S(=O)(=O)[O-])cc5F)c5ccc([nH]5)c(-c5c(F)cc(S(=O)(=O)[O-])cc5F)c5nc(c(-c6c(F)cc(S(=O)(=O)[O-])cc6F)c6ccc3[nH]6)C=C5)C=C4)cc2)C1
REMARK SMILES IDX 20 1 19 2 18 3 16 4 17 5 6 7 3 8 4 9 91 10 5 11 2 12 1 13
REMARK SMILES IDX 7 14 8 15 9 16 15 17 10 18 12 19 11 20 13 21 14 22 21 23
REMARK SMILES IDX 22 24 23 25 24 27 25 28 26 29 90 30 27 31 89 32 28 33 29 34
REMARK SMILES IDX 30 35 83 36 31 37 88 38 82 39 84 40 32 41 87 42 81 43 80 44
REMARK SMILES IDX 33 46 67 47 46 48 66 49 47 50 50 51 65 52 85 53 48 54 49 55
REMARK SMILES IDX 64 57 86 58 51 59 34 60 35 61 44 62 36 63 37 64 43 65 45 66
REMARK SMILES IDX 38 67 39 68 40 69 41 70 42 71 68 72 69 73 78 74 70 75 71 76
REMARK SMILES IDX 77 77 79 78 72 79 73 80 74 81 75 82 76 83 52 84 53 85 62 86
REMARK SMILES IDX 54 87 55 88 61 89 63 90 56 91 57 92 58 93 59 94 60 95
REMARK H PARENT 18 6 22 26 84 45 50 56
REMARK Flexibility Score: inf
ROOT
ATOM      1  C   UNL A   1      32.773  27.520  25.664  1.00  0.00     0.042 C 
ENDROOT
BRANCH   1   2
ATOM      2  C   UNL A   1      33.242  26.684  24.476  1.00  0.00     0.117 C 
BRANCH   2   3
ATOM      3  N   UNL A   1      32.176  25.841  23.960  1.00  0.00    -0.356 N 
ATOM      4  C   UNL A   1      31.997  24.519  23.735  1.00  0.00     0.226 C 
ATOM      5  O   UNL A   1      30.913  24.250  23.194  1.00  0.00    -0.274 OA
ATOM      6  H   UNL A   1      31.382  26.367  23.709  1.00  0.00     0.163 HD
BRANCH   4   7
ATOM      7  C   UNL A   1      32.975  23.364  24.108  1.00  0.00     0.055 C 
ATOM      8  C   UNL A   1      32.148  21.172  24.986  1.00  0.00    -0.010 C 
ATOM      9  C   UNL A   1      32.046  22.224  26.083  1.00  0.00     0.005 C 
ATOM     10  C   UNL A   1      32.295  22.023  23.709  1.00  0.00     0.021 C 
ATOM     11  C   UNL A   1      33.000  23.339  25.662  1.00  0.00     0.017 C 
BRANCH   8  12
ATOM     12  C   UNL A   1      33.234  20.085  25.147  1.00  0.00     0.000 C 
ATOM     13  C   UNL A   1      33.199  18.888  24.209  1.00  0.00     0.004 C 
ENDBRANCH   8  12
BRANCH   7  14
ATOM     14  C   UNL A   1      34.386  23.521  23.510  1.00  0.00     0.073 C 
BRANCH  14  15
ATOM     15  C   UNL A   1      35.633  23.228  24.309  1.00  0.00     0.045 A 
ATOM     16  C   UNL A   1      36.063  24.106  25.301  1.00  0.00     0.024 A 
ATOM     17  N   UNL A   1      36.220  22.024  24.111  1.00  0.00    -0.219 NA
ATOM     18  C   UNL A   1      37.155  23.757  26.083  1.00  0.00     0.007 A 
ATOM     19  C   UNL A   1      37.276  21.694  24.888  1.00  0.00     0.213 A 
ATOM     20  C   UNL A   1      37.772  22.527  25.880  1.00  0.00     0.068 A 
BRANCH  19  21
ATOM     21  O   UNL A   1      37.761  20.439  24.641  1.00  0.00    -0.481 OA
ATOM     22  C   UNL A   1      36.876  19.385  24.997  1.00  0.00     0.280 C 
ENDBRANCH  19  21
ENDBRANCH  14  15
ENDBRANCH   7  14
ENDBRANCH   4   7
ENDBRANCH   2   3
ENDBRANCH   1   2
BRANCH   1  23
ATOM     23  C   UNL A   1      33.938  28.023  26.509  1.00  0.00     0.118 C 
BRANCH  23  24
ATOM     24  N   UNL A   1      33.722  29.401  26.942  1.00  0.00    -0.352 N 
ATOM     25  C   UNL A   1      34.486  30.199  27.749  1.00  0.00     0.251 C 
ATOM     26  H   UNL A   1      32.899  29.819  26.600  1.00  0.00     0.163 HD
ATOM     27  O   UNL A   1      33.991  31.226  28.221  1.00  0.00    -0.269 OA
BRANCH  25  28
ATOM     28  C   UNL A   1      35.885  29.845  28.049  1.00  0.00     0.039 A 
ATOM     29  C   UNL A   1      36.201  29.330  29.309  1.00  0.00     0.014 A 
ATOM     30  C   UNL A   1      36.895  30.075  27.111  1.00  0.00     0.014 A 
ATOM     31  C   UNL A   1      37.525  29.009  29.613  1.00  0.00     0.010 A 
ATOM     32  C   UNL A   1      38.200  29.682  27.386  1.00  0.00     0.010 A 
ATOM     33  C   UNL A   1      38.530  29.163  28.646  1.00  0.00    -0.014 A 
BRANCH  33  34
ATOM     34  C   UNL A   1      39.943  28.821  28.936  1.00  0.00     0.031 A 
ATOM     35  C   UNL A   1      40.856  29.864  29.525  1.00  0.00     0.074 A 
ATOM     36  C   UNL A   1      40.415  27.603  28.610  1.00  0.00     0.049 A 
ATOM     37  N   UNL A   1      42.142  29.801  29.756  1.00  0.00    -0.248 NA
ATOM     38  C   UNL A   1      40.248  31.161  29.871  1.00  0.00     0.031 C 
ATOM     39  C   UNL A   1      39.632  26.528  27.996  1.00  0.00     0.029 A 
ATOM     40  N   UNL A   1      41.670  27.067  28.738  1.00  0.00    -0.354 N 
ATOM     41  C   UNL A   1      42.498  31.049  30.254  1.00  0.00     0.074 A 
ATOM     42  C   UNL A   1      41.306  31.868  30.240  1.00  0.00     0.031 C 
ATOM     43  C   UNL A   1      40.418  25.455  27.821  1.00  0.00     0.029 A 
ATOM     44  C   UNL A   1      41.768  25.776  28.273  1.00  0.00     0.049 A 
ATOM     45  H   UNL A   1      42.430  27.558  29.126  1.00  0.00     0.167 HD
ATOM     46  C   UNL A   1      43.704  31.468  30.705  1.00  0.00     0.037 A 
ATOM     47  C   UNL A   1      42.831  24.949  28.212  1.00  0.00     0.037 A 
ATOM     48  C   UNL A   1      44.876  30.632  30.747  1.00  0.00     0.049 A 
ATOM     49  C   UNL A   1      44.158  25.434  28.729  1.00  0.00     0.074 A 
ATOM     50  C   UNL A   1      46.137  30.940  31.228  1.00  0.00     0.029 A 
ATOM     51  N   UNL A   1      44.927  29.321  30.298  1.00  0.00    -0.354 N 
ATOM     52  N   UNL A   1      44.467  26.604  29.236  1.00  0.00    -0.248 NA
ATOM     53  C   UNL A   1      45.278  24.485  28.673  1.00  0.00     0.031 C 
ATOM     54  C   UNL A   1      46.959  29.823  31.040  1.00  0.00     0.029 A 
ATOM     55  C   UNL A   1      46.199  28.806  30.482  1.00  0.00     0.049 A 
ATOM     56  H   UNL A   1      44.170  28.827  29.906  1.00  0.00     0.167 HD
ATOM     57  C   UNL A   1      45.810  26.522  29.587  1.00  0.00     0.074 A 
ATOM     58  C   UNL A   1      46.251  25.185  29.243  1.00  0.00     0.031 C 
ATOM     59  C   UNL A   1      46.608  27.466  30.144  1.00  0.00     0.037 A 
BRANCH  46  60
ATOM     60  C   UNL A   1      43.812  32.883  31.203  1.00  0.00     0.058 A 
ATOM     61  C   UNL A   1      43.617  33.202  32.557  1.00  0.00     0.135 A 
ATOM     62  C   UNL A   1      44.140  33.929  30.326  1.00  0.00     0.135 A 
ATOM     63  F   UNL A   1      43.284  32.245  33.436  1.00  0.00    -0.206 F 
ATOM     64  C   UNL A   1      43.715  34.511  33.018  1.00  0.00     0.059 A 
ATOM     65  C   UNL A   1      44.271  35.242  30.770  1.00  0.00     0.059 A 
ATOM     66  F   UNL A   1      44.335  33.682  29.021  1.00  0.00    -0.206 F 
ATOM     67  C   UNL A   1      44.041  35.525  32.116  1.00  0.00     0.060 A 
BRANCH  67  68
ATOM     68  S   UNL A   1      44.171  37.217  32.732  1.00  0.00     0.124 S 
ATOM     69  O   UNL A   1      43.008  37.294  33.613  1.00  0.00    -0.237 OA
ATOM     70  O   UNL A   1      45.470  37.209  33.398  1.00  0.00    -0.237 OA
ATOM     71  O   UNL A   1      44.095  38.027  31.520  1.00  0.00    -0.744 OA
ENDBRANCH  67  68
ENDBRANCH  46  60
BRANCH  47  72
ATOM     72  C   UNL A   1      42.676  23.576  27.669  1.00  0.00     0.058 A 
ATOM     73  C   UNL A   1      42.795  23.329  26.293  1.00  0.00     0.135 A 
ATOM     74  C   UNL A   1      42.414  22.481  28.508  1.00  0.00     0.135 A 
ATOM     75  F   UNL A   1      43.041  24.343  25.450  1.00  0.00    -0.206 F 
ATOM     76  C   UNL A   1      42.638  22.053  25.764  1.00  0.00     0.059 A 
ATOM     77  C   UNL A   1      42.279  21.191  28.006  1.00  0.00     0.059 A 
ATOM     78  F   UNL A   1      42.313  22.660  29.835  1.00  0.00    -0.206 F 
ATOM     79  C   UNL A   1      42.380  20.989  26.630  1.00  0.00     0.060 A 
BRANCH  79  80
ATOM     80  S   UNL A   1      42.217  19.328  25.939  1.00  0.00     0.124 S 
ATOM     81  O   UNL A   1      40.785  19.264  25.667  1.00  0.00    -0.237 OA
ATOM     82  O   UNL A   1      43.086  19.395  24.768  1.00  0.00    -0.237 OA
ATOM     83  O   UNL A   1      42.695  18.469  27.017  1.00  0.00    -0.744 OA
ENDBRANCH  79  80
ENDBRANCH  47  72
BRANCH  59  84
ATOM     84  C   UNL A   1      48.024  27.074  30.457  1.00  0.00     0.058 A 
ATOM     85  C   UNL A   1      49.047  27.183  29.502  1.00  0.00     0.135 A 
ATOM     86  C   UNL A   1      48.370  26.634  31.744  1.00  0.00     0.135 A 
ATOM     87  F   UNL A   1      48.766  27.591  28.254  1.00  0.00    -0.206 F 
ATOM     88  C   UNL A   1      50.362  26.848  29.807  1.00  0.00     0.059 A 
ATOM     89  C   UNL A   1      49.683  26.319  32.080  1.00  0.00     0.059 A 
ATOM     90  F   UNL A   1      47.430  26.523  32.696  1.00  0.00    -0.206 F 
ATOM     91  C   UNL A   1      50.670  26.419  31.099  1.00  0.00     0.060 A 
BRANCH  91  92
ATOM     92  S   UNL A   1      52.386  26.021  31.494  1.00  0.00     0.124 S 
ATOM     93  O   UNL A   1      53.058  26.344  30.241  1.00  0.00    -0.237 OA
ATOM     94  O   UNL A   1      52.665  26.918  32.612  1.00  0.00    -0.237 OA
ATOM     95  O   UNL A   1      52.337  24.603  31.834  1.00  0.00    -0.744 OA
ENDBRANCH  91  92
ENDBRANCH  59  84
ENDBRANCH  33  34
ENDBRANCH  25  28
ENDBRANCH  23  24
ENDBRANCH   1  23
TORSDOF 17
ENDMDL
MODEL 3
REMARK VINA RESULT:     -11.2      3.563      7.878
REMARK SMILES CC[C@H]1CC[C@](Cc2cccc(OC)n2)(C(=O)NCCCNC(=O)c2ccc(-c3c4nc(c(-c5c(F)cc(S(=O)(=O)[O-])cc5F)c5ccc([nH]5)c(-c5c(F)cc(S(=O)(=O)[O-])cc5F)c5nc(c(-c6c(F)cc(S(=O)(=O)[O-])cc6F)c6ccc3[nH]6)C=C5)C=C4)cc2)C1
REMARK SMILES IDX 20 1 19 2 18 3 16 4 17 5 6 7 3 8 4 9 91 10 5 11 2 12 1 13
REMARK SMILES IDX 7 14 8 15 9 16 15 17 10 18 12 19 11 20 13 21 14 22 21 23
REMARK SMILES IDX 22 24 23 25 24 27 25 28 26 29 90 30 27 31 89 32 28 33 29 34
REMARK SMILES IDX 30 35 83 36 31 37 88 38 82 39 84 40 32 41 87 42 81 43 80 44
REMARK SMILES IDX 33 46 67 47 46 48 66 49 47 50 50 51 65 52 85 53 48 54 49 55
REMARK SMILES IDX 64 57 86 58 51 59 34 60 35 61 44 62 36 63 37 64 43 65 45 66
REMARK SMILES IDX 38 67 39 68 40 69 41 70 42 71 68 72 69 73 78 74 70 75 71 76
REMARK SMILES IDX 77 77 79 78 72 79 73 80 74 81 75 82 76 83 52 84 53 85 62 86
REMARK SMILES IDX 54 87 55 88 61 89 63 90 56 91 57 92 58 93 59 94 60 95
REMARK H PARENT 18 6 22 26 84 45 50 56
REMARK Flexibility Score: inf
ROOT
ATOM      1  C   UNL A   1      32.866  27.493  27.227  1.00  0.00     0.042 C 
ENDROOT
BRANCH   1   2
ATOM      2  C   UNL A   1      31.494  27.623  26.570  1.00  0.00     0.117 C 
BRANCH   2   3
ATOM      3  N   UNL A   1      30.691  26.426  26.763  1.00  0.00    -0.356 N 
ATOM      4  C   UNL A   1      30.702  25.157  26.296  1.00  0.00     0.226 C 
ATOM      5  O   UNL A   1      29.745  24.474  26.693  1.00  0.00    -0.274 OA
ATOM      6  H   UNL A   1      29.951  26.579  27.394  1.00  0.00     0.163 HD
BRANCH   4   7
ATOM      7  C   UNL A   1      31.778  24.506  25.375  1.00  0.00     0.055 C 
ATOM      8  C   UNL A   1      31.715  24.773  22.888  1.00  0.00    -0.010 C 
ATOM      9  C   UNL A   1      30.639  23.783  23.314  1.00  0.00     0.005 C 
ATOM     10  C   UNL A   1      32.058  25.494  24.207  1.00  0.00     0.021 C 
ATOM     11  C   UNL A   1      31.061  23.303  24.701  1.00  0.00     0.017 C 
BRANCH   8  12
ATOM     12  C   UNL A   1      32.943  24.206  22.142  1.00  0.00     0.000 C 
ATOM     13  C   UNL A   1      33.054  22.697  21.979  1.00  0.00     0.004 C 
ENDBRANCH   8  12
BRANCH   7  14
ATOM     14  C   UNL A   1      33.058  24.075  26.115  1.00  0.00     0.073 C 
BRANCH  14  15
ATOM     15  C   UNL A   1      34.209  23.405  25.403  1.00  0.00     0.045 A 
ATOM     16  C   UNL A   1      35.295  24.149  24.953  1.00  0.00     0.024 A 
ATOM     17  N   UNL A   1      34.194  22.051  25.353  1.00  0.00    -0.219 NA
ATOM     18  C   UNL A   1      36.380  23.488  24.393  1.00  0.00     0.007 A 
ATOM     19  C   UNL A   1      35.262  21.422  24.815  1.00  0.00     0.213 A 
ATOM     20  C   UNL A   1      36.370  22.100  24.327  1.00  0.00     0.068 A 
BRANCH  19  21
ATOM     21  O   UNL A   1      35.168  20.058  24.859  1.00  0.00    -0.481 OA
ATOM     22  C   UNL A   1      33.852  19.551  24.679  1.00  0.00     0.280 C 
ENDBRANCH  19  21
ENDBRANCH  14  15
ENDBRANCH   7  14
ENDBRANCH   4   7
ENDBRANCH   2   3
ENDBRANCH   1   2
BRANCH   1  23
ATOM     23  C   UNL A   1      33.897  28.422  26.596  1.00  0.00     0.118 C 
BRANCH  23  24
ATOM     24  N   UNL A   1      33.697  29.803  27.024  1.00  0.00    -0.352 N 
ATOM     25  C   UNL A   1      34.457  30.588  27.848  1.00  0.00     0.251 C 
ATOM     26  H   UNL A   1      32.889  30.236  26.665  1.00  0.00     0.163 HD
ATOM     27  O   UNL A   1      33.972  31.623  28.309  1.00  0.00    -0.269 OA
BRANCH  25  28
ATOM     28  C   UNL A   1      35.844  30.208  28.177  1.00  0.00     0.039 A 
ATOM     29  C   UNL A   1      36.831  30.318  27.193  1.00  0.00     0.014 A 
ATOM     30  C   UNL A   1      36.161  29.689  29.435  1.00  0.00     0.014 A 
ATOM     31  C   UNL A   1      38.143  29.944  27.485  1.00  0.00     0.010 A 
ATOM     32  C   UNL A   1      37.482  29.391  29.749  1.00  0.00     0.010 A 
ATOM     33  C   UNL A   1      38.481  29.498  28.772  1.00  0.00    -0.014 A 
BRANCH  33  34
ATOM     34  C   UNL A   1      39.869  29.103  29.114  1.00  0.00     0.031 A 
ATOM     35  C   UNL A   1      40.788  30.101  29.768  1.00  0.00     0.074 A 
ATOM     36  C   UNL A   1      40.316  27.878  28.778  1.00  0.00     0.049 A 
ATOM     37  N   UNL A   1      42.060  29.990  30.052  1.00  0.00    -0.248 NA
ATOM     38  C   UNL A   1      40.207  31.408  30.120  1.00  0.00     0.031 C 
ATOM     39  C   UNL A   1      39.525  26.844  28.104  1.00  0.00     0.029 A 
ATOM     40  N   UNL A   1      41.546  27.298  28.945  1.00  0.00    -0.354 N 
ATOM     41  C   UNL A   1      42.434  31.214  30.596  1.00  0.00     0.074 A 
ATOM     42  C   UNL A   1      41.269  32.071  30.551  1.00  0.00     0.031 C 
ATOM     43  C   UNL A   1      40.284  25.750  27.935  1.00  0.00     0.029 A 
ATOM     44  C   UNL A   1      41.623  26.016  28.452  1.00  0.00     0.049 A 
ATOM     45  H   UNL A   1      42.303  27.755  29.378  1.00  0.00     0.167 HD
ATOM     46  C   UNL A   1      43.632  31.581  31.109  1.00  0.00     0.037 A 
ATOM     47  C   UNL A   1      42.660  25.157  28.416  1.00  0.00     0.037 A 
ATOM     48  C   UNL A   1      44.773  30.707  31.179  1.00  0.00     0.049 A 
ATOM     49  C   UNL A   1      43.978  25.585  29.001  1.00  0.00     0.074 A 
ATOM     50  C   UNL A   1      46.021  30.961  31.721  1.00  0.00     0.029 A 
ATOM     51  N   UNL A   1      44.802  29.406  30.700  1.00  0.00    -0.354 N 
ATOM     52  N   UNL A   1      44.303  26.732  29.550  1.00  0.00    -0.248 NA
ATOM     53  C   UNL A   1      45.069  24.602  28.969  1.00  0.00     0.031 C 
ATOM     54  C   UNL A   1      46.815  29.822  31.540  1.00  0.00     0.029 A 
ATOM     55  C   UNL A   1      46.048  28.845  30.924  1.00  0.00     0.049 A 
ATOM     56  H   UNL A   1      44.047  28.947  30.263  1.00  0.00     0.167 HD
ATOM     57  C   UNL A   1      45.626  26.597  29.956  1.00  0.00     0.074 A 
ATOM     58  C   UNL A   1      46.038  25.255  29.598  1.00  0.00     0.031 C 
ATOM     59  C   UNL A   1      46.428  27.501  30.571  1.00  0.00     0.037 A 
BRANCH  46  60
ATOM     60  C   UNL A   1      43.762  32.980  31.646  1.00  0.00     0.058 A 
ATOM     61  C   UNL A   1      44.148  34.051  30.821  1.00  0.00     0.135 A 
ATOM     62  C   UNL A   1      43.473  33.263  32.990  1.00  0.00     0.135 A 
ATOM     63  F   UNL A   1      44.453  33.835  29.533  1.00  0.00    -0.206 F 
ATOM     64  C   UNL A   1      44.270  35.344  31.318  1.00  0.00     0.059 A 
ATOM     65  C   UNL A   1      43.561  34.554  33.502  1.00  0.00     0.059 A 
ATOM     66  F   UNL A   1      43.101  32.277  33.823  1.00  0.00    -0.206 F 
ATOM     67  C   UNL A   1      43.976  35.586  32.660  1.00  0.00     0.060 A 
BRANCH  67  68
ATOM     68  S   UNL A   1      44.133  37.272  33.287  1.00  0.00     0.124 S 
ATOM     69  O   UNL A   1      45.404  37.198  34.002  1.00  0.00    -0.237 OA
ATOM     70  O   UNL A   1      44.143  38.062  32.059  1.00  0.00    -0.237 OA
ATOM     71  O   UNL A   1      42.949  37.435  34.125  1.00  0.00    -0.744 OA
ENDBRANCH  67  68
ENDBRANCH  46  60
BRANCH  47  72
ATOM     72  C   UNL A   1      42.485  23.802  27.832  1.00  0.00     0.058 A 
ATOM     73  C   UNL A   1      42.340  22.677  28.658  1.00  0.00     0.135 A 
ATOM     74  C   UNL A   1      42.452  23.602  26.443  1.00  0.00     0.135 A 
ATOM     75  F   UNL A   1      42.369  22.817  29.992  1.00  0.00    -0.206 F 
ATOM     76  C   UNL A   1      42.190  21.399  28.130  1.00  0.00     0.059 A 
ATOM     77  C   UNL A   1      42.278  22.336  25.891  1.00  0.00     0.059 A 
ATOM     78  F   UNL A   1      42.564  24.648  25.610  1.00  0.00    -0.206 F 
ATOM     79  C   UNL A   1      42.160  21.239  26.744  1.00  0.00     0.060 A 
BRANCH  79  80
ATOM     80  S   UNL A   1      41.927  19.581  26.067  1.00  0.00     0.124 S 
ATOM     81  O   UNL A   1      40.494  19.574  25.798  1.00  0.00    -0.237 OA
ATOM     82  O   UNL A   1      42.797  19.602  24.896  1.00  0.00    -0.237 OA
ATOM     83  O   UNL A   1      42.370  18.711  27.152  1.00  0.00    -0.744 OA
ENDBRANCH  79  80
ENDBRANCH  47  72
BRANCH  59  84
ATOM     84  C   UNL A   1      47.816  27.055  30.933  1.00  0.00     0.058 A 
ATOM     85  C   UNL A   1      48.092  26.418  32.153  1.00  0.00     0.135 A 
ATOM     86  C   UNL A   1      48.873  27.221  30.024  1.00  0.00     0.135 A 
ATOM     87  F   UNL A   1      47.116  26.243  33.059  1.00  0.00    -0.206 F 
ATOM     88  C   UNL A   1      49.373  25.980  32.468  1.00  0.00     0.059 A 
ATOM     89  C   UNL A   1      50.157  26.767  30.307  1.00  0.00     0.059 A 
ATOM     90  F   UNL A   1      48.659  27.815  28.839  1.00  0.00    -0.206 F 
ATOM     91  C   UNL A   1      50.399  26.158  31.538  1.00  0.00     0.060 A 
BRANCH  91  92
ATOM     92  S   UNL A   1      52.051  25.553  31.944  1.00  0.00     0.124 S 
ATOM     93  O   UNL A   1      52.373  26.347  33.123  1.00  0.00    -0.237 OA
ATOM     94  O   UNL A   1      51.814  24.132  32.182  1.00  0.00    -0.237 OA
ATOM     95  O   UNL A   1      52.828  25.859  30.748  1.00  0.00    -0.744 OA
ENDBRANCH  91  92
ENDBRANCH  59  84
ENDBRANCH  33  34
ENDBRANCH  25  28
ENDBRANCH  23  24
ENDBRANCH   1  23
TORSDOF 17
ENDMDL
