MODEL 1
REMARK VINA RESULT:     -12.6      0.000      0.000
REMARK SMILES CC(C)[C@H]1CC[C@@H](C)/C(=C/c2ccc(NC(=O)CCC(=O)NCCCNC(=O)c3ccc(-c4c5nc(c(-c6c(F)cc(S(=O)(=O)[O-])cc6F)c6ccc([nH]6)c(-c6c(F)cc(S(=O)(=O)[O-])cc6F)c6nc(c(-c7c(F)cc(S(=O)(=O)[O-])cc7F)c7ccc4[nH]7)C=C6)C=C5)cc3)cc2)C1=O
REMARK SMILES IDX 23 1 22 2 20 3 21 4 19 6 18 7 16 8 15 9 17 11 14 12 11 13
REMARK SMILES IDX 12 14 96 15 13 16 95 17 10 18 4 19 5 20 97 21 6 22 9 23
REMARK SMILES IDX 98 24 7 25 8 26 2 27 1 28 3 29 24 30 25 31 26 32 27 33 28 35
REMARK SMILES IDX 29 36 30 37 94 38 31 39 93 40 32 41 33 42 34 43 87 44 35 45
REMARK SMILES IDX 92 46 86 47 88 48 36 49 91 50 85 51 84 52 37 54 71 55 50 56
REMARK SMILES IDX 70 57 51 58 54 59 69 60 89 61 52 62 53 63 68 65 90 66 55 67
REMARK SMILES IDX 38 68 39 69 48 70 40 71 41 72 47 73 49 74 42 75 43 76 44 77
REMARK SMILES IDX 45 78 46 79 72 80 73 81 82 82 74 83 75 84 81 85 83 86 76 87
REMARK SMILES IDX 77 88 78 89 79 90 80 91 56 92 57 93 66 94 58 95 59 96 65 97
REMARK SMILES IDX 67 98 60 99 61 100 62 101 63 102 64 103
REMARK H PARENT 22 5 15 10 26 34 88 53 54 64
REMARK Flexibility Score: inf
ROOT
ATOM      1  C   UNL A   1      33.163  30.101  27.320  1.00  0.00     0.117 C 
ENDROOT
BRANCH   1   2
ATOM      2  N   UNL A   1      32.285  28.950  27.455  1.00  0.00    -0.356 N 
ATOM      3  C   UNL A   1      31.753  28.128  26.506  1.00  0.00     0.220 C 
ATOM      4  O   UNL A   1      31.235  27.071  26.868  1.00  0.00    -0.275 OA
ATOM      5  H   UNL A   1      32.033  28.727  28.381  1.00  0.00     0.163 HD
BRANCH   3   6
ATOM      6  C   UNL A   1      31.791  28.505  25.041  1.00  0.00     0.110 C 
BRANCH   6   7
ATOM      7  C   UNL A   1      30.755  27.777  24.193  1.00  0.00     0.110 C 
BRANCH   7   8
ATOM      8  C   UNL A   1      31.043  27.840  22.709  1.00  0.00     0.224 C 
ATOM      9  N   UNL A   1      31.409  26.741  21.989  1.00  0.00    -0.326 N 
ATOM     10  H   UNL A   1      31.556  26.902  21.029  1.00  0.00     0.169 HD
ATOM     11  O   UNL A   1      30.828  28.891  22.095  1.00  0.00    -0.275 OA
BRANCH   9  12
ATOM     12  C   UNL A   1      31.610  25.417  22.401  1.00  0.00     0.041 A 
ATOM     13  C   UNL A   1      32.047  22.700  22.933  1.00  0.00    -0.025 A 
ATOM     14  C   UNL A   1      30.922  23.349  23.444  1.00  0.00     0.010 A 
ATOM     15  C   UNL A   1      32.965  23.429  22.170  1.00  0.00     0.010 A 
ATOM     16  C   UNL A   1      30.707  24.703  23.183  1.00  0.00     0.027 A 
ATOM     17  C   UNL A   1      32.779  24.794  21.966  1.00  0.00     0.027 A 
BRANCH  13  18
ATOM     18  C   UNL A   1      32.259  21.287  23.264  1.00  0.00     0.015 C 
ATOM     19  C   UNL A   1      35.589  21.406  24.677  1.00  0.00     0.063 C 
ATOM     20  C   UNL A   1      35.799  19.943  25.095  1.00  0.00     0.013 C 
ATOM     21  C   UNL A   1      34.114  21.761  24.846  1.00  0.00     0.162 C 
ATOM     22  C   UNL A   1      34.830  18.992  24.375  1.00  0.00     0.009 C 
ATOM     23  C   UNL A   1      33.167  20.835  24.147  1.00  0.00    -0.001 C 
ATOM     24  O   UNL A   1      33.699  22.729  25.472  1.00  0.00    -0.294 OA
ATOM     25  C   UNL A   1      33.352  19.391  24.523  1.00  0.00     0.020 C 
ATOM     26  C   UNL A   1      32.826  19.155  25.942  1.00  0.00     0.013 C 
BRANCH  19  27
ATOM     27  C   UNL A   1      36.519  22.433  25.367  1.00  0.00    -0.007 C 
ATOM     28  C   UNL A   1      37.933  21.910  25.639  1.00  0.00     0.008 C 
ATOM     29  C   UNL A   1      36.604  23.737  24.569  1.00  0.00     0.008 C 
ENDBRANCH  19  27
ENDBRANCH  13  18
ENDBRANCH   9  12
ENDBRANCH   7   8
ENDBRANCH   6   7
ENDBRANCH   3   6
ENDBRANCH   1   2
BRANCH   1  30
ATOM     30  C   UNL A   1      34.651  29.763  27.343  1.00  0.00     0.042 C 
BRANCH  30  31
ATOM     31  C   UNL A   1      35.534  30.733  28.121  1.00  0.00     0.118 C 
BRANCH  31  32
ATOM     32  N   UNL A   1      35.501  30.533  29.557  1.00  0.00    -0.352 N 
ATOM     33  C   UNL A   1      36.496  30.093  30.401  1.00  0.00     0.251 C 
ATOM     34  H   UNL A   1      34.644  30.743  29.991  1.00  0.00     0.163 HD
ATOM     35  O   UNL A   1      36.250  29.935  31.589  1.00  0.00    -0.269 OA
BRANCH  33  36
ATOM     36  C   UNL A   1      37.847  29.774  29.877  1.00  0.00     0.039 A 
ATOM     37  C   UNL A   1      38.853  29.467  30.797  1.00  0.00     0.014 A 
ATOM     38  C   UNL A   1      38.140  29.803  28.509  1.00  0.00     0.014 A 
ATOM     39  C   UNL A   1      40.136  29.144  30.349  1.00  0.00     0.010 A 
ATOM     40  C   UNL A   1      39.410  29.427  28.059  1.00  0.00     0.010 A 
ATOM     41  C   UNL A   1      40.424  29.099  28.974  1.00  0.00    -0.014 A 
BRANCH  41  42
ATOM     42  C   UNL A   1      41.786  28.722  28.504  1.00  0.00     0.031 A 
ATOM     43  C   UNL A   1      42.880  29.753  28.421  1.00  0.00     0.074 A 
ATOM     44  C   UNL A   1      42.042  27.449  28.143  1.00  0.00     0.049 A 
ATOM     45  N   UNL A   1      44.130  29.605  28.062  1.00  0.00    -0.248 NA
ATOM     46  C   UNL A   1      42.518  31.136  28.769  1.00  0.00     0.031 C 
ATOM     47  C   UNL A   1      41.063  26.361  28.133  1.00  0.00     0.029 A 
ATOM     48  N   UNL A   1      43.203  26.853  27.715  1.00  0.00    -0.354 N 
ATOM     49  C   UNL A   1      44.703  30.869  28.140  1.00  0.00     0.074 A 
ATOM     50  C   UNL A   1      43.649  31.783  28.528  1.00  0.00     0.031 C 
ATOM     51  C   UNL A   1      41.668  25.228  27.740  1.00  0.00     0.029 A 
ATOM     52  C   UNL A   1      43.071  25.510  27.448  1.00  0.00     0.049 A 
ATOM     53  H   UNL A   1      44.051  27.342  27.609  1.00  0.00     0.167 HD
ATOM     54  C   UNL A   1      45.992  31.233  27.933  1.00  0.00     0.037 A 
ATOM     55  C   UNL A   1      43.974  24.607  27.019  1.00  0.00     0.037 A 
ATOM     56  C   UNL A   1      47.045  30.323  27.560  1.00  0.00     0.049 A 
ATOM     57  C   UNL A   1      45.402  25.032  26.798  1.00  0.00     0.074 A 
ATOM     58  C   UNL A   1      48.390  30.593  27.376  1.00  0.00     0.029 A 
ATOM     59  N   UNL A   1      46.872  28.970  27.313  1.00  0.00    -0.354 N 
ATOM     60  N   UNL A   1      45.939  26.219  26.948  1.00  0.00    -0.248 NA
ATOM     61  C   UNL A   1      46.348  23.995  26.365  1.00  0.00     0.031 C 
ATOM     62  C   UNL A   1      49.024  29.410  26.980  1.00  0.00     0.029 A 
ATOM     63  C   UNL A   1      48.083  28.394  26.961  1.00  0.00     0.049 A 
ATOM     64  H   UNL A   1      46.016  28.488  27.378  1.00  0.00     0.167 HD
ATOM     65  C   UNL A   1      47.289  26.066  26.649  1.00  0.00     0.074 A 
ATOM     66  C   UNL A   1      47.489  24.669  26.325  1.00  0.00     0.031 C 
ATOM     67  C   UNL A   1      48.273  26.999  26.644  1.00  0.00     0.037 A 
BRANCH  54  68
ATOM     68  C   UNL A   1      46.338  32.687  28.110  1.00  0.00     0.058 A 
ATOM     69  C   UNL A   1      46.839  33.179  29.327  1.00  0.00     0.135 A 
ATOM     70  C   UNL A   1      46.195  33.594  27.048  1.00  0.00     0.135 A 
ATOM     71  F   UNL A   1      46.986  32.357  30.379  1.00  0.00    -0.206 F 
ATOM     72  C   UNL A   1      47.152  34.524  29.496  1.00  0.00     0.059 A 
ATOM     73  C   UNL A   1      46.526  34.939  27.186  1.00  0.00     0.059 A 
ATOM     74  F   UNL A   1      45.723  33.178  25.863  1.00  0.00    -0.206 F 
ATOM     75  C   UNL A   1      46.988  35.398  28.420  1.00  0.00     0.060 A 
BRANCH  75  76
ATOM     76  S   UNL A   1      47.386  37.142  28.658  1.00  0.00     0.124 S 
ATOM     77  O   UNL A   1      48.833  37.138  28.463  1.00  0.00    -0.237 OA
ATOM     78  O   UNL A   1      46.608  37.788  27.607  1.00  0.00    -0.237 OA
ATOM     79  O   UNL A   1      46.938  37.411  30.022  1.00  0.00    -0.744 OA
ENDBRANCH  75  76
ENDBRANCH  54  68
BRANCH  55  80
ATOM     80  C   UNL A   1      43.561  23.195  26.795  1.00  0.00     0.058 A 
ATOM     81  C   UNL A   1      43.300  22.337  27.873  1.00  0.00     0.135 A 
ATOM     82  C   UNL A   1      43.409  22.679  25.498  1.00  0.00     0.135 A 
ATOM     83  F   UNL A   1      43.439  22.781  29.132  1.00  0.00    -0.206 F 
ATOM     84  C   UNL A   1      42.917  21.014  27.676  1.00  0.00     0.059 A 
ATOM     85  C   UNL A   1      43.004  21.368  25.275  1.00  0.00     0.059 A 
ATOM     86  F   UNL A   1      43.635  23.465  24.433  1.00  0.00    -0.206 F 
ATOM     87  C   UNL A   1      42.770  20.539  26.372  1.00  0.00     0.060 A 
BRANCH  87  88
ATOM     88  S   UNL A   1      42.220  18.836  26.126  1.00  0.00     0.124 S 
ATOM     89  O   UNL A   1      40.839  19.031  25.701  1.00  0.00    -0.237 OA
ATOM     90  O   UNL A   1      43.144  18.361  25.099  1.00  0.00    -0.237 OA
ATOM     91  O   UNL A   1      42.398  18.233  27.443  1.00  0.00    -0.744 OA
ENDBRANCH  87  88
ENDBRANCH  55  80
BRANCH  67  92
ATOM     92  C   UNL A   1      49.664  26.540  26.305  1.00  0.00     0.058 A 
ATOM     93  C   UNL A   1      50.180  26.644  25.004  1.00  0.00     0.135 A 
ATOM     94  C   UNL A   1      50.510  26.032  27.306  1.00  0.00     0.135 A 
ATOM     95  F   UNL A   1      49.412  27.117  24.010  1.00  0.00    -0.206 F 
ATOM     96  C   UNL A   1      51.477  26.240  24.701  1.00  0.00     0.059 A 
ATOM     97  C   UNL A   1      51.818  25.646  27.031  1.00  0.00     0.059 A 
ATOM     98  F   UNL A   1      50.071  25.921  28.570  1.00  0.00    -0.206 F 
ATOM     99  C   UNL A   1      52.289  25.743  25.722  1.00  0.00     0.060 A 
BRANCH  99 100
ATOM    100  S   UNL A   1      53.981  25.251  25.323  1.00  0.00     0.124 S 
ATOM    101  O   UNL A   1      54.284  26.130  24.198  1.00  0.00    -0.237 OA
ATOM    102  O   UNL A   1      54.692  25.541  26.564  1.00  0.00    -0.237 OA
ATOM    103  O   UNL A   1      53.854  23.833  24.997  1.00  0.00    -0.744 OA
ENDBRANCH  99 100
ENDBRANCH  67  92
ENDBRANCH  41  42
ENDBRANCH  33  36
ENDBRANCH  31  32
ENDBRANCH  30  31
ENDBRANCH   1  30
TORSDOF 18
ENDMDL
MODEL 2
REMARK VINA RESULT:     -12.5      6.439     12.165
REMARK SMILES CC(C)[C@H]1CC[C@@H](C)/C(=C/c2ccc(NC(=O)CCC(=O)NCCCNC(=O)c3ccc(-c4c5nc(c(-c6c(F)cc(S(=O)(=O)[O-])cc6F)c6ccc([nH]6)c(-c6c(F)cc(S(=O)(=O)[O-])cc6F)c6nc(c(-c7c(F)cc(S(=O)(=O)[O-])cc7F)c7ccc4[nH]7)C=C6)C=C5)cc3)cc2)C1=O
REMARK SMILES IDX 23 1 22 2 20 3 21 4 19 6 18 7 16 8 15 9 17 11 14 12 11 13
REMARK SMILES IDX 12 14 96 15 13 16 95 17 10 18 4 19 5 20 97 21 6 22 9 23
REMARK SMILES IDX 98 24 7 25 8 26 2 27 1 28 3 29 24 30 25 31 26 32 27 33 28 35
REMARK SMILES IDX 29 36 30 37 94 38 31 39 93 40 32 41 33 42 34 43 87 44 35 45
REMARK SMILES IDX 92 46 86 47 88 48 36 49 91 50 85 51 84 52 37 54 71 55 50 56
REMARK SMILES IDX 70 57 51 58 54 59 69 60 89 61 52 62 53 63 68 65 90 66 55 67
REMARK SMILES IDX 38 68 39 69 48 70 40 71 41 72 47 73 49 74 42 75 43 76 44 77
REMARK SMILES IDX 45 78 46 79 72 80 73 81 82 82 74 83 75 84 81 85 83 86 76 87
REMARK SMILES IDX 77 88 78 89 79 90 80 91 56 92 57 93 66 94 58 95 59 96 65 97
REMARK SMILES IDX 67 98 60 99 61 100 62 101 63 102 64 103
REMARK H PARENT 22 5 15 10 26 34 88 53 54 64
REMARK Flexibility Score: inf
ROOT
ATOM      1  C   UNL A   1      39.989  21.819  26.337  1.00  0.00     0.117 C 
ENDROOT
BRANCH   1   2
ATOM      2  N   UNL A   1      39.091  22.867  25.878  1.00  0.00    -0.356 N 
ATOM      3  C   UNL A   1      37.868  22.784  25.282  1.00  0.00     0.220 C 
ATOM      4  O   UNL A   1      37.183  23.804  25.203  1.00  0.00    -0.275 OA
ATOM      5  H   UNL A   1      39.418  23.784  26.022  1.00  0.00     0.163 HD
BRANCH   3   6
ATOM      6  C   UNL A   1      37.364  21.472  24.722  1.00  0.00     0.110 C 
BRANCH   6   7
ATOM      7  C   UNL A   1      36.390  20.746  25.643  1.00  0.00     0.110 C 
BRANCH   7   8
ATOM      8  C   UNL A   1      35.115  20.317  24.949  1.00  0.00     0.224 C 
ATOM      9  N   UNL A   1      34.105  21.192  24.674  1.00  0.00    -0.326 N 
ATOM     10  H   UNL A   1      33.332  20.801  24.207  1.00  0.00     0.169 HD
ATOM     11  O   UNL A   1      35.023  19.166  24.508  1.00  0.00    -0.275 OA
BRANCH   9  12
ATOM     12  C   UNL A   1      33.994  22.561  24.952  1.00  0.00     0.041 A 
ATOM     13  C   UNL A   1      34.030  25.335  25.350  1.00  0.00    -0.025 A 
ATOM     14  C   UNL A   1      33.903  24.466  26.436  1.00  0.00     0.010 A 
ATOM     15  C   UNL A   1      34.116  24.804  24.059  1.00  0.00     0.010 A 
ATOM     16  C   UNL A   1      33.881  23.084  26.236  1.00  0.00     0.027 A 
ATOM     17  C   UNL A   1      34.029  23.428  23.860  1.00  0.00     0.027 A 
BRANCH  13  18
ATOM     18  C   UNL A   1      34.007  26.780  25.597  1.00  0.00     0.015 C 
ATOM     19  C   UNL A   1      30.779  27.660  24.220  1.00  0.00     0.063 C 
ATOM     20  C   UNL A   1      30.708  29.163  24.534  1.00  0.00     0.013 C 
ATOM     21  C   UNL A   1      31.543  26.957  25.338  1.00  0.00     0.162 C 
ATOM     22  C   UNL A   1      32.095  29.757  24.826  1.00  0.00     0.009 C 
ATOM     23  C   UNL A   1      32.895  27.535  25.626  1.00  0.00    -0.001 C 
ATOM     24  O   UNL A   1      31.132  25.982  25.954  1.00  0.00    -0.294 OA
ATOM     25  C   UNL A   1      32.866  29.008  25.926  1.00  0.00     0.020 C 
ATOM     26  C   UNL A   1      32.267  29.240  27.317  1.00  0.00     0.013 C 
BRANCH  19  27
ATOM     27  C   UNL A   1      29.420  26.981  23.925  1.00  0.00    -0.007 C 
ATOM     28  C   UNL A   1      28.421  27.875  23.183  1.00  0.00     0.008 C 
ATOM     29  C   UNL A   1      29.604  25.673  23.149  1.00  0.00     0.008 C 
ENDBRANCH  19  27
ENDBRANCH  13  18
ENDBRANCH   9  12
ENDBRANCH   7   8
ENDBRANCH   6   7
ENDBRANCH   3   6
ENDBRANCH   1   2
BRANCH   1  30
ATOM     30  C   UNL A   1      40.729  22.145  27.631  1.00  0.00     0.042 C 
BRANCH  30  31
ATOM     31  C   UNL A   1      42.025  22.932  27.467  1.00  0.00     0.118 C 
BRANCH  31  32
ATOM     32  N   UNL A   1      42.070  23.746  26.268  1.00  0.00    -0.352 N 
ATOM     33  C   UNL A   1      41.873  25.101  26.123  1.00  0.00     0.251 C 
ATOM     34  H   UNL A   1      42.271  23.259  25.437  1.00  0.00     0.163 HD
ATOM     35  O   UNL A   1      41.898  25.595  25.004  1.00  0.00    -0.269 OA
BRANCH  33  36
ATOM     36  C   UNL A   1      41.595  25.955  27.303  1.00  0.00     0.039 A 
ATOM     37  C   UNL A   1      42.558  26.897  27.674  1.00  0.00     0.014 A 
ATOM     38  C   UNL A   1      40.426  25.821  28.060  1.00  0.00     0.014 A 
ATOM     39  C   UNL A   1      42.332  27.735  28.769  1.00  0.00     0.010 A 
ATOM     40  C   UNL A   1      40.177  26.696  29.123  1.00  0.00     0.010 A 
ATOM     41  C   UNL A   1      41.130  27.659  29.493  1.00  0.00    -0.014 A 
BRANCH  41  42
ATOM     42  C   UNL A   1      40.884  28.578  30.638  1.00  0.00     0.031 A 
ATOM     43  C   UNL A   1      41.707  28.473  31.895  1.00  0.00     0.074 A 
ATOM     44  C   UNL A   1      39.911  29.508  30.555  1.00  0.00     0.049 A 
ATOM     45  N   UNL A   1      41.654  29.202  32.981  1.00  0.00    -0.248 NA
ATOM     46  C   UNL A   1      42.709  27.397  31.945  1.00  0.00     0.031 C 
ATOM     47  C   UNL A   1      39.011  29.688  29.415  1.00  0.00     0.029 A 
ATOM     48  N   UNL A   1      39.516  30.476  31.445  1.00  0.00    -0.354 N 
ATOM     49  C   UNL A   1      42.611  28.676  33.842  1.00  0.00     0.074 A 
ATOM     50  C   UNL A   1      43.192  27.531  33.172  1.00  0.00     0.031 C 
ATOM     51  C   UNL A   1      38.185  30.717  29.666  1.00  0.00     0.029 A 
ATOM     52  C   UNL A   1      38.478  31.256  30.992  1.00  0.00     0.049 A 
ATOM     53  H   UNL A   1      39.938  30.601  32.326  1.00  0.00     0.167 HD
ATOM     54  C   UNL A   1      42.990  29.118  35.066  1.00  0.00     0.037 A 
ATOM     55  C   UNL A   1      37.834  32.288  31.573  1.00  0.00     0.037 A 
ATOM     56  C   UNL A   1      42.423  30.266  35.727  1.00  0.00     0.049 A 
ATOM     57  C   UNL A   1      38.274  32.765  32.931  1.00  0.00     0.074 A 
ATOM     58  C   UNL A   1      42.777  30.818  36.946  1.00  0.00     0.029 A 
ATOM     59  N   UNL A   1      41.383  31.035  35.228  1.00  0.00    -0.354 N 
ATOM     60  N   UNL A   1      39.230  32.298  33.698  1.00  0.00    -0.248 NA
ATOM     61  C   UNL A   1      37.558  33.917  33.497  1.00  0.00     0.031 C 
ATOM     62  C   UNL A   1      41.925  31.899  37.202  1.00  0.00     0.029 A 
ATOM     63  C   UNL A   1      41.071  32.048  36.122  1.00  0.00     0.049 A 
ATOM     64  H   UNL A   1      40.933  30.886  34.365  1.00  0.00     0.167 HD
ATOM     65  C   UNL A   1      39.245  33.112  34.826  1.00  0.00     0.074 A 
ATOM     66  C   UNL A   1      38.213  34.110  34.635  1.00  0.00     0.031 C 
ATOM     67  C   UNL A   1      40.043  33.039  35.920  1.00  0.00     0.037 A 
BRANCH  54  68
ATOM     68  C   UNL A   1      44.079  28.357  35.770  1.00  0.00     0.058 A 
ATOM     69  C   UNL A   1      45.436  28.664  35.574  1.00  0.00     0.135 A 
ATOM     70  C   UNL A   1      43.767  27.328  36.674  1.00  0.00     0.135 A 
ATOM     71  F   UNL A   1      45.791  29.631  34.712  1.00  0.00    -0.206 F 
ATOM     72  C   UNL A   1      46.444  27.956  36.218  1.00  0.00     0.059 A 
ATOM     73  C   UNL A   1      44.759  26.623  37.350  1.00  0.00     0.059 A 
ATOM     74  F   UNL A   1      42.488  26.994  36.903  1.00  0.00    -0.206 F 
ATOM     75  C   UNL A   1      46.097  26.934  37.102  1.00  0.00     0.060 A 
BRANCH  75  76
ATOM     76  S   UNL A   1      47.417  26.015  37.921  1.00  0.00     0.124 S 
ATOM     77  O   UNL A   1      47.087  24.642  37.552  1.00  0.00    -0.237 OA
ATOM     78  O   UNL A   1      48.616  26.567  37.300  1.00  0.00    -0.237 OA
ATOM     79  O   UNL A   1      47.236  26.345  39.332  1.00  0.00    -0.744 OA
ENDBRANCH  75  76
ENDBRANCH  54  68
BRANCH  55  80
ATOM     80  C   UNL A   1      36.718  32.962  30.857  1.00  0.00     0.058 A 
ATOM     81  C   UNL A   1      35.384  32.765  31.244  1.00  0.00     0.135 A 
ATOM     82  C   UNL A   1      36.964  33.824  29.777  1.00  0.00     0.135 A 
ATOM     83  F   UNL A   1      35.098  31.943  32.266  1.00  0.00    -0.206 F 
ATOM     84  C   UNL A   1      34.332  33.387  30.579  1.00  0.00     0.059 A 
ATOM     85  C   UNL A   1      35.931  34.476  29.111  1.00  0.00     0.059 A 
ATOM     86  F   UNL A   1      38.224  34.056  29.376  1.00  0.00    -0.206 F 
ATOM     87  C   UNL A   1      34.616  34.243  29.515  1.00  0.00     0.060 A 
BRANCH  87  88
ATOM     88  S   UNL A   1      33.248  35.087  28.692  1.00  0.00     0.124 S 
ATOM     89  O   UNL A   1      32.424  35.487  29.827  1.00  0.00    -0.237 OA
ATOM     90  O   UNL A   1      33.933  36.167  27.987  1.00  0.00    -0.237 OA
ATOM     91  O   UNL A   1      32.682  34.051  27.834  1.00  0.00    -0.744 OA
ENDBRANCH  87  88
ENDBRANCH  55  80
BRANCH  67  92
ATOM     92  C   UNL A   1      39.855  34.082  36.988  1.00  0.00     0.058 A 
ATOM     93  C   UNL A   1      39.078  33.837  38.130  1.00  0.00     0.135 A 
ATOM     94  C   UNL A   1      40.498  35.327  36.888  1.00  0.00     0.135 A 
ATOM     95  F   UNL A   1      38.437  32.666  38.272  1.00  0.00    -0.206 F 
ATOM     96  C   UNL A   1      38.928  34.796  39.128  1.00  0.00     0.059 A 
ATOM     97  C   UNL A   1      40.382  36.292  37.884  1.00  0.00     0.059 A 
ATOM     98  F   UNL A   1      41.261  35.610  35.820  1.00  0.00    -0.206 F 
ATOM     99  C   UNL A   1      39.584  36.021  38.996  1.00  0.00     0.060 A 
BRANCH  99 100
ATOM    100  S   UNL A   1      39.407  37.247  40.310  1.00  0.00     0.124 S 
ATOM    101  O   UNL A   1      38.600  36.519  41.283  1.00  0.00    -0.237 OA
ATOM    102  O   UNL A   1      40.792  37.497  40.695  1.00  0.00    -0.237 OA
ATOM    103  O   UNL A   1      38.736  38.362  39.646  1.00  0.00    -0.744 OA
ENDBRANCH  99 100
ENDBRANCH  67  92
ENDBRANCH  41  42
ENDBRANCH  33  36
ENDBRANCH  31  32
ENDBRANCH  30  31
ENDBRANCH   1  30
TORSDOF 18
ENDMDL
MODEL 3
REMARK VINA RESULT:     -12.3      2.703      5.012
REMARK SMILES CC(C)[C@H]1CC[C@@H](C)/C(=C/c2ccc(NC(=O)CCC(=O)NCCCNC(=O)c3ccc(-c4c5nc(c(-c6c(F)cc(S(=O)(=O)[O-])cc6F)c6ccc([nH]6)c(-c6c(F)cc(S(=O)(=O)[O-])cc6F)c6nc(c(-c7c(F)cc(S(=O)(=O)[O-])cc7F)c7ccc4[nH]7)C=C6)C=C5)cc3)cc2)C1=O
REMARK SMILES IDX 23 1 22 2 20 3 21 4 19 6 18 7 16 8 15 9 17 11 14 12 11 13
REMARK SMILES IDX 12 14 96 15 13 16 95 17 10 18 4 19 5 20 97 21 6 22 9 23
REMARK SMILES IDX 98 24 7 25 8 26 2 27 1 28 3 29 24 30 25 31 26 32 27 33 28 35
REMARK SMILES IDX 29 36 30 37 94 38 31 39 93 40 32 41 33 42 34 43 87 44 35 45
REMARK SMILES IDX 92 46 86 47 88 48 36 49 91 50 85 51 84 52 37 54 71 55 50 56
REMARK SMILES IDX 70 57 51 58 54 59 69 60 89 61 52 62 53 63 68 65 90 66 55 67
REMARK SMILES IDX 38 68 39 69 48 70 40 71 41 72 47 73 49 74 42 75 43 76 44 77
REMARK SMILES IDX 45 78 46 79 72 80 73 81 82 82 74 83 75 84 81 85 83 86 76 87
REMARK SMILES IDX 77 88 78 89 79 90 80 91 56 92 57 93 66 94 58 95 59 96 65 97
REMARK SMILES IDX 67 98 60 99 61 100 62 101 63 102 64 103
REMARK H PARENT 22 5 15 10 26 34 88 53 54 64
REMARK Flexibility Score: inf
ROOT
ATOM      1  C   UNL A   1      35.885  34.046  33.751  1.00  0.00     0.117 C 
ENDROOT
BRANCH   1   2
ATOM      2  N   UNL A   1      35.210  35.287  33.405  1.00  0.00    -0.356 N 
ATOM      3  C   UNL A   1      34.489  35.622  32.297  1.00  0.00     0.220 C 
ATOM      4  O   UNL A   1      33.805  36.645  32.329  1.00  0.00    -0.275 OA
ATOM      5  H   UNL A   1      35.285  36.001  34.079  1.00  0.00     0.163 HD
BRANCH   3   6
ATOM      6  C   UNL A   1      34.532  34.762  31.053  1.00  0.00     0.110 C 
BRANCH   6   7
ATOM      7  C   UNL A   1      33.287  34.883  30.180  1.00  0.00     0.110 C 
BRANCH   7   8
ATOM      8  C   UNL A   1      33.575  35.430  28.799  1.00  0.00     0.224 C 
ATOM      9  N   UNL A   1      33.718  34.621  27.710  1.00  0.00    -0.326 N 
ATOM     10  H   UNL A   1      33.889  35.092  26.862  1.00  0.00     0.169 HD
ATOM     11  O   UNL A   1      33.564  36.652  28.617  1.00  0.00    -0.275 OA
BRANCH   9  12
ATOM     12  C   UNL A   1      33.662  33.225  27.607  1.00  0.00     0.041 A 
ATOM     13  C   UNL A   1      33.306  30.445  27.582  1.00  0.00    -0.025 A 
ATOM     14  C   UNL A   1      34.543  30.997  27.920  1.00  0.00     0.010 A 
ATOM     15  C   UNL A   1      32.252  31.297  27.234  1.00  0.00     0.010 A 
ATOM     16  C   UNL A   1      34.721  32.381  27.928  1.00  0.00     0.027 A 
ATOM     17  C   UNL A   1      32.454  32.675  27.182  1.00  0.00     0.027 A 
BRANCH  13  18
ATOM     18  C   UNL A   1      33.170  28.985  27.544  1.00  0.00     0.015 C 
ATOM     19  C   UNL A   1      30.989  28.572  24.687  1.00  0.00     0.063 C 
ATOM     20  C   UNL A   1      30.894  27.041  24.590  1.00  0.00     0.013 C 
ATOM     21  C   UNL A   1      32.380  28.949  25.190  1.00  0.00     0.162 C 
ATOM     22  C   UNL A   1      31.302  26.354  25.902  1.00  0.00     0.009 C 
ATOM     23  C   UNL A   1      32.781  28.279  26.468  1.00  0.00    -0.001 C 
ATOM     24  O   UNL A   1      33.126  29.749  24.639  1.00  0.00    -0.294 OA
ATOM     25  C   UNL A   1      32.688  26.780  26.415  1.00  0.00     0.020 C 
ATOM     26  C   UNL A   1      33.824  26.222  25.551  1.00  0.00     0.013 C 
BRANCH  19  27
ATOM     27  C   UNL A   1      30.606  29.342  23.400  1.00  0.00    -0.007 C 
ATOM     28  C   UNL A   1      30.208  28.440  22.227  1.00  0.00     0.008 C 
ATOM     29  C   UNL A   1      29.488  30.354  23.665  1.00  0.00     0.008 C 
ENDBRANCH  19  27
ENDBRANCH  13  18
ENDBRANCH   9  12
ENDBRANCH   7   8
ENDBRANCH   6   7
ENDBRANCH   3   6
ENDBRANCH   1   2
BRANCH   1  30
ATOM     30  C   UNL A   1      37.349  33.986  33.326  1.00  0.00     0.042 C 
BRANCH  30  31
ATOM     31  C   UNL A   1      37.659  33.052  32.160  1.00  0.00     0.118 C 
BRANCH  31  32
ATOM     32  N   UNL A   1      36.667  32.013  31.963  1.00  0.00    -0.352 N 
ATOM     33  C   UNL A   1      36.799  30.783  31.358  1.00  0.00     0.251 C 
ATOM     34  H   UNL A   1      35.770  32.216  32.312  1.00  0.00     0.163 HD
ATOM     35  O   UNL A   1      35.816  30.064  31.238  1.00  0.00    -0.269 OA
BRANCH  33  36
ATOM     36  C   UNL A   1      38.108  30.342  30.817  1.00  0.00     0.039 A 
ATOM     37  C   UNL A   1      38.303  30.407  29.435  1.00  0.00     0.014 A 
ATOM     38  C   UNL A   1      39.122  29.841  31.641  1.00  0.00     0.014 A 
ATOM     39  C   UNL A   1      39.527  30.018  28.882  1.00  0.00     0.010 A 
ATOM     40  C   UNL A   1      40.363  29.501  31.092  1.00  0.00     0.010 A 
ATOM     41  C   UNL A   1      40.577  29.581  29.706  1.00  0.00    -0.014 A 
BRANCH  41  42
ATOM     42  C   UNL A   1      41.888  29.198  29.112  1.00  0.00     0.031 A 
ATOM     43  C   UNL A   1      42.997  30.210  28.987  1.00  0.00     0.074 A 
ATOM     44  C   UNL A   1      42.084  27.938  28.675  1.00  0.00     0.049 A 
ATOM     45  N   UNL A   1      44.211  30.052  28.522  1.00  0.00    -0.248 NA
ATOM     46  C   UNL A   1      42.697  31.582  29.424  1.00  0.00     0.031 C 
ATOM     47  C   UNL A   1      41.081  26.872  28.694  1.00  0.00     0.029 A 
ATOM     48  N   UNL A   1      43.193  27.339  28.128  1.00  0.00    -0.354 N 
ATOM     49  C   UNL A   1      44.818  31.300  28.610  1.00  0.00     0.074 A 
ATOM     50  C   UNL A   1      43.821  32.216  29.122  1.00  0.00     0.031 C 
ATOM     51  C   UNL A   1      41.626  25.747  28.204  1.00  0.00     0.029 A 
ATOM     52  C   UNL A   1      43.008  26.013  27.813  1.00  0.00     0.049 A 
ATOM     53  H   UNL A   1      44.041  27.815  27.977  1.00  0.00     0.167 HD
ATOM     54  C   UNL A   1      46.095  31.647  28.317  1.00  0.00     0.037 A 
ATOM     55  C   UNL A   1      43.852  25.112  27.273  1.00  0.00     0.037 A 
ATOM     56  C   UNL A   1      47.093  30.733  27.821  1.00  0.00     0.049 A 
ATOM     57  C   UNL A   1      45.267  25.519  26.958  1.00  0.00     0.074 A 
ATOM     58  C   UNL A   1      48.425  30.984  27.541  1.00  0.00     0.029 A 
ATOM     59  N   UNL A   1      46.869  29.397  27.528  1.00  0.00    -0.354 N 
ATOM     60  N   UNL A   1      45.843  26.686  27.116  1.00  0.00    -0.248 NA
ATOM     61  C   UNL A   1      46.150  24.483  26.404  1.00  0.00     0.031 C 
ATOM     62  C   UNL A   1      48.997  29.807  27.043  1.00  0.00     0.029 A 
ATOM     63  C   UNL A   1      48.034  28.813  27.055  1.00  0.00     0.049 A 
ATOM     64  H   UNL A   1      46.009  28.930  27.640  1.00  0.00     0.167 HD
ATOM     65  C   UNL A   1      47.161  26.520  26.703  1.00  0.00     0.074 A 
ATOM     66  C   UNL A   1      47.301  25.135  26.302  1.00  0.00     0.031 C 
ATOM     67  C   UNL A   1      48.164  27.431  26.661  1.00  0.00     0.037 A 
BRANCH  54  68
ATOM     68  C   UNL A   1      46.489  33.083  28.531  1.00  0.00     0.058 A 
ATOM     69  C   UNL A   1      47.040  33.520  29.747  1.00  0.00     0.135 A 
ATOM     70  C   UNL A   1      46.342  34.029  27.503  1.00  0.00     0.135 A 
ATOM     71  F   UNL A   1      47.191  32.660  30.767  1.00  0.00    -0.206 F 
ATOM     72  C   UNL A   1      47.396  34.849  29.950  1.00  0.00     0.059 A 
ATOM     73  C   UNL A   1      46.718  35.358  27.674  1.00  0.00     0.059 A 
ATOM     74  F   UNL A   1      45.825  33.666  26.319  1.00  0.00    -0.206 F 
ATOM     75  C   UNL A   1      47.228  35.763  28.908  1.00  0.00     0.060 A 
BRANCH  75  76
ATOM     76  S   UNL A   1      47.684  37.486  29.190  1.00  0.00     0.124 S 
ATOM     77  O   UNL A   1      49.137  37.387  29.292  1.00  0.00    -0.237 OA
ATOM     78  O   UNL A   1      47.177  38.145  27.992  1.00  0.00    -0.237 OA
ATOM     79  O   UNL A   1      46.991  37.824  30.430  1.00  0.00    -0.744 OA
ENDBRANCH  75  76
ENDBRANCH  54  68
BRANCH  55  80
ATOM     80  C   UNL A   1      43.388  23.722  27.020  1.00  0.00     0.058 A 
ATOM     81  C   UNL A   1      43.166  22.828  28.078  1.00  0.00     0.135 A 
ATOM     82  C   UNL A   1      43.149  23.261  25.716  1.00  0.00     0.135 A 
ATOM     83  F   UNL A   1      43.388  23.219  29.343  1.00  0.00    -0.206 F 
ATOM     84  C   UNL A   1      42.736  21.524  27.854  1.00  0.00     0.059 A 
ATOM     85  C   UNL A   1      42.697  21.970  25.467  1.00  0.00     0.059 A 
ATOM     86  F   UNL A   1      43.335  24.082  24.670  1.00  0.00    -0.206 F 
ATOM     87  C   UNL A   1      42.502  21.105  26.544  1.00  0.00     0.060 A 
BRANCH  87  88
ATOM     88  S   UNL A   1      41.893  19.427  26.266  1.00  0.00     0.124 S 
ATOM     89  O   UNL A   1      42.337  18.749  27.478  1.00  0.00    -0.237 OA
ATOM     90  O   UNL A   1      40.454  19.639  26.144  1.00  0.00    -0.237 OA
ATOM     91  O   UNL A   1      42.566  19.026  25.034  1.00  0.00    -0.744 OA
ENDBRANCH  87  88
ENDBRANCH  55  80
BRANCH  67  92
ATOM     92  C   UNL A   1      49.512  26.960  26.192  1.00  0.00     0.058 A 
ATOM     93  C   UNL A   1      49.896  27.045  24.845  1.00  0.00     0.135 A 
ATOM     94  C   UNL A   1      50.451  26.459  27.109  1.00  0.00     0.135 A 
ATOM     95  F   UNL A   1      49.036  27.511  23.926  1.00  0.00    -0.206 F 
ATOM     96  C   UNL A   1      51.155  26.631  24.419  1.00  0.00     0.059 A 
ATOM     97  C   UNL A   1      51.724  26.062  26.710  1.00  0.00     0.059 A 
ATOM     98  F   UNL A   1      50.139  26.365  28.412  1.00  0.00    -0.206 F 
ATOM     99  C   UNL A   1      52.062  26.141  25.360  1.00  0.00     0.060 A 
BRANCH  99 100
ATOM    100  S   UNL A   1      53.704  25.634  24.802  1.00  0.00     0.124 S 
ATOM    101  O   UNL A   1      53.605  24.180  24.880  1.00  0.00    -0.237 OA
ATOM    102  O   UNL A   1      53.764  26.194  23.455  1.00  0.00    -0.237 OA
ATOM    103  O   UNL A   1      54.600  26.256  25.773  1.00  0.00    -0.744 OA
ENDBRANCH  99 100
ENDBRANCH  67  92
ENDBRANCH  41  42
ENDBRANCH  33  36
ENDBRANCH  31  32
ENDBRANCH  30  31
ENDBRANCH   1  30
TORSDOF 18
ENDMDL
