MODEL 1
REMARK VINA RESULT:     -11.9      0.000      0.000
REMARK SMILES Cc1cc(Br)cc2c1O[C@H](C(F)(F)F)C(C(=O)NCCCNC(=O)c1ccc(-c3c4nc(c(-c5c(F)cc(S(=O)(=O)[O-])cc5F)c5ccc([nH]5)c(-c5c(F)cc(S(=O)(=O)[O-])cc5F)c5nc(c(-c6c(F)cc(S(=O)(=O)[O-])cc6F)c6ccc3[nH]6)C=C5)C=C4)cc1)=C2
REMARK SMILES IDX 21 1 20 2 19 3 18 4 16 5 17 6 15 8 1 9 2 10 3 11 8 12 4 13
REMARK SMILES IDX 7 14 9 15 5 16 6 17 91 18 10 19 11 20 12 21 13 22 14 23
REMARK SMILES IDX 22 24 23 25 24 27 25 28 26 29 90 30 27 31 89 32 28 33 29 34
REMARK SMILES IDX 30 35 83 36 31 37 88 38 82 39 84 40 32 41 87 42 81 43 80 44
REMARK SMILES IDX 33 46 67 47 46 48 66 49 47 50 50 51 65 52 85 53 48 54 49 55
REMARK SMILES IDX 64 57 86 58 51 59 34 60 35 61 44 62 36 63 37 64 43 65 45 66
REMARK SMILES IDX 38 67 39 68 40 69 41 70 42 71 68 72 69 73 78 74 70 75 71 76
REMARK SMILES IDX 77 77 79 78 72 79 73 80 74 81 75 82 76 83 52 84 53 85 62 86
REMARK SMILES IDX 54 87 55 88 61 89 63 90 56 91 57 92 58 93 59 94 60 95
REMARK H PARENT 18 7 22 26 84 45 50 56
REMARK Flexibility Score: inf
ROOT
ATOM      1  C   UNL A   1      33.677  28.229  26.907  1.00  0.00     0.118 C 
ENDROOT
BRANCH   1   2
ATOM      2  C   UNL A   1      33.982  28.067  25.424  1.00  0.00     0.042 C 
BRANCH   2   3
ATOM      3  C   UNL A   1      32.813  27.462  24.663  1.00  0.00     0.118 C 
BRANCH   3   4
ATOM      4  N   UNL A   1      31.852  26.824  25.551  1.00  0.00    -0.352 N 
ATOM      5  C   UNL A   1      31.632  25.586  26.050  1.00  0.00     0.251 C 
ATOM      6  O   UNL A   1      30.676  25.489  26.825  1.00  0.00    -0.270 OA
ATOM      7  H   UNL A   1      31.181  27.467  25.877  1.00  0.00     0.163 HD
BRANCH   5   8
ATOM      8  C   UNL A   1      32.450  24.380  25.733  1.00  0.00     0.067 C 
ATOM      9  C   UNL A   1      34.128  19.653  24.715  1.00  0.00     0.048 C 
ATOM     10  C   UNL A   1      34.782  20.935  25.145  1.00  0.00    -0.007 A 
ATOM     11  C   UNL A   1      36.169  21.014  25.308  1.00  0.00     0.023 A 
ATOM     12  C   UNL A   1      34.010  22.077  25.392  1.00  0.00     0.130 A 
ATOM     13  C   UNL A   1      36.758  22.212  25.716  1.00  0.00     0.019 A 
ATOM     14  C   UNL A   1      34.595  23.278  25.809  1.00  0.00     0.019 A 
ATOM     15  O   UNL A   1      32.656  21.948  25.251  1.00  0.00    -0.475 OA
ATOM     16  Br  UNL A   1      38.635  22.300  25.936  1.00  0.00    -0.051 Br
ATOM     17  C   UNL A   1      35.981  23.342  25.973  1.00  0.00     0.027 A 
ATOM     18  C   UNL A   1      33.743  24.424  26.105  1.00  0.00     0.025 C 
ATOM     19  C   UNL A   1      31.917  23.173  25.016  1.00  0.00     0.314 C 
BRANCH  19  20
ATOM     20  C   UNL A   1      31.776  23.405  23.498  1.00  0.00     0.429 C 
ATOM     21  F   UNL A   1      32.035  22.263  22.816  1.00  0.00    -0.167 F 
ATOM     22  F   UNL A   1      30.527  23.790  23.142  1.00  0.00    -0.167 F 
ATOM     23  F   UNL A   1      32.620  24.355  23.033  1.00  0.00    -0.167 F 
ENDBRANCH  19  20
ENDBRANCH   5   8
ENDBRANCH   3   4
ENDBRANCH   2   3
ENDBRANCH   1   2
BRANCH   1  24
ATOM     24  N   UNL A   1      33.560  29.636  27.283  1.00  0.00    -0.352 N 
ATOM     25  C   UNL A   1      34.410  30.430  28.010  1.00  0.00     0.251 C 
ATOM     26  H   UNL A   1      32.744  30.085  26.965  1.00  0.00     0.163 HD
ATOM     27  O   UNL A   1      34.001  31.495  28.470  1.00  0.00    -0.269 OA
BRANCH  25  28
ATOM     28  C   UNL A   1      35.804  30.007  28.234  1.00  0.00     0.039 A 
ATOM     29  C   UNL A   1      36.732  30.113  27.196  1.00  0.00     0.014 A 
ATOM     30  C   UNL A   1      36.187  29.479  29.469  1.00  0.00     0.014 A 
ATOM     31  C   UNL A   1      38.059  29.745  27.421  1.00  0.00     0.010 A 
ATOM     32  C   UNL A   1      37.525  29.213  29.723  1.00  0.00     0.010 A 
ATOM     33  C   UNL A   1      38.471  29.325  28.696  1.00  0.00    -0.014 A 
BRANCH  33  34
ATOM     34  C   UNL A   1      39.879  28.958  28.975  1.00  0.00     0.031 A 
ATOM     35  C   UNL A   1      40.806  29.975  29.584  1.00  0.00     0.074 A 
ATOM     36  C   UNL A   1      40.332  27.739  28.623  1.00  0.00     0.049 A 
ATOM     37  N   UNL A   1      42.085  29.878  29.837  1.00  0.00    -0.248 NA
ATOM     38  C   UNL A   1      40.227  31.286  29.925  1.00  0.00     0.031 C 
ATOM     39  C   UNL A   1      39.532  26.692  27.982  1.00  0.00     0.029 A 
ATOM     40  N   UNL A   1      41.576  27.175  28.749  1.00  0.00    -0.354 N 
ATOM     41  C   UNL A   1      42.461  31.112  30.353  1.00  0.00     0.074 A 
ATOM     42  C   UNL A   1      41.295  31.965  30.314  1.00  0.00     0.031 C 
ATOM     43  C   UNL A   1      40.296  25.603  27.805  1.00  0.00     0.029 A 
ATOM     44  C   UNL A   1      41.647  25.886  28.279  1.00  0.00     0.049 A 
ATOM     45  H   UNL A   1      42.345  27.650  29.140  1.00  0.00     0.167 HD
ATOM     46  C   UNL A   1      43.663  31.488  30.848  1.00  0.00     0.037 A 
ATOM     47  C   UNL A   1      42.686  25.031  28.234  1.00  0.00     0.037 A 
ATOM     48  C   UNL A   1      44.808  30.619  30.910  1.00  0.00     0.049 A 
ATOM     49  C   UNL A   1      44.017  25.474  28.780  1.00  0.00     0.074 A 
ATOM     50  C   UNL A   1      46.057  30.882  31.441  1.00  0.00     0.029 A 
ATOM     51  N   UNL A   1      44.840  29.319  30.428  1.00  0.00    -0.354 N 
ATOM     52  N   UNL A   1      44.342  26.627  29.317  1.00  0.00    -0.248 NA
ATOM     53  C   UNL A   1      45.119  24.506  28.717  1.00  0.00     0.031 C 
ATOM     54  C   UNL A   1      46.861  29.755  31.237  1.00  0.00     0.029 A 
ATOM     55  C   UNL A   1      46.097  28.772  30.626  1.00  0.00     0.049 A 
ATOM     56  H   UNL A   1      44.082  28.853  30.006  1.00  0.00     0.167 HD
ATOM     57  C   UNL A   1      45.681  26.516  29.673  1.00  0.00     0.074 A 
ATOM     58  C   UNL A   1      46.100  25.178  29.305  1.00  0.00     0.031 C 
ATOM     59  C   UNL A   1      46.492  27.437  30.251  1.00  0.00     0.037 A 
BRANCH  46  60
ATOM     60  C   UNL A   1      43.795  32.891  31.374  1.00  0.00     0.058 A 
ATOM     61  C   UNL A   1      44.209  33.949  30.548  1.00  0.00     0.135 A 
ATOM     62  C   UNL A   1      43.466  33.191  32.705  1.00  0.00     0.135 A 
ATOM     63  F   UNL A   1      44.555  33.716  29.272  1.00  0.00    -0.206 F 
ATOM     64  C   UNL A   1      44.317  35.249  31.030  1.00  0.00     0.059 A 
ATOM     65  C   UNL A   1      43.537  34.491  33.200  1.00  0.00     0.059 A 
ATOM     66  F   UNL A   1      43.068  32.218  33.539  1.00  0.00    -0.206 F 
ATOM     67  C   UNL A   1      43.976  35.510  32.358  1.00  0.00     0.060 A 
BRANCH  67  68
ATOM     68  S   UNL A   1      44.109  37.207  32.959  1.00  0.00     0.124 S 
ATOM     69  O   UNL A   1      42.979  37.279  33.881  1.00  0.00    -0.237 OA
ATOM     70  O   UNL A   1      45.430  37.215  33.575  1.00  0.00    -0.237 OA
ATOM     71  O   UNL A   1      43.978  38.009  31.747  1.00  0.00    -0.744 OA
ENDBRANCH  67  68
ENDBRANCH  46  60
BRANCH  47  72
ATOM     72  C   UNL A   1      42.493  23.661  27.687  1.00  0.00     0.058 A 
ATOM     73  C   UNL A   1      42.556  23.423  26.307  1.00  0.00     0.135 A 
ATOM     74  C   UNL A   1      42.287  22.558  28.531  1.00  0.00     0.135 A 
ATOM     75  F   UNL A   1      42.745  24.446  25.459  1.00  0.00    -0.206 F 
ATOM     76  C   UNL A   1      42.418  22.143  25.779  1.00  0.00     0.059 A 
ATOM     77  C   UNL A   1      42.172  21.264  28.030  1.00  0.00     0.059 A 
ATOM     78  F   UNL A   1      42.237  22.728  29.861  1.00  0.00    -0.206 F 
ATOM     79  C   UNL A   1      42.235  21.068  26.651  1.00  0.00     0.060 A 
BRANCH  79  80
ATOM     80  S   UNL A   1      42.128  19.404  25.957  1.00  0.00     0.124 S 
ATOM     81  O   UNL A   1      42.624  18.592  27.061  1.00  0.00    -0.237 OA
ATOM     82  O   UNL A   1      40.702  19.287  25.668  1.00  0.00    -0.237 OA
ATOM     83  O   UNL A   1      42.995  19.472  24.785  1.00  0.00    -0.744 OA
ENDBRANCH  79  80
ENDBRANCH  47  72
BRANCH  59  84
ATOM     84  C   UNL A   1      47.912  27.035  30.533  1.00  0.00     0.058 A 
ATOM     85  C   UNL A   1      48.924  27.202  29.577  1.00  0.00     0.135 A 
ATOM     86  C   UNL A   1      48.277  26.557  31.803  1.00  0.00     0.135 A 
ATOM     87  F   UNL A   1      48.626  27.651  28.347  1.00  0.00    -0.206 F 
ATOM     88  C   UNL A   1      50.250  26.897  29.864  1.00  0.00     0.059 A 
ATOM     89  C   UNL A   1      49.602  26.273  32.121  1.00  0.00     0.059 A 
ATOM     90  F   UNL A   1      47.347  26.389  32.756  1.00  0.00    -0.206 F 
ATOM     91  C   UNL A   1      50.580  26.441  31.142  1.00  0.00     0.060 A 
BRANCH  91  92
ATOM     92  S   UNL A   1      52.313  26.099  31.514  1.00  0.00     0.124 S 
ATOM     93  O   UNL A   1      52.253  24.704  31.939  1.00  0.00    -0.237 OA
ATOM     94  O   UNL A   1      52.958  26.342  30.227  1.00  0.00    -0.237 OA
ATOM     95  O   UNL A   1      52.634  27.062  32.563  1.00  0.00    -0.744 OA
ENDBRANCH  91  92
ENDBRANCH  59  84
ENDBRANCH  33  34
ENDBRANCH  25  28
ENDBRANCH   1  24
TORSDOF 14
ENDMDL
MODEL 2
REMARK VINA RESULT:     -11.8      4.775     10.264
REMARK SMILES Cc1cc(Br)cc2c1O[C@H](C(F)(F)F)C(C(=O)NCCCNC(=O)c1ccc(-c3c4nc(c(-c5c(F)cc(S(=O)(=O)[O-])cc5F)c5ccc([nH]5)c(-c5c(F)cc(S(=O)(=O)[O-])cc5F)c5nc(c(-c6c(F)cc(S(=O)(=O)[O-])cc6F)c6ccc3[nH]6)C=C5)C=C4)cc1)=C2
REMARK SMILES IDX 21 1 20 2 19 3 18 4 16 5 17 6 15 8 1 9 2 10 3 11 8 12 4 13
REMARK SMILES IDX 7 14 9 15 5 16 6 17 91 18 10 19 11 20 12 21 13 22 14 23
REMARK SMILES IDX 22 24 23 25 24 27 25 28 26 29 90 30 27 31 89 32 28 33 29 34
REMARK SMILES IDX 30 35 83 36 31 37 88 38 82 39 84 40 32 41 87 42 81 43 80 44
REMARK SMILES IDX 33 46 67 47 46 48 66 49 47 50 50 51 65 52 85 53 48 54 49 55
REMARK SMILES IDX 64 57 86 58 51 59 34 60 35 61 44 62 36 63 37 64 43 65 45 66
REMARK SMILES IDX 38 67 39 68 40 69 41 70 42 71 68 72 69 73 78 74 70 75 71 76
REMARK SMILES IDX 77 77 79 78 72 79 73 80 74 81 75 82 76 83 52 84 53 85 62 86
REMARK SMILES IDX 54 87 55 88 61 89 63 90 56 91 57 92 58 93 59 94 60 95
REMARK H PARENT 18 7 22 26 84 45 50 56
REMARK Flexibility Score: inf
ROOT
ATOM      1  C   UNL A   1      40.438  23.065  27.131  1.00  0.00     0.118 C 
ENDROOT
BRANCH   1   2
ATOM      2  C   UNL A   1      39.233  22.427  26.453  1.00  0.00     0.042 C 
BRANCH   2   3
ATOM      3  C   UNL A   1      38.188  23.458  26.057  1.00  0.00     0.118 C 
BRANCH   3   4
ATOM      4  N   UNL A   1      37.686  23.241  24.709  1.00  0.00    -0.352 N 
ATOM      5  C   UNL A   1      36.494  23.301  24.072  1.00  0.00     0.251 C 
ATOM      6  O   UNL A   1      36.526  23.054  22.863  1.00  0.00    -0.270 OA
ATOM      7  H   UNL A   1      38.409  22.979  24.093  1.00  0.00     0.163 HD
BRANCH   5   8
ATOM      8  C   UNL A   1      35.196  23.641  24.721  1.00  0.00     0.067 C 
ATOM      9  C   UNL A   1      30.382  23.686  26.458  1.00  0.00     0.048 C 
ATOM     10  C   UNL A   1      31.450  24.728  26.282  1.00  0.00    -0.007 A 
ATOM     11  C   UNL A   1      31.232  26.053  26.675  1.00  0.00     0.023 A 
ATOM     12  C   UNL A   1      32.685  24.388  25.716  1.00  0.00     0.130 A 
ATOM     13  C   UNL A   1      32.233  27.009  26.494  1.00  0.00     0.019 A 
ATOM     14  C   UNL A   1      33.688  25.345  25.527  1.00  0.00     0.019 A 
ATOM     15  O   UNL A   1      32.844  23.090  25.318  1.00  0.00    -0.475 OA
ATOM     16  Br  UNL A   1      31.921  28.797  27.027  1.00  0.00    -0.051 Br
ATOM     17  C   UNL A   1      33.457  26.665  25.918  1.00  0.00     0.027 A 
ATOM     18  C   UNL A   1      34.938  24.952  24.885  1.00  0.00     0.025 C 
ATOM     19  C   UNL A   1      34.210  22.618  25.207  1.00  0.00     0.314 C 
BRANCH  19  20
ATOM     20  C   UNL A   1      34.641  21.973  26.540  1.00  0.00     0.429 C 
ATOM     21  F   UNL A   1      33.666  21.159  27.012  1.00  0.00    -0.167 F 
ATOM     22  F   UNL A   1      35.753  21.208  26.414  1.00  0.00    -0.167 F 
ATOM     23  F   UNL A   1      34.908  22.886  27.501  1.00  0.00    -0.167 F 
ENDBRANCH  19  20
ENDBRANCH   5   8
ENDBRANCH   3   4
ENDBRANCH   2   3
ENDBRANCH   1   2
BRANCH   1  24
ATOM     24  N   UNL A   1      41.330  23.698  26.162  1.00  0.00    -0.352 N 
ATOM     25  C   UNL A   1      41.686  25.015  26.019  1.00  0.00     0.251 C 
ATOM     26  H   UNL A   1      41.739  23.084  25.511  1.00  0.00     0.163 HD
ATOM     27  O   UNL A   1      42.208  25.391  24.970  1.00  0.00    -0.269 OA
BRANCH  25  28
ATOM     28  C   UNL A   1      41.445  25.968  27.118  1.00  0.00     0.039 A 
ATOM     29  C   UNL A   1      40.431  25.712  28.042  1.00  0.00     0.014 A 
ATOM     30  C   UNL A   1      42.211  27.132  27.216  1.00  0.00     0.014 A 
ATOM     31  C   UNL A   1      40.227  26.598  29.102  1.00  0.00     0.010 A 
ATOM     32  C   UNL A   1      42.079  27.954  28.326  1.00  0.00     0.010 A 
ATOM     33  C   UNL A   1      41.073  27.707  29.269  1.00  0.00    -0.014 A 
BRANCH  33  34
ATOM     34  C   UNL A   1      40.904  28.647  30.401  1.00  0.00     0.031 A 
ATOM     35  C   UNL A   1      41.792  28.523  31.610  1.00  0.00     0.074 A 
ATOM     36  C   UNL A   1      39.916  29.563  30.364  1.00  0.00     0.049 A 
ATOM     37  N   UNL A   1      41.757  29.197  32.730  1.00  0.00    -0.248 NA
ATOM     38  C   UNL A   1      42.836  27.485  31.567  1.00  0.00     0.031 C 
ATOM     39  C   UNL A   1      38.967  29.740  29.263  1.00  0.00     0.029 A 
ATOM     40  N   UNL A   1      39.544  30.515  31.278  1.00  0.00    -0.354 N 
ATOM     41  C   UNL A   1      42.762  28.657  33.524  1.00  0.00     0.074 A 
ATOM     42  C   UNL A   1      43.343  27.557  32.789  1.00  0.00     0.031 C 
ATOM     43  C   UNL A   1      38.145  30.761  29.551  1.00  0.00     0.029 A 
ATOM     44  C   UNL A   1      38.480  31.284  30.871  1.00  0.00     0.049 A 
ATOM     45  H   UNL A   1      39.995  30.636  32.145  1.00  0.00     0.167 HD
ATOM     46  C   UNL A   1      43.185  29.065  34.743  1.00  0.00     0.037 A 
ATOM     47  C   UNL A   1      37.846  32.295  31.495  1.00  0.00     0.037 A 
ATOM     48  C   UNL A   1      42.619  30.182  35.451  1.00  0.00     0.049 A 
ATOM     49  C   UNL A   1      38.326  32.725  32.854  1.00  0.00     0.074 A 
ATOM     50  C   UNL A   1      43.007  30.714  36.666  1.00  0.00     0.029 A 
ATOM     51  N   UNL A   1      41.545  30.939  35.004  1.00  0.00    -0.354 N 
ATOM     52  N   UNL A   1      39.316  32.241  33.568  1.00  0.00    -0.248 NA
ATOM     53  C   UNL A   1      37.610  33.837  33.493  1.00  0.00     0.031 C 
ATOM     54  C   UNL A   1      42.137  31.764  36.978  1.00  0.00     0.029 A 
ATOM     55  C   UNL A   1      41.240  31.920  35.933  1.00  0.00     0.049 A 
ATOM     56  H   UNL A   1      41.069  30.799  34.153  1.00  0.00     0.167 HD
ATOM     57  C   UNL A   1      39.352  33.001  34.732  1.00  0.00     0.074 A 
ATOM     58  C   UNL A   1      38.296  33.987  34.618  1.00  0.00     0.031 C 
ATOM     59  C   UNL A   1      40.183  32.892  35.798  1.00  0.00     0.037 A 
BRANCH  46  60
ATOM     60  C   UNL A   1      44.322  28.312  35.377  1.00  0.00     0.058 A 
ATOM     61  C   UNL A   1      45.659  28.689  35.168  1.00  0.00     0.135 A 
ATOM     62  C   UNL A   1      44.074  27.229  36.234  1.00  0.00     0.135 A 
ATOM     63  F   UNL A   1      45.955  29.705  34.343  1.00  0.00    -0.206 F 
ATOM     64  C   UNL A   1      46.711  28.002  35.766  1.00  0.00     0.059 A 
ATOM     65  C   UNL A   1      45.110  26.546  36.868  1.00  0.00     0.059 A 
ATOM     66  F   UNL A   1      42.816  26.823  36.466  1.00  0.00    -0.206 F 
ATOM     67  C   UNL A   1      46.425  26.933  36.617  1.00  0.00     0.060 A 
BRANCH  67  68
ATOM     68  S   UNL A   1      47.803  26.065  37.395  1.00  0.00     0.124 S 
ATOM     69  O   UNL A   1      48.631  25.738  36.237  1.00  0.00    -0.237 OA
ATOM     70  O   UNL A   1      48.342  27.081  38.292  1.00  0.00    -0.237 OA
ATOM     71  O   UNL A   1      47.165  24.928  38.049  1.00  0.00    -0.744 OA
ENDBRANCH  67  68
ENDBRANCH  46  60
BRANCH  47  72
ATOM     72  C   UNL A   1      36.718  32.989  30.818  1.00  0.00     0.058 A 
ATOM     73  C   UNL A   1      35.395  32.790  31.239  1.00  0.00     0.135 A 
ATOM     74  C   UNL A   1      36.940  33.897  29.771  1.00  0.00     0.135 A 
ATOM     75  F   UNL A   1      35.132  31.927  32.233  1.00  0.00    -0.206 F 
ATOM     76  C   UNL A   1      34.331  33.461  30.645  1.00  0.00     0.059 A 
ATOM     77  C   UNL A   1      35.894  34.600  29.177  1.00  0.00     0.059 A 
ATOM     78  F   UNL A   1      38.188  34.138  29.341  1.00  0.00    -0.206 F 
ATOM     79  C   UNL A   1      34.592  34.371  29.620  1.00  0.00     0.060 A 
BRANCH  79  80
ATOM     80  S   UNL A   1      33.208  35.287  28.906  1.00  0.00     0.124 S 
ATOM     81  O   UNL A   1      32.433  35.622  30.094  1.00  0.00    -0.237 OA
ATOM     82  O   UNL A   1      33.888  36.400  28.251  1.00  0.00    -0.237 OA
ATOM     83  O   UNL A   1      32.593  34.318  28.004  1.00  0.00    -0.744 OA
ENDBRANCH  79  80
ENDBRANCH  47  72
BRANCH  59  84
ATOM     84  C   UNL A   1      39.997  33.866  36.927  1.00  0.00     0.058 A 
ATOM     85  C   UNL A   1      40.602  35.132  36.910  1.00  0.00     0.135 A 
ATOM     86  C   UNL A   1      39.137  33.561  37.995  1.00  0.00     0.135 A 
ATOM     87  F   UNL A   1      41.437  35.469  35.914  1.00  0.00    -0.206 F 
ATOM     88  C   UNL A   1      40.372  36.058  37.920  1.00  0.00     0.059 A 
ATOM     89  C   UNL A   1      38.869  34.485  39.001  1.00  0.00     0.059 A 
ATOM     90  F   UNL A   1      38.525  32.368  38.052  1.00  0.00    -0.206 F 
ATOM     91  C   UNL A   1      39.497  35.729  38.958  1.00  0.00     0.060 A 
BRANCH  91  92
ATOM     92  S   UNL A   1      39.169  36.963  40.233  1.00  0.00     0.124 S 
ATOM     93  O   UNL A   1      38.531  38.023  39.459  1.00  0.00    -0.237 OA
ATOM     94  O   UNL A   1      38.298  36.235  41.151  1.00  0.00    -0.237 OA
ATOM     95  O   UNL A   1      40.496  37.278  40.753  1.00  0.00    -0.744 OA
ENDBRANCH  91  92
ENDBRANCH  59  84
ENDBRANCH  33  34
ENDBRANCH  25  28
ENDBRANCH   1  24
TORSDOF 14
ENDMDL
MODEL 3
REMARK VINA RESULT:     -11.8      2.968      3.909
REMARK SMILES Cc1cc(Br)cc2c1O[C@H](C(F)(F)F)C(C(=O)NCCCNC(=O)c1ccc(-c3c4nc(c(-c5c(F)cc(S(=O)(=O)[O-])cc5F)c5ccc([nH]5)c(-c5c(F)cc(S(=O)(=O)[O-])cc5F)c5nc(c(-c6c(F)cc(S(=O)(=O)[O-])cc6F)c6ccc3[nH]6)C=C5)C=C4)cc1)=C2
REMARK SMILES IDX 21 1 20 2 19 3 18 4 16 5 17 6 15 8 1 9 2 10 3 11 8 12 4 13
REMARK SMILES IDX 7 14 9 15 5 16 6 17 91 18 10 19 11 20 12 21 13 22 14 23
REMARK SMILES IDX 22 24 23 25 24 27 25 28 26 29 90 30 27 31 89 32 28 33 29 34
REMARK SMILES IDX 30 35 83 36 31 37 88 38 82 39 84 40 32 41 87 42 81 43 80 44
REMARK SMILES IDX 33 46 67 47 46 48 66 49 47 50 50 51 65 52 85 53 48 54 49 55
REMARK SMILES IDX 64 57 86 58 51 59 34 60 35 61 44 62 36 63 37 64 43 65 45 66
REMARK SMILES IDX 38 67 39 68 40 69 41 70 42 71 68 72 69 73 78 74 70 75 71 76
REMARK SMILES IDX 77 77 79 78 72 79 73 80 74 81 75 82 76 83 52 84 53 85 62 86
REMARK SMILES IDX 54 87 55 88 61 89 63 90 56 91 57 92 58 93 59 94 60 95
REMARK H PARENT 18 7 22 26 84 45 50 56
REMARK Flexibility Score: inf
ROOT
ATOM      1  C   UNL A   1      35.637  31.553  28.211  1.00  0.00     0.118 C 
ENDROOT
BRANCH   1   2
ATOM      2  C   UNL A   1      34.461  30.907  27.491  1.00  0.00     0.042 C 
BRANCH   2   3
ATOM      3  C   UNL A   1      34.452  29.395  27.653  1.00  0.00     0.118 C 
BRANCH   3   4
ATOM      4  N   UNL A   1      33.107  28.872  27.842  1.00  0.00    -0.352 N 
ATOM      5  C   UNL A   1      32.299  27.970  27.237  1.00  0.00     0.251 C 
ATOM      6  O   UNL A   1      31.196  27.809  27.767  1.00  0.00    -0.270 OA
ATOM      7  H   UNL A   1      32.666  29.286  28.619  1.00  0.00     0.163 HD
BRANCH   5   8
ATOM      8  C   UNL A   1      32.654  27.189  26.018  1.00  0.00     0.067 C 
ATOM      9  C   UNL A   1      32.767  24.978  21.404  1.00  0.00     0.048 C 
ATOM     10  C   UNL A   1      33.490  24.750  22.701  1.00  0.00    -0.007 A 
ATOM     11  C   UNL A   1      34.476  23.763  22.810  1.00  0.00     0.023 A 
ATOM     12  C   UNL A   1      33.185  25.524  23.828  1.00  0.00     0.130 A 
ATOM     13  C   UNL A   1      35.130  23.561  24.026  1.00  0.00     0.019 A 
ATOM     14  C   UNL A   1      33.833  25.318  25.051  1.00  0.00     0.019 A 
ATOM     15  O   UNL A   1      32.193  26.454  23.686  1.00  0.00    -0.475 OA
ATOM     16  Br  UNL A   1      36.459  22.220  24.158  1.00  0.00    -0.051 Br
ATOM     17  C   UNL A   1      34.812  24.327  25.148  1.00  0.00     0.027 A 
ATOM     18  C   UNL A   1      33.441  26.114  26.209  1.00  0.00     0.025 C 
ATOM     19  C   UNL A   1      32.208  27.553  24.631  1.00  0.00     0.314 C 
BRANCH  19  20
ATOM     20  C   UNL A   1      33.016  28.727  24.043  1.00  0.00     0.429 C 
ATOM     21  F   UNL A   1      32.688  28.926  22.743  1.00  0.00    -0.167 F 
ATOM     22  F   UNL A   1      32.778  29.898  24.683  1.00  0.00    -0.167 F 
ATOM     23  F   UNL A   1      34.351  28.522  24.097  1.00  0.00    -0.167 F 
ENDBRANCH  19  20
ENDBRANCH   5   8
ENDBRANCH   3   4
ENDBRANCH   2   3
ENDBRANCH   1   2
BRANCH   1  24
ATOM     24  N   UNL A   1      35.550  31.369  29.658  1.00  0.00    -0.352 N 
ATOM     25  C   UNL A   1      36.340  30.634  30.505  1.00  0.00     0.251 C 
ATOM     26  H   UNL A   1      34.808  31.849  30.094  1.00  0.00     0.163 HD
ATOM     27  O   UNL A   1      35.933  30.368  31.635  1.00  0.00    -0.269 OA
BRANCH  25  28
ATOM     28  C   UNL A   1      37.667  30.172  30.060  1.00  0.00     0.039 A 
ATOM     29  C   UNL A   1      37.977  30.174  28.699  1.00  0.00     0.014 A 
ATOM     30  C   UNL A   1      38.597  29.710  30.993  1.00  0.00     0.014 A 
ATOM     31  C   UNL A   1      39.246  29.770  28.282  1.00  0.00     0.010 A 
ATOM     32  C   UNL A   1      39.890  29.409  30.590  1.00  0.00     0.010 A 
ATOM     33  C   UNL A   1      40.222  29.416  29.229  1.00  0.00    -0.014 A 
BRANCH  33  34
ATOM     34  C   UNL A   1      41.587  29.013  28.821  1.00  0.00     0.031 A 
ATOM     35  C   UNL A   1      42.691  30.036  28.804  1.00  0.00     0.074 A 
ATOM     36  C   UNL A   1      41.814  27.750  28.409  1.00  0.00     0.049 A 
ATOM     37  N   UNL A   1      43.931  29.904  28.411  1.00  0.00    -0.248 NA
ATOM     38  C   UNL A   1      42.349  31.394  29.258  1.00  0.00     0.031 C 
ATOM     39  C   UNL A   1      40.806  26.689  28.339  1.00  0.00     0.029 A 
ATOM     40  N   UNL A   1      42.963  27.145  27.967  1.00  0.00    -0.354 N 
ATOM     41  C   UNL A   1      44.509  31.159  28.561  1.00  0.00     0.074 A 
ATOM     42  C   UNL A   1      43.470  32.056  29.013  1.00  0.00     0.031 C 
ATOM     43  C   UNL A   1      41.389  25.557  27.916  1.00  0.00     0.029 A 
ATOM     44  C   UNL A   1      42.799  25.819  27.645  1.00  0.00     0.049 A 
ATOM     45  H   UNL A   1      43.824  27.616  27.888  1.00  0.00     0.167 HD
ATOM     46  C   UNL A   1      45.798  31.522  28.371  1.00  0.00     0.037 A 
ATOM     47  C   UNL A   1      43.686  24.919  27.181  1.00  0.00     0.037 A 
ATOM     48  C   UNL A   1      46.830  30.612  27.950  1.00  0.00     0.049 A 
ATOM     49  C   UNL A   1      45.112  25.348  26.966  1.00  0.00     0.074 A 
ATOM     50  C   UNL A   1      48.179  30.863  27.779  1.00  0.00     0.029 A 
ATOM     51  N   UNL A   1      46.626  29.276  27.637  1.00  0.00    -0.354 N 
ATOM     52  N   UNL A   1      45.656  26.526  27.167  1.00  0.00    -0.248 NA
ATOM     53  C   UNL A   1      46.046  24.330  26.466  1.00  0.00     0.031 C 
ATOM     54  C   UNL A   1      48.783  29.690  27.317  1.00  0.00     0.029 A 
ATOM     55  C   UNL A   1      47.821  28.694  27.250  1.00  0.00     0.049 A 
ATOM     56  H   UNL A   1      45.759  28.810  27.683  1.00  0.00     0.167 HD
ATOM     57  C   UNL A   1      46.999  26.386  26.835  1.00  0.00     0.074 A 
ATOM     58  C   UNL A   1      47.188  25.005  26.438  1.00  0.00     0.031 C 
ATOM     59  C   UNL A   1      47.986  27.316  26.857  1.00  0.00     0.037 A 
BRANCH  46  60
ATOM     60  C   UNL A   1      46.166  32.957  28.632  1.00  0.00     0.058 A 
ATOM     61  C   UNL A   1      46.574  33.390  29.904  1.00  0.00     0.135 A 
ATOM     62  C   UNL A   1      46.151  33.901  27.594  1.00  0.00     0.135 A 
ATOM     63  F   UNL A   1      46.589  32.535  30.938  1.00  0.00    -0.206 F 
ATOM     64  C   UNL A   1      46.929  34.714  30.143  1.00  0.00     0.059 A 
ATOM     65  C   UNL A   1      46.531  35.225  27.803  1.00  0.00     0.059 A 
ATOM     66  F   UNL A   1      45.766  33.543  26.359  1.00  0.00    -0.206 F 
ATOM     67  C   UNL A   1      46.907  35.623  29.085  1.00  0.00     0.060 A 
BRANCH  67  68
ATOM     68  S   UNL A   1      47.386  37.332  29.413  1.00  0.00     0.124 S 
ATOM     69  O   UNL A   1      48.760  37.165  29.878  1.00  0.00    -0.237 OA
ATOM     70  O   UNL A   1      47.231  37.954  28.103  1.00  0.00    -0.237 OA
ATOM     71  O   UNL A   1      46.431  37.765  30.428  1.00  0.00    -0.744 OA
ENDBRANCH  67  68
ENDBRANCH  46  60
BRANCH  47  72
ATOM     72  C   UNL A   1      43.254  23.518  26.928  1.00  0.00     0.058 A 
ATOM     73  C   UNL A   1      43.080  23.045  25.620  1.00  0.00     0.135 A 
ATOM     74  C   UNL A   1      43.050  22.613  27.982  1.00  0.00     0.135 A 
ATOM     75  F   UNL A   1      43.257  23.873  24.579  1.00  0.00    -0.206 F 
ATOM     76  C   UNL A   1      42.716  21.727  25.362  1.00  0.00     0.059 A 
ATOM     77  C   UNL A   1      42.710  21.284  27.750  1.00  0.00     0.059 A 
ATOM     78  F   UNL A   1      43.220  23.011  29.253  1.00  0.00    -0.206 F 
ATOM     79  C   UNL A   1      42.541  20.851  26.435  1.00  0.00     0.060 A 
BRANCH  79  80
ATOM     80  S   UNL A   1      42.137  19.126  26.084  1.00  0.00     0.124 S 
ATOM     81  O   UNL A   1      43.029  18.836  24.968  1.00  0.00    -0.237 OA
ATOM     82  O   UNL A   1      42.462  18.475  27.349  1.00  0.00    -0.237 OA
ATOM     83  O   UNL A   1      40.715  19.173  25.758  1.00  0.00    -0.744 OA
ENDBRANCH  79  80
ENDBRANCH  47  72
BRANCH  59  84
ATOM     84  C   UNL A   1      49.364  26.877  26.450  1.00  0.00     0.058 A 
ATOM     85  C   UNL A   1      50.237  26.265  27.361  1.00  0.00     0.135 A 
ATOM     86  C   UNL A   1      49.782  26.995  25.114  1.00  0.00     0.135 A 
ATOM     87  F   UNL A   1      49.886  26.134  28.650  1.00  0.00    -0.206 F 
ATOM     88  C   UNL A   1      51.484  25.795  26.966  1.00  0.00     0.059 A 
ATOM     89  C   UNL A   1      51.014  26.504  24.690  1.00  0.00     0.059 A 
ATOM     90  F   UNL A   1      48.979  27.563  24.201  1.00  0.00    -0.206 F 
ATOM     91  C   UNL A   1      51.860  25.911  25.626  1.00  0.00     0.060 A 
BRANCH  91  92
ATOM     92  S   UNL A   1      53.461  25.249  25.120  1.00  0.00     0.124 S 
ATOM     93  O   UNL A   1      53.283  23.823  25.375  1.00  0.00    -0.237 OA
ATOM     94  O   UNL A   1      53.526  25.638  23.714  1.00  0.00    -0.237 OA
ATOM     95  O   UNL A   1      54.406  25.931  25.999  1.00  0.00    -0.744 OA
ENDBRANCH  91  92
ENDBRANCH  59  84
ENDBRANCH  33  34
ENDBRANCH  25  28
ENDBRANCH   1  24
TORSDOF 14
ENDMDL
