MODEL 1
REMARK VINA RESULT:     -11.8      0.000      0.000
REMARK SMILES O=C(NCCCNC(=O)c1ccc2nc(Cl)sc2c1)c1ccc(-c2c3nc(c(-c4c(F)cc(S(=O)(=O)[O-])cc4F)c4ccc([nH]4)c(-c4c(F)cc(S(=O)(=O)[O-])cc4F)c4nc(c(-c5c(F)cc(S(=O)(=O)[O-])cc5F)c5ccc2[nH]5)C=C4)C=C3)cc1
REMARK SMILES IDX 1 1 2 2 3 3 20 5 21 6 85 7 22 8 84 9 23 10 24 11 25 12 78 13
REMARK SMILES IDX 26 14 83 15 77 16 79 17 27 18 82 19 76 20 75 21 28 23 62 24
REMARK SMILES IDX 41 25 61 26 42 27 45 28 60 29 80 30 43 31 44 32 59 34 81 35
REMARK SMILES IDX 46 36 29 37 30 38 39 39 31 40 32 41 38 42 40 43 33 44 34 45
REMARK SMILES IDX 35 46 36 47 37 48 63 49 64 50 73 51 65 52 66 53 72 54 74 55
REMARK SMILES IDX 67 56 68 57 69 58 70 59 71 60 47 61 48 62 57 63 49 64 50 65
REMARK SMILES IDX 56 66 58 67 51 68 52 69 53 70 54 71 55 72 4 73 5 74 6 75
REMARK SMILES IDX 7 76 8 77 9 79 10 80 11 81 19 82 12 83 18 84 13 85 17 86
REMARK SMILES IDX 14 87 15 88 16 89
REMARK H PARENT 3 4 79 22 45 33 7 78
REMARK Flexibility Score: inf
ROOT
ATOM      1  O   UNL A   1      40.893  20.730  27.841  1.00  0.00    -0.269 OA
ATOM      2  C   UNL A   1      40.399  21.702  27.268  1.00  0.00     0.251 C 
ATOM      3  N   UNL A   1      39.214  21.507  26.618  1.00  0.00    -0.352 N 
ATOM      4  H   UNL A   1      38.685  20.752  26.964  1.00  0.00     0.163 HD
ENDROOT
BRANCH   2   5
ATOM      5  C   UNL A   1      41.077  23.018  27.362  1.00  0.00     0.039 A 
ATOM      6  C   UNL A   1      40.530  23.955  28.254  1.00  0.00     0.014 A 
ATOM      7  C   UNL A   1      42.078  23.424  26.476  1.00  0.00     0.014 A 
ATOM      8  C   UNL A   1      40.967  25.280  28.259  1.00  0.00     0.010 A 
ATOM      9  C   UNL A   1      42.520  24.753  26.486  1.00  0.00     0.010 A 
ATOM     10  C   UNL A   1      41.966  25.692  27.375  1.00  0.00    -0.014 A 
BRANCH  10  11
ATOM     11  C   UNL A   1      42.402  27.107  27.434  1.00  0.00     0.031 A 
ATOM     12  C   UNL A   1      41.305  28.109  27.340  1.00  0.00     0.074 A 
ATOM     13  C   UNL A   1      43.497  27.480  28.140  1.00  0.00     0.049 A 
ATOM     14  N   UNL A   1      40.525  28.298  28.357  1.00  0.00    -0.248 NA
ATOM     15  C   UNL A   1      40.850  28.782  26.129  1.00  0.00     0.031 C 
ATOM     16  C   UNL A   1      44.076  26.675  29.227  1.00  0.00     0.029 A 
ATOM     17  N   UNL A   1      44.174  28.680  28.216  1.00  0.00    -0.354 N 
ATOM     18  C   UNL A   1      39.472  29.093  27.956  1.00  0.00     0.074 A 
ATOM     19  C   UNL A   1      39.712  29.366  26.556  1.00  0.00     0.031 C 
ATOM     20  C   UNL A   1      44.899  27.454  29.957  1.00  0.00     0.029 A 
ATOM     21  C   UNL A   1      45.028  28.755  29.312  1.00  0.00     0.049 A 
ATOM     22  H   UNL A   1      44.064  29.408  27.562  1.00  0.00     0.167 HD
ATOM     23  C   UNL A   1      38.521  29.484  28.849  1.00  0.00     0.037 A 
ATOM     24  C   UNL A   1      45.438  29.887  29.945  1.00  0.00     0.037 A 
ATOM     25  C   UNL A   1      38.734  29.108  30.237  1.00  0.00     0.049 A 
ATOM     26  C   UNL A   1      44.200  30.273  30.714  1.00  0.00     0.074 A 
ATOM     27  C   UNL A   1      38.001  28.761  31.355  1.00  0.00     0.029 A 
ATOM     28  N   UNL A   1      40.034  29.098  30.659  1.00  0.00    -0.354 N 
ATOM     29  N   UNL A   1      43.791  29.726  31.831  1.00  0.00    -0.248 NA
ATOM     30  C   UNL A   1      43.206  31.140  30.061  1.00  0.00     0.031 C 
ATOM     31  C   UNL A   1      38.914  28.696  32.466  1.00  0.00     0.029 A 
ATOM     32  C   UNL A   1      40.171  29.062  32.013  1.00  0.00     0.049 A 
ATOM     33  H   UNL A   1      40.800  29.117  30.041  1.00  0.00     0.167 HD
ATOM     34  C   UNL A   1      42.423  29.973  31.868  1.00  0.00     0.074 A 
ATOM     35  C   UNL A   1      42.150  30.961  30.846  1.00  0.00     0.031 C 
ATOM     36  C   UNL A   1      41.515  29.193  32.522  1.00  0.00     0.037 A 
BRANCH  23  37
ATOM     37  C   UNL A   1      37.472  30.487  28.545  1.00  0.00     0.058 A 
ATOM     38  C   UNL A   1      37.693  31.812  28.959  1.00  0.00     0.135 A 
ATOM     39  C   UNL A   1      36.206  30.160  28.048  1.00  0.00     0.135 A 
ATOM     40  F   UNL A   1      38.896  32.175  29.435  1.00  0.00    -0.206 F 
ATOM     41  C   UNL A   1      36.687  32.769  28.929  1.00  0.00     0.059 A 
ATOM     42  C   UNL A   1      35.180  31.107  28.000  1.00  0.00     0.059 A 
ATOM     43  F   UNL A   1      35.940  28.906  27.647  1.00  0.00    -0.206 F 
ATOM     44  C   UNL A   1      35.426  32.403  28.463  1.00  0.00     0.060 A 
BRANCH  44  45
ATOM     45  S   UNL A   1      34.113  33.644  28.507  1.00  0.00     0.124 S 
ATOM     46  O   UNL A   1      33.823  33.730  29.935  1.00  0.00    -0.237 OA
ATOM     47  O   UNL A   1      34.777  34.805  27.922  1.00  0.00    -0.237 OA
ATOM     48  O   UNL A   1      33.059  33.053  27.689  1.00  0.00    -0.744 OA
ENDBRANCH  44  45
ENDBRANCH  23  37
BRANCH  24  49
ATOM     49  C   UNL A   1      46.267  30.841  29.139  1.00  0.00     0.058 A 
ATOM     50  C   UNL A   1      47.580  31.127  29.577  1.00  0.00     0.135 A 
ATOM     51  C   UNL A   1      45.854  31.514  27.979  1.00  0.00     0.135 A 
ATOM     52  F   UNL A   1      48.016  30.663  30.762  1.00  0.00    -0.206 F 
ATOM     53  C   UNL A   1      48.478  31.878  28.822  1.00  0.00     0.059 A 
ATOM     54  C   UNL A   1      46.742  32.246  27.187  1.00  0.00     0.059 A 
ATOM     55  F   UNL A   1      44.579  31.473  27.572  1.00  0.00    -0.206 F 
ATOM     56  C   UNL A   1      48.063  32.386  27.597  1.00  0.00     0.060 A 
BRANCH  56  57
ATOM     57  S   UNL A   1      49.288  33.165  26.525  1.00  0.00     0.124 S 
ATOM     58  O   UNL A   1      50.127  32.028  26.148  1.00  0.00    -0.237 OA
ATOM     59  O   UNL A   1      48.445  33.708  25.460  1.00  0.00    -0.237 OA
ATOM     60  O   UNL A   1      49.916  34.153  27.386  1.00  0.00    -0.744 OA
ENDBRANCH  56  57
ENDBRANCH  24  49
BRANCH  36  61
ATOM     61  C   UNL A   1      41.997  28.393  33.672  1.00  0.00     0.058 A 
ATOM     62  C   UNL A   1      41.683  28.810  34.974  1.00  0.00     0.135 A 
ATOM     63  C   UNL A   1      42.668  27.174  33.511  1.00  0.00     0.135 A 
ATOM     64  F   UNL A   1      41.006  29.952  35.178  1.00  0.00    -0.206 F 
ATOM     65  C   UNL A   1      42.002  28.036  36.079  1.00  0.00     0.059 A 
ATOM     66  C   UNL A   1      42.987  26.375  34.607  1.00  0.00     0.059 A 
ATOM     67  F   UNL A   1      43.000  26.730  32.287  1.00  0.00    -0.206 F 
ATOM     68  C   UNL A   1      42.638  26.811  35.886  1.00  0.00     0.060 A 
BRANCH  68  69
ATOM     69  S   UNL A   1      42.916  25.766  37.328  1.00  0.00     0.124 S 
ATOM     70  O   UNL A   1      43.804  24.738  36.796  1.00  0.00    -0.237 OA
ATOM     71  O   UNL A   1      43.524  26.701  38.271  1.00  0.00    -0.237 OA
ATOM     72  O   UNL A   1      41.575  25.311  37.686  1.00  0.00    -0.744 OA
ENDBRANCH  68  69
ENDBRANCH  36  61
ENDBRANCH  10  11
ENDBRANCH   2   5
BRANCH   3  73
ATOM     73  C   UNL A   1      38.590  22.211  25.512  1.00  0.00     0.118 C 
BRANCH  73  74
ATOM     74  C   UNL A   1      37.734  23.380  26.021  1.00  0.00     0.042 C 
BRANCH  74  75
ATOM     75  C   UNL A   1      36.231  23.282  25.731  1.00  0.00     0.118 C 
BRANCH  75  76
ATOM     76  N   UNL A   1      35.523  22.414  26.657  1.00  0.00    -0.352 N 
ATOM     77  C   UNL A   1      34.176  22.214  26.821  1.00  0.00     0.251 C 
ATOM     78  H   UNL A   1      36.100  21.889  27.259  1.00  0.00     0.163 HD
ATOM     79  O   UNL A   1      33.764  21.523  27.750  1.00  0.00    -0.269 OA
BRANCH  77  80
ATOM     80  C   UNL A   1      33.189  22.833  25.908  1.00  0.00     0.041 A 
ATOM     81  C   UNL A   1      32.822  22.222  24.707  1.00  0.00     0.016 A 
ATOM     82  C   UNL A   1      32.561  24.011  26.335  1.00  0.00     0.035 A 
ATOM     83  C   UNL A   1      31.858  22.811  23.880  1.00  0.00     0.031 A 
ATOM     84  C   UNL A   1      31.590  24.587  25.500  1.00  0.00     0.057 A 
ATOM     85  C   UNL A   1      31.231  24.013  24.274  1.00  0.00     0.083 A 
ATOM     86  S   UNL A   1      30.659  26.019  25.739  1.00  0.00    -0.102 S 
ATOM     87  N   UNL A   1      30.264  24.698  23.557  1.00  0.00    -0.225 NA
ATOM     88  C   UNL A   1      29.909  25.754  24.243  1.00  0.00     0.184 A 
ATOM     89  Cl  UNL A   1      28.720  26.856  23.676  1.00  0.00    -0.050 Cl
ENDBRANCH  77  80
ENDBRANCH  75  76
ENDBRANCH  74  75
ENDBRANCH  73  74
ENDBRANCH   3  73
TORSDOF 13
ENDMDL
MODEL 2
REMARK VINA RESULT:     -11.7      1.342      1.929
REMARK SMILES O=C(NCCCNC(=O)c1ccc2nc(Cl)sc2c1)c1ccc(-c2c3nc(c(-c4c(F)cc(S(=O)(=O)[O-])cc4F)c4ccc([nH]4)c(-c4c(F)cc(S(=O)(=O)[O-])cc4F)c4nc(c(-c5c(F)cc(S(=O)(=O)[O-])cc5F)c5ccc2[nH]5)C=C4)C=C3)cc1
REMARK SMILES IDX 1 1 2 2 3 3 20 5 21 6 85 7 22 8 84 9 23 10 24 11 25 12 78 13
REMARK SMILES IDX 26 14 83 15 77 16 79 17 27 18 82 19 76 20 75 21 28 23 62 24
REMARK SMILES IDX 41 25 61 26 42 27 45 28 60 29 80 30 43 31 44 32 59 34 81 35
REMARK SMILES IDX 46 36 29 37 30 38 39 39 31 40 32 41 38 42 40 43 33 44 34 45
REMARK SMILES IDX 35 46 36 47 37 48 63 49 64 50 73 51 65 52 66 53 72 54 74 55
REMARK SMILES IDX 67 56 68 57 69 58 70 59 71 60 47 61 48 62 57 63 49 64 50 65
REMARK SMILES IDX 56 66 58 67 51 68 52 69 53 70 54 71 55 72 4 73 5 74 6 75
REMARK SMILES IDX 7 76 8 77 9 79 10 80 11 81 19 82 12 83 18 84 13 85 17 86
REMARK SMILES IDX 14 87 15 88 16 89
REMARK H PARENT 3 4 79 22 45 33 7 78
REMARK Flexibility Score: inf
ROOT
ATOM      1  O   UNL A   1      42.157  20.876  27.894  1.00  0.00    -0.269 OA
ATOM      2  C   UNL A   1      41.310  21.555  27.311  1.00  0.00     0.251 C 
ATOM      3  N   UNL A   1      40.246  20.893  26.767  1.00  0.00    -0.352 N 
ATOM      4  H   UNL A   1      40.051  20.027  27.193  1.00  0.00     0.163 HD
ENDROOT
BRANCH   2   5
ATOM      5  C   UNL A   1      41.461  23.031  27.283  1.00  0.00     0.039 A 
ATOM      6  C   UNL A   1      42.542  23.548  26.549  1.00  0.00     0.014 A 
ATOM      7  C   UNL A   1      40.720  23.886  28.102  1.00  0.00     0.014 A 
ATOM      8  C   UNL A   1      42.885  24.897  26.635  1.00  0.00     0.010 A 
ATOM      9  C   UNL A   1      41.063  25.242  28.182  1.00  0.00     0.010 A 
ATOM     10  C   UNL A   1      42.150  25.758  27.452  1.00  0.00    -0.014 A 
BRANCH  10  11
ATOM     11  C   UNL A   1      42.551  27.184  27.493  1.00  0.00     0.031 A 
ATOM     12  C   UNL A   1      41.431  28.157  27.381  1.00  0.00     0.074 A 
ATOM     13  C   UNL A   1      43.633  27.592  28.199  1.00  0.00     0.049 A 
ATOM     14  N   UNL A   1      40.642  28.342  28.391  1.00  0.00    -0.248 NA
ATOM     15  C   UNL A   1      40.966  28.803  26.159  1.00  0.00     0.031 C 
ATOM     16  C   UNL A   1      44.226  26.816  29.300  1.00  0.00     0.029 A 
ATOM     17  N   UNL A   1      44.281  28.809  28.261  1.00  0.00    -0.354 N 
ATOM     18  C   UNL A   1      39.572  29.105  27.976  1.00  0.00     0.074 A 
ATOM     19  C   UNL A   1      39.812  29.366  26.572  1.00  0.00     0.031 C 
ATOM     20  C   UNL A   1      45.027  27.624  30.023  1.00  0.00     0.029 A 
ATOM     21  C   UNL A   1      45.129  28.919  29.360  1.00  0.00     0.049 A 
ATOM     22  H   UNL A   1      44.157  29.525  27.597  1.00  0.00     0.167 HD
ATOM     23  C   UNL A   1      38.608  29.487  28.859  1.00  0.00     0.037 A 
ATOM     24  C   UNL A   1      45.508  30.069  29.979  1.00  0.00     0.037 A 
ATOM     25  C   UNL A   1      38.823  29.135  30.253  1.00  0.00     0.049 A 
ATOM     26  C   UNL A   1      44.258  30.436  30.738  1.00  0.00     0.074 A 
ATOM     27  C   UNL A   1      38.093  28.786  31.372  1.00  0.00     0.029 A 
ATOM     28  N   UNL A   1      40.121  29.162  30.680  1.00  0.00    -0.354 N 
ATOM     29  N   UNL A   1      43.856  29.895  31.861  1.00  0.00    -0.248 NA
ATOM     30  C   UNL A   1      43.246  31.270  30.068  1.00  0.00     0.031 C 
ATOM     31  C   UNL A   1      39.002  28.757  32.488  1.00  0.00     0.029 A 
ATOM     32  C   UNL A   1      40.253  29.147  32.036  1.00  0.00     0.049 A 
ATOM     33  H   UNL A   1      40.889  29.190  30.065  1.00  0.00     0.167 HD
ATOM     34  C   UNL A   1      42.483  30.109  31.888  1.00  0.00     0.074 A 
ATOM     35  C   UNL A   1      42.191  31.076  30.851  1.00  0.00     0.031 C 
ATOM     36  C   UNL A   1      41.591  29.317  32.548  1.00  0.00     0.037 A 
BRANCH  23  37
ATOM     37  C   UNL A   1      37.537  30.460  28.536  1.00  0.00     0.058 A 
ATOM     38  C   UNL A   1      37.715  31.791  28.951  1.00  0.00     0.135 A 
ATOM     39  C   UNL A   1      36.289  30.097  28.020  1.00  0.00     0.135 A 
ATOM     40  F   UNL A   1      38.900  32.187  29.445  1.00  0.00    -0.206 F 
ATOM     41  C   UNL A   1      36.684  32.719  28.903  1.00  0.00     0.059 A 
ATOM     42  C   UNL A   1      35.237  31.016  27.954  1.00  0.00     0.059 A 
ATOM     43  F   UNL A   1      36.063  28.836  27.617  1.00  0.00    -0.206 F 
ATOM     44  C   UNL A   1      35.440  32.319  28.418  1.00  0.00     0.060 A 
BRANCH  44  45
ATOM     45  S   UNL A   1      34.094  33.524  28.439  1.00  0.00     0.124 S 
ATOM     46  O   UNL A   1      33.847  33.679  29.869  1.00  0.00    -0.237 OA
ATOM     47  O   UNL A   1      34.704  34.669  27.771  1.00  0.00    -0.237 OA
ATOM     48  O   UNL A   1      33.032  32.859  27.689  1.00  0.00    -0.744 OA
ENDBRANCH  44  45
ENDBRANCH  23  37
BRANCH  24  49
ATOM     49  C   UNL A   1      46.318  31.031  29.164  1.00  0.00     0.058 A 
ATOM     50  C   UNL A   1      47.635  31.326  29.584  1.00  0.00     0.135 A 
ATOM     51  C   UNL A   1      45.883  31.705  28.013  1.00  0.00     0.135 A 
ATOM     52  F   UNL A   1      48.092  30.862  30.760  1.00  0.00    -0.206 F 
ATOM     53  C   UNL A   1      48.516  32.085  28.818  1.00  0.00     0.059 A 
ATOM     54  C   UNL A   1      46.753  32.445  27.209  1.00  0.00     0.059 A 
ATOM     55  F   UNL A   1      44.602  31.656  27.624  1.00  0.00    -0.206 F 
ATOM     56  C   UNL A   1      48.079  32.595  27.600  1.00  0.00     0.060 A 
BRANCH  56  57
ATOM     57  S   UNL A   1      49.283  33.385  26.513  1.00  0.00     0.124 S 
ATOM     58  O   UNL A   1      50.116  32.253  26.108  1.00  0.00    -0.237 OA
ATOM     59  O   UNL A   1      48.418  33.937  25.470  1.00  0.00    -0.237 OA
ATOM     60  O   UNL A   1      49.926  34.366  27.371  1.00  0.00    -0.744 OA
ENDBRANCH  56  57
ENDBRANCH  24  49
BRANCH  36  61
ATOM     61  C   UNL A   1      42.086  28.545  33.711  1.00  0.00     0.058 A 
ATOM     62  C   UNL A   1      42.750  27.328  33.491  1.00  0.00     0.135 A 
ATOM     63  C   UNL A   1      42.015  29.032  35.023  1.00  0.00     0.135 A 
ATOM     64  F   UNL A   1      42.880  26.839  32.247  1.00  0.00    -0.206 F 
ATOM     65  C   UNL A   1      43.342  26.628  34.532  1.00  0.00     0.059 A 
ATOM     66  C   UNL A   1      42.612  28.350  36.080  1.00  0.00     0.059 A 
ATOM     67  F   UNL A   1      41.385  30.188  35.291  1.00  0.00    -0.206 F 
ATOM     68  C   UNL A   1      43.284  27.155  35.821  1.00  0.00     0.060 A 
BRANCH  68  69
ATOM     69  S   UNL A   1      44.178  26.293  37.127  1.00  0.00     0.124 S 
ATOM     70  O   UNL A   1      43.238  26.364  38.241  1.00  0.00    -0.237 OA
ATOM     71  O   UNL A   1      44.370  24.967  36.544  1.00  0.00    -0.237 OA
ATOM     72  O   UNL A   1      45.398  27.080  37.286  1.00  0.00    -0.744 OA
ENDBRANCH  68  69
ENDBRANCH  36  61
ENDBRANCH  10  11
ENDBRANCH   2   5
BRANCH   3  73
ATOM     73  C   UNL A   1      39.349  21.234  25.678  1.00  0.00     0.118 C 
BRANCH  73  74
ATOM     74  C   UNL A   1      38.073  21.904  26.211  1.00  0.00     0.042 C 
BRANCH  74  75
ATOM     75  C   UNL A   1      37.773  23.302  25.656  1.00  0.00     0.118 C 
BRANCH  75  76
ATOM     76  N   UNL A   1      37.332  23.287  24.271  1.00  0.00    -0.352 N 
ATOM     77  C   UNL A   1      36.066  23.369  23.748  1.00  0.00     0.251 C 
ATOM     78  H   UNL A   1      38.054  23.205  23.605  1.00  0.00     0.163 HD
ATOM     79  O   UNL A   1      35.885  23.215  22.543  1.00  0.00    -0.269 OA
BRANCH  77  80
ATOM     80  C   UNL A   1      34.892  23.623  24.613  1.00  0.00     0.041 A 
ATOM     81  C   UNL A   1      34.719  24.843  25.270  1.00  0.00     0.016 A 
ATOM     82  C   UNL A   1      33.906  22.628  24.676  1.00  0.00     0.035 A 
ATOM     83  C   UNL A   1      33.579  25.070  26.051  1.00  0.00     0.031 A 
ATOM     84  C   UNL A   1      32.765  22.872  25.457  1.00  0.00     0.057 A 
ATOM     85  C   UNL A   1      32.586  24.073  26.154  1.00  0.00     0.083 A 
ATOM     86  S   UNL A   1      31.399  21.855  25.737  1.00  0.00    -0.102 S 
ATOM     87  N   UNL A   1      31.413  24.166  26.887  1.00  0.00    -0.225 NA
ATOM     88  C   UNL A   1      30.736  23.059  26.729  1.00  0.00     0.184 A 
ATOM     89  Cl  UNL A   1      29.216  22.800  27.485  1.00  0.00    -0.050 Cl
ENDBRANCH  77  80
ENDBRANCH  75  76
ENDBRANCH  74  75
ENDBRANCH  73  74
ENDBRANCH   3  73
TORSDOF 13
ENDMDL
MODEL 3
REMARK VINA RESULT:     -11.6      5.327     11.271
REMARK SMILES O=C(NCCCNC(=O)c1ccc2nc(Cl)sc2c1)c1ccc(-c2c3nc(c(-c4c(F)cc(S(=O)(=O)[O-])cc4F)c4ccc([nH]4)c(-c4c(F)cc(S(=O)(=O)[O-])cc4F)c4nc(c(-c5c(F)cc(S(=O)(=O)[O-])cc5F)c5ccc2[nH]5)C=C4)C=C3)cc1
REMARK SMILES IDX 1 1 2 2 3 3 20 5 21 6 85 7 22 8 84 9 23 10 24 11 25 12 78 13
REMARK SMILES IDX 26 14 83 15 77 16 79 17 27 18 82 19 76 20 75 21 28 23 62 24
REMARK SMILES IDX 41 25 61 26 42 27 45 28 60 29 80 30 43 31 44 32 59 34 81 35
REMARK SMILES IDX 46 36 29 37 30 38 39 39 31 40 32 41 38 42 40 43 33 44 34 45
REMARK SMILES IDX 35 46 36 47 37 48 63 49 64 50 73 51 65 52 66 53 72 54 74 55
REMARK SMILES IDX 67 56 68 57 69 58 70 59 71 60 47 61 48 62 57 63 49 64 50 65
REMARK SMILES IDX 56 66 58 67 51 68 52 69 53 70 54 71 55 72 4 73 5 74 6 75
REMARK SMILES IDX 7 76 8 77 9 79 10 80 11 81 19 82 12 83 18 84 13 85 17 86
REMARK SMILES IDX 14 87 15 88 16 89
REMARK H PARENT 3 4 79 22 45 33 7 78
REMARK Flexibility Score: inf
ROOT
ATOM      1  O   UNL A   1      41.568  24.431  35.961  1.00  0.00    -0.269 OA
ATOM      2  C   UNL A   1      42.758  24.741  36.035  1.00  0.00     0.251 C 
ATOM      3  N   UNL A   1      43.373  24.572  37.243  1.00  0.00    -0.352 N 
ATOM      4  H   UNL A   1      42.949  23.894  37.818  1.00  0.00     0.163 HD
ENDROOT
BRANCH   2   5
ATOM      5  C   UNL A   1      43.458  25.216  34.817  1.00  0.00     0.039 A 
ATOM      6  C   UNL A   1      43.159  26.516  34.375  1.00  0.00     0.014 A 
ATOM      7  C   UNL A   1      44.218  24.376  34.000  1.00  0.00     0.014 A 
ATOM      8  C   UNL A   1      43.604  26.971  33.134  1.00  0.00     0.010 A 
ATOM      9  C   UNL A   1      44.670  24.837  32.756  1.00  0.00     0.010 A 
ATOM     10  C   UNL A   1      44.364  26.136  32.312  1.00  0.00    -0.014 A 
BRANCH  10  11
ATOM     11  C   UNL A   1      44.822  26.677  31.010  1.00  0.00     0.031 A 
ATOM     12  C   UNL A   1      44.861  25.691  29.897  1.00  0.00     0.074 A 
ATOM     13  C   UNL A   1      44.595  27.967  30.663  1.00  0.00     0.049 A 
ATOM     14  N   UNL A   1      43.753  25.298  29.352  1.00  0.00    -0.248 NA
ATOM     15  C   UNL A   1      46.022  24.923  29.461  1.00  0.00     0.031 C 
ATOM     16  C   UNL A   1      43.547  28.801  31.273  1.00  0.00     0.029 A 
ATOM     17  N   UNL A   1      45.049  28.724  29.603  1.00  0.00    -0.354 N 
ATOM     18  C   UNL A   1      44.029  24.238  28.516  1.00  0.00     0.074 A 
ATOM     19  C   UNL A   1      45.458  24.033  28.619  1.00  0.00     0.031 C 
ATOM     20  C   UNL A   1      43.330  29.874  30.488  1.00  0.00     0.029 A 
ATOM     21  C   UNL A   1      44.313  29.890  29.412  1.00  0.00     0.049 A 
ATOM     22  H   UNL A   1      45.815  28.467  29.040  1.00  0.00     0.167 HD
ATOM     23  C   UNL A   1      43.039  23.661  27.779  1.00  0.00     0.037 A 
ATOM     24  C   UNL A   1      44.160  30.570  28.244  1.00  0.00     0.037 A 
ATOM     25  C   UNL A   1      41.726  24.280  27.850  1.00  0.00     0.049 A 
ATOM     26  C   UNL A   1      43.199  29.681  27.496  1.00  0.00     0.074 A 
ATOM     27  C   UNL A   1      40.393  23.922  27.804  1.00  0.00     0.029 A 
ATOM     28  N   UNL A   1      41.716  25.642  27.969  1.00  0.00    -0.354 N 
ATOM     29  N   UNL A   1      41.906  29.613  27.693  1.00  0.00    -0.248 NA
ATOM     30  C   UNL A   1      43.744  28.601  26.658  1.00  0.00     0.031 C 
ATOM     31  C   UNL A   1      39.622  25.137  27.753  1.00  0.00     0.029 A 
ATOM     32  C   UNL A   1      40.504  26.205  27.709  1.00  0.00     0.049 A 
ATOM     33  H   UNL A   1      42.511  26.166  28.218  1.00  0.00     0.167 HD
ATOM     34  C   UNL A   1      41.541  28.354  27.230  1.00  0.00     0.074 A 
ATOM     35  C   UNL A   1      42.668  27.844  26.477  1.00  0.00     0.031 C 
ATOM     36  C   UNL A   1      40.465  27.648  27.680  1.00  0.00     0.037 A 
BRANCH  23  37
ATOM     37  C   UNL A   1      43.286  22.651  26.721  1.00  0.00     0.058 A 
ATOM     38  C   UNL A   1      42.844  21.337  26.954  1.00  0.00     0.135 A 
ATOM     39  C   UNL A   1      44.092  22.882  25.602  1.00  0.00     0.135 A 
ATOM     40  F   UNL A   1      42.061  21.070  28.012  1.00  0.00    -0.206 F 
ATOM     41  C   UNL A   1      43.225  20.280  26.139  1.00  0.00     0.059 A 
ATOM     42  C   UNL A   1      44.481  21.836  24.761  1.00  0.00     0.059 A 
ATOM     43  F   UNL A   1      44.547  24.118  25.338  1.00  0.00    -0.206 F 
ATOM     44  C   UNL A   1      44.058  20.535  25.051  1.00  0.00     0.060 A 
BRANCH  44  45
ATOM     45  S   UNL A   1      44.602  19.131  24.052  1.00  0.00     0.124 S 
ATOM     46  O   UNL A   1      44.388  19.622  22.695  1.00  0.00    -0.237 OA
ATOM     47  O   UNL A   1      45.995  18.989  24.466  1.00  0.00    -0.237 OA
ATOM     48  O   UNL A   1      43.715  18.051  24.474  1.00  0.00    -0.744 OA
ENDBRANCH  44  45
ENDBRANCH  23  37
BRANCH  24  49
ATOM     49  C   UNL A   1      45.400  31.166  27.649  1.00  0.00     0.058 A 
ATOM     50  C   UNL A   1      45.399  32.544  27.335  1.00  0.00     0.135 A 
ATOM     51  C   UNL A   1      46.582  30.475  27.344  1.00  0.00     0.135 A 
ATOM     52  F   UNL A   1      44.268  33.263  27.437  1.00  0.00    -0.206 F 
ATOM     53  C   UNL A   1      46.544  33.222  26.923  1.00  0.00     0.059 A 
ATOM     54  C   UNL A   1      47.753  31.133  26.960  1.00  0.00     0.059 A 
ATOM     55  F   UNL A   1      46.641  29.139  27.418  1.00  0.00    -0.206 F 
ATOM     56  C   UNL A   1      47.733  32.514  26.793  1.00  0.00     0.060 A 
BRANCH  56  57
ATOM     57  S   UNL A   1      49.255  33.430  26.476  1.00  0.00     0.124 S 
ATOM     58  O   UNL A   1      50.230  32.352  26.316  1.00  0.00    -0.237 OA
ATOM     59  O   UNL A   1      48.912  34.157  25.254  1.00  0.00    -0.237 OA
ATOM     60  O   UNL A   1      49.413  34.251  27.665  1.00  0.00    -0.744 OA
ENDBRANCH  56  57
ENDBRANCH  24  49
BRANCH  36  61
ATOM     61  C   UNL A   1      39.333  28.411  28.255  1.00  0.00     0.058 A 
ATOM     62  C   UNL A   1      39.042  28.276  29.621  1.00  0.00     0.135 A 
ATOM     63  C   UNL A   1      38.604  29.349  27.512  1.00  0.00     0.135 A 
ATOM     64  F   UNL A   1      39.739  27.420  30.384  1.00  0.00    -0.206 F 
ATOM     65  C   UNL A   1      38.076  29.059  30.236  1.00  0.00     0.059 A 
ATOM     66  C   UNL A   1      37.637  30.152  28.112  1.00  0.00     0.059 A 
ATOM     67  F   UNL A   1      38.837  29.514  26.199  1.00  0.00    -0.206 F 
ATOM     68  C   UNL A   1      37.391  30.007  29.478  1.00  0.00     0.060 A 
BRANCH  68  69
ATOM     69  S   UNL A   1      36.241  31.100  30.332  1.00  0.00     0.124 S 
ATOM     70  O   UNL A   1      35.202  31.301  29.327  1.00  0.00    -0.237 OA
ATOM     71  O   UNL A   1      35.855  30.296  31.489  1.00  0.00    -0.237 OA
ATOM     72  O   UNL A   1      37.049  32.277  30.640  1.00  0.00    -0.744 OA
ENDBRANCH  68  69
ENDBRANCH  36  61
ENDBRANCH  10  11
ENDBRANCH   2   5
BRANCH   3  73
ATOM     73  C   UNL A   1      44.536  25.207  37.834  1.00  0.00     0.118 C 
BRANCH  73  74
ATOM     74  C   UNL A   1      45.571  24.158  38.267  1.00  0.00     0.042 C 
BRANCH  74  75
ATOM     75  C   UNL A   1      45.791  22.996  37.291  1.00  0.00     0.118 C 
BRANCH  75  76
ATOM     76  N   UNL A   1      45.727  21.691  37.927  1.00  0.00    -0.352 N 
ATOM     77  C   UNL A   1      46.279  20.495  37.543  1.00  0.00     0.251 C 
ATOM     78  H   UNL A   1      45.207  21.661  38.763  1.00  0.00     0.163 HD
ATOM     79  O   UNL A   1      46.009  19.466  38.156  1.00  0.00    -0.269 OA
BRANCH  77  80
ATOM     80  C   UNL A   1      47.192  20.408  36.381  1.00  0.00     0.041 A 
ATOM     81  C   UNL A   1      46.715  20.145  35.095  1.00  0.00     0.016 A 
ATOM     82  C   UNL A   1      48.547  20.694  36.599  1.00  0.00     0.035 A 
ATOM     83  C   UNL A   1      47.596  20.106  34.008  1.00  0.00     0.031 A 
ATOM     84  C   UNL A   1      49.419  20.659  35.499  1.00  0.00     0.057 A 
ATOM     85  C   UNL A   1      48.970  20.362  34.206  1.00  0.00     0.083 A 
ATOM     86  S   UNL A   1      51.118  20.953  35.446  1.00  0.00    -0.102 S 
ATOM     87  N   UNL A   1      49.947  20.360  33.223  1.00  0.00    -0.225 NA
ATOM     88  C   UNL A   1      51.094  20.656  33.778  1.00  0.00     0.184 A 
ATOM     89  Cl  UNL A   1      52.550  20.752  32.872  1.00  0.00    -0.050 Cl
ENDBRANCH  77  80
ENDBRANCH  75  76
ENDBRANCH  74  75
ENDBRANCH  73  74
ENDBRANCH   3  73
TORSDOF 13
ENDMDL
