MODEL 1
REMARK VINA RESULT:     -11.0      0.000      0.000
REMARK SMILES O=C(CCSc1nc(-c2cccs2)cc(C(F)(F)F)n1)NCCCNC(=O)c1ccc(-c2c3nc(c(-c4c(F)cc(S(=O)(=O)[O-])cc4F)c4ccc([nH]4)c(-c4c(F)cc(S(=O)(=O)[O-])cc4F)c4nc(c(-c5c(F)cc(S(=O)(=O)[O-])cc5F)c5ccc2[nH]5)C=C4)C=C3)cc1
REMARK SMILES IDX 22 1 21 2 1 3 2 4 3 6 4 7 5 8 6 9 7 10 20 11 8 12 15 13
REMARK SMILES IDX 14 14 9 15 10 16 13 17 11 18 12 19 16 20 17 21 18 22 19 23
REMARK SMILES IDX 23 24 24 25 25 26 26 27 27 29 28 30 29 31 93 32 30 33 92 34
REMARK SMILES IDX 31 35 32 36 33 37 86 38 34 39 91 40 85 41 87 42 35 43 90 44
REMARK SMILES IDX 84 45 83 46 36 48 70 49 49 50 69 51 50 52 53 53 68 54 88 55
REMARK SMILES IDX 51 56 52 57 67 59 89 60 54 61 37 62 38 63 47 64 39 65 40 66
REMARK SMILES IDX 46 67 48 68 41 69 42 70 43 71 44 72 45 73 71 74 72 75 81 76
REMARK SMILES IDX 73 77 74 78 80 79 82 80 75 81 76 82 77 83 78 84 79 85 55 86
REMARK SMILES IDX 56 87 65 88 57 89 58 90 64 91 66 92 59 93 60 94 61 95 62 96
REMARK SMILES IDX 63 97
REMARK H PARENT 21 5 25 28 87 47 53 58
REMARK Flexibility Score: inf
ROOT
ATOM      1  C   UNL A   1      42.411  19.309  25.703  1.00  0.00     0.117 C 
ENDROOT
BRANCH   1   2
ATOM      2  N   UNL A   1      43.825  19.335  25.970  1.00  0.00    -0.356 N 
ATOM      3  O   UNL A   1      44.589  18.337  24.020  1.00  0.00    -0.275 OA
ATOM      4  C   UNL A   1      44.786  18.955  25.062  1.00  0.00     0.220 C 
ATOM      5  H   UNL A   1      44.122  19.644  26.855  1.00  0.00     0.163 HD
BRANCH   4   6
ATOM      6  C   UNL A   1      46.136  19.492  25.453  1.00  0.00     0.111 C 
BRANCH   6   7
ATOM      7  C   UNL A   1      46.541  20.667  24.552  1.00  0.00     0.088 C 
BRANCH   7   8
ATOM      8  S   UNL A   1      45.364  22.099  24.476  1.00  0.00    -0.086 SA
BRANCH   8   9
ATOM      9  C   UNL A   1      45.586  22.891  26.076  1.00  0.00     0.188 A 
ATOM     10  N   UNL A   1      46.689  23.651  26.277  1.00  0.00    -0.222 NA
ATOM     11  N   UNL A   1      44.589  22.784  26.948  1.00  0.00    -0.218 NA
ATOM     12  C   UNL A   1      46.820  24.331  27.447  1.00  0.00     0.085 A 
ATOM     13  C   UNL A   1      44.703  23.519  28.085  1.00  0.00     0.149 A 
ATOM     14  C   UNL A   1      45.801  24.320  28.362  1.00  0.00     0.063 A 
BRANCH  12  15
ATOM     15  C   UNL A   1      48.127  24.970  27.807  1.00  0.00     0.053 A 
ATOM     16  C   UNL A   1      49.292  25.122  27.059  1.00  0.00     0.022 A 
ATOM     17  S   UNL A   1      48.408  25.684  29.318  1.00  0.00    -0.142 S 
ATOM     18  C   UNL A   1      50.318  25.891  27.710  1.00  0.00     0.012 A 
ATOM     19  C   UNL A   1      49.925  26.307  28.953  1.00  0.00     0.065 A 
ENDBRANCH  12  15
BRANCH  13  20
ATOM     20  C   UNL A   1      43.617  23.398  29.130  1.00  0.00     0.433 C 
ATOM     21  F   UNL A   1      43.200  22.119  29.332  1.00  0.00    -0.165 F 
ATOM     22  F   UNL A   1      44.012  23.868  30.346  1.00  0.00    -0.165 F 
ATOM     23  F   UNL A   1      42.491  24.106  28.815  1.00  0.00    -0.165 F 
ENDBRANCH  13  20
ENDBRANCH   8   9
ENDBRANCH   7   8
ENDBRANCH   6   7
ENDBRANCH   4   6
ENDBRANCH   1   2
BRANCH   1  24
ATOM     24  C   UNL A   1      41.634  20.327  26.553  1.00  0.00     0.042 C 
BRANCH  24  25
ATOM     25  C   UNL A   1      41.279  21.791  26.109  1.00  0.00     0.118 C 
BRANCH  25  26
ATOM     26  N   UNL A   1      39.913  22.315  25.918  1.00  0.00    -0.352 N 
ATOM     27  C   UNL A   1      39.216  23.493  26.157  1.00  0.00     0.251 C 
ATOM     28  H   UNL A   1      39.331  21.638  25.505  1.00  0.00     0.163 HD
ATOM     29  O   UNL A   1      38.057  23.587  25.739  1.00  0.00    -0.269 OA
BRANCH  27  30
ATOM     30  C   UNL A   1      39.736  24.597  27.012  1.00  0.00     0.039 A 
ATOM     31  C   UNL A   1      40.598  25.568  26.449  1.00  0.00     0.014 A 
ATOM     32  C   UNL A   1      39.307  24.764  28.315  1.00  0.00     0.014 A 
ATOM     33  C   UNL A   1      40.897  26.761  27.137  1.00  0.00     0.010 A 
ATOM     34  C   UNL A   1      39.566  25.963  28.979  1.00  0.00     0.010 A 
ATOM     35  C   UNL A   1      40.346  26.989  28.401  1.00  0.00    -0.014 A 
BRANCH  35  36
ATOM     36  C   UNL A   1      40.598  28.202  29.239  1.00  0.00     0.031 A 
ATOM     37  C   UNL A   1      41.737  28.143  30.224  1.00  0.00     0.074 A 
ATOM     38  C   UNL A   1      39.752  29.252  29.282  1.00  0.00     0.049 A 
ATOM     39  N   UNL A   1      41.955  28.860  31.295  1.00  0.00    -0.248 NA
ATOM     40  C   UNL A   1      42.730  27.083  29.989  1.00  0.00     0.031 C 
ATOM     41  C   UNL A   1      38.625  29.486  28.382  1.00  0.00     0.029 A 
ATOM     42  N   UNL A   1      39.682  30.304  30.173  1.00  0.00    -0.354 N 
ATOM     43  C   UNL A   1      43.082  28.304  31.889  1.00  0.00     0.074 A 
ATOM     44  C   UNL A   1      43.456  27.155  31.094  1.00  0.00     0.031 C 
ATOM     45  C   UNL A   1      37.943  30.570  28.797  1.00  0.00     0.029 A 
ATOM     46  C   UNL A   1      38.571  31.104  30.005  1.00  0.00     0.049 A 
ATOM     47  H   UNL A   1      40.363  30.469  30.864  1.00  0.00     0.167 HD
ATOM     48  C   UNL A   1      43.763  28.725  32.981  1.00  0.00     0.037 A 
ATOM     49  C   UNL A   1      38.101  32.130  30.747  1.00  0.00     0.037 A 
ATOM     50  C   UNL A   1      43.429  29.901  33.740  1.00  0.00     0.049 A 
ATOM     51  C   UNL A   1      38.861  32.575  31.976  1.00  0.00     0.074 A 
ATOM     52  C   UNL A   1      44.108  30.452  34.812  1.00  0.00     0.029 A 
ATOM     53  N   UNL A   1      42.331  30.713  33.501  1.00  0.00    -0.354 N 
ATOM     54  N   UNL A   1      39.954  32.073  32.500  1.00  0.00    -0.248 NA
ATOM     55  C   UNL A   1      38.331  33.738  32.708  1.00  0.00     0.031 C 
ATOM     56  C   UNL A   1      43.397  31.574  35.250  1.00  0.00     0.029 A 
ATOM     57  C   UNL A   1      42.303  31.750  34.418  1.00  0.00     0.049 A 
ATOM     58  H   UNL A   1      41.669  30.572  32.787  1.00  0.00     0.167 HD
ATOM     59  C   UNL A   1      40.264  32.884  33.590  1.00  0.00     0.074 A 
ATOM     60  C   UNL A   1      39.249  33.912  33.649  1.00  0.00     0.031 C 
ATOM     61  C   UNL A   1      41.301  32.787  34.460  1.00  0.00     0.037 A 
BRANCH  48  62
ATOM     62  C   UNL A   1      44.953  27.909  33.408  1.00  0.00     0.058 A 
ATOM     63  C   UNL A   1      46.245  28.187  32.931  1.00  0.00     0.135 A 
ATOM     64  C   UNL A   1      44.803  26.842  34.307  1.00  0.00     0.135 A 
ATOM     65  F   UNL A   1      46.444  29.188  32.058  1.00  0.00    -0.206 F 
ATOM     66  C   UNL A   1      47.336  27.406  33.290  1.00  0.00     0.059 A 
ATOM     67  C   UNL A   1      45.889  26.071  34.711  1.00  0.00     0.059 A 
ATOM     68  F   UNL A   1      43.592  26.533  34.798  1.00  0.00    -0.206 F 
ATOM     69  C   UNL A   1      47.147  26.349  34.180  1.00  0.00     0.060 A 
BRANCH  69  70
ATOM     70  S   UNL A   1      48.577  25.343  34.630  1.00  0.00     0.124 S 
ATOM     71  O   UNL A   1      48.619  24.389  33.525  1.00  0.00    -0.237 OA
ATOM     72  O   UNL A   1      49.653  26.328  34.659  1.00  0.00    -0.237 OA
ATOM     73  O   UNL A   1      48.206  24.785  35.927  1.00  0.00    -0.744 OA
ENDBRANCH  69  70
ENDBRANCH  48  62
BRANCH  49  74
ATOM     74  C   UNL A   1      36.854  32.849  30.348  1.00  0.00     0.058 A 
ATOM     75  C   UNL A   1      36.898  33.881  29.396  1.00  0.00     0.135 A 
ATOM     76  C   UNL A   1      35.611  32.553  30.926  1.00  0.00     0.135 A 
ATOM     77  F   UNL A   1      38.065  34.218  28.828  1.00  0.00    -0.206 F 
ATOM     78  C   UNL A   1      35.761  34.605  29.047  1.00  0.00     0.059 A 
ATOM     79  C   UNL A   1      34.454  33.247  30.575  1.00  0.00     0.059 A 
ATOM     80  F   UNL A   1      35.509  31.574  31.838  1.00  0.00    -0.206 F 
ATOM     81  C   UNL A   1      34.541  34.277  29.639  1.00  0.00     0.060 A 
BRANCH  81  82
ATOM     82  S   UNL A   1      33.066  35.194  29.135  1.00  0.00     0.124 S 
ATOM     83  O   UNL A   1      33.646  36.426  28.617  1.00  0.00    -0.237 OA
ATOM     84  O   UNL A   1      32.477  34.298  28.144  1.00  0.00    -0.237 OA
ATOM     85  O   UNL A   1      32.312  35.323  30.379  1.00  0.00    -0.744 OA
ENDBRANCH  81  82
ENDBRANCH  49  74
BRANCH  61  86
ATOM     86  C   UNL A   1      41.432  33.841  35.528  1.00  0.00     0.058 A 
ATOM     87  C   UNL A   1      40.936  33.648  36.827  1.00  0.00     0.135 A 
ATOM     88  C   UNL A   1      42.136  35.031  35.270  1.00  0.00     0.135 A 
ATOM     89  F   UNL A   1      40.252  32.534  37.130  1.00  0.00    -0.206 F 
ATOM     90  C   UNL A   1      41.117  34.602  37.825  1.00  0.00     0.059 A 
ATOM     91  C   UNL A   1      42.355  35.984  36.260  1.00  0.00     0.059 A 
ATOM     92  F   UNL A   1      42.643  35.263  34.047  1.00  0.00    -0.206 F 
ATOM     93  C   UNL A   1      41.834  35.764  37.533  1.00  0.00     0.060 A 
BRANCH  93  94
ATOM     94  S   UNL A   1      42.106  36.967  38.852  1.00  0.00     0.124 S 
ATOM     95  O   UNL A   1      40.776  37.553  38.996  1.00  0.00    -0.237 OA
ATOM     96  O   UNL A   1      42.549  36.123  39.958  1.00  0.00    -0.237 OA
ATOM     97  O   UNL A   1      43.125  37.855  38.301  1.00  0.00    -0.744 OA
ENDBRANCH  93  94
ENDBRANCH  61  86
ENDBRANCH  35  36
ENDBRANCH  27  30
ENDBRANCH  25  26
ENDBRANCH  24  25
ENDBRANCH   1  24
TORSDOF 18
ENDMDL
MODEL 2
REMARK VINA RESULT:     -10.9      5.850     12.649
REMARK SMILES O=C(CCSc1nc(-c2cccs2)cc(C(F)(F)F)n1)NCCCNC(=O)c1ccc(-c2c3nc(c(-c4c(F)cc(S(=O)(=O)[O-])cc4F)c4ccc([nH]4)c(-c4c(F)cc(S(=O)(=O)[O-])cc4F)c4nc(c(-c5c(F)cc(S(=O)(=O)[O-])cc5F)c5ccc2[nH]5)C=C4)C=C3)cc1
REMARK SMILES IDX 22 1 21 2 1 3 2 4 3 6 4 7 5 8 6 9 7 10 20 11 8 12 15 13
REMARK SMILES IDX 14 14 9 15 10 16 13 17 11 18 12 19 16 20 17 21 18 22 19 23
REMARK SMILES IDX 23 24 24 25 25 26 26 27 27 29 28 30 29 31 93 32 30 33 92 34
REMARK SMILES IDX 31 35 32 36 33 37 86 38 34 39 91 40 85 41 87 42 35 43 90 44
REMARK SMILES IDX 84 45 83 46 36 48 70 49 49 50 69 51 50 52 53 53 68 54 88 55
REMARK SMILES IDX 51 56 52 57 67 59 89 60 54 61 37 62 38 63 47 64 39 65 40 66
REMARK SMILES IDX 46 67 48 68 41 69 42 70 43 71 44 72 45 73 71 74 72 75 81 76
REMARK SMILES IDX 73 77 74 78 80 79 82 80 75 81 76 82 77 83 78 84 79 85 55 86
REMARK SMILES IDX 56 87 65 88 57 89 58 90 64 91 66 92 59 93 60 94 61 95 62 96
REMARK SMILES IDX 63 97
REMARK H PARENT 21 5 25 28 87 47 53 58
REMARK Flexibility Score: inf
ROOT
ATOM      1  C   UNL A   1      32.177  29.199  25.639  1.00  0.00     0.117 C 
ENDROOT
BRANCH   1   2
ATOM      2  N   UNL A   1      31.887  27.797  25.501  1.00  0.00    -0.356 N 
ATOM      3  O   UNL A   1      31.022  27.386  27.614  1.00  0.00    -0.275 OA
ATOM      4  C   UNL A   1      31.235  27.049  26.453  1.00  0.00     0.220 C 
ATOM      5  H   UNL A   1      32.173  27.345  24.675  1.00  0.00     0.163 HD
BRANCH   4   6
ATOM      6  C   UNL A   1      30.703  25.771  25.860  1.00  0.00     0.111 C 
BRANCH   6   7
ATOM      7  C   UNL A   1      31.422  24.551  26.451  1.00  0.00     0.088 C 
BRANCH   7   8
ATOM      8  S   UNL A   1      30.683  22.891  26.078  1.00  0.00    -0.086 SA
BRANCH   8   9
ATOM      9  C   UNL A   1      32.104  21.927  25.540  1.00  0.00     0.188 A 
ATOM     10  N   UNL A   1      33.346  22.376  25.845  1.00  0.00    -0.222 NA
ATOM     11  N   UNL A   1      31.858  20.753  24.967  1.00  0.00    -0.218 NA
ATOM     12  C   UNL A   1      34.422  21.608  25.527  1.00  0.00     0.085 A 
ATOM     13  C   UNL A   1      32.939  19.970  24.714  1.00  0.00     0.149 A 
ATOM     14  C   UNL A   1      34.240  20.359  24.997  1.00  0.00     0.063 A 
BRANCH  12  15
ATOM     15  C   UNL A   1      35.807  22.177  25.615  1.00  0.00     0.053 A 
ATOM     16  C   UNL A   1      36.232  23.472  25.900  1.00  0.00     0.022 A 
ATOM     17  S   UNL A   1      37.196  21.238  25.371  1.00  0.00    -0.142 S 
ATOM     18  C   UNL A   1      37.660  23.618  26.000  1.00  0.00     0.012 A 
ATOM     19  C   UNL A   1      38.306  22.431  25.780  1.00  0.00     0.065 A 
ENDBRANCH  12  15
BRANCH  13  20
ATOM     20  C   UNL A   1      32.718  18.643  24.022  1.00  0.00     0.433 C 
ATOM     21  F   UNL A   1      31.919  18.732  22.924  1.00  0.00    -0.165 F 
ATOM     22  F   UNL A   1      33.883  18.076  23.602  1.00  0.00    -0.165 F 
ATOM     23  F   UNL A   1      32.130  17.711  24.831  1.00  0.00    -0.165 F 
ENDBRANCH  13  20
ENDBRANCH   8   9
ENDBRANCH   7   8
ENDBRANCH   6   7
ENDBRANCH   4   6
ENDBRANCH   1   2
BRANCH   1  24
ATOM     24  C   UNL A   1      33.645  29.462  26.012  1.00  0.00     0.042 C 
BRANCH  24  25
ATOM     25  C   UNL A   1      34.303  29.110  27.393  1.00  0.00     0.118 C 
BRANCH  25  26
ATOM     26  N   UNL A   1      34.739  30.094  28.404  1.00  0.00    -0.352 N 
ATOM     27  C   UNL A   1      35.928  30.531  28.975  1.00  0.00     0.251 C 
ATOM     28  H   UNL A   1      33.969  30.576  28.781  1.00  0.00     0.163 HD
ATOM     29  O   UNL A   1      35.892  31.493  29.747  1.00  0.00    -0.269 OA
BRANCH  27  30
ATOM     30  C   UNL A   1      37.226  29.816  28.818  1.00  0.00     0.039 A 
ATOM     31  C   UNL A   1      37.838  29.754  27.543  1.00  0.00     0.014 A 
ATOM     32  C   UNL A   1      37.907  29.309  29.909  1.00  0.00     0.014 A 
ATOM     33  C   UNL A   1      39.175  29.328  27.399  1.00  0.00     0.010 A 
ATOM     34  C   UNL A   1      39.242  28.929  29.773  1.00  0.00     0.010 A 
ATOM     35  C   UNL A   1      39.907  28.949  28.527  1.00  0.00    -0.014 A 
BRANCH  35  36
ATOM     36  C   UNL A   1      41.321  28.463  28.505  1.00  0.00     0.031 A 
ATOM     37  C   UNL A   1      42.414  29.501  28.532  1.00  0.00     0.074 A 
ATOM     38  C   UNL A   1      41.651  27.174  28.277  1.00  0.00     0.049 A 
ATOM     39  N   UNL A   1      43.665  29.409  28.163  1.00  0.00    -0.248 NA
ATOM     40  C   UNL A   1      42.011  30.842  28.983  1.00  0.00     0.031 C 
ATOM     41  C   UNL A   1      40.728  26.042  28.256  1.00  0.00     0.029 A 
ATOM     42  N   UNL A   1      42.869  26.608  27.959  1.00  0.00    -0.354 N 
ATOM     43  C   UNL A   1      44.184  30.691  28.290  1.00  0.00     0.074 A 
ATOM     44  C   UNL A   1      43.095  31.549  28.705  1.00  0.00     0.031 C 
ATOM     45  C   UNL A   1      41.395  24.932  27.887  1.00  0.00     0.029 A 
ATOM     46  C   UNL A   1      42.793  25.273  27.626  1.00  0.00     0.049 A 
ATOM     47  H   UNL A   1      43.715  27.112  27.969  1.00  0.00     0.167 HD
ATOM     48  C   UNL A   1      45.457  31.116  28.107  1.00  0.00     0.037 A 
ATOM     49  C   UNL A   1      43.731  24.427  27.146  1.00  0.00     0.037 A 
ATOM     50  C   UNL A   1      46.554  30.256  27.752  1.00  0.00     0.049 A 
ATOM     51  C   UNL A   1      45.143  24.921  26.926  1.00  0.00     0.074 A 
ATOM     52  C   UNL A   1      47.893  30.581  27.624  1.00  0.00     0.029 A 
ATOM     53  N   UNL A   1      46.443  28.901  27.481  1.00  0.00    -0.354 N 
ATOM     54  N   UNL A   1      45.634  26.126  27.098  1.00  0.00    -0.248 NA
ATOM     55  C   UNL A   1      46.133  23.937  26.460  1.00  0.00     0.031 C 
ATOM     56  C   UNL A   1      48.586  29.432  27.232  1.00  0.00     0.029 A 
ATOM     57  C   UNL A   1      47.687  28.380  27.167  1.00  0.00     0.049 A 
ATOM     58  H   UNL A   1      45.605  28.386  27.506  1.00  0.00     0.167 HD
ATOM     59  C   UNL A   1      46.993  26.031  26.807  1.00  0.00     0.074 A 
ATOM     60  C   UNL A   1      47.250  24.653  26.453  1.00  0.00     0.031 C 
ATOM     61  C   UNL A   1      47.944  27.000  26.835  1.00  0.00     0.037 A 
BRANCH  48  62
ATOM     62  C   UNL A   1      45.729  32.583  28.306  1.00  0.00     0.058 A 
ATOM     63  C   UNL A   1      45.636  33.499  27.245  1.00  0.00     0.135 A 
ATOM     64  C   UNL A   1      46.079  33.080  29.571  1.00  0.00     0.135 A 
ATOM     65  F   UNL A   1      45.318  33.075  26.011  1.00  0.00    -0.206 F 
ATOM     66  C   UNL A   1      45.930  34.845  27.420  1.00  0.00     0.059 A 
ATOM     67  C   UNL A   1      46.339  34.431  29.777  1.00  0.00     0.059 A 
ATOM     68  F   UNL A   1      46.179  32.250  30.622  1.00  0.00    -0.206 F 
ATOM     69  C   UNL A   1      46.282  35.302  28.690  1.00  0.00     0.060 A 
BRANCH  69  70
ATOM     70  S   UNL A   1      46.666  37.053  28.893  1.00  0.00     0.124 S 
ATOM     71  O   UNL A   1      46.988  37.117  30.316  1.00  0.00    -0.237 OA
ATOM     72  O   UNL A   1      47.789  37.233  27.979  1.00  0.00    -0.237 OA
ATOM     73  O   UNL A   1      45.428  37.721  28.500  1.00  0.00    -0.744 OA
ENDBRANCH  69  70
ENDBRANCH  48  62
BRANCH  49  74
ATOM     74  C   UNL A   1      43.395  23.000  26.861  1.00  0.00     0.058 A 
ATOM     75  C   UNL A   1      43.169  22.095  27.910  1.00  0.00     0.135 A 
ATOM     76  C   UNL A   1      43.328  22.503  25.550  1.00  0.00     0.135 A 
ATOM     77  F   UNL A   1      43.241  22.514  29.182  1.00  0.00    -0.206 F 
ATOM     78  C   UNL A   1      42.909  20.748  27.673  1.00  0.00     0.059 A 
ATOM     79  C   UNL A   1      43.044  21.164  25.287  1.00  0.00     0.059 A 
ATOM     80  F   UNL A   1      43.531  23.324  24.508  1.00  0.00    -0.206 F 
ATOM     81  C   UNL A   1      42.843  20.292  26.356  1.00  0.00     0.060 A 
BRANCH  81  82
ATOM     82  S   UNL A   1      42.453  18.550  26.067  1.00  0.00     0.124 S 
ATOM     83  O   UNL A   1      41.030  18.612  25.762  1.00  0.00    -0.237 OA
ATOM     84  O   UNL A   1      43.334  18.225  24.950  1.00  0.00    -0.237 OA
ATOM     85  O   UNL A   1      42.801  17.915  27.335  1.00  0.00    -0.744 OA
ENDBRANCH  81  82
ENDBRANCH  49  74
BRANCH  61  86
ATOM     86  C   UNL A   1      49.364  26.609  26.524  1.00  0.00     0.058 A 
ATOM     87  C   UNL A   1      50.203  26.028  27.488  1.00  0.00     0.135 A 
ATOM     88  C   UNL A   1      49.869  26.745  25.219  1.00  0.00     0.135 A 
ATOM     89  F   UNL A   1      49.777  25.878  28.752  1.00  0.00    -0.206 F 
ATOM     90  C   UNL A   1      51.495  25.612  27.174  1.00  0.00     0.059 A 
ATOM     91  C   UNL A   1      51.145  26.309  24.876  1.00  0.00     0.059 A 
ATOM     92  F   UNL A   1      49.106  27.284  24.253  1.00  0.00    -0.206 F 
ATOM     93  C   UNL A   1      51.954  25.750  25.864  1.00  0.00     0.060 A 
BRANCH  93  94
ATOM     94  S   UNL A   1      53.612  25.158  25.461  1.00  0.00     0.124 S 
ATOM     95  O   UNL A   1      53.379  23.729  25.278  1.00  0.00    -0.237 OA
ATOM     96  O   UNL A   1      53.925  25.910  24.249  1.00  0.00    -0.237 OA
ATOM     97  O   UNL A   1      54.399  25.519  26.636  1.00  0.00    -0.744 OA
ENDBRANCH  93  94
ENDBRANCH  61  86
ENDBRANCH  35  36
ENDBRANCH  27  30
ENDBRANCH  25  26
ENDBRANCH  24  25
ENDBRANCH   1  24
TORSDOF 18
ENDMDL
MODEL 3
REMARK VINA RESULT:     -10.9      5.047     11.478
REMARK SMILES O=C(CCSc1nc(-c2cccs2)cc(C(F)(F)F)n1)NCCCNC(=O)c1ccc(-c2c3nc(c(-c4c(F)cc(S(=O)(=O)[O-])cc4F)c4ccc([nH]4)c(-c4c(F)cc(S(=O)(=O)[O-])cc4F)c4nc(c(-c5c(F)cc(S(=O)(=O)[O-])cc5F)c5ccc2[nH]5)C=C4)C=C3)cc1
REMARK SMILES IDX 22 1 21 2 1 3 2 4 3 6 4 7 5 8 6 9 7 10 20 11 8 12 15 13
REMARK SMILES IDX 14 14 9 15 10 16 13 17 11 18 12 19 16 20 17 21 18 22 19 23
REMARK SMILES IDX 23 24 24 25 25 26 26 27 27 29 28 30 29 31 93 32 30 33 92 34
REMARK SMILES IDX 31 35 32 36 33 37 86 38 34 39 91 40 85 41 87 42 35 43 90 44
REMARK SMILES IDX 84 45 83 46 36 48 70 49 49 50 69 51 50 52 53 53 68 54 88 55
REMARK SMILES IDX 51 56 52 57 67 59 89 60 54 61 37 62 38 63 47 64 39 65 40 66
REMARK SMILES IDX 46 67 48 68 41 69 42 70 43 71 44 72 45 73 71 74 72 75 81 76
REMARK SMILES IDX 73 77 74 78 80 79 82 80 75 81 76 82 77 83 78 84 79 85 55 86
REMARK SMILES IDX 56 87 65 88 57 89 58 90 64 91 66 92 59 93 60 94 61 95 62 96
REMARK SMILES IDX 63 97
REMARK H PARENT 21 5 25 28 87 47 53 58
REMARK Flexibility Score: inf
ROOT
ATOM      1  C   UNL A   1      33.450  26.799  24.164  1.00  0.00     0.117 C 
ENDROOT
BRANCH   1   2
ATOM      2  N   UNL A   1      32.512  25.772  23.795  1.00  0.00    -0.356 N 
ATOM      3  O   UNL A   1      33.874  24.506  22.408  1.00  0.00    -0.275 OA
ATOM      4  C   UNL A   1      32.838  24.664  23.049  1.00  0.00     0.220 C 
ATOM      5  H   UNL A   1      31.580  25.868  24.096  1.00  0.00     0.163 HD
BRANCH   4   6
ATOM      6  C   UNL A   1      31.794  23.590  23.197  1.00  0.00     0.111 C 
BRANCH   6   7
ATOM      7  C   UNL A   1      30.897  23.860  24.413  1.00  0.00     0.088 C 
BRANCH   7   8
ATOM      8  S   UNL A   1      30.833  22.534  25.709  1.00  0.00    -0.086 SA
BRANCH   8   9
ATOM      9  C   UNL A   1      32.316  21.572  25.377  1.00  0.00     0.188 A 
ATOM     10  N   UNL A   1      33.521  22.109  25.686  1.00  0.00    -0.222 NA
ATOM     11  N   UNL A   1      32.146  20.324  24.951  1.00  0.00    -0.218 NA
ATOM     12  C   UNL A   1      34.641  21.354  25.529  1.00  0.00     0.085 A 
ATOM     13  C   UNL A   1      33.267  19.562  24.861  1.00  0.00     0.149 A 
ATOM     14  C   UNL A   1      34.534  20.040  25.158  1.00  0.00     0.063 A 
BRANCH  12  15
ATOM     15  C   UNL A   1      35.997  21.988  25.615  1.00  0.00     0.053 A 
ATOM     16  C   UNL A   1      36.360  23.300  25.911  1.00  0.00     0.022 A 
ATOM     17  S   UNL A   1      37.429  21.120  25.355  1.00  0.00    -0.142 S 
ATOM     18  C   UNL A   1      37.780  23.514  26.005  1.00  0.00     0.012 A 
ATOM     19  C   UNL A   1      38.481  22.362  25.770  1.00  0.00     0.065 A 
ENDBRANCH  12  15
BRANCH  13  20
ATOM     20  C   UNL A   1      33.134  18.150  24.337  1.00  0.00     0.433 C 
ATOM     21  F   UNL A   1      31.908  17.603  24.560  1.00  0.00    -0.165 F 
ATOM     22  F   UNL A   1      33.351  18.071  22.995  1.00  0.00    -0.165 F 
ATOM     23  F   UNL A   1      34.030  17.285  24.902  1.00  0.00    -0.165 F 
ENDBRANCH  13  20
ENDBRANCH   8   9
ENDBRANCH   7   8
ENDBRANCH   6   7
ENDBRANCH   4   6
ENDBRANCH   1   2
BRANCH   1  24
ATOM     24  C   UNL A   1      32.990  27.601  25.393  1.00  0.00     0.042 C 
BRANCH  24  25
ATOM     25  C   UNL A   1      33.943  28.223  26.474  1.00  0.00     0.118 C 
BRANCH  25  26
ATOM     26  N   UNL A   1      33.699  29.485  27.200  1.00  0.00    -0.352 N 
ATOM     27  C   UNL A   1      34.436  30.437  27.893  1.00  0.00     0.251 C 
ATOM     28  H   UNL A   1      32.743  29.718  27.190  1.00  0.00     0.163 HD
ATOM     29  O   UNL A   1      33.861  31.457  28.285  1.00  0.00    -0.269 OA
BRANCH  27  30
ATOM     30  C   UNL A   1      35.851  30.232  28.316  1.00  0.00     0.039 A 
ATOM     31  C   UNL A   1      36.129  29.814  29.639  1.00  0.00     0.014 A 
ATOM     32  C   UNL A   1      36.894  30.329  27.414  1.00  0.00     0.014 A 
ATOM     33  C   UNL A   1      37.413  29.356  30.001  1.00  0.00     0.010 A 
ATOM     34  C   UNL A   1      38.152  29.836  27.760  1.00  0.00     0.010 A 
ATOM     35  C   UNL A   1      38.432  29.324  29.046  1.00  0.00    -0.014 A 
BRANCH  35  36
ATOM     36  C   UNL A   1      39.836  28.878  29.308  1.00  0.00     0.031 A 
ATOM     37  C   UNL A   1      40.835  29.930  29.719  1.00  0.00     0.074 A 
ATOM     38  C   UNL A   1      40.279  27.638  29.015  1.00  0.00     0.049 A 
ATOM     39  N   UNL A   1      42.140  29.916  29.654  1.00  0.00    -0.248 NA
ATOM     40  C   UNL A   1      40.265  31.193  30.216  1.00  0.00     0.031 C 
ATOM     41  C   UNL A   1      39.449  26.496  28.639  1.00  0.00     0.029 A 
ATOM     42  N   UNL A   1      41.565  27.146  28.934  1.00  0.00    -0.354 N 
ATOM     43  C   UNL A   1      42.545  31.184  30.053  1.00  0.00     0.074 A 
ATOM     44  C   UNL A   1      41.345  31.955  30.292  1.00  0.00     0.031 C 
ATOM     45  C   UNL A   1      40.242  25.459  28.313  1.00  0.00     0.029 A 
ATOM     46  C   UNL A   1      41.642  25.863  28.437  1.00  0.00     0.049 A 
ATOM     47  H   UNL A   1      42.357  27.665  29.207  1.00  0.00     0.167 HD
ATOM     48  C   UNL A   1      43.801  31.659  30.233  1.00  0.00     0.037 A 
ATOM     49  C   UNL A   1      42.711  25.108  28.100  1.00  0.00     0.037 A 
ATOM     50  C   UNL A   1      44.995  30.877  30.053  1.00  0.00     0.049 A 
ATOM     51  C   UNL A   1      44.106  25.660  28.286  1.00  0.00     0.074 A 
ATOM     52  C   UNL A   1      46.307  31.247  30.290  1.00  0.00     0.029 A 
ATOM     53  N   UNL A   1      45.024  29.565  29.604  1.00  0.00    -0.354 N 
ATOM     54  N   UNL A   1      44.478  26.844  28.713  1.00  0.00    -0.248 NA
ATOM     55  C   UNL A   1      45.229  24.767  27.958  1.00  0.00     0.031 C 
ATOM     56  C   UNL A   1      47.134  30.174  29.943  1.00  0.00     0.029 A 
ATOM     57  C   UNL A   1      46.333  29.118  29.539  1.00  0.00     0.049 A 
ATOM     58  H   UNL A   1      44.232  29.032  29.367  1.00  0.00     0.167 HD
ATOM     59  C   UNL A   1      45.870  26.819  28.747  1.00  0.00     0.074 A 
ATOM     60  C   UNL A   1      46.276  25.504  28.305  1.00  0.00     0.031 C 
ATOM     61  C   UNL A   1      46.734  27.798  29.118  1.00  0.00     0.037 A 
BRANCH  48  62
ATOM     62  C   UNL A   1      43.939  33.094  30.664  1.00  0.00     0.058 A 
ATOM     63  C   UNL A   1      43.989  34.141  29.728  1.00  0.00     0.135 A 
ATOM     64  C   UNL A   1      44.016  33.428  32.025  1.00  0.00     0.135 A 
ATOM     65  F   UNL A   1      43.933  33.877  28.413  1.00  0.00    -0.206 F 
ATOM     66  C   UNL A   1      44.161  35.461  30.125  1.00  0.00     0.059 A 
ATOM     67  C   UNL A   1      44.149  34.747  32.446  1.00  0.00     0.059 A 
ATOM     68  F   UNL A   1      43.970  32.467  32.962  1.00  0.00    -0.206 F 
ATOM     69  C   UNL A   1      44.241  35.754  31.486  1.00  0.00     0.060 A 
BRANCH  69  70
ATOM     70  S   UNL A   1      44.471  37.475  31.979  1.00  0.00     0.124 S 
ATOM     71  O   UNL A   1      45.901  37.506  32.268  1.00  0.00    -0.237 OA
ATOM     72  O   UNL A   1      44.049  38.199  30.784  1.00  0.00    -0.237 OA
ATOM     73  O   UNL A   1      43.593  37.617  33.137  1.00  0.00    -0.744 OA
ENDBRANCH  69  70
ENDBRANCH  48  62
BRANCH  49  74
ATOM     74  C   UNL A   1      42.528  23.722  27.575  1.00  0.00     0.058 A 
ATOM     75  C   UNL A   1      42.441  22.630  28.454  1.00  0.00     0.135 A 
ATOM     76  C   UNL A   1      42.473  23.453  26.199  1.00  0.00     0.135 A 
ATOM     77  F   UNL A   1      42.510  22.830  29.778  1.00  0.00    -0.206 F 
ATOM     78  C   UNL A   1      42.327  21.322  27.989  1.00  0.00     0.059 A 
ATOM     79  C   UNL A   1      42.333  22.154  25.710  1.00  0.00     0.059 A 
ATOM     80  F   UNL A   1      42.545  24.458  25.313  1.00  0.00    -0.206 F 
ATOM     81  C   UNL A   1      42.269  21.094  26.614  1.00  0.00     0.060 A 
BRANCH  81  82
ATOM     82  S   UNL A   1      42.068  19.395  26.032  1.00  0.00     0.124 S 
ATOM     83  O   UNL A   1      40.635  19.336  25.776  1.00  0.00    -0.237 OA
ATOM     84  O   UNL A   1      42.930  19.375  24.854  1.00  0.00    -0.237 OA
ATOM     85  O   UNL A   1      42.543  18.597  27.159  1.00  0.00    -0.744 OA
ENDBRANCH  81  82
ENDBRANCH  49  74
BRANCH  61  86
ATOM     86  C   UNL A   1      48.207  27.484  29.113  1.00  0.00     0.058 A 
ATOM     87  C   UNL A   1      48.988  27.604  27.953  1.00  0.00     0.135 A 
ATOM     88  C   UNL A   1      48.863  27.135  30.307  1.00  0.00     0.135 A 
ATOM     89  F   UNL A   1      48.415  27.930  26.784  1.00  0.00    -0.206 F 
ATOM     90  C   UNL A   1      50.361  27.372  27.973  1.00  0.00     0.059 A 
ATOM     91  C   UNL A   1      50.238  26.929  30.356  1.00  0.00     0.059 A 
ATOM     92  F   UNL A   1      48.167  27.017  31.450  1.00  0.00    -0.206 F 
ATOM     93  C   UNL A   1      50.978  27.042  29.181  1.00  0.00     0.060 A 
BRANCH  93  94
ATOM     94  S   UNL A   1      52.767  26.796  29.199  1.00  0.00     0.124 S 
ATOM     95  O   UNL A   1      53.253  28.172  29.249  1.00  0.00    -0.237 OA
ATOM     96  O   UNL A   1      52.961  26.011  30.415  1.00  0.00    -0.237 OA
ATOM     97  O   UNL A   1      53.028  26.084  27.952  1.00  0.00    -0.744 OA
ENDBRANCH  93  94
ENDBRANCH  61  86
ENDBRANCH  35  36
ENDBRANCH  27  30
ENDBRANCH  25  26
ENDBRANCH  24  25
ENDBRANCH   1  24
TORSDOF 18
ENDMDL
