MODEL 1
REMARK VINA RESULT:     -11.2      0.000      0.000
REMARK SMILES CC[NH2+][C@]1(C(=O)NCCCNC(=O)c2ccc(-c3c4nc(c(-c5c(F)cc(S(=O)(=O)[O-])cc5F)c5ccc([nH]5)c(-c5c(F)cc(S(=O)(=O)[O-])cc5F)c5nc(c(-c6c(F)cc(S(=O)(=O)[O-])cc6F)c6ccc3[nH]6)C=C5)C=C4)cc2)CCC[C@H]1CC[N@H+]1CCC[C@@H](CC)C1
REMARK SMILES IDX 8 1 7 2 5 3 6 4 4 6 80 7 83 8 81 9 82 10 3 11 2 14 1 15
REMARK SMILES IDX 84 16 85 17 86 18 87 19 93 20 88 22 90 23 89 24 91 25 92 26
REMARK SMILES IDX 9 27 10 28 11 29 12 30 13 32 14 33 15 34 79 35 16 36 78 37
REMARK SMILES IDX 17 38 18 39 19 40 72 41 20 42 77 43 71 44 73 45 21 46 76 47
REMARK SMILES IDX 70 48 69 49 22 51 56 52 35 53 55 54 36 55 39 56 54 57 74 58
REMARK SMILES IDX 37 59 38 60 53 62 75 63 40 64 23 65 24 66 33 67 25 68 26 69
REMARK SMILES IDX 32 70 34 71 27 72 28 73 29 74 30 75 31 76 57 77 58 78 67 79
REMARK SMILES IDX 59 80 60 81 66 82 68 83 61 84 62 85 63 86 64 87 65 88 41 89
REMARK SMILES IDX 42 90 51 91 43 92 44 93 50 94 52 95 45 96 46 97 47 98 48 99
REMARK SMILES IDX 49 100
REMARK H PARENT 7 5 3 12 3 13 86 21 11 31 73 50 39 61
REMARK Flexibility Score: inf
ROOT
ATOM      1  C   UNL A   1      31.698  29.043  25.733  1.00  0.00     0.118 C 
ENDROOT
BRANCH   1   2
ATOM      2  N   UNL A   1      30.898  28.108  24.971  1.00  0.00    -0.351 N 
ATOM      3  C   UNL A   1      30.952  26.791  25.364  1.00  0.00     0.281 C 
ATOM      4  O   UNL A   1      30.642  26.515  26.523  1.00  0.00    -0.268 OA
ATOM      5  H   UNL A   1      30.344  28.401  24.211  1.00  0.00     0.163 HD
BRANCH   3   6
ATOM      6  C   UNL A   1      31.303  25.740  24.265  1.00  0.00     0.178 C 
ATOM      7  C   UNL A   1      31.238  26.429  22.876  1.00  0.00     0.079 C 
ATOM      8  C   UNL A   1      32.760  25.128  24.299  1.00  0.00     0.066 C 
ATOM      9  C   UNL A   1      32.360  25.816  22.052  1.00  0.00     0.008 C 
ATOM     10  C   UNL A   1      33.483  25.677  23.065  1.00  0.00     0.011 C 
BRANCH   6  11
ATOM     11  N   UNL A   1      30.439  24.528  24.363  1.00  0.00    -0.334 N 
ATOM     12  H   UNL A   1      29.817  24.666  25.160  1.00  0.00     0.347 HD
ATOM     13  H   UNL A   1      29.994  24.467  23.448  1.00  0.00     0.347 HD
BRANCH  11  14
ATOM     14  C   UNL A   1      31.075  23.229  24.535  1.00  0.00     0.257 C 
ATOM     15  C   UNL A   1      30.719  22.736  25.933  1.00  0.00     0.071 C 
ENDBRANCH  11  14
ENDBRANCH   6  11
BRANCH   8  16
ATOM     16  C   UNL A   1      33.619  25.149  25.577  1.00  0.00     0.072 C 
BRANCH  16  17
ATOM     17  C   UNL A   1      35.087  24.762  25.306  1.00  0.00     0.262 C 
BRANCH  17  18
ATOM     18  N   UNL A   1      35.442  23.356  25.198  1.00  0.00    -0.335 N 
ATOM     19  C   UNL A   1      36.785  22.994  25.625  1.00  0.00     0.262 C 
ATOM     20  C   UNL A   1      34.442  22.349  25.561  1.00  0.00     0.265 C 
ATOM     21  H   UNL A   1      35.450  23.304  24.180  1.00  0.00     0.348 HD
ATOM     22  C   UNL A   1      37.213  21.753  24.854  1.00  0.00     0.062 C 
ATOM     23  C   UNL A   1      34.782  21.034  24.815  1.00  0.00     0.044 C 
ATOM     24  C   UNL A   1      36.237  20.603  25.069  1.00  0.00     0.015 C 
BRANCH  23  25
ATOM     25  C   UNL A   1      33.784  19.894  25.092  1.00  0.00     0.006 C 
ATOM     26  C   UNL A   1      34.106  18.566  24.421  1.00  0.00     0.004 C 
ENDBRANCH  23  25
ENDBRANCH  17  18
ENDBRANCH  16  17
ENDBRANCH   8  16
ENDBRANCH   3   6
ENDBRANCH   1   2
BRANCH   1  27
ATOM     27  C   UNL A   1      33.156  28.666  25.791  1.00  0.00     0.042 C 
BRANCH  27  28
ATOM     28  C   UNL A   1      33.638  28.706  27.224  1.00  0.00     0.118 C 
BRANCH  28  29
ATOM     29  N   UNL A   1      33.616  30.037  27.830  1.00  0.00    -0.352 N 
ATOM     30  C   UNL A   1      34.664  30.732  28.393  1.00  0.00     0.251 C 
ATOM     31  H   UNL A   1      32.744  30.493  27.836  1.00  0.00     0.163 HD
ATOM     32  O   UNL A   1      34.514  31.860  28.846  1.00  0.00    -0.269 OA
BRANCH  30  33
ATOM     33  C   UNL A   1      35.972  30.068  28.463  1.00  0.00     0.039 A 
ATOM     34  C   UNL A   1      36.856  30.157  27.386  1.00  0.00     0.014 A 
ATOM     35  C   UNL A   1      36.359  29.496  29.672  1.00  0.00     0.014 A 
ATOM     36  C   UNL A   1      38.176  29.744  27.559  1.00  0.00     0.010 A 
ATOM     37  C   UNL A   1      37.697  29.230  29.882  1.00  0.00     0.010 A 
ATOM     38  C   UNL A   1      38.617  29.328  28.825  1.00  0.00    -0.014 A 
BRANCH  38  39
ATOM     39  C   UNL A   1      40.014  28.914  29.098  1.00  0.00     0.031 A 
ATOM     40  C   UNL A   1      40.962  29.950  29.642  1.00  0.00     0.074 A 
ATOM     41  C   UNL A   1      40.451  27.691  28.738  1.00  0.00     0.049 A 
ATOM     42  N   UNL A   1      42.266  29.931  29.701  1.00  0.00    -0.248 NA
ATOM     43  C   UNL A   1      40.359  31.214  30.103  1.00  0.00     0.031 C 
ATOM     44  C   UNL A   1      39.632  26.629  28.149  1.00  0.00     0.029 A 
ATOM     45  N   UNL A   1      41.708  27.145  28.792  1.00  0.00    -0.354 N 
ATOM     46  C   UNL A   1      42.635  31.198  30.140  1.00  0.00     0.074 A 
ATOM     47  C   UNL A   1      41.427  31.980  30.260  1.00  0.00     0.031 C 
ATOM     48  C   UNL A   1      40.402  25.552  27.921  1.00  0.00     0.029 A 
ATOM     49  C   UNL A   1      41.776  25.863  28.299  1.00  0.00     0.049 A 
ATOM     50  H   UNL A   1      42.488  27.626  29.150  1.00  0.00     0.167 HD
ATOM     51  C   UNL A   1      43.869  31.655  30.452  1.00  0.00     0.037 A 
ATOM     52  C   UNL A   1      42.836  25.042  28.162  1.00  0.00     0.037 A 
ATOM     53  C   UNL A   1      45.042  30.828  30.415  1.00  0.00     0.049 A 
ATOM     54  C   UNL A   1      44.189  25.543  28.592  1.00  0.00     0.074 A 
ATOM     55  C   UNL A   1      46.333  31.143  30.792  1.00  0.00     0.029 A 
ATOM     56  N   UNL A   1      45.054  29.502  30.001  1.00  0.00    -0.354 N 
ATOM     57  N   UNL A   1      44.522  26.731  29.042  1.00  0.00    -0.248 NA
ATOM     58  C   UNL A   1      45.308  24.596  28.507  1.00  0.00     0.031 C 
ATOM     59  C   UNL A   1      47.132  30.014  30.582  1.00  0.00     0.029 A 
ATOM     60  C   UNL A   1      46.330  28.983  30.115  1.00  0.00     0.049 A 
ATOM     61  H   UNL A   1      44.269  29.006  29.673  1.00  0.00     0.167 HD
ATOM     62  C   UNL A   1      45.882  26.664  29.323  1.00  0.00     0.074 A 
ATOM     63  C   UNL A   1      46.307  25.317  28.998  1.00  0.00     0.031 C 
ATOM     64  C   UNL A   1      46.708  27.627  29.804  1.00  0.00     0.037 A 
BRANCH  51  65
ATOM     65  C   UNL A   1      43.994  33.092  30.881  1.00  0.00     0.058 A 
ATOM     66  C   UNL A   1      43.887  33.476  32.228  1.00  0.00     0.135 A 
ATOM     67  C   UNL A   1      44.224  34.103  29.933  1.00  0.00     0.135 A 
ATOM     68  F   UNL A   1      43.646  32.555  33.176  1.00  0.00    -0.206 F 
ATOM     69  C   UNL A   1      43.956  34.809  32.616  1.00  0.00     0.059 A 
ATOM     70  C   UNL A   1      44.334  35.442  30.303  1.00  0.00     0.059 A 
ATOM     71  F   UNL A   1      44.334  33.797  28.631  1.00  0.00    -0.206 F 
ATOM     72  C   UNL A   1      44.179  35.786  31.644  1.00  0.00     0.060 A 
BRANCH  72  73
ATOM     73  S   UNL A   1      44.272  37.511  32.166  1.00  0.00     0.124 S 
ATOM     74  O   UNL A   1      43.862  38.205  30.949  1.00  0.00    -0.237 OA
ATOM     75  O   UNL A   1      43.320  37.556  33.271  1.00  0.00    -0.237 OA
ATOM     76  O   UNL A   1      45.672  37.677  32.540  1.00  0.00    -0.744 OA
ENDBRANCH  72  73
ENDBRANCH  51  65
BRANCH  52  77
ATOM     77  C   UNL A   1      42.652  23.660  27.641  1.00  0.00     0.058 A 
ATOM     78  C   UNL A   1      42.653  23.409  26.261  1.00  0.00     0.135 A 
ATOM     79  C   UNL A   1      42.497  22.561  28.501  1.00  0.00     0.135 A 
ATOM     80  F   UNL A   1      42.795  24.425  25.395  1.00  0.00    -0.206 F 
ATOM     81  C   UNL A   1      42.492  22.125  25.749  1.00  0.00     0.059 A 
ATOM     82  C   UNL A   1      42.358  21.264  28.015  1.00  0.00     0.059 A 
ATOM     83  F   UNL A   1      42.510  22.741  29.831  1.00  0.00    -0.206 F 
ATOM     84  C   UNL A   1      42.348  21.057  26.635  1.00  0.00     0.060 A 
BRANCH  84  85
ATOM     85  S   UNL A   1      42.194  19.387  25.962  1.00  0.00     0.124 S 
ATOM     86  O   UNL A   1      43.028  19.474  24.768  1.00  0.00    -0.237 OA
ATOM     87  O   UNL A   1      42.719  18.568  27.049  1.00  0.00    -0.237 OA
ATOM     88  O   UNL A   1      40.760  19.253  25.721  1.00  0.00    -0.744 OA
ENDBRANCH  84  85
ENDBRANCH  52  77
BRANCH  64  89
ATOM     89  C   UNL A   1      48.137  27.244  30.058  1.00  0.00     0.058 A 
ATOM     90  C   UNL A   1      49.128  27.407  29.080  1.00  0.00     0.135 A 
ATOM     91  C   UNL A   1      48.527  26.784  31.326  1.00  0.00     0.135 A 
ATOM     92  F   UNL A   1      48.801  27.841  27.852  1.00  0.00    -0.206 F 
ATOM     93  C   UNL A   1      50.459  27.109  29.345  1.00  0.00     0.059 A 
ATOM     94  C   UNL A   1      49.855  26.506  31.620  1.00  0.00     0.059 A 
ATOM     95  F   UNL A   1      47.614  26.625  32.299  1.00  0.00    -0.206 F 
ATOM     96  C   UNL A   1      50.813  26.663  30.620  1.00  0.00     0.060 A 
BRANCH  96  97
ATOM     97  S   UNL A   1      52.552  26.326  30.965  1.00  0.00     0.124 S 
ATOM     98  O   UNL A   1      52.465  25.081  31.720  1.00  0.00    -0.237 OA
ATOM     99  O   UNL A   1      53.121  26.218  29.624  1.00  0.00    -0.237 OA
ATOM    100  O   UNL A   1      52.979  27.495  31.726  1.00  0.00    -0.744 OA
ENDBRANCH  96  97
ENDBRANCH  64  89
ENDBRANCH  38  39
ENDBRANCH  30  33
ENDBRANCH  28  29
ENDBRANCH  27  28
ENDBRANCH   1  27
TORSDOF 19
ENDMDL
MODEL 2
REMARK VINA RESULT:     -10.5      1.178      2.298
REMARK SMILES CC[NH2+][C@]1(C(=O)NCCCNC(=O)c2ccc(-c3c4nc(c(-c5c(F)cc(S(=O)(=O)[O-])cc5F)c5ccc([nH]5)c(-c5c(F)cc(S(=O)(=O)[O-])cc5F)c5nc(c(-c6c(F)cc(S(=O)(=O)[O-])cc6F)c6ccc3[nH]6)C=C5)C=C4)cc2)CCC[C@H]1CC[N@H+]1CCC[C@@H](CC)C1
REMARK SMILES IDX 8 1 7 2 5 3 6 4 4 6 80 7 83 8 81 9 82 10 3 11 2 14 1 15
REMARK SMILES IDX 84 16 85 17 86 18 87 19 93 20 88 22 90 23 89 24 91 25 92 26
REMARK SMILES IDX 9 27 10 28 11 29 12 30 13 32 14 33 15 34 79 35 16 36 78 37
REMARK SMILES IDX 17 38 18 39 19 40 72 41 20 42 77 43 71 44 73 45 21 46 76 47
REMARK SMILES IDX 70 48 69 49 22 51 56 52 35 53 55 54 36 55 39 56 54 57 74 58
REMARK SMILES IDX 37 59 38 60 53 62 75 63 40 64 23 65 24 66 33 67 25 68 26 69
REMARK SMILES IDX 32 70 34 71 27 72 28 73 29 74 30 75 31 76 57 77 58 78 67 79
REMARK SMILES IDX 59 80 60 81 66 82 68 83 61 84 62 85 63 86 64 87 65 88 41 89
REMARK SMILES IDX 42 90 51 91 43 92 44 93 50 94 52 95 45 96 46 97 47 98 48 99
REMARK SMILES IDX 49 100
REMARK H PARENT 7 5 3 12 3 13 86 21 11 31 73 50 39 61
REMARK Flexibility Score: inf
ROOT
ATOM      1  C   UNL A   1      32.139  27.712  26.731  1.00  0.00     0.118 C 
ENDROOT
BRANCH   1   2
ATOM      2  N   UNL A   1      31.524  28.303  25.561  1.00  0.00    -0.351 N 
ATOM      3  C   UNL A   1      31.146  27.436  24.562  1.00  0.00     0.281 C 
ATOM      4  O   UNL A   1      30.358  26.532  24.842  1.00  0.00    -0.268 OA
ATOM      5  H   UNL A   1      31.386  29.274  25.485  1.00  0.00     0.163 HD
BRANCH   3   6
ATOM      6  C   UNL A   1      31.671  27.741  23.125  1.00  0.00     0.178 C 
ATOM      7  C   UNL A   1      32.824  28.775  23.223  1.00  0.00     0.079 C 
ATOM      8  C   UNL A   1      32.327  26.541  22.332  1.00  0.00     0.066 C 
ATOM      9  C   UNL A   1      33.833  28.379  22.156  1.00  0.00     0.008 C 
ATOM     10  C   UNL A   1      33.821  26.862  22.228  1.00  0.00     0.011 C 
BRANCH   6  11
ATOM     11  N   UNL A   1      30.571  28.169  22.213  1.00  0.00    -0.334 N 
ATOM     12  H   UNL A   1      30.805  27.830  21.280  1.00  0.00     0.347 HD
ATOM     13  H   UNL A   1      29.731  27.776  22.639  1.00  0.00     0.347 HD
BRANCH  11  14
ATOM     14  C   UNL A   1      30.276  29.590  22.092  1.00  0.00     0.257 C 
ATOM     15  C   UNL A   1      28.908  29.821  22.723  1.00  0.00     0.071 C 
ENDBRANCH  11  14
ENDBRANCH   6  11
BRANCH   8  16
ATOM     16  C   UNL A   1      32.037  25.072  22.697  1.00  0.00     0.072 C 
BRANCH  16  17
ATOM     17  C   UNL A   1      33.320  24.223  22.788  1.00  0.00     0.262 C 
BRANCH  17  18
ATOM     18  N   UNL A   1      33.887  23.932  24.095  1.00  0.00    -0.335 N 
ATOM     19  C   UNL A   1      33.091  23.085  24.970  1.00  0.00     0.262 C 
ATOM     20  C   UNL A   1      35.322  23.657  24.193  1.00  0.00     0.265 C 
ATOM     21  H   UNL A   1      33.816  24.874  24.479  1.00  0.00     0.348 HD
ATOM     22  C   UNL A   1      33.437  23.429  26.413  1.00  0.00     0.062 C 
ATOM     23  C   UNL A   1      35.785  23.987  25.635  1.00  0.00     0.044 C 
ATOM     24  C   UNL A   1      34.927  23.256  26.681  1.00  0.00     0.015 C 
BRANCH  23  25
ATOM     25  C   UNL A   1      37.292  23.764  25.864  1.00  0.00     0.006 C 
ATOM     26  C   UNL A   1      37.791  22.350  25.603  1.00  0.00     0.004 C 
ENDBRANCH  23  25
ENDBRANCH  17  18
ENDBRANCH  16  17
ENDBRANCH   8  16
ENDBRANCH   3   6
ENDBRANCH   1   2
BRANCH   1  27
ATOM     27  C   UNL A   1      33.542  27.224  26.481  1.00  0.00     0.042 C 
BRANCH  27  28
ATOM     28  C   UNL A   1      34.536  28.267  26.944  1.00  0.00     0.118 C 
BRANCH  28  29
ATOM     29  N   UNL A   1      33.927  29.496  27.452  1.00  0.00    -0.352 N 
ATOM     30  C   UNL A   1      34.522  30.499  28.184  1.00  0.00     0.251 C 
ATOM     31  H   UNL A   1      32.973  29.621  27.244  1.00  0.00     0.163 HD
ATOM     32  O   UNL A   1      33.900  31.497  28.527  1.00  0.00    -0.269 OA
BRANCH  30  33
ATOM     33  C   UNL A   1      35.928  30.328  28.571  1.00  0.00     0.039 A 
ATOM     34  C   UNL A   1      36.248  29.650  29.749  1.00  0.00     0.014 A 
ATOM     35  C   UNL A   1      36.915  30.714  27.667  1.00  0.00     0.014 A 
ATOM     36  C   UNL A   1      37.572  29.276  29.976  1.00  0.00     0.010 A 
ATOM     37  C   UNL A   1      38.192  30.213  27.825  1.00  0.00     0.010 A 
ATOM     38  C   UNL A   1      38.542  29.509  28.989  1.00  0.00    -0.014 A 
BRANCH  38  39
ATOM     39  C   UNL A   1      39.960  29.105  29.138  1.00  0.00     0.031 A 
ATOM     40  C   UNL A   1      40.953  30.157  29.558  1.00  0.00     0.074 A 
ATOM     41  C   UNL A   1      40.365  27.874  28.772  1.00  0.00     0.049 A 
ATOM     42  N   UNL A   1      42.256  30.142  29.491  1.00  0.00    -0.248 NA
ATOM     43  C   UNL A   1      40.392  31.433  30.039  1.00  0.00     0.031 C 
ATOM     44  C   UNL A   1      39.498  26.793  28.295  1.00  0.00     0.029 A 
ATOM     45  N   UNL A   1      41.624  27.331  28.720  1.00  0.00    -0.354 N 
ATOM     46  C   UNL A   1      42.660  31.422  29.857  1.00  0.00     0.074 A 
ATOM     47  C   UNL A   1      41.466  32.205  30.071  1.00  0.00     0.031 C 
ATOM     48  C   UNL A   1      40.247  25.711  28.024  1.00  0.00     0.029 A 
ATOM     49  C   UNL A   1      41.649  26.035  28.259  1.00  0.00     0.049 A 
ATOM     50  H   UNL A   1      42.433  27.822  28.987  1.00  0.00     0.167 HD
ATOM     51  C   UNL A   1      43.917  31.889  30.034  1.00  0.00     0.037 A 
ATOM     52  C   UNL A   1      42.695  25.212  28.044  1.00  0.00     0.037 A 
ATOM     53  C   UNL A   1      45.084  31.062  29.908  1.00  0.00     0.049 A 
ATOM     54  C   UNL A   1      44.081  25.726  28.327  1.00  0.00     0.074 A 
ATOM     55  C   UNL A   1      46.405  31.390  30.149  1.00  0.00     0.029 A 
ATOM     56  N   UNL A   1      45.062  29.725  29.532  1.00  0.00    -0.354 N 
ATOM     57  N   UNL A   1      44.451  26.927  28.709  1.00  0.00    -0.248 NA
ATOM     58  C   UNL A   1      45.190  24.779  28.161  1.00  0.00     0.031 C 
ATOM     59  C   UNL A   1      47.184  30.256  29.896  1.00  0.00     0.029 A 
ATOM     60  C   UNL A   1      46.345  29.211  29.538  1.00  0.00     0.049 A 
ATOM     61  H   UNL A   1      44.251  29.219  29.296  1.00  0.00     0.167 HD
ATOM     62  C   UNL A   1      45.832  26.870  28.859  1.00  0.00     0.074 A 
ATOM     63  C   UNL A   1      46.229  25.515  28.533  1.00  0.00     0.031 C 
ATOM     64  C   UNL A   1      46.696  27.848  29.231  1.00  0.00     0.037 A 
BRANCH  51  65
ATOM     65  C   UNL A   1      44.078  33.338  30.409  1.00  0.00     0.058 A 
ATOM     66  C   UNL A   1      44.296  34.334  29.443  1.00  0.00     0.135 A 
ATOM     67  C   UNL A   1      44.013  33.739  31.753  1.00  0.00     0.135 A 
ATOM     68  F   UNL A   1      44.388  34.006  28.143  1.00  0.00    -0.206 F 
ATOM     69  C   UNL A   1      44.490  35.664  29.796  1.00  0.00     0.059 A 
ATOM     70  C   UNL A   1      44.168  35.072  32.127  1.00  0.00     0.059 A 
ATOM     71  F   UNL A   1      43.808  32.831  32.721  1.00  0.00    -0.206 F 
ATOM     72  C   UNL A   1      44.426  36.023  31.143  1.00  0.00     0.060 A 
BRANCH  72  73
ATOM     73  S   UNL A   1      44.674  37.756  31.583  1.00  0.00     0.124 S 
ATOM     74  O   UNL A   1      44.796  37.672  33.035  1.00  0.00    -0.237 OA
ATOM     75  O   UNL A   1      45.899  38.089  30.864  1.00  0.00    -0.237 OA
ATOM     76  O   UNL A   1      43.465  38.408  31.093  1.00  0.00    -0.744 OA
ENDBRANCH  72  73
ENDBRANCH  51  65
BRANCH  52  77
ATOM     77  C   UNL A   1      42.466  23.815  27.582  1.00  0.00     0.058 A 
ATOM     78  C   UNL A   1      42.375  23.518  26.214  1.00  0.00     0.135 A 
ATOM     79  C   UNL A   1      42.360  22.746  28.487  1.00  0.00     0.135 A 
ATOM     80  F   UNL A   1      42.467  24.504  25.308  1.00  0.00    -0.206 F 
ATOM     81  C   UNL A   1      42.171  22.220  25.758  1.00  0.00     0.059 A 
ATOM     82  C   UNL A   1      42.180  21.435  28.055  1.00  0.00     0.059 A 
ATOM     83  F   UNL A   1      42.462  22.970  29.807  1.00  0.00    -0.206 F 
ATOM     84  C   UNL A   1      42.078  21.183  26.687  1.00  0.00     0.060 A 
BRANCH  84  85
ATOM     85  S   UNL A   1      41.868  19.494  26.081  1.00  0.00     0.124 S 
ATOM     86  O   UNL A   1      40.437  19.459  25.798  1.00  0.00    -0.237 OA
ATOM     87  O   UNL A   1      42.749  19.474  24.918  1.00  0.00    -0.237 OA
ATOM     88  O   UNL A   1      42.309  18.676  27.207  1.00  0.00    -0.744 OA
ENDBRANCH  84  85
ENDBRANCH  52  77
BRANCH  64  89
ATOM     89  C   UNL A   1      48.144  27.474  29.356  1.00  0.00     0.058 A 
ATOM     90  C   UNL A   1      49.051  27.677  28.306  1.00  0.00     0.135 A 
ATOM     91  C   UNL A   1      48.641  26.981  30.574  1.00  0.00     0.135 A 
ATOM     92  F   UNL A   1      48.622  28.143  27.123  1.00  0.00    -0.206 F 
ATOM     93  C   UNL A   1      50.402  27.387  28.453  1.00  0.00     0.059 A 
ATOM     94  C   UNL A   1      49.991  26.709  30.751  1.00  0.00     0.059 A 
ATOM     95  F   UNL A   1      47.812  26.783  31.612  1.00  0.00    -0.206 F 
ATOM     96  C   UNL A   1      50.863  26.907  29.681  1.00  0.00     0.060 A 
BRANCH  96  97
ATOM     97  S   UNL A   1      52.627  26.581  29.874  1.00  0.00     0.124 S 
ATOM     98  O   UNL A   1      53.152  27.926  30.084  1.00  0.00    -0.237 OA
ATOM     99  O   UNL A   1      52.656  25.699  31.036  1.00  0.00    -0.237 OA
ATOM    100  O   UNL A   1      52.995  25.952  28.609  1.00  0.00    -0.744 OA
ENDBRANCH  96  97
ENDBRANCH  64  89
ENDBRANCH  38  39
ENDBRANCH  30  33
ENDBRANCH  28  29
ENDBRANCH  27  28
ENDBRANCH   1  27
TORSDOF 19
ENDMDL
MODEL 3
REMARK VINA RESULT:     -10.2      0.994      1.892
REMARK SMILES CC[NH2+][C@]1(C(=O)NCCCNC(=O)c2ccc(-c3c4nc(c(-c5c(F)cc(S(=O)(=O)[O-])cc5F)c5ccc([nH]5)c(-c5c(F)cc(S(=O)(=O)[O-])cc5F)c5nc(c(-c6c(F)cc(S(=O)(=O)[O-])cc6F)c6ccc3[nH]6)C=C5)C=C4)cc2)CCC[C@H]1CC[N@H+]1CCC[C@@H](CC)C1
REMARK SMILES IDX 8 1 7 2 5 3 6 4 4 6 80 7 83 8 81 9 82 10 3 11 2 14 1 15
REMARK SMILES IDX 84 16 85 17 86 18 87 19 93 20 88 22 90 23 89 24 91 25 92 26
REMARK SMILES IDX 9 27 10 28 11 29 12 30 13 32 14 33 15 34 79 35 16 36 78 37
REMARK SMILES IDX 17 38 18 39 19 40 72 41 20 42 77 43 71 44 73 45 21 46 76 47
REMARK SMILES IDX 70 48 69 49 22 51 56 52 35 53 55 54 36 55 39 56 54 57 74 58
REMARK SMILES IDX 37 59 38 60 53 62 75 63 40 64 23 65 24 66 33 67 25 68 26 69
REMARK SMILES IDX 32 70 34 71 27 72 28 73 29 74 30 75 31 76 57 77 58 78 67 79
REMARK SMILES IDX 59 80 60 81 66 82 68 83 61 84 62 85 63 86 64 87 65 88 41 89
REMARK SMILES IDX 42 90 51 91 43 92 44 93 50 94 52 95 45 96 46 97 47 98 48 99
REMARK SMILES IDX 49 100
REMARK H PARENT 7 5 3 12 3 13 86 21 11 31 73 50 39 61
REMARK Flexibility Score: inf
ROOT
ATOM      1  C   UNL A   1      33.806  27.158  25.591  1.00  0.00     0.118 C 
ENDROOT
BRANCH   1   2
ATOM      2  N   UNL A   1      32.556  26.596  26.055  1.00  0.00    -0.351 N 
ATOM      3  C   UNL A   1      32.366  25.252  25.830  1.00  0.00     0.281 C 
ATOM      4  O   UNL A   1      33.193  24.462  26.287  1.00  0.00    -0.268 OA
ATOM      5  H   UNL A   1      31.877  27.147  26.506  1.00  0.00     0.163 HD
BRANCH   3   6
ATOM      6  C   UNL A   1      31.051  24.837  25.100  1.00  0.00     0.178 C 
ATOM      7  C   UNL A   1      29.983  25.939  25.327  1.00  0.00     0.079 C 
ATOM      8  C   UNL A   1      31.116  24.713  23.525  1.00  0.00     0.066 C 
ATOM      9  C   UNL A   1      29.197  26.035  24.029  1.00  0.00     0.008 C 
ATOM     10  C   UNL A   1      30.273  25.867  22.971  1.00  0.00     0.011 C 
BRANCH   6  11
ATOM     11  N   UNL A   1      30.594  23.478  25.513  1.00  0.00    -0.334 N 
ATOM     12  H   UNL A   1      29.653  23.352  25.140  1.00  0.00     0.347 HD
ATOM     13  H   UNL A   1      31.313  22.854  25.146  1.00  0.00     0.347 HD
BRANCH  11  14
ATOM     14  C   UNL A   1      30.540  23.161  26.933  1.00  0.00     0.257 C 
ATOM     15  C   UNL A   1      29.176  22.540  27.204  1.00  0.00     0.071 C 
ENDBRANCH  11  14
ENDBRANCH   6  11
BRANCH   8  16
ATOM     16  C   UNL A   1      32.448  24.511  22.780  1.00  0.00     0.072 C 
BRANCH  16  17
ATOM     17  C   UNL A   1      32.687  23.038  22.389  1.00  0.00     0.262 C 
BRANCH  17  18
ATOM     18  N   UNL A   1      33.395  22.165  23.311  1.00  0.00    -0.335 N 
ATOM     19  C   UNL A   1      34.552  22.735  23.981  1.00  0.00     0.262 C 
ATOM     20  C   UNL A   1      32.614  21.282  24.181  1.00  0.00     0.265 C 
ATOM     21  H   UNL A   1      33.766  21.518  22.615  1.00  0.00     0.348 HD
ATOM     22  C   UNL A   1      35.514  21.603  24.319  1.00  0.00     0.062 C 
ATOM     23  C   UNL A   1      33.505  20.079  24.581  1.00  0.00     0.044 C 
ATOM     24  C   UNL A   1      34.841  20.545  25.184  1.00  0.00     0.015 C 
BRANCH  23  25
ATOM     25  C   UNL A   1      32.788  19.054  25.481  1.00  0.00     0.006 C 
ATOM     26  C   UNL A   1      32.673  17.649  24.908  1.00  0.00     0.004 C 
ENDBRANCH  23  25
ENDBRANCH  17  18
ENDBRANCH  16  17
ENDBRANCH   8  16
ENDBRANCH   3   6
ENDBRANCH   1   2
BRANCH   1  27
ATOM     27  C   UNL A   1      33.972  28.612  25.951  1.00  0.00     0.042 C 
BRANCH  27  28
ATOM     28  C   UNL A   1      33.556  28.835  27.388  1.00  0.00     0.118 C 
BRANCH  28  29
ATOM     29  N   UNL A   1      33.582  30.234  27.813  1.00  0.00    -0.352 N 
ATOM     30  C   UNL A   1      34.655  30.962  28.274  1.00  0.00     0.251 C 
ATOM     31  H   UNL A   1      32.724  30.715  27.764  1.00  0.00     0.163 HD
ATOM     32  O   UNL A   1      34.546  32.145  28.575  1.00  0.00    -0.269 OA
BRANCH  30  33
ATOM     33  C   UNL A   1      35.943  30.272  28.424  1.00  0.00     0.039 A 
ATOM     34  C   UNL A   1      36.868  30.290  27.378  1.00  0.00     0.014 A 
ATOM     35  C   UNL A   1      36.271  29.747  29.672  1.00  0.00     0.014 A 
ATOM     36  C   UNL A   1      38.171  29.854  27.620  1.00  0.00     0.010 A 
ATOM     37  C   UNL A   1      37.593  29.459  29.944  1.00  0.00     0.010 A 
ATOM     38  C   UNL A   1      38.553  29.486  28.919  1.00  0.00    -0.014 A 
BRANCH  38  39
ATOM     39  C   UNL A   1      39.928  29.053  29.264  1.00  0.00     0.031 A 
ATOM     40  C   UNL A   1      40.852  30.066  29.888  1.00  0.00     0.074 A 
ATOM     41  C   UNL A   1      40.375  27.835  28.901  1.00  0.00     0.049 A 
ATOM     42  N   UNL A   1      42.149  30.033  30.022  1.00  0.00    -0.248 NA
ATOM     43  C   UNL A   1      40.232  31.325  30.343  1.00  0.00     0.031 C 
ATOM     44  C   UNL A   1      39.584  26.794  28.240  1.00  0.00     0.029 A 
ATOM     45  N   UNL A   1      41.623  27.276  29.016  1.00  0.00    -0.354 N 
ATOM     46  C   UNL A   1      42.502  31.287  30.514  1.00  0.00     0.074 A 
ATOM     47  C   UNL A   1      41.295  32.077  30.581  1.00  0.00     0.031 C 
ATOM     48  C   UNL A   1      40.358  25.716  28.031  1.00  0.00     0.029 A 
ATOM     49  C   UNL A   1      41.709  26.005  28.497  1.00  0.00     0.049 A 
ATOM     50  H   UNL A   1      42.384  27.740  29.430  1.00  0.00     0.167 HD
ATOM     51  C   UNL A   1      43.720  31.724  30.908  1.00  0.00     0.037 A 
ATOM     52  C   UNL A   1      42.769  25.177  28.402  1.00  0.00     0.037 A 
ATOM     53  C   UNL A   1      44.885  30.886  30.920  1.00  0.00     0.049 A 
ATOM     54  C   UNL A   1      44.098  25.654  28.924  1.00  0.00     0.074 A 
ATOM     55  C   UNL A   1      46.155  31.180  31.380  1.00  0.00     0.029 A 
ATOM     56  N   UNL A   1      44.911  29.571  30.475  1.00  0.00    -0.354 N 
ATOM     57  N   UNL A   1      44.414  26.828  29.421  1.00  0.00    -0.248 NA
ATOM     58  C   UNL A   1      45.212  24.699  28.881  1.00  0.00     0.031 C 
ATOM     59  C   UNL A   1      46.955  30.048  31.190  1.00  0.00     0.029 A 
ATOM     60  C   UNL A   1      46.174  29.037  30.652  1.00  0.00     0.049 A 
ATOM     61  H   UNL A   1      44.143  29.090  30.090  1.00  0.00     0.167 HD
ATOM     62  C   UNL A   1      45.754  26.742  29.780  1.00  0.00     0.074 A 
ATOM     63  C   UNL A   1      46.186  25.399  29.448  1.00  0.00     0.031 C 
ATOM     64  C   UNL A   1      46.558  27.685  30.331  1.00  0.00     0.037 A 
BRANCH  51  65
ATOM     65  C   UNL A   1      43.831  33.149  31.378  1.00  0.00     0.058 A 
ATOM     66  C   UNL A   1      44.190  34.192  30.508  1.00  0.00     0.135 A 
ATOM     67  C   UNL A   1      43.577  33.480  32.719  1.00  0.00     0.135 A 
ATOM     68  F   UNL A   1      44.465  33.932  29.219  1.00  0.00    -0.206 F 
ATOM     69  C   UNL A   1      44.337  35.499  30.956  1.00  0.00     0.059 A 
ATOM     70  C   UNL A   1      43.683  34.789  33.183  1.00  0.00     0.059 A 
ATOM     71  F   UNL A   1      43.232  32.525  33.599  1.00  0.00    -0.206 F 
ATOM     72  C   UNL A   1      44.082  35.788  32.297  1.00  0.00     0.060 A 
BRANCH  72  73
ATOM     73  S   UNL A   1      44.273  37.492  32.861  1.00  0.00     0.124 S 
ATOM     74  O   UNL A   1      43.442  37.495  34.061  1.00  0.00    -0.237 OA
ATOM     75  O   UNL A   1      45.711  37.588  33.088  1.00  0.00    -0.237 OA
ATOM     76  O   UNL A   1      43.762  38.279  31.744  1.00  0.00    -0.744 OA
ENDBRANCH  72  73
ENDBRANCH  51  65
BRANCH  52  77
ATOM     77  C   UNL A   1      42.604  23.809  27.838  1.00  0.00     0.058 A 
ATOM     78  C   UNL A   1      42.616  23.600  26.451  1.00  0.00     0.135 A 
ATOM     79  C   UNL A   1      42.457  22.683  28.663  1.00  0.00     0.135 A 
ATOM     80  F   UNL A   1      42.751  24.644  25.618  1.00  0.00    -0.206 F 
ATOM     81  C   UNL A   1      42.474  22.331  25.899  1.00  0.00     0.059 A 
ATOM     82  C   UNL A   1      42.336  21.400  28.137  1.00  0.00     0.059 A 
ATOM     83  F   UNL A   1      42.460  22.822  29.998  1.00  0.00    -0.206 F 
ATOM     84  C   UNL A   1      42.337  21.235  26.752  1.00  0.00     0.060 A 
BRANCH  84  85
ATOM     85  S   UNL A   1      42.207  19.585  26.026  1.00  0.00     0.124 S 
ATOM     86  O   UNL A   1      40.796  19.538  25.656  1.00  0.00    -0.237 OA
ATOM     87  O   UNL A   1      43.155  19.661  24.920  1.00  0.00    -0.237 OA
ATOM     88  O   UNL A   1      42.602  18.705  27.122  1.00  0.00    -0.744 OA
ENDBRANCH  84  85
ENDBRANCH  52  77
BRANCH  64  89
ATOM     89  C   UNL A   1      47.966  27.283  30.660  1.00  0.00     0.058 A 
ATOM     90  C   UNL A   1      48.295  26.689  31.887  1.00  0.00     0.135 A 
ATOM     91  C   UNL A   1      48.980  27.423  29.699  1.00  0.00     0.135 A 
ATOM     92  F   UNL A   1      47.359  26.538  32.837  1.00  0.00    -0.206 F 
ATOM     93  C   UNL A   1      49.589  26.262  32.157  1.00  0.00     0.059 A 
ATOM     94  C   UNL A   1      50.274  26.979  29.938  1.00  0.00     0.059 A 
ATOM     95  F   UNL A   1      48.709  27.974  28.504  1.00  0.00    -0.206 F 
ATOM     96  C   UNL A   1      50.571  26.407  31.175  1.00  0.00     0.060 A 
BRANCH  96  97
ATOM     97  S   UNL A   1      52.236  25.804  31.521  1.00  0.00     0.124 S 
ATOM     98  O   UNL A   1      51.971  24.424  31.914  1.00  0.00    -0.237 OA
ATOM     99  O   UNL A   1      52.906  25.981  30.236  1.00  0.00    -0.237 OA
ATOM    100  O   UNL A   1      52.700  26.684  32.589  1.00  0.00    -0.744 OA
ENDBRANCH  96  97
ENDBRANCH  64  89
ENDBRANCH  38  39
ENDBRANCH  30  33
ENDBRANCH  28  29
ENDBRANCH  27  28
ENDBRANCH   1  27
TORSDOF 19
ENDMDL
