MODEL 1
REMARK VINA RESULT:     -12.3      0.000      0.000
REMARK SMILES O=C(Cc1cccn1-c1ccccc1F)NCCCNC(=O)c1ccc(-c2c3nc(c(-c4c(F)cc(S(=O)(=O)[O-])cc4F)c4ccc([nH]4)c(-c4c(F)cc(S(=O)(=O)[O-])cc4F)c4nc(c(-c5c(F)cc(S(=O)(=O)[O-])cc5F)c5ccc2[nH]5)C=C4)C=C3)cc1
REMARK SMILES IDX 18 1 17 2 16 3 1 4 2 5 3 7 4 8 5 9 8 10 6 11 7 12 9 13 10 14
REMARK SMILES IDX 14 15 11 16 13 17 15 18 12 19 19 20 20 21 21 22 22 24 23 25
REMARK SMILES IDX 24 26 88 27 25 28 87 29 26 30 27 31 28 32 81 33 29 34 86 35
REMARK SMILES IDX 80 36 82 37 30 38 85 39 79 40 78 41 31 43 65 44 44 45 64 46
REMARK SMILES IDX 45 47 48 48 63 49 83 50 46 51 47 52 62 54 84 55 49 56 32 57
REMARK SMILES IDX 33 58 42 59 34 60 35 61 41 62 43 63 36 64 37 65 38 66 39 67
REMARK SMILES IDX 40 68 66 69 67 70 76 71 68 72 69 73 75 74 77 75 70 76 71 77
REMARK SMILES IDX 72 78 73 79 74 80 50 81 51 82 60 83 52 84 53 85 59 86 61 87
REMARK SMILES IDX 54 88 55 89 56 90 57 91 58 92
REMARK H PARENT 16 6 20 23 82 42 48 53
REMARK Flexibility Score: inf
ROOT
ATOM      1  C   UNL A   1      32.885  28.782  27.231  1.00  0.00     0.042 C 
ENDROOT
BRANCH   1   2
ATOM      2  C   UNL A   1      31.886  28.449  26.119  1.00  0.00     0.117 C 
BRANCH   2   3
ATOM      3  N   UNL A   1      32.386  27.448  25.193  1.00  0.00    -0.356 N 
ATOM      4  O   UNL A   1      31.773  28.564  23.284  1.00  0.00    -0.275 OA
ATOM      5  C   UNL A   1      32.333  27.611  23.823  1.00  0.00     0.225 C 
ATOM      6  H   UNL A   1      32.778  26.620  25.557  1.00  0.00     0.163 HD
BRANCH   5   7
ATOM      7  C   UNL A   1      33.056  26.518  23.035  1.00  0.00     0.154 C 
BRANCH   7   8
ATOM      8  C   UNL A   1      32.434  25.177  23.302  1.00  0.00     0.032 A 
ATOM      9  C   UNL A   1      31.096  24.824  23.221  1.00  0.00     0.024 A 
ATOM     10  N   UNL A   1      33.145  24.030  23.617  1.00  0.00    -0.318 N 
ATOM     11  C   UNL A   1      30.999  23.429  23.407  1.00  0.00     0.020 A 
ATOM     12  C   UNL A   1      32.276  22.957  23.587  1.00  0.00     0.091 A 
BRANCH  10  13
ATOM     13  C   UNL A   1      34.493  23.899  23.999  1.00  0.00     0.081 A 
ATOM     14  C   UNL A   1      35.390  23.238  23.149  1.00  0.00     0.030 A 
ATOM     15  C   UNL A   1      34.883  24.272  25.282  1.00  0.00     0.147 A 
ATOM     16  C   UNL A   1      36.679  22.956  23.594  1.00  0.00     0.002 A 
ATOM     17  C   UNL A   1      36.145  23.931  25.746  1.00  0.00     0.041 A 
ATOM     18  F   UNL A   1      34.038  24.889  26.117  1.00  0.00    -0.205 F 
ATOM     19  C   UNL A   1      37.041  23.268  24.903  1.00  0.00     0.003 A 
ENDBRANCH  10  13
ENDBRANCH   7   8
ENDBRANCH   5   7
ENDBRANCH   2   3
ENDBRANCH   1   2
BRANCH   1  20
ATOM     20  C   UNL A   1      34.300  29.048  26.713  1.00  0.00     0.118 C 
BRANCH  20  21
ATOM     21  N   UNL A   1      34.775  30.383  27.033  1.00  0.00    -0.352 N 
ATOM     22  C   UNL A   1      35.886  30.823  27.716  1.00  0.00     0.251 C 
ATOM     23  H   UNL A   1      34.196  31.106  26.701  1.00  0.00     0.163 HD
ATOM     24  O   UNL A   1      35.917  32.020  28.014  1.00  0.00    -0.269 OA
BRANCH  22  25
ATOM     25  C   UNL A   1      37.037  29.958  28.105  1.00  0.00     0.039 A 
ATOM     26  C   UNL A   1      38.147  29.919  27.243  1.00  0.00     0.014 A 
ATOM     27  C   UNL A   1      37.045  29.116  29.217  1.00  0.00     0.014 A 
ATOM     28  C   UNL A   1      39.254  29.113  27.530  1.00  0.00     0.010 A 
ATOM     29  C   UNL A   1      38.109  28.251  29.470  1.00  0.00     0.010 A 
ATOM     30  C   UNL A   1      39.248  28.298  28.665  1.00  0.00    -0.014 A 
BRANCH  30  31
ATOM     31  C   UNL A   1      40.511  27.701  29.169  1.00  0.00     0.031 A 
ATOM     32  C   UNL A   1      40.893  26.419  28.401  1.00  0.00     0.074 A 
ATOM     33  C   UNL A   1      41.147  28.311  30.212  1.00  0.00     0.049 A 
ATOM     34  N   UNL A   1      41.595  25.395  28.787  1.00  0.00    -0.248 NA
ATOM     35  C   UNL A   1      40.340  26.199  27.034  1.00  0.00     0.031 C 
ATOM     36  C   UNL A   1      40.682  29.551  30.858  1.00  0.00     0.029 A 
ATOM     37  N   UNL A   1      42.290  28.030  30.938  1.00  0.00    -0.354 N 
ATOM     38  C   UNL A   1      41.693  24.512  27.691  1.00  0.00     0.074 A 
ATOM     39  C   UNL A   1      40.826  25.014  26.673  1.00  0.00     0.031 C 
ATOM     40  C   UNL A   1      41.473  29.870  31.903  1.00  0.00     0.029 A 
ATOM     41  C   UNL A   1      42.541  28.895  32.035  1.00  0.00     0.049 A 
ATOM     42  H   UNL A   1      42.890  27.284  30.707  1.00  0.00     0.167 HD
ATOM     43  C   UNL A   1      42.550  23.456  27.631  1.00  0.00     0.037 A 
ATOM     44  C   UNL A   1      43.502  28.807  33.010  1.00  0.00     0.037 A 
ATOM     45  C   UNL A   1      43.312  23.356  28.828  1.00  0.00     0.049 A 
ATOM     46  C   UNL A   1      44.342  27.646  32.651  1.00  0.00     0.074 A 
ATOM     47  C   UNL A   1      43.021  22.916  30.091  1.00  0.00     0.029 A 
ATOM     48  N   UNL A   1      44.510  24.022  28.853  1.00  0.00    -0.354 N 
ATOM     49  N   UNL A   1      45.217  27.606  31.690  1.00  0.00    -0.248 NA
ATOM     50  C   UNL A   1      44.144  26.396  33.402  1.00  0.00     0.031 C 
ATOM     51  C   UNL A   1      43.876  23.663  30.929  1.00  0.00     0.029 A 
ATOM     52  C   UNL A   1      44.700  24.471  30.139  1.00  0.00     0.049 A 
ATOM     53  H   UNL A   1      45.122  24.155  28.092  1.00  0.00     0.167 HD
ATOM     54  C   UNL A   1      45.445  26.257  31.544  1.00  0.00     0.074 A 
ATOM     55  C   UNL A   1      45.024  25.625  32.772  1.00  0.00     0.031 C 
ATOM     56  C   UNL A   1      45.450  25.695  30.311  1.00  0.00     0.037 A 
BRANCH  43  57
ATOM     57  C   UNL A   1      42.940  22.561  26.489  1.00  0.00     0.058 A 
ATOM     58  C   UNL A   1      43.929  22.885  25.549  1.00  0.00     0.135 A 
ATOM     59  C   UNL A   1      42.545  21.203  26.542  1.00  0.00     0.135 A 
ATOM     60  F   UNL A   1      44.373  24.143  25.421  1.00  0.00    -0.206 F 
ATOM     61  C   UNL A   1      44.552  21.907  24.769  1.00  0.00     0.059 A 
ATOM     62  C   UNL A   1      43.179  20.208  25.804  1.00  0.00     0.059 A 
ATOM     63  F   UNL A   1      41.568  20.806  27.375  1.00  0.00    -0.206 F 
ATOM     64  C   UNL A   1      44.200  20.567  24.935  1.00  0.00     0.060 A 
BRANCH  64  65
ATOM     65  S   UNL A   1      45.165  19.283  24.108  1.00  0.00     0.124 S 
ATOM     66  O   UNL A   1      44.875  18.118  24.937  1.00  0.00    -0.237 OA
ATOM     67  O   UNL A   1      44.590  19.270  22.768  1.00  0.00    -0.237 OA
ATOM     68  O   UNL A   1      46.534  19.786  24.190  1.00  0.00    -0.744 OA
ENDBRANCH  64  65
ENDBRANCH  43  57
BRANCH  44  69
ATOM     69  C   UNL A   1      43.790  29.454  34.359  1.00  0.00     0.058 A 
ATOM     70  C   UNL A   1      43.001  29.106  35.496  1.00  0.00     0.135 A 
ATOM     71  C   UNL A   1      44.714  30.478  34.616  1.00  0.00     0.135 A 
ATOM     72  F   UNL A   1      42.215  28.022  35.506  1.00  0.00    -0.206 F 
ATOM     73  C   UNL A   1      42.951  29.851  36.672  1.00  0.00     0.059 A 
ATOM     74  C   UNL A   1      44.718  31.218  35.814  1.00  0.00     0.059 A 
ATOM     75  F   UNL A   1      45.661  30.799  33.729  1.00  0.00    -0.206 F 
ATOM     76  C   UNL A   1      43.777  30.947  36.803  1.00  0.00     0.060 A 
BRANCH  76  77
ATOM     77  S   UNL A   1      43.601  31.991  38.263  1.00  0.00     0.124 S 
ATOM     78  O   UNL A   1      42.260  31.630  38.713  1.00  0.00    -0.237 OA
ATOM     79  O   UNL A   1      44.694  31.542  39.120  1.00  0.00    -0.237 OA
ATOM     80  O   UNL A   1      43.743  33.341  37.727  1.00  0.00    -0.744 OA
ENDBRANCH  76  77
ENDBRANCH  44  69
BRANCH  56  81
ATOM     81  C   UNL A   1      45.872  26.618  29.197  1.00  0.00     0.058 A 
ATOM     82  C   UNL A   1      44.966  27.314  28.379  1.00  0.00     0.135 A 
ATOM     83  C   UNL A   1      47.235  26.854  28.968  1.00  0.00     0.135 A 
ATOM     84  F   UNL A   1      43.650  27.187  28.566  1.00  0.00    -0.206 F 
ATOM     85  C   UNL A   1      45.383  28.162  27.353  1.00  0.00     0.059 A 
ATOM     86  C   UNL A   1      47.680  27.709  27.958  1.00  0.00     0.059 A 
ATOM     87  F   UNL A   1      48.156  26.236  29.726  1.00  0.00    -0.206 F 
ATOM     88  C   UNL A   1      46.745  28.355  27.148  1.00  0.00     0.060 A 
BRANCH  88  89
ATOM     89  S   UNL A   1      47.276  29.434  25.799  1.00  0.00     0.124 S 
ATOM     90  O   UNL A   1      48.630  29.801  26.216  1.00  0.00    -0.237 OA
ATOM     91  O   UNL A   1      47.204  28.539  24.644  1.00  0.00    -0.237 OA
ATOM     92  O   UNL A   1      46.304  30.513  25.815  1.00  0.00    -0.744 OA
ENDBRANCH  88  89
ENDBRANCH  56  81
ENDBRANCH  30  31
ENDBRANCH  22  25
ENDBRANCH  20  21
ENDBRANCH   1  20
TORSDOF 15
ENDMDL
MODEL 2
REMARK VINA RESULT:     -12.1      1.715      3.017
REMARK SMILES O=C(Cc1cccn1-c1ccccc1F)NCCCNC(=O)c1ccc(-c2c3nc(c(-c4c(F)cc(S(=O)(=O)[O-])cc4F)c4ccc([nH]4)c(-c4c(F)cc(S(=O)(=O)[O-])cc4F)c4nc(c(-c5c(F)cc(S(=O)(=O)[O-])cc5F)c5ccc2[nH]5)C=C4)C=C3)cc1
REMARK SMILES IDX 18 1 17 2 16 3 1 4 2 5 3 7 4 8 5 9 8 10 6 11 7 12 9 13 10 14
REMARK SMILES IDX 14 15 11 16 13 17 15 18 12 19 19 20 20 21 21 22 22 24 23 25
REMARK SMILES IDX 24 26 88 27 25 28 87 29 26 30 27 31 28 32 81 33 29 34 86 35
REMARK SMILES IDX 80 36 82 37 30 38 85 39 79 40 78 41 31 43 65 44 44 45 64 46
REMARK SMILES IDX 45 47 48 48 63 49 83 50 46 51 47 52 62 54 84 55 49 56 32 57
REMARK SMILES IDX 33 58 42 59 34 60 35 61 41 62 43 63 36 64 37 65 38 66 39 67
REMARK SMILES IDX 40 68 66 69 67 70 76 71 68 72 69 73 75 74 77 75 70 76 71 77
REMARK SMILES IDX 72 78 73 79 74 80 50 81 51 82 60 83 52 84 53 85 59 86 61 87
REMARK SMILES IDX 54 88 55 89 56 90 57 91 58 92
REMARK H PARENT 16 6 20 23 82 42 48 53
REMARK Flexibility Score: inf
ROOT
ATOM      1  C   UNL A   1      32.781  28.972  27.205  1.00  0.00     0.042 C 
ENDROOT
BRANCH   1   2
ATOM      2  C   UNL A   1      32.266  27.532  27.283  1.00  0.00     0.117 C 
BRANCH   2   3
ATOM      3  N   UNL A   1      31.453  27.160  26.138  1.00  0.00    -0.356 N 
ATOM      4  O   UNL A   1      30.794  25.124  26.967  1.00  0.00    -0.275 OA
ATOM      5  C   UNL A   1      30.728  25.985  26.092  1.00  0.00     0.225 C 
ATOM      6  H   UNL A   1      31.417  27.770  25.365  1.00  0.00     0.163 HD
BRANCH   5   7
ATOM      7  C   UNL A   1      29.816  25.862  24.872  1.00  0.00     0.154 C 
BRANCH   7   8
ATOM      8  C   UNL A   1      30.561  26.220  23.618  1.00  0.00     0.032 A 
ATOM      9  C   UNL A   1      31.554  25.495  22.977  1.00  0.00     0.024 A 
ATOM     10  N   UNL A   1      30.308  27.343  22.846  1.00  0.00    -0.318 N 
ATOM     11  C   UNL A   1      31.852  26.142  21.759  1.00  0.00     0.020 A 
ATOM     12  C   UNL A   1      31.030  27.238  21.675  1.00  0.00     0.091 A 
BRANCH  10  13
ATOM     13  C   UNL A   1      29.537  28.478  23.159  1.00  0.00     0.081 A 
ATOM     14  C   UNL A   1      28.191  28.525  22.771  1.00  0.00     0.030 A 
ATOM     15  C   UNL A   1      30.157  29.604  23.694  1.00  0.00     0.147 A 
ATOM     16  C   UNL A   1      27.472  29.708  22.925  1.00  0.00     0.002 A 
ATOM     17  C   UNL A   1      29.457  30.798  23.784  1.00  0.00     0.041 A 
ATOM     18  F   UNL A   1      31.445  29.586  24.056  1.00  0.00    -0.205 F 
ATOM     19  C   UNL A   1      28.116  30.851  23.395  1.00  0.00     0.003 A 
ENDBRANCH  10  13
ENDBRANCH   7   8
ENDBRANCH   5   7
ENDBRANCH   2   3
ENDBRANCH   1   2
BRANCH   1  20
ATOM     20  C   UNL A   1      34.291  29.061  26.975  1.00  0.00     0.118 C 
BRANCH  20  21
ATOM     21  N   UNL A   1      34.813  30.403  27.172  1.00  0.00    -0.352 N 
ATOM     22  C   UNL A   1      35.970  30.861  27.760  1.00  0.00     0.251 C 
ATOM     23  H   UNL A   1      34.232  31.115  26.822  1.00  0.00     0.163 HD
ATOM     24  O   UNL A   1      36.044  32.074  27.969  1.00  0.00    -0.269 OA
BRANCH  22  25
ATOM     25  C   UNL A   1      37.122  29.995  28.146  1.00  0.00     0.039 A 
ATOM     26  C   UNL A   1      38.242  29.980  27.296  1.00  0.00     0.014 A 
ATOM     27  C   UNL A   1      37.123  29.132  29.242  1.00  0.00     0.014 A 
ATOM     28  C   UNL A   1      39.351  29.175  27.580  1.00  0.00     0.010 A 
ATOM     29  C   UNL A   1      38.190  28.269  29.491  1.00  0.00     0.010 A 
ATOM     30  C   UNL A   1      39.337  28.339  28.700  1.00  0.00    -0.014 A 
BRANCH  30  31
ATOM     31  C   UNL A   1      40.598  27.739  29.206  1.00  0.00     0.031 A 
ATOM     32  C   UNL A   1      40.984  26.460  28.436  1.00  0.00     0.074 A 
ATOM     33  C   UNL A   1      41.229  28.346  30.254  1.00  0.00     0.049 A 
ATOM     34  N   UNL A   1      41.683  25.435  28.821  1.00  0.00    -0.248 NA
ATOM     35  C   UNL A   1      40.436  26.245  27.066  1.00  0.00     0.031 C 
ATOM     36  C   UNL A   1      40.762  29.584  30.902  1.00  0.00     0.029 A 
ATOM     37  N   UNL A   1      42.371  28.063  30.983  1.00  0.00    -0.354 N 
ATOM     38  C   UNL A   1      41.786  24.555  27.722  1.00  0.00     0.074 A 
ATOM     39  C   UNL A   1      40.923  25.060  26.702  1.00  0.00     0.031 C 
ATOM     40  C   UNL A   1      41.549  29.899  31.952  1.00  0.00     0.029 A 
ATOM     41  C   UNL A   1      42.616  28.924  32.084  1.00  0.00     0.049 A 
ATOM     42  H   UNL A   1      42.971  27.317  30.753  1.00  0.00     0.167 HD
ATOM     43  C   UNL A   1      42.644  23.500  27.663  1.00  0.00     0.037 A 
ATOM     44  C   UNL A   1      43.574  28.833  33.062  1.00  0.00     0.037 A 
ATOM     45  C   UNL A   1      43.400  23.396  28.862  1.00  0.00     0.049 A 
ATOM     46  C   UNL A   1      44.415  27.673  32.703  1.00  0.00     0.074 A 
ATOM     47  C   UNL A   1      43.104  22.952  30.122  1.00  0.00     0.029 A 
ATOM     48  N   UNL A   1      44.599  24.062  28.894  1.00  0.00    -0.354 N 
ATOM     49  N   UNL A   1      45.294  27.636  31.745  1.00  0.00    -0.248 NA
ATOM     50  C   UNL A   1      44.214  26.421  33.449  1.00  0.00     0.031 C 
ATOM     51  C   UNL A   1      43.956  23.696  30.967  1.00  0.00     0.029 A 
ATOM     52  C   UNL A   1      44.783  24.506  30.182  1.00  0.00     0.049 A 
ATOM     53  H   UNL A   1      45.213  24.197  28.136  1.00  0.00     0.167 HD
ATOM     54  C   UNL A   1      45.523  26.287  31.596  1.00  0.00     0.074 A 
ATOM     55  C   UNL A   1      45.097  25.652  32.820  1.00  0.00     0.031 C 
ATOM     56  C   UNL A   1      45.532  25.730  30.362  1.00  0.00     0.037 A 
BRANCH  43  57
ATOM     57  C   UNL A   1      43.038  22.608  26.519  1.00  0.00     0.058 A 
ATOM     58  C   UNL A   1      44.086  22.897  25.633  1.00  0.00     0.135 A 
ATOM     59  C   UNL A   1      42.568  21.274  26.522  1.00  0.00     0.135 A 
ATOM     60  F   UNL A   1      44.602  24.132  25.555  1.00  0.00    -0.206 F 
ATOM     61  C   UNL A   1      44.691  21.903  24.860  1.00  0.00     0.059 A 
ATOM     62  C   UNL A   1      43.181  20.261  25.792  1.00  0.00     0.059 A 
ATOM     63  F   UNL A   1      41.533  20.914  27.300  1.00  0.00    -0.206 F 
ATOM     64  C   UNL A   1      44.260  20.581  24.979  1.00  0.00     0.060 A 
BRANCH  64  65
ATOM     65  S   UNL A   1      45.193  19.264  24.167  1.00  0.00     0.124 S 
ATOM     66  O   UNL A   1      44.845  18.109  24.989  1.00  0.00    -0.237 OA
ATOM     67  O   UNL A   1      44.642  19.273  22.817  1.00  0.00    -0.237 OA
ATOM     68  O   UNL A   1      46.578  19.716  24.275  1.00  0.00    -0.744 OA
ENDBRANCH  64  65
ENDBRANCH  43  57
BRANCH  44  69
ATOM     69  C   UNL A   1      43.857  29.475  34.415  1.00  0.00     0.058 A 
ATOM     70  C   UNL A   1      45.127  30.075  34.665  1.00  0.00     0.135 A 
ATOM     71  C   UNL A   1      43.019  29.459  35.540  1.00  0.00     0.135 A 
ATOM     72  F   UNL A   1      45.979  30.367  33.673  1.00  0.00    -0.206 F 
ATOM     73  C   UNL A   1      45.609  30.390  35.934  1.00  0.00     0.059 A 
ATOM     74  C   UNL A   1      43.465  29.817  36.828  1.00  0.00     0.059 A 
ATOM     75  F   UNL A   1      41.732  29.113  35.443  1.00  0.00    -0.206 F 
ATOM     76  C   UNL A   1      44.786  30.204  37.025  1.00  0.00     0.060 A 
BRANCH  76  77
ATOM     77  S   UNL A   1      45.466  30.472  38.673  1.00  0.00     0.124 S 
ATOM     78  O   UNL A   1      44.949  31.801  38.984  1.00  0.00    -0.237 OA
ATOM     79  O   UNL A   1      44.891  29.375  39.446  1.00  0.00    -0.237 OA
ATOM     80  O   UNL A   1      46.907  30.392  38.456  1.00  0.00    -0.744 OA
ENDBRANCH  76  77
ENDBRANCH  44  69
BRANCH  56  81
ATOM     81  C   UNL A   1      45.959  26.657  29.252  1.00  0.00     0.058 A 
ATOM     82  C   UNL A   1      45.056  27.346  28.424  1.00  0.00     0.135 A 
ATOM     83  C   UNL A   1      47.322  26.903  29.037  1.00  0.00     0.135 A 
ATOM     84  F   UNL A   1      43.739  27.208  28.598  1.00  0.00    -0.206 F 
ATOM     85  C   UNL A   1      45.477  28.197  27.403  1.00  0.00     0.059 A 
ATOM     86  C   UNL A   1      47.771  27.763  28.032  1.00  0.00     0.059 A 
ATOM     87  F   UNL A   1      48.240  26.292  29.805  1.00  0.00    -0.206 F 
ATOM     88  C   UNL A   1      46.840  28.401  27.213  1.00  0.00     0.060 A 
BRANCH  88  89
ATOM     89  S   UNL A   1      47.377  29.485  25.870  1.00  0.00     0.124 S 
ATOM     90  O   UNL A   1      48.509  30.186  26.476  1.00  0.00    -0.237 OA
ATOM     91  O   UNL A   1      47.730  28.524  24.823  1.00  0.00    -0.237 OA
ATOM     92  O   UNL A   1      46.209  30.304  25.597  1.00  0.00    -0.744 OA
ENDBRANCH  88  89
ENDBRANCH  56  81
ENDBRANCH  30  31
ENDBRANCH  22  25
ENDBRANCH  20  21
ENDBRANCH   1  20
TORSDOF 15
ENDMDL
MODEL 3
REMARK VINA RESULT:     -12.0      2.134      3.559
REMARK SMILES O=C(Cc1cccn1-c1ccccc1F)NCCCNC(=O)c1ccc(-c2c3nc(c(-c4c(F)cc(S(=O)(=O)[O-])cc4F)c4ccc([nH]4)c(-c4c(F)cc(S(=O)(=O)[O-])cc4F)c4nc(c(-c5c(F)cc(S(=O)(=O)[O-])cc5F)c5ccc2[nH]5)C=C4)C=C3)cc1
REMARK SMILES IDX 18 1 17 2 16 3 1 4 2 5 3 7 4 8 5 9 8 10 6 11 7 12 9 13 10 14
REMARK SMILES IDX 14 15 11 16 13 17 15 18 12 19 19 20 20 21 21 22 22 24 23 25
REMARK SMILES IDX 24 26 88 27 25 28 87 29 26 30 27 31 28 32 81 33 29 34 86 35
REMARK SMILES IDX 80 36 82 37 30 38 85 39 79 40 78 41 31 43 65 44 44 45 64 46
REMARK SMILES IDX 45 47 48 48 63 49 83 50 46 51 47 52 62 54 84 55 49 56 32 57
REMARK SMILES IDX 33 58 42 59 34 60 35 61 41 62 43 63 36 64 37 65 38 66 39 67
REMARK SMILES IDX 40 68 66 69 67 70 76 71 68 72 69 73 75 74 77 75 70 76 71 77
REMARK SMILES IDX 72 78 73 79 74 80 50 81 51 82 60 83 52 84 53 85 59 86 61 87
REMARK SMILES IDX 54 88 55 89 56 90 57 91 58 92
REMARK H PARENT 16 6 20 23 82 42 48 53
REMARK Flexibility Score: inf
ROOT
ATOM      1  C   UNL A   1      33.058  28.679  26.469  1.00  0.00     0.042 C 
ENDROOT
BRANCH   1   2
ATOM      2  C   UNL A   1      33.655  28.963  25.087  1.00  0.00     0.117 C 
BRANCH   2   3
ATOM      3  N   UNL A   1      32.653  29.341  24.106  1.00  0.00    -0.356 N 
ATOM      4  O   UNL A   1      33.336  27.863  22.490  1.00  0.00    -0.275 OA
ATOM      5  C   UNL A   1      32.541  28.715  22.881  1.00  0.00     0.225 C 
ATOM      6  H   UNL A   1      32.031  30.073  24.323  1.00  0.00     0.163 HD
BRANCH   5   7
ATOM      7  C   UNL A   1      31.324  29.152  22.065  1.00  0.00     0.154 C 
BRANCH   7   8
ATOM      8  C   UNL A   1      30.076  28.505  22.594  1.00  0.00     0.032 A 
ATOM      9  C   UNL A   1      29.918  27.212  23.069  1.00  0.00     0.024 A 
ATOM     10  N   UNL A   1      28.862  29.154  22.757  1.00  0.00    -0.318 N 
ATOM     11  C   UNL A   1      28.617  27.096  23.602  1.00  0.00     0.020 A 
ATOM     12  C   UNL A   1      28.012  28.320  23.454  1.00  0.00     0.091 A 
BRANCH  10  13
ATOM     13  C   UNL A   1      28.452  30.404  22.257  1.00  0.00     0.081 A 
ATOM     14  C   UNL A   1      28.024  30.508  20.926  1.00  0.00     0.030 A 
ATOM     15  C   UNL A   1      28.637  31.547  23.030  1.00  0.00     0.147 A 
ATOM     16  C   UNL A   1      27.781  31.765  20.379  1.00  0.00     0.002 A 
ATOM     17  C   UNL A   1      28.458  32.800  22.461  1.00  0.00     0.041 A 
ATOM     18  F   UNL A   1      29.061  31.473  24.297  1.00  0.00    -0.205 F 
ATOM     19  C   UNL A   1      28.035  32.908  21.133  1.00  0.00     0.003 A 
ENDBRANCH  10  13
ENDBRANCH   7   8
ENDBRANCH   5   7
ENDBRANCH   2   3
ENDBRANCH   1   2
BRANCH   1  20
ATOM     20  C   UNL A   1      34.024  28.983  27.618  1.00  0.00     0.118 C 
BRANCH  20  21
ATOM     21  N   UNL A   1      34.610  30.309  27.526  1.00  0.00    -0.352 N 
ATOM     22  C   UNL A   1      35.849  30.791  27.879  1.00  0.00     0.251 C 
ATOM     23  H   UNL A   1      34.011  30.987  27.140  1.00  0.00     0.163 HD
ATOM     24  O   UNL A   1      35.989  32.017  27.877  1.00  0.00    -0.269 OA
BRANCH  22  25
ATOM     25  C   UNL A   1      37.014  29.937  28.253  1.00  0.00     0.039 A 
ATOM     26  C   UNL A   1      38.132  29.948  27.400  1.00  0.00     0.014 A 
ATOM     27  C   UNL A   1      37.029  29.062  29.338  1.00  0.00     0.014 A 
ATOM     28  C   UNL A   1      39.253  29.155  27.672  1.00  0.00     0.010 A 
ATOM     29  C   UNL A   1      38.109  28.210  29.575  1.00  0.00     0.010 A 
ATOM     30  C   UNL A   1      39.253  28.305  28.782  1.00  0.00    -0.014 A 
BRANCH  30  31
ATOM     31  C   UNL A   1      40.524  27.718  29.279  1.00  0.00     0.031 A 
ATOM     32  C   UNL A   1      40.925  26.453  28.493  1.00  0.00     0.074 A 
ATOM     33  C   UNL A   1      41.149  28.320  30.332  1.00  0.00     0.049 A 
ATOM     34  N   UNL A   1      41.639  25.433  28.865  1.00  0.00    -0.248 NA
ATOM     35  C   UNL A   1      40.377  26.247  27.122  1.00  0.00     0.031 C 
ATOM     36  C   UNL A   1      40.666  29.545  30.996  1.00  0.00     0.029 A 
ATOM     37  N   UNL A   1      42.295  28.045  31.056  1.00  0.00    -0.354 N 
ATOM     38  C   UNL A   1      41.751  24.568  27.755  1.00  0.00     0.074 A 
ATOM     39  C   UNL A   1      40.880  25.073  26.743  1.00  0.00     0.031 C 
ATOM     40  C   UNL A   1      41.451  29.858  32.048  1.00  0.00     0.029 A 
ATOM     41  C   UNL A   1      42.531  28.896  32.167  1.00  0.00     0.049 A 
ATOM     42  H   UNL A   1      42.906  27.311  30.815  1.00  0.00     0.167 HD
ATOM     43  C   UNL A   1      42.624  23.525  27.681  1.00  0.00     0.037 A 
ATOM     44  C   UNL A   1      43.493  28.807  33.141  1.00  0.00     0.037 A 
ATOM     45  C   UNL A   1      43.384  23.418  28.878  1.00  0.00     0.049 A 
ATOM     46  C   UNL A   1      44.348  27.663  32.767  1.00  0.00     0.074 A 
ATOM     47  C   UNL A   1      43.097  22.955  30.133  1.00  0.00     0.029 A 
ATOM     48  N   UNL A   1      44.574  24.100  28.915  1.00  0.00    -0.354 N 
ATOM     49  N   UNL A   1      45.226  27.650  31.807  1.00  0.00    -0.248 NA
ATOM     50  C   UNL A   1      44.167  26.400  33.498  1.00  0.00     0.031 C 
ATOM     51  C   UNL A   1      43.941  23.701  30.984  1.00  0.00     0.029 A 
ATOM     52  C   UNL A   1      44.755  24.532  30.207  1.00  0.00     0.049 A 
ATOM     53  H   UNL A   1      45.184  24.252  28.157  1.00  0.00     0.167 HD
ATOM     54  C   UNL A   1      45.473  26.306  31.641  1.00  0.00     0.074 A 
ATOM     55  C   UNL A   1      45.059  25.651  32.859  1.00  0.00     0.031 C 
ATOM     56  C   UNL A   1      45.488  25.764  30.400  1.00  0.00     0.037 A 
BRANCH  43  57
ATOM     57  C   UNL A   1      43.027  22.653  26.526  1.00  0.00     0.058 A 
ATOM     58  C   UNL A   1      44.091  22.950  25.662  1.00  0.00     0.135 A 
ATOM     59  C   UNL A   1      42.547  21.323  26.496  1.00  0.00     0.135 A 
ATOM     60  F   UNL A   1      44.619  24.181  25.615  1.00  0.00    -0.206 F 
ATOM     61  C   UNL A   1      44.700  21.965  24.879  1.00  0.00     0.059 A 
ATOM     62  C   UNL A   1      43.162  20.319  25.755  1.00  0.00     0.059 A 
ATOM     63  F   UNL A   1      41.497  20.957  27.251  1.00  0.00    -0.206 F 
ATOM     64  C   UNL A   1      44.256  20.646  24.965  1.00  0.00     0.060 A 
BRANCH  64  65
ATOM     65  S   UNL A   1      45.190  19.336  24.141  1.00  0.00     0.124 S 
ATOM     66  O   UNL A   1      44.844  18.174  24.954  1.00  0.00    -0.237 OA
ATOM     67  O   UNL A   1      44.638  19.356  22.791  1.00  0.00    -0.237 OA
ATOM     68  O   UNL A   1      46.574  19.789  24.252  1.00  0.00    -0.744 OA
ENDBRANCH  64  65
ENDBRANCH  43  57
BRANCH  44  69
ATOM     69  C   UNL A   1      43.770  29.437  34.501  1.00  0.00     0.058 A 
ATOM     70  C   UNL A   1      42.805  29.322  35.547  1.00  0.00     0.135 A 
ATOM     71  C   UNL A   1      44.864  30.247  34.840  1.00  0.00     0.135 A 
ATOM     72  F   UNL A   1      41.802  28.437  35.489  1.00  0.00    -0.206 F 
ATOM     73  C   UNL A   1      42.794  30.114  36.693  1.00  0.00     0.059 A 
ATOM     74  C   UNL A   1      44.902  31.023  36.016  1.00  0.00     0.059 A 
ATOM     75  F   UNL A   1      45.948  30.312  34.062  1.00  0.00    -0.206 F 
ATOM     76  C   UNL A   1      43.824  31.009  36.895  1.00  0.00     0.060 A 
BRANCH  76  77
ATOM     77  S   UNL A   1      43.727  32.132  38.302  1.00  0.00     0.124 S 
ATOM     78  O   UNL A   1      43.394  33.391  37.642  1.00  0.00    -0.237 OA
ATOM     79  O   UNL A   1      42.664  31.547  39.114  1.00  0.00    -0.237 OA
ATOM     80  O   UNL A   1      45.065  32.059  38.880  1.00  0.00    -0.744 OA
ENDBRANCH  76  77
ENDBRANCH  44  69
BRANCH  56  81
ATOM     81  C   UNL A   1      45.899  26.709  29.300  1.00  0.00     0.058 A 
ATOM     82  C   UNL A   1      47.237  26.971  28.960  1.00  0.00     0.135 A 
ATOM     83  C   UNL A   1      44.918  27.342  28.525  1.00  0.00     0.135 A 
ATOM     84  F   UNL A   1      48.232  26.367  29.615  1.00  0.00    -0.206 F 
ATOM     85  C   UNL A   1      47.591  27.851  27.939  1.00  0.00     0.059 A 
ATOM     86  C   UNL A   1      45.243  28.216  27.486  1.00  0.00     0.059 A 
ATOM     87  F   UNL A   1      43.618  27.122  28.783  1.00  0.00    -0.206 F 
ATOM     88  C   UNL A   1      46.586  28.472  27.204  1.00  0.00     0.060 A 
BRANCH  88  89
ATOM     89  S   UNL A   1      47.054  29.632  25.900  1.00  0.00     0.124 S 
ATOM     90  O   UNL A   1      48.367  30.091  26.354  1.00  0.00    -0.237 OA
ATOM     91  O   UNL A   1      47.073  28.772  24.716  1.00  0.00    -0.237 OA
ATOM     92  O   UNL A   1      45.999  30.631  25.929  1.00  0.00    -0.744 OA
ENDBRANCH  88  89
ENDBRANCH  56  81
ENDBRANCH  30  31
ENDBRANCH  22  25
ENDBRANCH  20  21
ENDBRANCH   1  20
TORSDOF 15
ENDMDL
