MODEL 1
REMARK VINA RESULT:     -12.2      0.000      0.000
REMARK SMILES CCc1[nH]nc(-n2cccc2)c1C(=O)NCCCNC(=O)c1ccc(-c2c3nc(c(-c4c(F)cc(S(=O)(=O)[O-])cc4F)c4ccc([nH]4)c(-c4c(F)cc(S(=O)(=O)[O-])cc4F)c4nc(c(-c5c(F)cc(S(=O)(=O)[O-])cc5F)c5ccc2[nH]5)C=C4)C=C3)cc1
REMARK SMILES IDX 18 1 17 2 16 3 15 4 13 5 14 6 12 8 3 9 4 10 5 11 6 13 2 14
REMARK SMILES IDX 1 15 7 16 8 17 11 18 9 19 10 20 19 21 20 22 21 24 22 25
REMARK SMILES IDX 23 26 87 27 24 28 86 29 25 30 26 31 27 32 80 33 28 34 85 35
REMARK SMILES IDX 79 36 81 37 29 38 84 39 78 40 77 41 30 43 64 44 43 45 63 46
REMARK SMILES IDX 44 47 47 48 62 49 82 50 45 51 46 52 61 54 83 55 48 56 31 57
REMARK SMILES IDX 32 58 41 59 33 60 34 61 40 62 42 63 35 64 36 65 37 66 38 67
REMARK SMILES IDX 39 68 65 69 66 70 75 71 67 72 68 73 74 74 76 75 69 76 70 77
REMARK SMILES IDX 71 78 72 79 73 80 49 81 50 82 59 83 51 84 52 85 58 86 60 87
REMARK SMILES IDX 53 88 54 89 55 90 56 91 57 92
REMARK H PARENT 15 7 4 12 19 23 81 42 47 53
REMARK Flexibility Score: inf
ROOT
ATOM      1  C   UNL A   1      34.770  28.927  26.809  1.00  0.00     0.118 C 
ENDROOT
BRANCH   1   2
ATOM      2  C   UNL A   1      33.260  28.796  26.860  1.00  0.00     0.042 C 
BRANCH   2   3
ATOM      3  C   UNL A   1      32.575  29.763  25.892  1.00  0.00     0.118 C 
BRANCH   3   4
ATOM      4  N   UNL A   1      32.829  29.396  24.538  1.00  0.00    -0.352 N 
ATOM      5  C   UNL A   1      32.053  28.865  23.559  1.00  0.00     0.256 C 
ATOM      6  O   UNL A   1      32.489  29.178  22.447  1.00  0.00    -0.269 OA
ATOM      7  H   UNL A   1      33.757  29.562  24.253  1.00  0.00     0.163 HD
BRANCH   5   8
ATOM      8  C   UNL A   1      30.839  28.030  23.682  1.00  0.00     0.105 A 
ATOM      9  C   UNL A   1      29.460  28.081  23.360  1.00  0.00     0.050 A 
ATOM     10  N   UNL A   1      28.979  26.826  23.697  1.00  0.00    -0.280 N 
ATOM     11  N   UNL A   1      29.875  25.936  24.068  1.00  0.00    -0.156 NA
ATOM     12  H   UNL A   1      28.018  26.612  23.662  1.00  0.00     0.190 HD
ATOM     13  C   UNL A   1      30.980  26.668  24.185  1.00  0.00     0.171 A 
BRANCH   9  14
ATOM     14  C   UNL A   1      28.345  28.883  22.730  1.00  0.00     0.053 C 
ATOM     15  C   UNL A   1      28.524  30.190  22.020  1.00  0.00     0.011 C 
ENDBRANCH   9  14
BRANCH  13  16
ATOM     16  N   UNL A   1      32.113  25.984  24.734  1.00  0.00    -0.307 N 
ATOM     17  C   UNL A   1      32.212  25.353  25.957  1.00  0.00     0.093 A 
ATOM     18  C   UNL A   1      33.307  25.765  24.064  1.00  0.00     0.093 A 
ATOM     19  C   UNL A   1      33.487  24.853  26.104  1.00  0.00     0.020 A 
ATOM     20  C   UNL A   1      34.188  25.135  24.913  1.00  0.00     0.020 A 
ENDBRANCH  13  16
ENDBRANCH   5   8
ENDBRANCH   3   4
ENDBRANCH   2   3
ENDBRANCH   1   2
BRANCH   1  21
ATOM     21  N   UNL A   1      35.158  30.305  27.100  1.00  0.00    -0.352 N 
ATOM     22  C   UNL A   1      36.257  30.759  27.790  1.00  0.00     0.251 C 
ATOM     23  H   UNL A   1      34.552  31.001  26.756  1.00  0.00     0.163 HD
ATOM     24  O   UNL A   1      36.300  31.901  28.205  1.00  0.00    -0.269 OA
BRANCH  22  25
ATOM     25  C   UNL A   1      37.351  29.811  28.055  1.00  0.00     0.039 A 
ATOM     26  C   UNL A   1      38.467  29.829  27.216  1.00  0.00     0.014 A 
ATOM     27  C   UNL A   1      37.278  28.951  29.154  1.00  0.00     0.014 A 
ATOM     28  C   UNL A   1      39.560  29.039  27.538  1.00  0.00     0.010 A 
ATOM     29  C   UNL A   1      38.389  28.216  29.517  1.00  0.00     0.010 A 
ATOM     30  C   UNL A   1      39.529  28.268  28.710  1.00  0.00    -0.014 A 
BRANCH  30  31
ATOM     31  C   UNL A   1      40.758  27.578  29.143  1.00  0.00     0.031 A 
ATOM     32  C   UNL A   1      41.039  26.330  28.278  1.00  0.00     0.074 A 
ATOM     33  C   UNL A   1      41.399  28.143  30.212  1.00  0.00     0.049 A 
ATOM     34  N   UNL A   1      41.527  25.175  28.612  1.00  0.00    -0.248 NA
ATOM     35  C   UNL A   1      40.607  26.326  26.851  1.00  0.00     0.031 C 
ATOM     36  C   UNL A   1      40.960  29.383  30.897  1.00  0.00     0.029 A 
ATOM     37  N   UNL A   1      42.525  27.827  30.941  1.00  0.00    -0.354 N 
ATOM     38  C   UNL A   1      41.654  24.396  27.433  1.00  0.00     0.074 A 
ATOM     39  C   UNL A   1      40.941  25.107  26.413  1.00  0.00     0.031 C 
ATOM     40  C   UNL A   1      41.748  29.662  31.955  1.00  0.00     0.029 A 
ATOM     41  C   UNL A   1      42.773  28.648  32.076  1.00  0.00     0.049 A 
ATOM     42  H   UNL A   1      43.120  27.083  30.693  1.00  0.00     0.167 HD
ATOM     43  C   UNL A   1      42.462  23.293  27.349  1.00  0.00     0.037 A 
ATOM     44  C   UNL A   1      43.693  28.484  33.078  1.00  0.00     0.037 A 
ATOM     45  C   UNL A   1      43.174  23.147  28.576  1.00  0.00     0.049 A 
ATOM     46  C   UNL A   1      44.473  27.301  32.678  1.00  0.00     0.074 A 
ATOM     47  C   UNL A   1      42.791  22.747  29.828  1.00  0.00     0.029 A 
ATOM     48  N   UNL A   1      44.379  23.807  28.660  1.00  0.00    -0.354 N 
ATOM     49  N   UNL A   1      45.340  27.262  31.710  1.00  0.00    -0.248 NA
ATOM     50  C   UNL A   1      44.149  26.016  33.314  1.00  0.00     0.031 C 
ATOM     51  C   UNL A   1      43.512  23.616  30.673  1.00  0.00     0.029 A 
ATOM     52  C   UNL A   1      44.468  24.321  29.929  1.00  0.00     0.049 A 
ATOM     53  H   UNL A   1      45.050  23.895  27.944  1.00  0.00     0.167 HD
ATOM     54  C   UNL A   1      45.405  25.919  31.425  1.00  0.00     0.074 A 
ATOM     55  C   UNL A   1      44.938  25.218  32.602  1.00  0.00     0.031 C 
ATOM     56  C   UNL A   1      45.297  25.488  30.143  1.00  0.00     0.037 A 
BRANCH  43  57
ATOM     57  C   UNL A   1      42.937  22.413  26.217  1.00  0.00     0.058 A 
ATOM     58  C   UNL A   1      42.618  21.029  26.281  1.00  0.00     0.135 A 
ATOM     59  C   UNL A   1      43.936  22.766  25.302  1.00  0.00     0.135 A 
ATOM     60  F   UNL A   1      41.619  20.591  27.067  1.00  0.00    -0.206 F 
ATOM     61  C   UNL A   1      43.350  20.052  25.615  1.00  0.00     0.059 A 
ATOM     62  C   UNL A   1      44.657  21.800  24.584  1.00  0.00     0.059 A 
ATOM     63  F   UNL A   1      44.295  24.046  25.135  1.00  0.00    -0.206 F 
ATOM     64  C   UNL A   1      44.397  20.446  24.795  1.00  0.00     0.060 A 
BRANCH  64  65
ATOM     65  S   UNL A   1      45.424  19.160  24.051  1.00  0.00     0.124 S 
ATOM     66  O   UNL A   1      44.797  18.994  22.744  1.00  0.00    -0.237 OA
ATOM     67  O   UNL A   1      46.745  19.784  24.041  1.00  0.00    -0.237 OA
ATOM     68  O   UNL A   1      45.279  18.037  24.973  1.00  0.00    -0.744 OA
ENDBRANCH  64  65
ENDBRANCH  43  57
BRANCH  44  69
ATOM     69  C   UNL A   1      43.938  29.045  34.468  1.00  0.00     0.058 A 
ATOM     70  C   UNL A   1      45.038  29.809  34.881  1.00  0.00     0.135 A 
ATOM     71  C   UNL A   1      42.936  28.899  35.471  1.00  0.00     0.135 A 
ATOM     72  F   UNL A   1      46.144  29.891  34.133  1.00  0.00    -0.206 F 
ATOM     73  C   UNL A   1      45.054  30.519  36.099  1.00  0.00     0.059 A 
ATOM     74  C   UNL A   1      42.904  29.623  36.659  1.00  0.00     0.059 A 
ATOM     75  F   UNL A   1      41.911  28.048  35.328  1.00  0.00    -0.206 F 
ATOM     76  C   UNL A   1      43.954  30.466  36.953  1.00  0.00     0.060 A 
BRANCH  76  77
ATOM     77  S   UNL A   1      43.826  31.564  38.381  1.00  0.00     0.124 S 
ATOM     78  O   UNL A   1      42.386  31.612  38.601  1.00  0.00    -0.237 OA
ATOM     79  O   UNL A   1      44.603  30.856  39.392  1.00  0.00    -0.237 OA
ATOM     80  O   UNL A   1      44.432  32.804  37.901  1.00  0.00    -0.744 OA
ENDBRANCH  76  77
ENDBRANCH  44  69
BRANCH  56  81
ATOM     81  C   UNL A   1      45.738  26.481  29.081  1.00  0.00     0.058 A 
ATOM     82  C   UNL A   1      47.094  26.818  28.950  1.00  0.00     0.135 A 
ATOM     83  C   UNL A   1      44.858  27.160  28.222  1.00  0.00     0.135 A 
ATOM     84  F   UNL A   1      48.008  26.221  29.730  1.00  0.00    -0.206 F 
ATOM     85  C   UNL A   1      47.545  27.756  28.014  1.00  0.00     0.059 A 
ATOM     86  C   UNL A   1      45.277  28.094  27.270  1.00  0.00     0.059 A 
ATOM     87  F   UNL A   1      43.547  26.939  28.289  1.00  0.00    -0.206 F 
ATOM     88  C   UNL A   1      46.630  28.385  27.170  1.00  0.00     0.060 A 
BRANCH  88  89
ATOM     89  S   UNL A   1      47.232  29.555  25.931  1.00  0.00     0.124 S 
ATOM     90  O   UNL A   1      48.399  30.134  26.589  1.00  0.00    -0.237 OA
ATOM     91  O   UNL A   1      47.515  28.679  24.799  1.00  0.00    -0.237 OA
ATOM     92  O   UNL A   1      46.108  30.470  25.744  1.00  0.00    -0.744 OA
ENDBRANCH  88  89
ENDBRANCH  56  81
ENDBRANCH  30  31
ENDBRANCH  22  25
ENDBRANCH   1  21
TORSDOF 15
ENDMDL
MODEL 2
REMARK VINA RESULT:     -12.1      0.673      2.122
REMARK SMILES CCc1[nH]nc(-n2cccc2)c1C(=O)NCCCNC(=O)c1ccc(-c2c3nc(c(-c4c(F)cc(S(=O)(=O)[O-])cc4F)c4ccc([nH]4)c(-c4c(F)cc(S(=O)(=O)[O-])cc4F)c4nc(c(-c5c(F)cc(S(=O)(=O)[O-])cc5F)c5ccc2[nH]5)C=C4)C=C3)cc1
REMARK SMILES IDX 18 1 17 2 16 3 15 4 13 5 14 6 12 8 3 9 4 10 5 11 6 13 2 14
REMARK SMILES IDX 1 15 7 16 8 17 11 18 9 19 10 20 19 21 20 22 21 24 22 25
REMARK SMILES IDX 23 26 87 27 24 28 86 29 25 30 26 31 27 32 80 33 28 34 85 35
REMARK SMILES IDX 79 36 81 37 29 38 84 39 78 40 77 41 30 43 64 44 43 45 63 46
REMARK SMILES IDX 44 47 47 48 62 49 82 50 45 51 46 52 61 54 83 55 48 56 31 57
REMARK SMILES IDX 32 58 41 59 33 60 34 61 40 62 42 63 35 64 36 65 37 66 38 67
REMARK SMILES IDX 39 68 65 69 66 70 75 71 67 72 68 73 74 74 76 75 69 76 70 77
REMARK SMILES IDX 71 78 72 79 73 80 49 81 50 82 59 83 51 84 52 85 58 86 60 87
REMARK SMILES IDX 53 88 54 89 55 90 56 91 57 92
REMARK H PARENT 15 7 4 12 19 23 81 42 47 53
REMARK Flexibility Score: inf
ROOT
ATOM      1  C   UNL A   1      34.712  28.905  26.965  1.00  0.00     0.118 C 
ENDROOT
BRANCH   1   2
ATOM      2  C   UNL A   1      33.209  28.833  26.776  1.00  0.00     0.042 C 
BRANCH   2   3
ATOM      3  C   UNL A   1      32.715  29.878  25.773  1.00  0.00     0.118 C 
BRANCH   3   4
ATOM      4  N   UNL A   1      33.093  29.529  24.443  1.00  0.00    -0.352 N 
ATOM      5  C   UNL A   1      32.437  28.925  23.420  1.00  0.00     0.256 C 
ATOM      6  O   UNL A   1      32.918  29.271  22.337  1.00  0.00    -0.269 OA
ATOM      7  H   UNL A   1      34.019  29.778  24.220  1.00  0.00     0.163 HD
BRANCH   5   8
ATOM      8  C   UNL A   1      31.299  27.984  23.470  1.00  0.00     0.105 A 
ATOM      9  C   UNL A   1      31.043  26.616  23.739  1.00  0.00     0.050 A 
ATOM     10  N   UNL A   1      29.662  26.507  23.698  1.00  0.00    -0.280 N 
ATOM     11  N   UNL A   1      28.990  27.632  23.570  1.00  0.00    -0.156 NA
ATOM     12  H   UNL A   1      29.208  25.635  23.760  1.00  0.00     0.190 HD
ATOM     13  C   UNL A   1      29.950  28.515  23.309  1.00  0.00     0.171 A 
BRANCH   9  14
ATOM     14  C   UNL A   1      31.631  25.281  24.134  1.00  0.00     0.053 C 
ATOM     15  C   UNL A   1      30.917  23.968  24.036  1.00  0.00     0.011 C 
ENDBRANCH   9  14
BRANCH  13  16
ATOM     16  N   UNL A   1      29.496  29.830  22.964  1.00  0.00    -0.307 N 
ATOM     17  C   UNL A   1      29.293  30.905  23.806  1.00  0.00     0.093 A 
ATOM     18  C   UNL A   1      29.262  30.274  21.672  1.00  0.00     0.093 A 
ATOM     19  C   UNL A   1      28.821  31.970  23.071  1.00  0.00     0.020 A 
ATOM     20  C   UNL A   1      28.779  31.562  21.721  1.00  0.00     0.020 A 
ENDBRANCH  13  16
ENDBRANCH   5   8
ENDBRANCH   3   4
ENDBRANCH   2   3
ENDBRANCH   1   2
BRANCH   1  21
ATOM     21  N   UNL A   1      35.117  30.289  27.203  1.00  0.00    -0.352 N 
ATOM     22  C   UNL A   1      36.232  30.756  27.857  1.00  0.00     0.251 C 
ATOM     23  H   UNL A   1      34.510  30.978  26.848  1.00  0.00     0.163 HD
ATOM     24  O   UNL A   1      36.291  31.911  28.233  1.00  0.00    -0.269 OA
BRANCH  22  25
ATOM     25  C   UNL A   1      37.324  29.809  28.133  1.00  0.00     0.039 A 
ATOM     26  C   UNL A   1      38.424  29.791  27.274  1.00  0.00     0.014 A 
ATOM     27  C   UNL A   1      37.264  28.984  29.260  1.00  0.00     0.014 A 
ATOM     28  C   UNL A   1      39.517  29.002  27.601  1.00  0.00     0.010 A 
ATOM     29  C   UNL A   1      38.377  28.253  29.626  1.00  0.00     0.010 A 
ATOM     30  C   UNL A   1      39.502  28.270  28.797  1.00  0.00    -0.014 A 
BRANCH  30  31
ATOM     31  C   UNL A   1      40.734  27.584  29.231  1.00  0.00     0.031 A 
ATOM     32  C   UNL A   1      41.027  26.346  28.355  1.00  0.00     0.074 A 
ATOM     33  C   UNL A   1      41.365  28.143  30.308  1.00  0.00     0.049 A 
ATOM     34  N   UNL A   1      41.521  25.192  28.680  1.00  0.00    -0.248 NA
ATOM     35  C   UNL A   1      40.603  26.353  26.925  1.00  0.00     0.031 C 
ATOM     36  C   UNL A   1      40.914  29.374  31.002  1.00  0.00     0.029 A 
ATOM     37  N   UNL A   1      42.490  27.828  31.039  1.00  0.00    -0.354 N 
ATOM     38  C   UNL A   1      41.660  24.425  27.495  1.00  0.00     0.074 A 
ATOM     39  C   UNL A   1      40.947  25.140  26.478  1.00  0.00     0.031 C 
ATOM     40  C   UNL A   1      41.695  29.649  32.067  1.00  0.00     0.029 A 
ATOM     41  C   UNL A   1      42.726  28.641  32.183  1.00  0.00     0.049 A 
ATOM     42  H   UNL A   1      43.091  27.091  30.787  1.00  0.00     0.167 HD
ATOM     43  C   UNL A   1      42.476  23.328  27.405  1.00  0.00     0.037 A 
ATOM     44  C   UNL A   1      43.642  28.473  33.188  1.00  0.00     0.037 A 
ATOM     45  C   UNL A   1      43.183  23.176  28.634  1.00  0.00     0.049 A 
ATOM     46  C   UNL A   1      44.433  27.300  32.781  1.00  0.00     0.074 A 
ATOM     47  C   UNL A   1      42.797  22.761  29.881  1.00  0.00     0.029 A 
ATOM     48  N   UNL A   1      44.383  23.844  28.730  1.00  0.00    -0.354 N 
ATOM     49  N   UNL A   1      45.304  27.276  31.817  1.00  0.00    -0.248 NA
ATOM     50  C   UNL A   1      44.115  26.007  33.403  1.00  0.00     0.031 C 
ATOM     51  C   UNL A   1      43.507  23.627  30.737  1.00  0.00     0.029 A 
ATOM     52  C   UNL A   1      44.462  24.345  30.004  1.00  0.00     0.049 A 
ATOM     53  H   UNL A   1      45.057  23.942  28.018  1.00  0.00     0.167 HD
ATOM     54  C   UNL A   1      45.380  25.936  31.520  1.00  0.00     0.074 A 
ATOM     55  C   UNL A   1      44.912  25.221  32.688  1.00  0.00     0.031 C 
ATOM     56  C   UNL A   1      45.281  25.517  30.233  1.00  0.00     0.037 A 
BRANCH  43  57
ATOM     57  C   UNL A   1      42.963  22.462  26.267  1.00  0.00     0.058 A 
ATOM     58  C   UNL A   1      42.594  21.089  26.281  1.00  0.00     0.135 A 
ATOM     59  C   UNL A   1      44.007  22.804  25.399  1.00  0.00     0.135 A 
ATOM     60  F   UNL A   1      41.553  20.665  27.018  1.00  0.00    -0.206 F 
ATOM     61  C   UNL A   1      43.318  20.105  25.616  1.00  0.00     0.059 A 
ATOM     62  C   UNL A   1      44.721  21.833  24.681  1.00  0.00     0.059 A 
ATOM     63  F   UNL A   1      44.415  24.075  25.281  1.00  0.00    -0.206 F 
ATOM     64  C   UNL A   1      44.407  20.483  24.845  1.00  0.00     0.060 A 
BRANCH  64  65
ATOM     65  S   UNL A   1      45.417  19.182  24.104  1.00  0.00     0.124 S 
ATOM     66  O   UNL A   1      44.795  19.031  22.793  1.00  0.00    -0.237 OA
ATOM     67  O   UNL A   1      46.748  19.784  24.104  1.00  0.00    -0.237 OA
ATOM     68  O   UNL A   1      45.247  18.059  25.021  1.00  0.00    -0.744 OA
ENDBRANCH  64  65
ENDBRANCH  43  57
BRANCH  44  69
ATOM     69  C   UNL A   1      43.876  29.023  34.585  1.00  0.00     0.058 A 
ATOM     70  C   UNL A   1      45.001  29.731  35.028  1.00  0.00     0.135 A 
ATOM     71  C   UNL A   1      42.841  28.929  35.559  1.00  0.00     0.135 A 
ATOM     72  F   UNL A   1      46.131  29.756  34.312  1.00  0.00    -0.206 F 
ATOM     73  C   UNL A   1      45.019  30.440  36.247  1.00  0.00     0.059 A 
ATOM     74  C   UNL A   1      42.812  29.655  36.746  1.00  0.00     0.059 A 
ATOM     75  F   UNL A   1      41.779  28.131  35.388  1.00  0.00    -0.206 F 
ATOM     76  C   UNL A   1      43.895  30.445  37.069  1.00  0.00     0.060 A 
BRANCH  76  77
ATOM     77  S   UNL A   1      43.783  31.549  38.493  1.00  0.00     0.124 S 
ATOM     78  O   UNL A   1      44.445  32.751  38.000  1.00  0.00    -0.237 OA
ATOM     79  O   UNL A   1      42.342  31.653  38.699  1.00  0.00    -0.237 OA
ATOM     80  O   UNL A   1      44.499  30.818  39.537  1.00  0.00    -0.744 OA
ENDBRANCH  76  77
ENDBRANCH  44  69
BRANCH  56  81
ATOM     81  C   UNL A   1      45.721  26.522  29.183  1.00  0.00     0.058 A 
ATOM     82  C   UNL A   1      47.074  26.875  29.066  1.00  0.00     0.135 A 
ATOM     83  C   UNL A   1      44.841  27.199  28.322  1.00  0.00     0.135 A 
ATOM     84  F   UNL A   1      47.988  26.281  29.849  1.00  0.00    -0.206 F 
ATOM     85  C   UNL A   1      47.523  27.824  28.142  1.00  0.00     0.059 A 
ATOM     86  C   UNL A   1      45.259  28.145  27.381  1.00  0.00     0.059 A 
ATOM     87  F   UNL A   1      43.532  26.964  28.377  1.00  0.00    -0.206 F 
ATOM     88  C   UNL A   1      46.609  28.450  27.294  1.00  0.00     0.060 A 
BRANCH  88  89
ATOM     89  S   UNL A   1      47.209  29.637  26.070  1.00  0.00     0.124 S 
ATOM     90  O   UNL A   1      46.776  30.912  26.632  1.00  0.00    -0.237 OA
ATOM     91  O   UNL A   1      48.648  29.394  26.092  1.00  0.00    -0.237 OA
ATOM     92  O   UNL A   1      46.529  29.238  24.839  1.00  0.00    -0.744 OA
ENDBRANCH  88  89
ENDBRANCH  56  81
ENDBRANCH  30  31
ENDBRANCH  22  25
ENDBRANCH   1  21
TORSDOF 15
ENDMDL
MODEL 3
REMARK VINA RESULT:     -12.0      3.176      9.431
REMARK SMILES CCc1[nH]nc(-n2cccc2)c1C(=O)NCCCNC(=O)c1ccc(-c2c3nc(c(-c4c(F)cc(S(=O)(=O)[O-])cc4F)c4ccc([nH]4)c(-c4c(F)cc(S(=O)(=O)[O-])cc4F)c4nc(c(-c5c(F)cc(S(=O)(=O)[O-])cc5F)c5ccc2[nH]5)C=C4)C=C3)cc1
REMARK SMILES IDX 18 1 17 2 16 3 15 4 13 5 14 6 12 8 3 9 4 10 5 11 6 13 2 14
REMARK SMILES IDX 1 15 7 16 8 17 11 18 9 19 10 20 19 21 20 22 21 24 22 25
REMARK SMILES IDX 23 26 87 27 24 28 86 29 25 30 26 31 27 32 80 33 28 34 85 35
REMARK SMILES IDX 79 36 81 37 29 38 84 39 78 40 77 41 30 43 64 44 43 45 63 46
REMARK SMILES IDX 44 47 47 48 62 49 82 50 45 51 46 52 61 54 83 55 48 56 31 57
REMARK SMILES IDX 32 58 41 59 33 60 34 61 40 62 42 63 35 64 36 65 37 66 38 67
REMARK SMILES IDX 39 68 65 69 66 70 75 71 67 72 68 73 74 74 76 75 69 76 70 77
REMARK SMILES IDX 71 78 72 79 73 80 49 81 50 82 59 83 51 84 52 85 58 86 60 87
REMARK SMILES IDX 53 88 54 89 55 90 56 91 57 92
REMARK H PARENT 15 7 4 12 19 23 81 42 47 53
REMARK Flexibility Score: inf
ROOT
ATOM      1  C   UNL A   1      33.774  28.940  27.133  1.00  0.00     0.118 C 
ENDROOT
BRANCH   1   2
ATOM      2  C   UNL A   1      32.350  28.590  26.747  1.00  0.00     0.042 C 
BRANCH   2   3
ATOM      3  C   UNL A   1      31.743  29.640  25.814  1.00  0.00     0.118 C 
BRANCH   3   4
ATOM      4  N   UNL A   1      32.053  29.354  24.452  1.00  0.00    -0.352 N 
ATOM      5  C   UNL A   1      31.298  28.982  23.387  1.00  0.00     0.256 C 
ATOM      6  O   UNL A   1      31.838  29.335  22.334  1.00  0.00    -0.269 OA
ATOM      7  H   UNL A   1      33.010  29.447  24.239  1.00  0.00     0.163 HD
BRANCH   5   8
ATOM      8  C   UNL A   1      30.004  28.268  23.366  1.00  0.00     0.105 A 
ATOM      9  C   UNL A   1      29.475  26.989  23.667  1.00  0.00     0.050 A 
ATOM     10  N   UNL A   1      28.107  27.130  23.496  1.00  0.00    -0.280 N 
ATOM     11  N   UNL A   1      27.670  28.348  23.255  1.00  0.00    -0.156 NA
ATOM     12  H   UNL A   1      27.495  26.361  23.551  1.00  0.00     0.190 HD
ATOM     13  C   UNL A   1      28.798  29.025  23.051  1.00  0.00     0.171 A 
BRANCH   9  14
ATOM     14  C   UNL A   1      29.767  25.596  24.175  1.00  0.00     0.053 C 
ATOM     15  C   UNL A   1      30.553  24.559  23.432  1.00  0.00     0.011 C 
ENDBRANCH   9  14
BRANCH  13  16
ATOM     16  N   UNL A   1      28.629  30.378  22.607  1.00  0.00    -0.307 N 
ATOM     17  C   UNL A   1      28.253  30.818  21.354  1.00  0.00     0.093 A 
ATOM     18  C   UNL A   1      28.736  31.496  23.419  1.00  0.00     0.093 A 
ATOM     19  C   UNL A   1      28.246  32.196  21.345  1.00  0.00     0.020 A 
ATOM     20  C   UNL A   1      28.574  32.626  22.649  1.00  0.00     0.020 A 
ENDBRANCH  13  16
ENDBRANCH   5   8
ENDBRANCH   3   4
ENDBRANCH   2   3
ENDBRANCH   1   2
BRANCH   1  21
ATOM     21  N   UNL A   1      33.816  30.281  27.710  1.00  0.00    -0.352 N 
ATOM     22  C   UNL A   1      34.794  30.849  28.492  1.00  0.00     0.251 C 
ATOM     23  H   UNL A   1      33.041  30.855  27.513  1.00  0.00     0.163 HD
ATOM     24  O   UNL A   1      34.566  31.854  29.138  1.00  0.00    -0.269 OA
BRANCH  22  25
ATOM     25  C   UNL A   1      36.101  30.178  28.566  1.00  0.00     0.039 A 
ATOM     26  C   UNL A   1      36.957  30.262  27.466  1.00  0.00     0.014 A 
ATOM     27  C   UNL A   1      36.481  29.514  29.736  1.00  0.00     0.014 A 
ATOM     28  C   UNL A   1      38.242  29.752  27.576  1.00  0.00     0.010 A 
ATOM     29  C   UNL A   1      37.780  29.069  29.874  1.00  0.00     0.010 A 
ATOM     30  C   UNL A   1      38.658  29.195  28.794  1.00  0.00    -0.014 A 
BRANCH  30  31
ATOM     31  C   UNL A   1      40.076  28.826  28.964  1.00  0.00     0.031 A 
ATOM     32  C   UNL A   1      40.910  30.018  29.481  1.00  0.00     0.074 A 
ATOM     33  C   UNL A   1      40.389  27.537  28.626  1.00  0.00     0.049 A 
ATOM     34  N   UNL A   1      42.124  30.375  29.195  1.00  0.00    -0.248 NA
ATOM     35  C   UNL A   1      40.258  31.029  30.363  1.00  0.00     0.031 C 
ATOM     36  C   UNL A   1      39.407  26.528  28.160  1.00  0.00     0.029 A 
ATOM     37  N   UNL A   1      41.553  26.800  28.602  1.00  0.00    -0.354 N 
ATOM     38  C   UNL A   1      42.450  31.501  29.995  1.00  0.00     0.074 A 
ATOM     39  C   UNL A   1      41.217  31.937  30.581  1.00  0.00     0.031 C 
ATOM     40  C   UNL A   1      40.015  25.367  27.840  1.00  0.00     0.029 A 
ATOM     41  C   UNL A   1      41.440  25.491  28.058  1.00  0.00     0.049 A 
ATOM     42  H   UNL A   1      42.407  27.156  28.939  1.00  0.00     0.167 HD
ATOM     43  C   UNL A   1      43.738  31.903  30.229  1.00  0.00     0.037 A 
ATOM     44  C   UNL A   1      42.429  24.597  27.742  1.00  0.00     0.037 A 
ATOM     45  C   UNL A   1      44.632  30.971  29.625  1.00  0.00     0.049 A 
ATOM     46  C   UNL A   1      43.674  25.244  28.190  1.00  0.00     0.074 A 
ATOM     47  C   UNL A   1      44.968  30.721  28.321  1.00  0.00     0.029 A 
ATOM     48  N   UNL A   1      45.009  29.900  30.404  1.00  0.00    -0.354 N 
ATOM     49  N   UNL A   1      44.039  25.398  29.428  1.00  0.00    -0.248 NA
ATOM     50  C   UNL A   1      44.507  25.909  27.178  1.00  0.00     0.031 C 
ATOM     51  C   UNL A   1      45.068  29.315  28.283  1.00  0.00     0.029 A 
ATOM     52  C   UNL A   1      45.036  28.799  29.586  1.00  0.00     0.049 A 
ATOM     53  H   UNL A   1      45.220  29.921  31.366  1.00  0.00     0.167 HD
ATOM     54  C   UNL A   1      44.942  26.432  29.343  1.00  0.00     0.074 A 
ATOM     55  C   UNL A   1      45.411  26.467  27.975  1.00  0.00     0.031 C 
ATOM     56  C   UNL A   1      44.841  27.494  30.182  1.00  0.00     0.037 A 
BRANCH  43  57
ATOM     57  C   UNL A   1      44.381  32.904  31.162  1.00  0.00     0.058 A 
ATOM     58  C   UNL A   1      44.224  32.694  32.559  1.00  0.00     0.135 A 
ATOM     59  C   UNL A   1      44.815  34.179  30.782  1.00  0.00     0.135 A 
ATOM     60  F   UNL A   1      43.889  31.484  33.039  1.00  0.00    -0.206 F 
ATOM     61  C   UNL A   1      44.325  33.719  33.493  1.00  0.00     0.059 A 
ATOM     62  C   UNL A   1      44.970  35.216  31.713  1.00  0.00     0.059 A 
ATOM     63  F   UNL A   1      45.027  34.477  29.492  1.00  0.00    -0.206 F 
ATOM     64  C   UNL A   1      44.662  34.991  33.055  1.00  0.00     0.060 A 
BRANCH  64  65
ATOM     65  S   UNL A   1      44.652  36.336  34.260  1.00  0.00     0.124 S 
ATOM     66  O   UNL A   1      44.912  35.624  35.507  1.00  0.00    -0.237 OA
ATOM     67  O   UNL A   1      45.738  37.189  33.783  1.00  0.00    -0.237 OA
ATOM     68  O   UNL A   1      43.314  36.904  34.119  1.00  0.00    -0.744 OA
ENDBRANCH  64  65
ENDBRANCH  43  57
BRANCH  44  69
ATOM     69  C   UNL A   1      42.559  23.321  26.929  1.00  0.00     0.058 A 
ATOM     70  C   UNL A   1      43.047  23.208  25.620  1.00  0.00     0.135 A 
ATOM     71  C   UNL A   1      42.265  22.066  27.539  1.00  0.00     0.135 A 
ATOM     72  F   UNL A   1      43.197  24.285  24.841  1.00  0.00    -0.206 F 
ATOM     73  C   UNL A   1      43.391  21.968  25.044  1.00  0.00     0.059 A 
ATOM     74  C   UNL A   1      42.638  20.833  27.014  1.00  0.00     0.059 A 
ATOM     75  F   UNL A   1      41.612  21.983  28.706  1.00  0.00    -0.206 F 
ATOM     76  C   UNL A   1      43.239  20.791  25.774  1.00  0.00     0.060 A 
BRANCH  76  77
ATOM     77  S   UNL A   1      43.915  19.227  25.178  1.00  0.00     0.124 S 
ATOM     78  O   UNL A   1      45.181  19.147  25.896  1.00  0.00    -0.237 OA
ATOM     79  O   UNL A   1      42.891  18.268  25.580  1.00  0.00    -0.237 OA
ATOM     80  O   UNL A   1      44.021  19.440  23.736  1.00  0.00    -0.744 OA
ENDBRANCH  76  77
ENDBRANCH  44  69
BRANCH  56  81
ATOM     81  C   UNL A   1      44.181  27.209  31.520  1.00  0.00     0.058 A 
ATOM     82  C   UNL A   1      44.801  26.355  32.445  1.00  0.00     0.135 A 
ATOM     83  C   UNL A   1      42.923  27.706  31.901  1.00  0.00     0.135 A 
ATOM     84  F   UNL A   1      46.005  25.831  32.166  1.00  0.00    -0.206 F 
ATOM     85  C   UNL A   1      44.215  26.031  33.674  1.00  0.00     0.059 A 
ATOM     86  C   UNL A   1      42.316  27.410  33.125  1.00  0.00     0.059 A 
ATOM     87  F   UNL A   1      42.236  28.498  31.081  1.00  0.00    -0.206 F 
ATOM     88  C   UNL A   1      42.974  26.570  34.012  1.00  0.00     0.060 A 
BRANCH  88  89
ATOM     89  S   UNL A   1      42.253  26.184  35.624  1.00  0.00     0.124 S 
ATOM     90  O   UNL A   1      42.580  27.373  36.405  1.00  0.00    -0.237 OA
ATOM     91  O   UNL A   1      40.842  26.015  35.292  1.00  0.00    -0.237 OA
ATOM     92  O   UNL A   1      42.948  24.965  36.031  1.00  0.00    -0.744 OA
ENDBRANCH  88  89
ENDBRANCH  56  81
ENDBRANCH  30  31
ENDBRANCH  22  25
ENDBRANCH   1  21
TORSDOF 15
ENDMDL
