MODEL 1
REMARK VINA RESULT:     -13.2      0.000      0.000
REMARK SMILES O=C(CCCN1C(=O)c2ccc3c4c(ccc(c24)C1=O)C(=O)NC3=O)NCCCNC(=O)c1ccc(-c2c3nc(c(-c4c(F)cc(S(=O)(=O)[O-])cc4F)c4ccc([nH]4)c(-c4c(F)cc(S(=O)(=O)[O-])cc4F)c4nc(c(-c5c(F)cc(S(=O)(=O)[O-])cc5F)c5ccc2[nH]5)C=C4)C=C3)cc1
REMARK SMILES IDX 28 1 27 2 26 3 1 4 2 5 3 7 4 8 5 9 6 10 19 11 7 12 20 13
REMARK SMILES IDX 17 14 9 15 8 16 16 17 18 18 10 19 15 20 13 21 11 22 14 23
REMARK SMILES IDX 12 24 21 25 24 26 23 27 22 28 25 29 29 31 30 32 31 33 32 35
REMARK SMILES IDX 33 36 34 37 98 38 35 39 97 40 36 41 37 42 38 43 91 44 39 45
REMARK SMILES IDX 96 46 90 47 92 48 40 49 95 50 89 51 88 52 41 54 75 55 54 56
REMARK SMILES IDX 74 57 55 58 58 59 73 60 93 61 56 62 57 63 72 65 94 66 59 67
REMARK SMILES IDX 42 68 43 69 52 70 44 71 45 72 51 73 53 74 46 75 47 76 48 77
REMARK SMILES IDX 49 78 50 79 76 80 77 81 86 82 78 83 79 84 85 85 87 86 80 87
REMARK SMILES IDX 81 88 82 89 83 90 84 91 60 92 61 93 70 94 62 95 63 96 69 97
REMARK SMILES IDX 71 98 64 99 65 100 66 101 67 102 68 103
REMARK H PARENT 26 6 23 30 30 34 92 53 58 64
REMARK Flexibility Score: inf
ROOT
ATOM      1  C   UNL A   1      34.663  31.587  27.817  1.00  0.00     0.042 C 
ENDROOT
BRANCH   1   2
ATOM      2  C   UNL A   1      34.508  30.109  27.483  1.00  0.00     0.117 C 
BRANCH   2   3
ATOM      3  N   UNL A   1      33.716  29.899  26.289  1.00  0.00    -0.356 N 
ATOM      4  O   UNL A   1      31.696  29.711  27.367  1.00  0.00    -0.275 OA
ATOM      5  C   UNL A   1      32.354  29.726  26.334  1.00  0.00     0.220 C 
ATOM      6  H   UNL A   1      34.170  29.879  25.414  1.00  0.00     0.163 HD
BRANCH   5   7
ATOM      7  C   UNL A   1      31.723  29.524  24.977  1.00  0.00     0.102 C 
BRANCH   7   8
ATOM      8  C   UNL A   1      31.445  28.057  24.643  1.00  0.00     0.032 C 
BRANCH   8   9
ATOM      9  C   UNL A   1      31.481  27.045  25.801  1.00  0.00     0.130 C 
BRANCH   9  10
ATOM     10  N   UNL A   1      32.163  25.758  25.616  1.00  0.00    -0.274 N 
ATOM     11  C   UNL A   1      33.559  25.783  25.747  1.00  0.00     0.261 C 
ATOM     12  C   UNL A   1      31.493  24.668  25.075  1.00  0.00     0.261 C 
ATOM     13  O   UNL A   1      34.192  26.787  26.058  1.00  0.00    -0.269 OA
ATOM     14  C   UNL A   1      34.294  24.518  25.488  1.00  0.00     0.049 A 
ATOM     15  C   UNL A   1      32.180  23.366  25.162  1.00  0.00     0.049 A 
ATOM     16  O   UNL A   1      30.400  24.709  24.521  1.00  0.00    -0.269 OA
ATOM     17  C   UNL A   1      35.694  24.491  25.508  1.00  0.00     0.015 A 
ATOM     18  C   UNL A   1      33.569  23.340  25.284  1.00  0.00     0.009 A 
ATOM     19  C   UNL A   1      31.440  22.183  25.058  1.00  0.00     0.015 A 
ATOM     20  C   UNL A   1      36.371  23.282  25.337  1.00  0.00     0.015 A 
ATOM     21  C   UNL A   1      34.245  22.103  25.179  1.00  0.00     0.009 A 
ATOM     22  C   UNL A   1      32.097  20.956  25.027  1.00  0.00     0.015 A 
ATOM     23  C   UNL A   1      35.648  22.093  25.189  1.00  0.00     0.048 A 
ATOM     24  C   UNL A   1      33.496  20.921  25.055  1.00  0.00     0.048 A 
ATOM     25  C   UNL A   1      36.360  20.805  25.022  1.00  0.00     0.258 C 
ATOM     26  C   UNL A   1      34.200  19.625  24.937  1.00  0.00     0.258 C 
ATOM     27  N   UNL A   1      35.572  19.680  24.930  1.00  0.00    -0.288 N 
ATOM     28  O   UNL A   1      37.578  20.758  24.960  1.00  0.00    -0.269 OA
ATOM     29  O   UNL A   1      33.578  18.574  24.834  1.00  0.00    -0.269 OA
ATOM     30  H   UNL A   1      36.044  18.820  24.851  1.00  0.00     0.173 HD
ENDBRANCH   9  10
ENDBRANCH   8   9
ENDBRANCH   7   8
ENDBRANCH   5   7
ENDBRANCH   2   3
ENDBRANCH   1   2
BRANCH   1  31
ATOM     31  C   UNL A   1      35.803  31.910  28.779  1.00  0.00     0.118 C 
BRANCH  31  32
ATOM     32  N   UNL A   1      35.691  31.222  30.054  1.00  0.00    -0.352 N 
ATOM     33  C   UNL A   1      36.546  30.334  30.660  1.00  0.00     0.251 C 
ATOM     34  H   UNL A   1      34.874  31.425  30.564  1.00  0.00     0.163 HD
ATOM     35  O   UNL A   1      36.171  29.736  31.665  1.00  0.00    -0.269 OA
BRANCH  33  36
ATOM     36  C   UNL A   1      37.895  30.073  30.105  1.00  0.00     0.039 A 
ATOM     37  C   UNL A   1      38.961  29.924  30.996  1.00  0.00     0.014 A 
ATOM     38  C   UNL A   1      38.129  30.006  28.729  1.00  0.00     0.014 A 
ATOM     39  C   UNL A   1      40.242  29.654  30.510  1.00  0.00     0.010 A 
ATOM     40  C   UNL A   1      39.390  29.650  28.249  1.00  0.00     0.010 A 
ATOM     41  C   UNL A   1      40.465  29.476  29.133  1.00  0.00    -0.014 A 
BRANCH  41  42
ATOM     42  C   UNL A   1      41.814  29.095  28.631  1.00  0.00     0.031 A 
ATOM     43  C   UNL A   1      42.928  30.107  28.554  1.00  0.00     0.074 A 
ATOM     44  C   UNL A   1      42.031  27.828  28.224  1.00  0.00     0.049 A 
ATOM     45  N   UNL A   1      44.172  29.936  28.183  1.00  0.00    -0.248 NA
ATOM     46  C   UNL A   1      42.600  31.496  28.913  1.00  0.00     0.031 C 
ATOM     47  C   UNL A   1      41.019  26.769  28.183  1.00  0.00     0.029 A 
ATOM     48  N   UNL A   1      43.171  27.209  27.775  1.00  0.00    -0.354 N 
ATOM     49  C   UNL A   1      44.772  31.188  28.263  1.00  0.00     0.074 A 
ATOM     50  C   UNL A   1      43.738  32.122  28.654  1.00  0.00     0.031 C 
ATOM     51  C   UNL A   1      41.592  25.625  27.778  1.00  0.00     0.029 A 
ATOM     52  C   UNL A   1      43.002  25.873  27.496  1.00  0.00     0.049 A 
ATOM     53  H   UNL A   1      44.029  27.678  27.663  1.00  0.00     0.167 HD
ATOM     54  C   UNL A   1      46.068  31.526  28.060  1.00  0.00     0.037 A 
ATOM     55  C   UNL A   1      43.882  24.946  27.069  1.00  0.00     0.037 A 
ATOM     56  C   UNL A   1      47.098  30.588  27.682  1.00  0.00     0.049 A 
ATOM     57  C   UNL A   1      45.319  25.342  26.862  1.00  0.00     0.074 A 
ATOM     58  C   UNL A   1      48.451  30.821  27.504  1.00  0.00     0.029 A 
ATOM     59  N   UNL A   1      46.890  29.241  27.420  1.00  0.00    -0.354 N 
ATOM     60  N   UNL A   1      45.883  26.516  27.020  1.00  0.00    -0.248 NA
ATOM     61  C   UNL A   1      46.243  24.283  26.437  1.00  0.00     0.031 C 
ATOM     62  C   UNL A   1      49.051  29.629  27.082  1.00  0.00     0.029 A 
ATOM     63  C   UNL A   1      48.084  28.637  27.060  1.00  0.00     0.049 A 
ATOM     64  H   UNL A   1      46.021  28.783  27.481  1.00  0.00     0.167 HD
ATOM     65  C   UNL A   1      47.232  26.330  26.739  1.00  0.00     0.074 A 
ATOM     66  C   UNL A   1      47.401  24.926  26.426  1.00  0.00     0.031 C 
ATOM     67  C   UNL A   1      48.241  27.239  26.742  1.00  0.00     0.037 A 
BRANCH  54  68
ATOM     68  C   UNL A   1      46.454  32.971  28.246  1.00  0.00     0.058 A 
ATOM     69  C   UNL A   1      46.914  33.460  29.480  1.00  0.00     0.135 A 
ATOM     70  C   UNL A   1      46.407  33.870  27.167  1.00  0.00     0.135 A 
ATOM     71  F   UNL A   1      46.967  32.652  30.551  1.00  0.00    -0.206 F 
ATOM     72  C   UNL A   1      47.284  34.791  29.647  1.00  0.00     0.059 A 
ATOM     73  C   UNL A   1      46.802  35.199  27.303  1.00  0.00     0.059 A 
ATOM     74  F   UNL A   1      45.978  33.460  25.963  1.00  0.00    -0.206 F 
ATOM     75  C   UNL A   1      47.227  35.653  28.550  1.00  0.00     0.060 A 
BRANCH  75  76
ATOM     76  S   UNL A   1      47.727  37.372  28.781  1.00  0.00     0.124 S 
ATOM     77  O   UNL A   1      48.271  37.340  30.135  1.00  0.00    -0.237 OA
ATOM     78  O   UNL A   1      48.704  37.558  27.712  1.00  0.00    -0.237 OA
ATOM     79  O   UNL A   1      46.481  38.115  28.623  1.00  0.00    -0.744 OA
ENDBRANCH  75  76
ENDBRANCH  54  68
BRANCH  55  80
ATOM     80  C   UNL A   1      43.436  23.545  26.841  1.00  0.00     0.058 A 
ATOM     81  C   UNL A   1      43.234  23.049  25.544  1.00  0.00     0.135 A 
ATOM     82  C   UNL A   1      43.210  22.671  27.915  1.00  0.00     0.135 A 
ATOM     83  F   UNL A   1      43.432  23.846  24.483  1.00  0.00    -0.206 F 
ATOM     84  C   UNL A   1      42.804  21.744  25.319  1.00  0.00     0.059 A 
ATOM     85  C   UNL A   1      42.809  21.354  27.715  1.00  0.00     0.059 A 
ATOM     86  F   UNL A   1      43.406  23.089  29.176  1.00  0.00    -0.206 F 
ATOM     87  C   UNL A   1      42.597  20.903  26.413  1.00  0.00     0.060 A 
BRANCH  87  88
ATOM     88  S   UNL A   1      42.084  19.199  26.110  1.00  0.00     0.124 S 
ATOM     89  O   UNL A   1      42.885  18.853  24.943  1.00  0.00    -0.237 OA
ATOM     90  O   UNL A   1      42.454  18.541  27.359  1.00  0.00    -0.237 OA
ATOM     91  O   UNL A   1      40.647  19.319  25.877  1.00  0.00    -0.744 OA
ENDBRANCH  87  88
ENDBRANCH  55  80
BRANCH  67  92
ATOM     92  C   UNL A   1      49.624  26.728  26.430  1.00  0.00     0.058 A 
ATOM     93  C   UNL A   1      50.179  26.826  25.143  1.00  0.00     0.135 A 
ATOM     94  C   UNL A   1      50.404  26.130  27.433  1.00  0.00     0.135 A 
ATOM     95  F   UNL A   1      49.479  27.387  24.144  1.00  0.00    -0.206 F 
ATOM     96  C   UNL A   1      51.433  26.299  24.850  1.00  0.00     0.059 A 
ATOM     97  C   UNL A   1      51.675  25.630  27.171  1.00  0.00     0.059 A 
ATOM     98  F   UNL A   1      49.931  26.025  28.685  1.00  0.00    -0.206 F 
ATOM     99  C   UNL A   1      52.171  25.695  25.870  1.00  0.00     0.060 A 
BRANCH  99 100
ATOM    100  S   UNL A   1      53.787  24.996  25.474  1.00  0.00     0.124 S 
ATOM    101  O   UNL A   1      53.464  23.582  25.318  1.00  0.00    -0.237 OA
ATOM    102  O   UNL A   1      54.142  25.703  24.248  1.00  0.00    -0.237 OA
ATOM    103  O   UNL A   1      54.598  25.330  26.641  1.00  0.00    -0.744 OA
ENDBRANCH  99 100
ENDBRANCH  67  92
ENDBRANCH  41  42
ENDBRANCH  33  36
ENDBRANCH  31  32
ENDBRANCH   1  31
TORSDOF 16
ENDMDL
MODEL 2
REMARK VINA RESULT:     -13.1      6.278     12.062
REMARK SMILES O=C(CCCN1C(=O)c2ccc3c4c(ccc(c24)C1=O)C(=O)NC3=O)NCCCNC(=O)c1ccc(-c2c3nc(c(-c4c(F)cc(S(=O)(=O)[O-])cc4F)c4ccc([nH]4)c(-c4c(F)cc(S(=O)(=O)[O-])cc4F)c4nc(c(-c5c(F)cc(S(=O)(=O)[O-])cc5F)c5ccc2[nH]5)C=C4)C=C3)cc1
REMARK SMILES IDX 28 1 27 2 26 3 1 4 2 5 3 7 4 8 5 9 6 10 19 11 7 12 20 13
REMARK SMILES IDX 17 14 9 15 8 16 16 17 18 18 10 19 15 20 13 21 11 22 14 23
REMARK SMILES IDX 12 24 21 25 24 26 23 27 22 28 25 29 29 31 30 32 31 33 32 35
REMARK SMILES IDX 33 36 34 37 98 38 35 39 97 40 36 41 37 42 38 43 91 44 39 45
REMARK SMILES IDX 96 46 90 47 92 48 40 49 95 50 89 51 88 52 41 54 75 55 54 56
REMARK SMILES IDX 74 57 55 58 58 59 73 60 93 61 56 62 57 63 72 65 94 66 59 67
REMARK SMILES IDX 42 68 43 69 52 70 44 71 45 72 51 73 53 74 46 75 47 76 48 77
REMARK SMILES IDX 49 78 50 79 76 80 77 81 86 82 78 83 79 84 85 85 87 86 80 87
REMARK SMILES IDX 81 88 82 89 83 90 84 91 60 92 61 93 70 94 62 95 63 96 69 97
REMARK SMILES IDX 71 98 64 99 65 100 66 101 67 102 68 103
REMARK H PARENT 26 6 23 30 30 34 92 53 58 64
REMARK Flexibility Score: inf
ROOT
ATOM      1  C   UNL A   1      38.366  23.550  26.127  1.00  0.00     0.042 C 
ENDROOT
BRANCH   1   2
ATOM      2  C   UNL A   1      37.777  22.192  25.763  1.00  0.00     0.117 C 
BRANCH   2   3
ATOM      3  N   UNL A   1      36.341  22.154  25.938  1.00  0.00    -0.356 N 
ATOM      4  O   UNL A   1      36.037  20.076  25.006  1.00  0.00    -0.275 OA
ATOM      5  C   UNL A   1      35.583  21.077  25.548  1.00  0.00     0.220 C 
ATOM      6  H   UNL A   1      35.891  22.928  26.351  1.00  0.00     0.163 HD
BRANCH   5   7
ATOM      7  C   UNL A   1      34.107  21.242  25.821  1.00  0.00     0.102 C 
BRANCH   7   8
ATOM      8  C   UNL A   1      33.297  21.649  24.590  1.00  0.00     0.032 C 
BRANCH   8   9
ATOM      9  C   UNL A   1      33.821  22.828  23.752  1.00  0.00     0.130 C 
BRANCH   9  10
ATOM     10  N   UNL A   1      33.272  24.172  23.972  1.00  0.00    -0.274 N 
ATOM     11  C   UNL A   1      33.982  24.983  24.869  1.00  0.00     0.261 C 
ATOM     12  C   UNL A   1      31.994  24.500  23.537  1.00  0.00     0.261 C 
ATOM     13  O   UNL A   1      35.033  24.642  25.403  1.00  0.00    -0.269 OA
ATOM     14  C   UNL A   1      33.416  26.321  25.180  1.00  0.00     0.049 A 
ATOM     15  C   UNL A   1      31.632  25.929  23.578  1.00  0.00     0.049 A 
ATOM     16  O   UNL A   1      31.150  23.700  23.147  1.00  0.00    -0.269 OA
ATOM     17  C   UNL A   1      34.020  27.145  26.138  1.00  0.00     0.015 A 
ATOM     18  C   UNL A   1      32.305  26.773  24.461  1.00  0.00     0.009 A 
ATOM     19  C   UNL A   1      30.583  26.401  22.781  1.00  0.00     0.015 A 
ATOM     20  C   UNL A   1      33.522  28.429  26.366  1.00  0.00     0.015 A 
ATOM     21  C   UNL A   1      31.838  28.095  24.639  1.00  0.00     0.009 A 
ATOM     22  C   UNL A   1      30.166  27.725  22.900  1.00  0.00     0.015 A 
ATOM     23  C   UNL A   1      32.446  28.905  25.609  1.00  0.00     0.048 A 
ATOM     24  C   UNL A   1      30.771  28.556  23.849  1.00  0.00     0.048 A 
ATOM     25  C   UNL A   1      31.921  30.271  25.837  1.00  0.00     0.258 C 
ATOM     26  C   UNL A   1      30.274  29.937  24.037  1.00  0.00     0.258 C 
ATOM     27  N   UNL A   1      30.893  30.675  25.016  1.00  0.00    -0.288 N 
ATOM     28  O   UNL A   1      32.378  30.986  26.715  1.00  0.00    -0.269 OA
ATOM     29  O   UNL A   1      29.350  30.375  23.362  1.00  0.00    -0.269 OA
ATOM     30  H   UNL A   1      30.564  31.594  25.145  1.00  0.00     0.173 HD
ENDBRANCH   9  10
ENDBRANCH   8   9
ENDBRANCH   7   8
ENDBRANCH   5   7
ENDBRANCH   2   3
ENDBRANCH   1   2
BRANCH   1  31
ATOM     31  C   UNL A   1      39.666  23.492  26.924  1.00  0.00     0.118 C 
BRANCH  31  32
ATOM     32  N   UNL A   1      40.824  23.932  26.166  1.00  0.00    -0.352 N 
ATOM     33  C   UNL A   1      41.540  25.102  26.241  1.00  0.00     0.251 C 
ATOM     34  H   UNL A   1      41.148  23.290  25.494  1.00  0.00     0.163 HD
ATOM     35  O   UNL A   1      42.384  25.342  25.380  1.00  0.00    -0.269 OA
BRANCH  33  36
ATOM     36  C   UNL A   1      41.290  26.083  27.323  1.00  0.00     0.039 A 
ATOM     37  C   UNL A   1      40.278  25.809  28.247  1.00  0.00     0.014 A 
ATOM     38  C   UNL A   1      42.011  27.277  27.422  1.00  0.00     0.014 A 
ATOM     39  C   UNL A   1      40.030  26.700  29.294  1.00  0.00     0.010 A 
ATOM     40  C   UNL A   1      41.822  28.121  28.516  1.00  0.00     0.010 A 
ATOM     41  C   UNL A   1      40.824  27.848  29.463  1.00  0.00    -0.014 A 
BRANCH  41  42
ATOM     42  C   UNL A   1      40.616  28.742  30.635  1.00  0.00     0.031 A 
ATOM     43  C   UNL A   1      41.458  28.602  31.877  1.00  0.00     0.074 A 
ATOM     44  C   UNL A   1      39.647  29.678  30.585  1.00  0.00     0.049 A 
ATOM     45  N   UNL A   1      41.440  29.322  32.971  1.00  0.00    -0.248 NA
ATOM     46  C   UNL A   1      42.427  27.495  31.910  1.00  0.00     0.031 C 
ATOM     47  C   UNL A   1      38.718  29.873  29.469  1.00  0.00     0.029 A 
ATOM     48  N   UNL A   1      39.284  30.647  31.487  1.00  0.00    -0.354 N 
ATOM     49  C   UNL A   1      42.388  28.758  33.817  1.00  0.00     0.074 A 
ATOM     50  C   UNL A   1      42.917  27.596  33.137  1.00  0.00     0.031 C 
ATOM     51  C   UNL A   1      37.925  30.923  29.732  1.00  0.00     0.029 A 
ATOM     52  C   UNL A   1      38.261  31.455  31.048  1.00  0.00     0.049 A 
ATOM     53  H   UNL A   1      39.715  30.753  32.365  1.00  0.00     0.167 HD
ATOM     54  C   UNL A   1      42.803  29.185  35.035  1.00  0.00     0.037 A 
ATOM     55  C   UNL A   1      37.663  32.512  31.633  1.00  0.00     0.037 A 
ATOM     56  C   UNL A   1      42.281  30.352  35.703  1.00  0.00     0.049 A 
ATOM     57  C   UNL A   1      38.150  32.975  32.980  1.00  0.00     0.074 A 
ATOM     58  C   UNL A   1      42.673  30.898  36.914  1.00  0.00     0.029 A 
ATOM     59  N   UNL A   1      41.253  31.151  35.222  1.00  0.00    -0.354 N 
ATOM     60  N   UNL A   1      39.103  32.475  33.730  1.00  0.00    -0.248 NA
ATOM     61  C   UNL A   1      37.492  34.156  33.551  1.00  0.00     0.031 C 
ATOM     62  C   UNL A   1      41.846  31.993  37.190  1.00  0.00     0.029 A 
ATOM     63  C   UNL A   1      40.982  32.171  36.121  1.00  0.00     0.049 A 
ATOM     64  H   UNL A   1      40.786  31.014  34.367  1.00  0.00     0.167 HD
ATOM     65  C   UNL A   1      39.176  33.297  34.849  1.00  0.00     0.074 A 
ATOM     66  C   UNL A   1      38.188  34.339  34.664  1.00  0.00     0.031 C 
ATOM     67  C   UNL A   1      39.990  33.200  35.931  1.00  0.00     0.037 A 
BRANCH  54  68
ATOM     68  C   UNL A   1      43.880  28.389  35.727  1.00  0.00     0.058 A 
ATOM     69  C   UNL A   1      43.570  27.348  36.619  1.00  0.00     0.135 A 
ATOM     70  C   UNL A   1      45.237  28.637  35.462  1.00  0.00     0.135 A 
ATOM     71  F   UNL A   1      42.292  27.074  36.921  1.00  0.00    -0.206 F 
ATOM     72  C   UNL A   1      44.565  26.603  37.246  1.00  0.00     0.059 A 
ATOM     73  C   UNL A   1      46.248  27.883  36.054  1.00  0.00     0.059 A 
ATOM     74  F   UNL A   1      45.593  29.617  34.617  1.00  0.00    -0.206 F 
ATOM     75  C   UNL A   1      45.902  26.878  36.954  1.00  0.00     0.060 A 
BRANCH  75  76
ATOM     76  S   UNL A   1      47.179  25.890  37.764  1.00  0.00     0.124 S 
ATOM     77  O   UNL A   1      47.008  24.597  37.107  1.00  0.00    -0.237 OA
ATOM     78  O   UNL A   1      48.398  26.616  37.422  1.00  0.00    -0.237 OA
ATOM     79  O   UNL A   1      46.801  25.932  39.173  1.00  0.00    -0.744 OA
ENDBRANCH  75  76
ENDBRANCH  54  68
BRANCH  55  80
ATOM     80  C   UNL A   1      36.561  33.226  30.933  1.00  0.00     0.058 A 
ATOM     81  C   UNL A   1      35.229  33.094  31.352  1.00  0.00     0.135 A 
ATOM     82  C   UNL A   1      36.820  34.062  29.835  1.00  0.00     0.135 A 
ATOM     83  F   UNL A   1      34.928  32.303  32.393  1.00  0.00    -0.206 F 
ATOM     84  C   UNL A   1      34.188  33.747  30.696  1.00  0.00     0.059 A 
ATOM     85  C   UNL A   1      35.801  34.748  29.183  1.00  0.00     0.059 A 
ATOM     86  F   UNL A   1      38.079  34.239  29.405  1.00  0.00    -0.206 F 
ATOM     87  C   UNL A   1      34.486  34.575  29.613  1.00  0.00     0.060 A 
BRANCH  87  88
ATOM     88  S   UNL A   1      33.136  35.453  28.798  1.00  0.00     0.124 S 
ATOM     89  O   UNL A   1      33.861  36.442  28.011  1.00  0.00    -0.237 OA
ATOM     90  O   UNL A   1      32.489  34.384  28.043  1.00  0.00    -0.237 OA
ATOM     91  O   UNL A   1      32.357  35.981  29.915  1.00  0.00    -0.744 OA
ENDBRANCH  87  88
ENDBRANCH  55  80
BRANCH  67  92
ATOM     92  C   UNL A   1      39.864  34.273  36.982  1.00  0.00     0.058 A 
ATOM     93  C   UNL A   1      39.036  34.120  38.106  1.00  0.00     0.135 A 
ATOM     94  C   UNL A   1      40.582  35.474  36.860  1.00  0.00     0.135 A 
ATOM     95  F   UNL A   1      38.325  32.993  38.275  1.00  0.00    -0.206 F 
ATOM     96  C   UNL A   1      38.881  35.140  39.040  1.00  0.00     0.059 A 
ATOM     97  C   UNL A   1      40.471  36.492  37.800  1.00  0.00     0.059 A 
ATOM     98  F   UNL A   1      41.403  35.669  35.814  1.00  0.00    -0.206 F 
ATOM     99  C   UNL A   1      39.598  36.326  38.874  1.00  0.00     0.060 A 
BRANCH  99 100
ATOM    100  S   UNL A   1      39.373  37.651  40.079  1.00  0.00     0.124 S 
ATOM    101  O   UNL A   1      39.184  36.895  41.313  1.00  0.00    -0.237 OA
ATOM    102  O   UNL A   1      40.629  38.387  39.973  1.00  0.00    -0.237 OA
ATOM    103  O   UNL A   1      38.195  38.360  39.590  1.00  0.00    -0.744 OA
ENDBRANCH  99 100
ENDBRANCH  67  92
ENDBRANCH  41  42
ENDBRANCH  33  36
ENDBRANCH  31  32
ENDBRANCH   1  31
TORSDOF 16
ENDMDL
MODEL 3
REMARK VINA RESULT:     -12.9      2.581      8.422
REMARK SMILES O=C(CCCN1C(=O)c2ccc3c4c(ccc(c24)C1=O)C(=O)NC3=O)NCCCNC(=O)c1ccc(-c2c3nc(c(-c4c(F)cc(S(=O)(=O)[O-])cc4F)c4ccc([nH]4)c(-c4c(F)cc(S(=O)(=O)[O-])cc4F)c4nc(c(-c5c(F)cc(S(=O)(=O)[O-])cc5F)c5ccc2[nH]5)C=C4)C=C3)cc1
REMARK SMILES IDX 28 1 27 2 26 3 1 4 2 5 3 7 4 8 5 9 6 10 19 11 7 12 20 13
REMARK SMILES IDX 17 14 9 15 8 16 16 17 18 18 10 19 15 20 13 21 11 22 14 23
REMARK SMILES IDX 12 24 21 25 24 26 23 27 22 28 25 29 29 31 30 32 31 33 32 35
REMARK SMILES IDX 33 36 34 37 98 38 35 39 97 40 36 41 37 42 38 43 91 44 39 45
REMARK SMILES IDX 96 46 90 47 92 48 40 49 95 50 89 51 88 52 41 54 75 55 54 56
REMARK SMILES IDX 74 57 55 58 58 59 73 60 93 61 56 62 57 63 72 65 94 66 59 67
REMARK SMILES IDX 42 68 43 69 52 70 44 71 45 72 51 73 53 74 46 75 47 76 48 77
REMARK SMILES IDX 49 78 50 79 76 80 77 81 86 82 78 83 79 84 85 85 87 86 80 87
REMARK SMILES IDX 81 88 82 89 83 90 84 91 60 92 61 93 70 94 62 95 63 96 69 97
REMARK SMILES IDX 71 98 64 99 65 100 66 101 67 102 68 103
REMARK H PARENT 26 6 23 30 30 34 92 53 58 64
REMARK Flexibility Score: inf
ROOT
ATOM      1  C   UNL A   1      33.064  27.478  26.837  1.00  0.00     0.042 C 
ENDROOT
BRANCH   1   2
ATOM      2  C   UNL A   1      31.686  28.127  26.893  1.00  0.00     0.117 C 
BRANCH   2   3
ATOM      3  N   UNL A   1      31.079  28.235  25.584  1.00  0.00    -0.356 N 
ATOM      4  O   UNL A   1      31.625  30.442  25.246  1.00  0.00    -0.275 OA
ATOM      5  C   UNL A   1      31.111  29.400  24.856  1.00  0.00     0.220 C 
ATOM      6  H   UNL A   1      30.628  27.447  25.201  1.00  0.00     0.163 HD
BRANCH   5   7
ATOM      7  C   UNL A   1      30.421  29.298  23.517  1.00  0.00     0.102 C 
BRANCH   7   8
ATOM      8  C   UNL A   1      31.334  28.806  22.393  1.00  0.00     0.032 C 
BRANCH   8   9
ATOM      9  C   UNL A   1      31.242  27.322  22.001  1.00  0.00     0.130 C 
BRANCH   9  10
ATOM     10  N   UNL A   1      31.783  26.300  22.906  1.00  0.00    -0.274 N 
ATOM     11  C   UNL A   1      33.053  25.805  22.578  1.00  0.00     0.261 C 
ATOM     12  C   UNL A   1      30.971  25.678  23.845  1.00  0.00     0.261 C 
ATOM     13  O   UNL A   1      33.722  26.225  21.639  1.00  0.00    -0.269 OA
ATOM     14  C   UNL A   1      33.602  24.712  23.423  1.00  0.00     0.049 A 
ATOM     15  C   UNL A   1      31.652  24.858  24.865  1.00  0.00     0.049 A 
ATOM     16  O   UNL A   1      29.746  25.740  23.879  1.00  0.00    -0.269 OA
ATOM     17  C   UNL A   1      34.823  24.106  23.098  1.00  0.00     0.015 A 
ATOM     18  C   UNL A   1      32.914  24.337  24.581  1.00  0.00     0.009 A 
ATOM     19  C   UNL A   1      31.001  24.566  26.068  1.00  0.00     0.015 A 
ATOM     20  C   UNL A   1      35.363  23.133  23.941  1.00  0.00     0.015 A 
ATOM     21  C   UNL A   1      33.488  23.403  25.473  1.00  0.00     0.009 A 
ATOM     22  C   UNL A   1      31.597  23.702  26.984  1.00  0.00     0.015 A 
ATOM     23  C   UNL A   1      34.705  22.795  25.129  1.00  0.00     0.048 A 
ATOM     24  C   UNL A   1      32.819  23.099  26.670  1.00  0.00     0.048 A 
ATOM     25  C   UNL A   1      35.280  21.774  26.034  1.00  0.00     0.258 C 
ATOM     26  C   UNL A   1      33.413  22.115  27.603  1.00  0.00     0.258 C 
ATOM     27  N   UNL A   1      34.593  21.537  27.203  1.00  0.00    -0.288 N 
ATOM     28  O   UNL A   1      36.303  21.174  25.743  1.00  0.00    -0.269 OA
ATOM     29  O   UNL A   1      32.861  21.831  28.659  1.00  0.00    -0.269 OA
ATOM     30  H   UNL A   1      34.991  20.882  27.821  1.00  0.00     0.173 HD
ENDBRANCH   9  10
ENDBRANCH   8   9
ENDBRANCH   7   8
ENDBRANCH   5   7
ENDBRANCH   2   3
ENDBRANCH   1   2
BRANCH   1  31
ATOM     31  C   UNL A   1      34.218  28.446  26.589  1.00  0.00     0.118 C 
BRANCH  31  32
ATOM     32  N   UNL A   1      34.023  29.743  27.213  1.00  0.00    -0.352 N 
ATOM     33  C   UNL A   1      34.842  30.452  28.058  1.00  0.00     0.251 C 
ATOM     34  H   UNL A   1      33.171  30.184  26.994  1.00  0.00     0.163 HD
ATOM     35  O   UNL A   1      34.403  31.458  28.609  1.00  0.00    -0.269 OA
BRANCH  33  36
ATOM     36  C   UNL A   1      36.229  30.006  28.330  1.00  0.00     0.039 A 
ATOM     37  C   UNL A   1      37.176  30.122  27.309  1.00  0.00     0.014 A 
ATOM     38  C   UNL A   1      36.600  29.449  29.557  1.00  0.00     0.014 A 
ATOM     39  C   UNL A   1      38.498  29.734  27.537  1.00  0.00     0.010 A 
ATOM     40  C   UNL A   1      37.938  29.144  29.812  1.00  0.00     0.010 A 
ATOM     41  C   UNL A   1      38.903  29.275  28.803  1.00  0.00    -0.014 A 
BRANCH  41  42
ATOM     42  C   UNL A   1      40.333  28.953  29.066  1.00  0.00     0.031 A 
ATOM     43  C   UNL A   1      40.906  27.608  28.699  1.00  0.00     0.074 A 
ATOM     44  C   UNL A   1      41.117  29.877  29.658  1.00  0.00     0.049 A 
ATOM     45  N   UNL A   1      42.136  27.176  28.818  1.00  0.00    -0.248 NA
ATOM     46  C   UNL A   1      39.974  26.608  28.153  1.00  0.00     0.031 C 
ATOM     47  C   UNL A   1      40.669  31.191  30.125  1.00  0.00     0.029 A 
ATOM     48  N   UNL A   1      42.456  29.859  29.962  1.00  0.00    -0.354 N 
ATOM     49  C   UNL A   1      42.127  25.862  28.365  1.00  0.00     0.074 A 
ATOM     50  C   UNL A   1      40.755  25.545  28.031  1.00  0.00     0.031 C 
ATOM     51  C   UNL A   1      41.720  31.869  30.613  1.00  0.00     0.029 A 
ATOM     52  C   UNL A   1      42.909  31.027  30.529  1.00  0.00     0.049 A 
ATOM     53  H   UNL A   1      43.036  29.083  29.791  1.00  0.00     0.167 HD
ATOM     54  C   UNL A   1      43.167  25.007  28.212  1.00  0.00     0.037 A 
ATOM     55  C   UNL A   1      44.144  31.388  30.929  1.00  0.00     0.037 A 
ATOM     56  C   UNL A   1      44.535  25.333  28.535  1.00  0.00     0.049 A 
ATOM     57  C   UNL A   1      45.286  30.427  30.737  1.00  0.00     0.074 A 
ATOM     58  C   UNL A   1      45.668  24.555  28.366  1.00  0.00     0.029 A 
ATOM     59  N   UNL A   1      44.956  26.530  29.096  1.00  0.00    -0.354 N 
ATOM     60  N   UNL A   1      45.269  29.215  30.233  1.00  0.00    -0.248 NA
ATOM     61  C   UNL A   1      46.617  30.888  31.152  1.00  0.00     0.031 C 
ATOM     62  C   UNL A   1      46.765  25.260  28.874  1.00  0.00     0.029 A 
ATOM     63  C   UNL A   1      46.327  26.503  29.300  1.00  0.00     0.049 A 
ATOM     64  H   UNL A   1      44.367  27.288  29.315  1.00  0.00     0.167 HD
ATOM     65  C   UNL A   1      46.590  28.780  30.246  1.00  0.00     0.074 A 
ATOM     66  C   UNL A   1      47.380  29.868  30.785  1.00  0.00     0.031 C 
ATOM     67  C   UNL A   1      47.104  27.590  29.845  1.00  0.00     0.037 A 
BRANCH  54  68
ATOM     68  C   UNL A   1      42.871  23.633  27.666  1.00  0.00     0.058 A 
ATOM     69  C   UNL A   1      42.935  23.356  26.290  1.00  0.00     0.135 A 
ATOM     70  C   UNL A   1      42.563  22.570  28.530  1.00  0.00     0.135 A 
ATOM     71  F   UNL A   1      43.210  24.335  25.414  1.00  0.00    -0.206 F 
ATOM     72  C   UNL A   1      42.676  22.084  25.789  1.00  0.00     0.059 A 
ATOM     73  C   UNL A   1      42.332  21.281  28.053  1.00  0.00     0.059 A 
ATOM     74  F   UNL A   1      42.490  22.774  29.855  1.00  0.00    -0.206 F 
ATOM     75  C   UNL A   1      42.378  21.052  26.680  1.00  0.00     0.060 A 
BRANCH  75  76
ATOM     76  S   UNL A   1      42.062  19.404  26.012  1.00  0.00     0.124 S 
ATOM     77  O   UNL A   1      42.890  19.412  24.810  1.00  0.00    -0.237 OA
ATOM     78  O   UNL A   1      42.524  18.537  27.092  1.00  0.00    -0.237 OA
ATOM     79  O   UNL A   1      40.621  19.400  25.781  1.00  0.00    -0.744 OA
ENDBRANCH  75  76
ENDBRANCH  54  68
BRANCH  55  80
ATOM     80  C   UNL A   1      44.372  32.735  31.520  1.00  0.00     0.058 A 
ATOM     81  C   UNL A   1      44.677  33.841  30.711  1.00  0.00     0.135 A 
ATOM     82  C   UNL A   1      44.281  32.945  32.904  1.00  0.00     0.135 A 
ATOM     83  F   UNL A   1      44.780  33.691  29.382  1.00  0.00    -0.206 F 
ATOM     84  C   UNL A   1      44.905  35.102  31.254  1.00  0.00     0.059 A 
ATOM     85  C   UNL A   1      44.475  34.203  33.468  1.00  0.00     0.059 A 
ATOM     86  F   UNL A   1      43.973  31.926  33.722  1.00  0.00    -0.206 F 
ATOM     87  C   UNL A   1      44.798  35.273  32.635  1.00  0.00     0.060 A 
BRANCH  87  88
ATOM     88  S   UNL A   1      45.051  36.922  33.325  1.00  0.00     0.124 S 
ATOM     89  O   UNL A   1      45.117  36.636  34.753  1.00  0.00    -0.237 OA
ATOM     90  O   UNL A   1      46.304  37.328  32.695  1.00  0.00    -0.237 OA
ATOM     91  O   UNL A   1      43.869  37.656  32.881  1.00  0.00    -0.744 OA
ENDBRANCH  87  88
ENDBRANCH  55  80
BRANCH  67  92
ATOM     92  C   UNL A   1      48.598  27.419  29.945  1.00  0.00     0.058 A 
ATOM     93  C   UNL A   1      49.459  27.782  28.896  1.00  0.00     0.135 A 
ATOM     94  C   UNL A   1      49.176  26.882  31.106  1.00  0.00     0.135 A 
ATOM     95  F   UNL A   1      48.962  28.300  27.761  1.00  0.00    -0.206 F 
ATOM     96  C   UNL A   1      50.831  27.566  28.974  1.00  0.00     0.059 A 
ATOM     97  C   UNL A   1      50.549  26.691  31.220  1.00  0.00     0.059 A 
ATOM     98  F   UNL A   1      48.403  26.533  32.148  1.00  0.00    -0.206 F 
ATOM     99  C   UNL A   1      51.367  27.012  30.138  1.00  0.00     0.060 A 
BRANCH  99 100
ATOM    100  S   UNL A   1      53.145  26.716  30.220  1.00  0.00     0.124 S 
ATOM    101  O   UNL A   1      53.224  25.691  31.255  1.00  0.00    -0.237 OA
ATOM    102  O   UNL A   1      53.451  26.271  28.864  1.00  0.00    -0.237 OA
ATOM    103  O   UNL A   1      53.691  28.020  30.583  1.00  0.00    -0.744 OA
ENDBRANCH  99 100
ENDBRANCH  67  92
ENDBRANCH  41  42
ENDBRANCH  33  36
ENDBRANCH  31  32
ENDBRANCH   1  31
TORSDOF 16
ENDMDL
