MODEL 1
REMARK VINA RESULT:     -12.1      0.000      0.000
REMARK SMILES Nc1cccc(C(=O)N2CCC[C@H]2C(=O)NCCCNC(=O)c2ccc(-c3c4nc(c(-c5c(F)cc(S(=O)(=O)[O-])cc5F)c5ccc([nH]5)c(-c5c(F)cc(S(=O)(=O)[O-])cc5F)c5nc(c(-c6c(F)cc(S(=O)(=O)[O-])cc6F)c6ccc3[nH]6)C=C5)C=C4)cc2)c1
REMARK SMILES IDX 18 1 17 2 16 3 14 4 15 5 13 7 9 8 10 9 11 10 12 11 7 12 8 13
REMARK SMILES IDX 6 14 2 15 3 16 89 17 4 18 5 19 1 20 19 23 20 24 21 25 22 27
REMARK SMILES IDX 23 28 24 29 88 30 25 31 87 32 26 33 27 34 28 35 81 36 29 37
REMARK SMILES IDX 86 38 80 39 82 40 30 41 85 42 79 43 78 44 31 46 65 47 44 48
REMARK SMILES IDX 64 49 45 50 48 51 63 52 83 53 46 54 47 55 62 57 84 58 49 59
REMARK SMILES IDX 32 60 33 61 42 62 34 63 35 64 41 65 43 66 36 67 37 68 38 69
REMARK SMILES IDX 39 70 40 71 66 72 67 73 76 74 68 75 69 76 75 77 77 78 70 79
REMARK SMILES IDX 71 80 72 81 73 82 74 83 50 84 51 85 60 86 52 87 53 88 59 89
REMARK SMILES IDX 61 90 54 91 55 92 56 93 57 94 58 95
REMARK H PARENT 16 6 1 21 1 22 20 26 82 45 48 56
REMARK Flexibility Score: inf
ROOT
ATOM      1  C   UNL A   1      34.202  29.266  27.451  1.00  0.00     0.042 C 
ENDROOT
BRANCH   1   2
ATOM      2  C   UNL A   1      33.632  29.432  26.051  1.00  0.00     0.117 C 
BRANCH   2   3
ATOM      3  N   UNL A   1      33.985  28.355  25.152  1.00  0.00    -0.354 N 
ATOM      4  C   UNL A   1      33.215  27.399  24.560  1.00  0.00     0.242 C 
ATOM      5  O   UNL A   1      33.732  26.795  23.610  1.00  0.00    -0.273 OA
ATOM      6  H   UNL A   1      34.943  28.305  24.931  1.00  0.00     0.163 HD
BRANCH   4   7
ATOM      7  C   UNL A   1      31.716  27.207  24.874  1.00  0.00     0.174 C 
ATOM      8  N   UNL A   1      30.868  26.535  23.885  1.00  0.00    -0.327 N 
ATOM      9  C   UNL A   1      30.300  25.307  24.416  1.00  0.00     0.121 C 
ATOM     10  C   UNL A   1      30.268  25.553  25.913  1.00  0.00     0.024 C 
ATOM     11  C   UNL A   1      31.495  26.426  26.177  1.00  0.00     0.037 C 
BRANCH   8  12
ATOM     12  C   UNL A   1      30.512  27.252  22.751  1.00  0.00     0.254 C 
ATOM     13  O   UNL A   1      31.036  27.025  21.661  1.00  0.00    -0.269 OA
BRANCH  12  14
ATOM     14  C   UNL A   1      29.558  28.390  22.840  1.00  0.00     0.042 A 
ATOM     15  C   UNL A   1      29.024  30.743  22.490  1.00  0.00     0.032 A 
ATOM     16  C   UNL A   1      27.687  30.462  22.776  1.00  0.00     0.025 A 
ATOM     17  C   UNL A   1      29.933  29.684  22.449  1.00  0.00     0.039 A 
ATOM     18  C   UNL A   1      27.283  29.166  23.104  1.00  0.00     0.003 A 
ATOM     19  C   UNL A   1      28.219  28.132  23.147  1.00  0.00     0.014 A 
BRANCH  15  20
ATOM     20  N   UNL A   1      29.413  32.016  22.095  1.00  0.00    -0.399 N 
ATOM     21  H   UNL A   1      29.972  32.132  21.293  1.00  0.00     0.156 HD
ATOM     22  H   UNL A   1      29.132  32.801  22.616  1.00  0.00     0.156 HD
ENDBRANCH  15  20
ENDBRANCH  12  14
ENDBRANCH   8  12
ENDBRANCH   4   7
ENDBRANCH   2   3
ENDBRANCH   1   2
BRANCH   1  23
ATOM     23  C   UNL A   1      35.269  30.294  27.799  1.00  0.00     0.118 C 
BRANCH  23  24
ATOM     24  N   UNL A   1      35.267  30.634  29.217  1.00  0.00    -0.352 N 
ATOM     25  C   UNL A   1      36.240  30.466  30.169  1.00  0.00     0.251 C 
ATOM     26  H   UNL A   1      34.437  31.050  29.542  1.00  0.00     0.163 HD
ATOM     27  O   UNL A   1      35.950  30.623  31.355  1.00  0.00    -0.269 OA
BRANCH  25  28
ATOM     28  C   UNL A   1      37.619  30.089  29.788  1.00  0.00     0.039 A 
ATOM     29  C   UNL A   1      38.512  29.691  30.787  1.00  0.00     0.014 A 
ATOM     30  C   UNL A   1      38.051  30.168  28.461  1.00  0.00     0.014 A 
ATOM     31  C   UNL A   1      39.818  29.325  30.449  1.00  0.00     0.010 A 
ATOM     32  C   UNL A   1      39.323  29.722  28.114  1.00  0.00     0.010 A 
ATOM     33  C   UNL A   1      40.226  29.313  29.106  1.00  0.00    -0.014 A 
BRANCH  33  34
ATOM     34  C   UNL A   1      41.600  28.904  28.718  1.00  0.00     0.031 A 
ATOM     35  C   UNL A   1      42.700  29.930  28.655  1.00  0.00     0.074 A 
ATOM     36  C   UNL A   1      41.841  27.628  28.357  1.00  0.00     0.049 A 
ATOM     37  N   UNL A   1      43.943  29.786  28.271  1.00  0.00    -0.248 NA
ATOM     38  C   UNL A   1      42.348  31.304  29.045  1.00  0.00     0.031 C 
ATOM     39  C   UNL A   1      40.845  26.557  28.325  1.00  0.00     0.029 A 
ATOM     40  N   UNL A   1      42.996  27.021  27.935  1.00  0.00    -0.354 N 
ATOM     41  C   UNL A   1      44.512  31.052  28.351  1.00  0.00     0.074 A 
ATOM     42  C   UNL A   1      43.465  31.959  28.768  1.00  0.00     0.031 C 
ATOM     43  C   UNL A   1      41.435  25.420  27.923  1.00  0.00     0.029 A 
ATOM     44  C   UNL A   1      42.841  25.689  27.636  1.00  0.00     0.049 A 
ATOM     45  H   UNL A   1      43.856  27.496  27.854  1.00  0.00     0.167 HD
ATOM     46  C   UNL A   1      45.795  31.422  28.121  1.00  0.00     0.037 A 
ATOM     47  C   UNL A   1      43.729  24.786  27.175  1.00  0.00     0.037 A 
ATOM     48  C   UNL A   1      46.837  30.508  27.732  1.00  0.00     0.049 A 
ATOM     49  C   UNL A   1      45.154  25.210  26.948  1.00  0.00     0.074 A 
ATOM     50  C   UNL A   1      48.182  30.767  27.536  1.00  0.00     0.029 A 
ATOM     51  N   UNL A   1      46.648  29.156  27.476  1.00  0.00    -0.354 N 
ATOM     52  N   UNL A   1      45.692  26.398  27.094  1.00  0.00    -0.248 NA
ATOM     53  C   UNL A   1      46.094  24.172  26.507  1.00  0.00     0.031 C 
ATOM     54  C   UNL A   1      48.799  29.581  27.121  1.00  0.00     0.029 A 
ATOM     55  C   UNL A   1      47.849  28.572  27.107  1.00  0.00     0.049 A 
ATOM     56  H   UNL A   1      45.788  28.684  27.546  1.00  0.00     0.167 HD
ATOM     57  C   UNL A   1      47.039  26.245  26.786  1.00  0.00     0.074 A 
ATOM     58  C   UNL A   1      47.235  24.848  26.455  1.00  0.00     0.031 C 
ATOM     59  C   UNL A   1      48.026  27.177  26.783  1.00  0.00     0.037 A 
BRANCH  46  60
ATOM     60  C   UNL A   1      46.134  32.880  28.284  1.00  0.00     0.058 A 
ATOM     61  C   UNL A   1      46.055  33.783  27.211  1.00  0.00     0.135 A 
ATOM     62  C   UNL A   1      46.547  33.381  29.530  1.00  0.00     0.135 A 
ATOM     63  F   UNL A   1      45.679  33.357  25.995  1.00  0.00    -0.206 F 
ATOM     64  C   UNL A   1      46.420  35.118  27.354  1.00  0.00     0.059 A 
ATOM     65  C   UNL A   1      46.886  34.721  29.702  1.00  0.00     0.059 A 
ATOM     66  F   UNL A   1      46.636  32.566  30.592  1.00  0.00    -0.206 F 
ATOM     67  C   UNL A   1      46.841  35.576  28.603  1.00  0.00     0.060 A 
BRANCH  67  68
ATOM     68  S   UNL A   1      47.337  37.304  28.766  1.00  0.00     0.124 S 
ATOM     69  O   UNL A   1      46.242  37.986  28.082  1.00  0.00    -0.237 OA
ATOM     70  O   UNL A   1      47.388  37.481  30.214  1.00  0.00    -0.237 OA
ATOM     71  O   UNL A   1      48.628  37.353  28.086  1.00  0.00    -0.744 OA
ENDBRANCH  67  68
ENDBRANCH  46  60
BRANCH  47  72
ATOM     72  C   UNL A   1      43.292  23.385  26.939  1.00  0.00     0.058 A 
ATOM     73  C   UNL A   1      43.038  22.918  25.642  1.00  0.00     0.135 A 
ATOM     74  C   UNL A   1      43.173  22.473  27.999  1.00  0.00     0.135 A 
ATOM     75  F   UNL A   1      43.133  23.756  24.598  1.00  0.00    -0.206 F 
ATOM     76  C   UNL A   1      42.681  21.596  25.400  1.00  0.00     0.059 A 
ATOM     77  C   UNL A   1      42.839  21.139  27.780  1.00  0.00     0.059 A 
ATOM     78  F   UNL A   1      43.422  22.866  29.257  1.00  0.00    -0.206 F 
ATOM     79  C   UNL A   1      42.592  20.711  26.476  1.00  0.00     0.060 A 
BRANCH  79  80
ATOM     80  S   UNL A   1      42.212  18.977  26.142  1.00  0.00     0.124 S 
ATOM     81  O   UNL A   1      42.481  18.361  27.436  1.00  0.00    -0.237 OA
ATOM     82  O   UNL A   1      40.809  19.043  25.744  1.00  0.00    -0.237 OA
ATOM     83  O   UNL A   1      43.142  18.630  25.070  1.00  0.00    -0.744 OA
ENDBRANCH  79  80
ENDBRANCH  47  72
BRANCH  59  84
ATOM     84  C   UNL A   1      49.414  26.711  26.443  1.00  0.00     0.058 A 
ATOM     85  C   UNL A   1      50.270  26.166  27.413  1.00  0.00     0.135 A 
ATOM     86  C   UNL A   1      49.874  26.764  25.116  1.00  0.00     0.135 A 
ATOM     87  F   UNL A   1      49.882  26.098  28.696  1.00  0.00    -0.206 F 
ATOM     88  C   UNL A   1      51.543  25.712  27.083  1.00  0.00     0.059 A 
ATOM     89  C   UNL A   1      51.132  26.290  24.760  1.00  0.00     0.059 A 
ATOM     90  F   UNL A   1      49.091  27.265  24.148  1.00  0.00    -0.206 F 
ATOM     91  C   UNL A   1      51.965  25.777  25.753  1.00  0.00     0.060 A 
BRANCH  91  92
ATOM     92  S   UNL A   1      53.608  25.156  25.333  1.00  0.00     0.124 S 
ATOM     93  O   UNL A   1      54.432  25.789  26.358  1.00  0.00    -0.237 OA
ATOM     94  O   UNL A   1      53.438  23.711  25.459  1.00  0.00    -0.237 OA
ATOM     95  O   UNL A   1      53.816  25.640  23.972  1.00  0.00    -0.744 OA
ENDBRANCH  91  92
ENDBRANCH  59  84
ENDBRANCH  33  34
ENDBRANCH  25  28
ENDBRANCH  23  24
ENDBRANCH   1  23
TORSDOF 16
ENDMDL
MODEL 2
REMARK VINA RESULT:     -12.0      7.116     12.470
REMARK SMILES Nc1cccc(C(=O)N2CCC[C@H]2C(=O)NCCCNC(=O)c2ccc(-c3c4nc(c(-c5c(F)cc(S(=O)(=O)[O-])cc5F)c5ccc([nH]5)c(-c5c(F)cc(S(=O)(=O)[O-])cc5F)c5nc(c(-c6c(F)cc(S(=O)(=O)[O-])cc6F)c6ccc3[nH]6)C=C5)C=C4)cc2)c1
REMARK SMILES IDX 18 1 17 2 16 3 14 4 15 5 13 7 9 8 10 9 11 10 12 11 7 12 8 13
REMARK SMILES IDX 6 14 2 15 3 16 89 17 4 18 5 19 1 20 19 23 20 24 21 25 22 27
REMARK SMILES IDX 23 28 24 29 88 30 25 31 87 32 26 33 27 34 28 35 81 36 29 37
REMARK SMILES IDX 86 38 80 39 82 40 30 41 85 42 79 43 78 44 31 46 65 47 44 48
REMARK SMILES IDX 64 49 45 50 48 51 63 52 83 53 46 54 47 55 62 57 84 58 49 59
REMARK SMILES IDX 32 60 33 61 42 62 34 63 35 64 41 65 43 66 36 67 37 68 38 69
REMARK SMILES IDX 39 70 40 71 66 72 67 73 76 74 68 75 69 76 75 77 77 78 70 79
REMARK SMILES IDX 71 80 72 81 73 82 74 83 50 84 51 85 60 86 52 87 53 88 59 89
REMARK SMILES IDX 61 90 54 91 55 92 56 93 57 94 58 95
REMARK H PARENT 16 6 1 21 1 22 20 26 82 45 48 56
REMARK Flexibility Score: inf
ROOT
ATOM      1  C   UNL A   1      39.379  22.029  26.443  1.00  0.00     0.042 C 
ENDROOT
BRANCH   1   2
ATOM      2  C   UNL A   1      38.055  21.953  25.700  1.00  0.00     0.117 C 
BRANCH   2   3
ATOM      3  N   UNL A   1      37.039  22.830  26.238  1.00  0.00    -0.354 N 
ATOM      4  C   UNL A   1      35.750  23.044  25.853  1.00  0.00     0.242 C 
ATOM      5  O   UNL A   1      35.025  23.623  26.673  1.00  0.00    -0.273 OA
ATOM      6  H   UNL A   1      37.328  23.363  27.014  1.00  0.00     0.163 HD
BRANCH   4   7
ATOM      7  C   UNL A   1      35.133  22.421  24.582  1.00  0.00     0.174 C 
ATOM      8  N   UNL A   1      33.745  21.951  24.628  1.00  0.00    -0.327 N 
ATOM      9  C   UNL A   1      32.905  22.679  23.693  1.00  0.00     0.121 C 
ATOM     10  C   UNL A   1      33.880  23.137  22.625  1.00  0.00     0.024 C 
ATOM     11  C   UNL A   1      35.183  23.383  23.386  1.00  0.00     0.037 C 
BRANCH   8  12
ATOM     12  C   UNL A   1      33.492  20.764  25.301  1.00  0.00     0.254 C 
ATOM     13  O   UNL A   1      33.335  20.742  26.521  1.00  0.00    -0.269 OA
BRANCH  12  14
ATOM     14  C   UNL A   1      33.504  19.463  24.579  1.00  0.00     0.042 A 
ATOM     15  C   UNL A   1      32.593  17.970  22.880  1.00  0.00     0.032 A 
ATOM     16  C   UNL A   1      33.689  17.126  23.062  1.00  0.00     0.025 A 
ATOM     17  C   UNL A   1      32.555  19.172  23.588  1.00  0.00     0.039 A 
ATOM     18  C   UNL A   1      34.679  17.431  23.999  1.00  0.00     0.003 A 
ATOM     19  C   UNL A   1      34.583  18.593  24.766  1.00  0.00     0.014 A 
BRANCH  15  20
ATOM     20  N   UNL A   1      31.647  17.704  21.901  1.00  0.00    -0.399 N 
ATOM     21  H   UNL A   1      31.157  18.445  21.476  1.00  0.00     0.156 HD
ATOM     22  H   UNL A   1      31.464  16.775  21.631  1.00  0.00     0.156 HD
ENDBRANCH  15  20
ENDBRANCH  12  14
ENDBRANCH   8  12
ENDBRANCH   4   7
ENDBRANCH   2   3
ENDBRANCH   1   2
BRANCH   1  23
ATOM     23  C   UNL A   1      39.832  23.453  26.736  1.00  0.00     0.118 C 
BRANCH  23  24
ATOM     24  N   UNL A   1      41.099  23.774  26.091  1.00  0.00    -0.352 N 
ATOM     25  C   UNL A   1      41.925  24.857  26.252  1.00  0.00     0.251 C 
ATOM     26  H   UNL A   1      41.411  23.108  25.437  1.00  0.00     0.163 HD
ATOM     27  O   UNL A   1      42.840  25.037  25.447  1.00  0.00    -0.269 OA
BRANCH  25  28
ATOM     28  C   UNL A   1      41.723  25.808  27.366  1.00  0.00     0.039 A 
ATOM     29  C   UNL A   1      42.571  26.914  27.474  1.00  0.00     0.014 A 
ATOM     30  C   UNL A   1      40.733  25.595  28.330  1.00  0.00     0.014 A 
ATOM     31  C   UNL A   1      42.394  27.829  28.516  1.00  0.00     0.010 A 
ATOM     32  C   UNL A   1      40.502  26.550  29.315  1.00  0.00     0.010 A 
ATOM     33  C   UNL A   1      41.340  27.668  29.430  1.00  0.00    -0.014 A 
BRANCH  33  34
ATOM     34  C   UNL A   1      41.115  28.639  30.530  1.00  0.00     0.031 A 
ATOM     35  C   UNL A   1      41.952  28.567  31.780  1.00  0.00     0.074 A 
ATOM     36  C   UNL A   1      40.116  29.538  30.435  1.00  0.00     0.049 A 
ATOM     37  N   UNL A   1      41.862  29.276  32.876  1.00  0.00    -0.248 NA
ATOM     38  C   UNL A   1      43.007  27.543  31.812  1.00  0.00     0.031 C 
ATOM     39  C   UNL A   1      39.203  29.669  29.298  1.00  0.00     0.029 A 
ATOM     40  N   UNL A   1      39.693  30.502  31.314  1.00  0.00    -0.354 N 
ATOM     41  C   UNL A   1      42.832  28.768  33.735  1.00  0.00     0.074 A 
ATOM     42  C   UNL A   1      43.459  27.658  33.052  1.00  0.00     0.031 C 
ATOM     43  C   UNL A   1      38.339  30.667  29.541  1.00  0.00     0.029 A 
ATOM     44  C   UNL A   1      38.613  31.223  30.863  1.00  0.00     0.049 A 
ATOM     45  H   UNL A   1      40.122  30.661  32.186  1.00  0.00     0.167 HD
ATOM     46  C   UNL A   1      43.182  29.201  34.970  1.00  0.00     0.037 A 
ATOM     47  C   UNL A   1      37.918  32.217  31.450  1.00  0.00     0.037 A 
ATOM     48  C   UNL A   1      42.569  30.323  35.631  1.00  0.00     0.049 A 
ATOM     49  C   UNL A   1      38.336  32.699  32.811  1.00  0.00     0.074 A 
ATOM     50  C   UNL A   1      42.892  30.884  36.854  1.00  0.00     0.029 A 
ATOM     51  N   UNL A   1      41.502  31.054  35.125  1.00  0.00    -0.354 N 
ATOM     52  N   UNL A   1      39.300  32.253  33.582  1.00  0.00    -0.248 NA
ATOM     53  C   UNL A   1      37.585  33.826  33.377  1.00  0.00     0.031 C 
ATOM     54  C   UNL A   1      41.994  31.928  37.107  1.00  0.00     0.029 A 
ATOM     55  C   UNL A   1      41.144  32.050  36.019  1.00  0.00     0.049 A 
ATOM     56  H   UNL A   1      41.066  30.888  34.259  1.00  0.00     0.167 HD
ATOM     57  C   UNL A   1      39.286  33.060  34.714  1.00  0.00     0.074 A 
ATOM     58  C   UNL A   1      38.225  34.027  34.522  1.00  0.00     0.031 C 
ATOM     59  C   UNL A   1      40.084  33.008  35.811  1.00  0.00     0.037 A 
BRANCH  46  60
ATOM     60  C   UNL A   1      44.278  28.452  35.680  1.00  0.00     0.058 A 
ATOM     61  C   UNL A   1      45.634  28.772  35.496  1.00  0.00     0.135 A 
ATOM     62  C   UNL A   1      43.970  27.395  36.553  1.00  0.00     0.135 A 
ATOM     63  F   UNL A   1      45.987  29.764  34.662  1.00  0.00    -0.206 F 
ATOM     64  C   UNL A   1      46.645  28.042  36.112  1.00  0.00     0.059 A 
ATOM     65  C   UNL A   1      44.966  26.672  37.205  1.00  0.00     0.059 A 
ATOM     66  F   UNL A   1      42.693  27.048  36.771  1.00  0.00    -0.206 F 
ATOM     67  C   UNL A   1      46.301  26.989  36.960  1.00  0.00     0.060 A 
BRANCH  67  68
ATOM     68  S   UNL A   1      47.625  26.034  37.731  1.00  0.00     0.124 S 
ATOM     69  O   UNL A   1      47.482  26.419  39.132  1.00  0.00    -0.237 OA
ATOM     70  O   UNL A   1      47.250  24.660  37.409  1.00  0.00    -0.237 OA
ATOM     71  O   UNL A   1      48.829  26.523  37.066  1.00  0.00    -0.744 OA
ENDBRANCH  67  68
ENDBRANCH  46  60
BRANCH  47  72
ATOM     72  C   UNL A   1      36.778  32.839  30.726  1.00  0.00     0.058 A 
ATOM     73  C   UNL A   1      35.457  32.461  31.001  1.00  0.00     0.135 A 
ATOM     74  C   UNL A   1      36.986  33.860  29.786  1.00  0.00     0.135 A 
ATOM     75  F   UNL A   1      35.209  31.485  31.888  1.00  0.00    -0.206 F 
ATOM     76  C   UNL A   1      34.378  33.073  30.370  1.00  0.00     0.059 A 
ATOM     77  C   UNL A   1      35.922  34.503  29.158  1.00  0.00     0.059 A 
ATOM     78  F   UNL A   1      38.231  34.270  29.500  1.00  0.00    -0.206 F 
ATOM     79  C   UNL A   1      34.621  34.099  29.456  1.00  0.00     0.060 A 
BRANCH  79  80
ATOM     80  S   UNL A   1      33.210  34.944  28.708  1.00  0.00     0.124 S 
ATOM     81  O   UNL A   1      32.416  35.288  29.881  1.00  0.00    -0.237 OA
ATOM     82  O   UNL A   1      33.852  36.059  28.019  1.00  0.00    -0.237 OA
ATOM     83  O   UNL A   1      32.636  33.926  27.832  1.00  0.00    -0.744 OA
ENDBRANCH  79  80
ENDBRANCH  47  72
BRANCH  59  84
ATOM     84  C   UNL A   1      39.864  34.045  36.875  1.00  0.00     0.058 A 
ATOM     85  C   UNL A   1      39.050  33.799  37.992  1.00  0.00     0.135 A 
ATOM     86  C   UNL A   1      40.520  35.286  36.802  1.00  0.00     0.135 A 
ATOM     87  F   UNL A   1      38.396  32.633  38.107  1.00  0.00    -0.206 F 
ATOM     88  C   UNL A   1      38.874  34.756  38.987  1.00  0.00     0.059 A 
ATOM     89  C   UNL A   1      40.380  36.246  37.798  1.00  0.00     0.059 A 
ATOM     90  F   UNL A   1      41.319  35.568  35.761  1.00  0.00    -0.206 F 
ATOM     91  C   UNL A   1      39.545  35.976  38.882  1.00  0.00     0.060 A 
BRANCH  91  92
ATOM     92  S   UNL A   1      39.333  37.198  40.194  1.00  0.00     0.124 S 
ATOM     93  O   UNL A   1      40.718  37.538  40.505  1.00  0.00    -0.237 OA
ATOM     94  O   UNL A   1      38.559  38.241  39.529  1.00  0.00    -0.237 OA
ATOM     95  O   UNL A   1      38.619  36.461  41.232  1.00  0.00    -0.744 OA
ENDBRANCH  91  92
ENDBRANCH  59  84
ENDBRANCH  33  34
ENDBRANCH  25  28
ENDBRANCH  23  24
ENDBRANCH   1  23
TORSDOF 16
ENDMDL
MODEL 3
REMARK VINA RESULT:     -11.9      1.466      2.862
REMARK SMILES Nc1cccc(C(=O)N2CCC[C@H]2C(=O)NCCCNC(=O)c2ccc(-c3c4nc(c(-c5c(F)cc(S(=O)(=O)[O-])cc5F)c5ccc([nH]5)c(-c5c(F)cc(S(=O)(=O)[O-])cc5F)c5nc(c(-c6c(F)cc(S(=O)(=O)[O-])cc6F)c6ccc3[nH]6)C=C5)C=C4)cc2)c1
REMARK SMILES IDX 18 1 17 2 16 3 14 4 15 5 13 7 9 8 10 9 11 10 12 11 7 12 8 13
REMARK SMILES IDX 6 14 2 15 3 16 89 17 4 18 5 19 1 20 19 23 20 24 21 25 22 27
REMARK SMILES IDX 23 28 24 29 88 30 25 31 87 32 26 33 27 34 28 35 81 36 29 37
REMARK SMILES IDX 86 38 80 39 82 40 30 41 85 42 79 43 78 44 31 46 65 47 44 48
REMARK SMILES IDX 64 49 45 50 48 51 63 52 83 53 46 54 47 55 62 57 84 58 49 59
REMARK SMILES IDX 32 60 33 61 42 62 34 63 35 64 41 65 43 66 36 67 37 68 38 69
REMARK SMILES IDX 39 70 40 71 66 72 67 73 76 74 68 75 69 76 75 77 77 78 70 79
REMARK SMILES IDX 71 80 72 81 73 82 74 83 50 84 51 85 60 86 52 87 53 88 59 89
REMARK SMILES IDX 61 90 54 91 55 92 56 93 57 94 58 95
REMARK H PARENT 16 6 1 21 1 22 20 26 82 45 48 56
REMARK Flexibility Score: inf
ROOT
ATOM      1  C   UNL A   1      34.254  31.124  27.372  1.00  0.00     0.042 C 
ENDROOT
BRANCH   1   2
ATOM      2  C   UNL A   1      33.924  29.683  27.014  1.00  0.00     0.117 C 
BRANCH   2   3
ATOM      3  N   UNL A   1      32.704  29.201  27.624  1.00  0.00    -0.354 N 
ATOM      4  C   UNL A   1      31.790  28.289  27.189  1.00  0.00     0.242 C 
ATOM      5  O   UNL A   1      31.006  27.854  28.043  1.00  0.00    -0.273 OA
ATOM      6  H   UNL A   1      32.501  29.599  28.501  1.00  0.00     0.163 HD
BRANCH   4   7
ATOM      7  C   UNL A   1      31.836  27.648  25.785  1.00  0.00     0.174 C 
ATOM      8  N   UNL A   1      31.194  26.346  25.582  1.00  0.00    -0.327 N 
ATOM      9  C   UNL A   1      30.114  26.430  24.614  1.00  0.00     0.121 C 
ATOM     10  C   UNL A   1      30.506  27.615  23.750  1.00  0.00     0.024 C 
ATOM     11  C   UNL A   1      31.224  28.560  24.713  1.00  0.00     0.037 C 
BRANCH   8  12
ATOM     12  C   UNL A   1      31.839  25.227  26.088  1.00  0.00     0.254 C 
ATOM     13  O   UNL A   1      31.414  24.638  27.081  1.00  0.00    -0.269 OA
BRANCH  12  14
ATOM     14  C   UNL A   1      33.127  24.762  25.504  1.00  0.00     0.042 A 
ATOM     15  C   UNL A   1      35.252  23.586  25.717  1.00  0.00     0.032 A 
ATOM     16  C   UNL A   1      35.422  23.683  24.336  1.00  0.00     0.025 A 
ATOM     17  C   UNL A   1      34.064  24.060  26.276  1.00  0.00     0.039 A 
ATOM     18  C   UNL A   1      34.468  24.322  23.541  1.00  0.00     0.003 A 
ATOM     19  C   UNL A   1      33.326  24.872  24.125  1.00  0.00     0.014 A 
BRANCH  15  20
ATOM     20  N   UNL A   1      36.164  22.889  26.498  1.00  0.00    -0.399 N 
ATOM     21  H   UNL A   1      36.629  22.104  26.128  1.00  0.00     0.156 HD
ATOM     22  H   UNL A   1      36.345  23.179  27.421  1.00  0.00     0.156 HD
ENDBRANCH  15  20
ENDBRANCH  12  14
ENDBRANCH   8  12
ENDBRANCH   4   7
ENDBRANCH   2   3
ENDBRANCH   1   2
BRANCH   1  23
ATOM     23  C   UNL A   1      35.580  31.281  28.103  1.00  0.00     0.118 C 
BRANCH  23  24
ATOM     24  N   UNL A   1      35.458  31.014  29.531  1.00  0.00    -0.352 N 
ATOM     25  C   UNL A   1      36.303  30.351  30.383  1.00  0.00     0.251 C 
ATOM     26  H   UNL A   1      34.640  31.367  29.950  1.00  0.00     0.163 HD
ATOM     27  O   UNL A   1      35.904  30.050  31.509  1.00  0.00    -0.269 OA
BRANCH  25  28
ATOM     28  C   UNL A   1      37.673  29.986  29.963  1.00  0.00     0.039 A 
ATOM     29  C   UNL A   1      38.624  29.682  30.942  1.00  0.00     0.014 A 
ATOM     30  C   UNL A   1      38.040  29.982  28.614  1.00  0.00     0.014 A 
ATOM     31  C   UNL A   1      39.923  29.329  30.567  1.00  0.00     0.010 A 
ATOM     32  C   UNL A   1      39.307  29.547  28.237  1.00  0.00     0.010 A 
ATOM     33  C   UNL A   1      40.268  29.233  29.209  1.00  0.00    -0.014 A 
BRANCH  33  34
ATOM     34  C   UNL A   1      41.634  28.835  28.784  1.00  0.00     0.031 A 
ATOM     35  C   UNL A   1      42.726  29.867  28.701  1.00  0.00     0.074 A 
ATOM     36  C   UNL A   1      41.873  27.564  28.408  1.00  0.00     0.049 A 
ATOM     37  N   UNL A   1      43.960  29.733  28.286  1.00  0.00    -0.248 NA
ATOM     38  C   UNL A   1      42.376  31.236  29.110  1.00  0.00     0.031 C 
ATOM     39  C   UNL A   1      40.882  26.486  28.392  1.00  0.00     0.029 A 
ATOM     40  N   UNL A   1      43.020  26.966  27.952  1.00  0.00    -0.354 N 
ATOM     41  C   UNL A   1      44.524  31.002  28.361  1.00  0.00     0.074 A 
ATOM     42  C   UNL A   1      43.483  31.900  28.810  1.00  0.00     0.031 C 
ATOM     43  C   UNL A   1      41.468  25.356  27.967  1.00  0.00     0.029 A 
ATOM     44  C   UNL A   1      42.865  25.635  27.647  1.00  0.00     0.049 A 
ATOM     45  H   UNL A   1      43.875  27.446  27.853  1.00  0.00     0.167 HD
ATOM     46  C   UNL A   1      45.799  31.381  28.102  1.00  0.00     0.037 A 
ATOM     47  C   UNL A   1      43.746  24.741  27.157  1.00  0.00     0.037 A 
ATOM     48  C   UNL A   1      46.836  30.475  27.680  1.00  0.00     0.049 A 
ATOM     49  C   UNL A   1      45.162  25.174  26.898  1.00  0.00     0.074 A 
ATOM     50  C   UNL A   1      48.174  30.744  27.453  1.00  0.00     0.029 A 
ATOM     51  N   UNL A   1      46.648  29.125  27.418  1.00  0.00    -0.354 N 
ATOM     52  N   UNL A   1      45.698  26.364  27.039  1.00  0.00    -0.248 NA
ATOM     53  C   UNL A   1      46.096  24.145  26.426  1.00  0.00     0.031 C 
ATOM     54  C   UNL A   1      48.787  29.564  27.013  1.00  0.00     0.029 A 
ATOM     55  C   UNL A   1      47.842  28.550  27.015  1.00  0.00     0.049 A 
ATOM     56  H   UNL A   1      45.792  28.647  27.506  1.00  0.00     0.167 HD
ATOM     57  C   UNL A   1      47.037  26.221  26.697  1.00  0.00     0.074 A 
ATOM     58  C   UNL A   1      47.232  24.828  26.351  1.00  0.00     0.031 C 
ATOM     59  C   UNL A   1      48.019  27.158  26.676  1.00  0.00     0.037 A 
BRANCH  46  60
ATOM     60  C   UNL A   1      46.134  32.839  28.268  1.00  0.00     0.058 A 
ATOM     61  C   UNL A   1      46.012  33.752  27.206  1.00  0.00     0.135 A 
ATOM     62  C   UNL A   1      46.586  33.332  29.503  1.00  0.00     0.135 A 
ATOM     63  F   UNL A   1      45.598  33.335  26.000  1.00  0.00    -0.206 F 
ATOM     64  C   UNL A   1      46.373  35.088  27.350  1.00  0.00     0.059 A 
ATOM     65  C   UNL A   1      46.922  34.672  29.677  1.00  0.00     0.059 A 
ATOM     66  F   UNL A   1      46.716  32.507  30.553  1.00  0.00    -0.206 F 
ATOM     67  C   UNL A   1      46.834  35.537  28.588  1.00  0.00     0.060 A 
BRANCH  67  68
ATOM     68  S   UNL A   1      47.324  37.267  28.751  1.00  0.00     0.124 S 
ATOM     69  O   UNL A   1      46.231  37.944  28.059  1.00  0.00    -0.237 OA
ATOM     70  O   UNL A   1      47.366  37.447  30.199  1.00  0.00    -0.237 OA
ATOM     71  O   UNL A   1      48.619  37.318  28.079  1.00  0.00    -0.744 OA
ENDBRANCH  67  68
ENDBRANCH  46  60
BRANCH  47  72
ATOM     72  C   UNL A   1      43.311  23.339  26.921  1.00  0.00     0.058 A 
ATOM     73  C   UNL A   1      43.046  22.875  25.625  1.00  0.00     0.135 A 
ATOM     74  C   UNL A   1      43.204  22.424  27.980  1.00  0.00     0.135 A 
ATOM     75  F   UNL A   1      43.129  23.715  24.583  1.00  0.00    -0.206 F 
ATOM     76  C   UNL A   1      42.691  21.552  25.384  1.00  0.00     0.059 A 
ATOM     77  C   UNL A   1      42.872  21.089  27.761  1.00  0.00     0.059 A 
ATOM     78  F   UNL A   1      43.464  22.814  29.237  1.00  0.00    -0.206 F 
ATOM     79  C   UNL A   1      42.615  20.665  26.458  1.00  0.00     0.060 A 
BRANCH  79  80
ATOM     80  S   UNL A   1      42.236  18.929  26.123  1.00  0.00     0.124 S 
ATOM     81  O   UNL A   1      43.165  18.629  25.040  1.00  0.00    -0.237 OA
ATOM     82  O   UNL A   1      42.524  18.300  27.408  1.00  0.00    -0.237 OA
ATOM     83  O   UNL A   1      40.823  18.961  25.754  1.00  0.00    -0.744 OA
ENDBRANCH  79  80
ENDBRANCH  47  72
BRANCH  59  84
ATOM     84  C   UNL A   1      49.401  26.703  26.298  1.00  0.00     0.058 A 
ATOM     85  C   UNL A   1      50.226  26.016  27.201  1.00  0.00     0.135 A 
ATOM     86  C   UNL A   1      49.884  26.913  24.995  1.00  0.00     0.135 A 
ATOM     87  F   UNL A   1      49.815  25.795  28.459  1.00  0.00    -0.206 F 
ATOM     88  C   UNL A   1      51.493  25.574  26.833  1.00  0.00     0.059 A 
ATOM     89  C   UNL A   1      51.136  26.456  24.599  1.00  0.00     0.059 A 
ATOM     90  F   UNL A   1      49.130  27.555  24.089  1.00  0.00    -0.206 F 
ATOM     91  C   UNL A   1      51.939  25.797  25.528  1.00  0.00     0.060 A 
BRANCH  91  92
ATOM     92  S   UNL A   1      53.572  25.191  25.054  1.00  0.00     0.124 S 
ATOM     93  O   UNL A   1      53.463  23.771  25.373  1.00  0.00    -0.237 OA
ATOM     94  O   UNL A   1      53.628  25.519  23.633  1.00  0.00    -0.237 OA
ATOM     95  O   UNL A   1      54.478  25.958  25.904  1.00  0.00    -0.744 OA
ENDBRANCH  91  92
ENDBRANCH  59  84
ENDBRANCH  33  34
ENDBRANCH  25  28
ENDBRANCH  23  24
ENDBRANCH   1  23
TORSDOF 16
ENDMDL
