MODEL 1
REMARK VINA RESULT:     -10.0      0.000      0.000
REMARK SMILES O=C(NCCCNC(=O)[C@@H]1CNc2ccccc2C1)c1ccc(-c2c3nc(c(-c4c(F)cc(S(=O)(=O)[O-])cc4F)c4ccc([nH]4)c(-c4c(F)cc(S(=O)(=O)[O-])cc4F)c4nc(c(-c5c(F)cc(S(=O)(=O)[O-])cc5F)c5ccc2[nH]5)C=C4)C=C3)cc1
REMARK SMILES IDX 1 1 2 2 3 3 20 5 21 6 85 7 22 8 84 9 23 10 24 11 25 12 78 13
REMARK SMILES IDX 26 14 83 15 77 16 79 17 27 18 82 19 76 20 75 21 28 23 62 24
REMARK SMILES IDX 41 25 61 26 42 27 45 28 60 29 80 30 43 31 44 32 59 34 81 35
REMARK SMILES IDX 46 36 29 37 30 38 39 39 31 40 32 41 38 42 40 43 33 44 34 45
REMARK SMILES IDX 35 46 36 47 37 48 63 49 64 50 73 51 65 52 66 53 72 54 74 55
REMARK SMILES IDX 67 56 68 57 69 58 70 59 71 60 47 61 48 62 57 63 49 64 50 65
REMARK SMILES IDX 56 66 58 67 51 68 52 69 53 70 54 71 55 72 4 73 5 74 6 75
REMARK SMILES IDX 7 76 8 77 9 79 10 80 11 81 19 82 12 83 18 84 13 85 17 87
REMARK SMILES IDX 14 88 16 89 15 90
REMARK H PARENT 3 4 79 22 45 33 7 78 12 86
REMARK Flexibility Score: inf
ROOT
ATOM      1  O   UNL A   1      33.766  29.196  27.479  1.00  0.00    -0.269 OA
ATOM      2  C   UNL A   1      34.448  30.081  27.989  1.00  0.00     0.251 C 
ATOM      3  N   UNL A   1      33.883  31.309  28.249  1.00  0.00    -0.352 N 
ATOM      4  H   UNL A   1      32.907  31.350  28.126  1.00  0.00     0.163 HD
ENDROOT
BRANCH   2   5
ATOM      5  C   UNL A   1      35.876  29.837  28.291  1.00  0.00     0.039 A 
ATOM      6  C   UNL A   1      36.856  30.086  27.332  1.00  0.00     0.014 A 
ATOM      7  C   UNL A   1      36.246  29.356  29.552  1.00  0.00     0.014 A 
ATOM      8  C   UNL A   1      38.161  29.673  27.555  1.00  0.00     0.010 A 
ATOM      9  C   UNL A   1      37.586  29.056  29.820  1.00  0.00     0.010 A 
ATOM     10  C   UNL A   1      38.552  29.177  28.811  1.00  0.00    -0.014 A 
BRANCH  10  11
ATOM     11  C   UNL A   1      39.991  28.875  29.034  1.00  0.00     0.031 A 
ATOM     12  C   UNL A   1      40.595  27.559  28.626  1.00  0.00     0.074 A 
ATOM     13  C   UNL A   1      40.768  29.850  29.549  1.00  0.00     0.049 A 
ATOM     14  N   UNL A   1      41.846  27.177  28.693  1.00  0.00    -0.248 NA
ATOM     15  C   UNL A   1      39.689  26.536  28.081  1.00  0.00     0.031 C 
ATOM     16  C   UNL A   1      40.285  31.157  30.007  1.00  0.00     0.029 A 
ATOM     17  N   UNL A   1      42.124  29.917  29.738  1.00  0.00    -0.354 N 
ATOM     18  C   UNL A   1      41.875  25.871  28.219  1.00  0.00     0.074 A 
ATOM     19  C   UNL A   1      40.514  25.515  27.885  1.00  0.00     0.031 C 
ATOM     20  C   UNL A   1      41.332  31.920  30.350  1.00  0.00     0.029 A 
ATOM     21  C   UNL A   1      42.552  31.137  30.206  1.00  0.00     0.049 A 
ATOM     22  H   UNL A   1      42.733  29.165  29.557  1.00  0.00     0.167 HD
ATOM     23  C   UNL A   1      42.945  25.050  28.070  1.00  0.00     0.037 A 
ATOM     24  C   UNL A   1      43.788  31.579  30.500  1.00  0.00     0.037 A 
ATOM     25  C   UNL A   1      44.302  25.421  28.386  1.00  0.00     0.049 A 
ATOM     26  C   UNL A   1      44.952  30.654  30.306  1.00  0.00     0.074 A 
ATOM     27  C   UNL A   1      45.454  24.663  28.260  1.00  0.00     0.029 A 
ATOM     28  N   UNL A   1      44.692  26.658  28.881  1.00  0.00    -0.354 N 
ATOM     29  N   UNL A   1      44.955  29.422  29.855  1.00  0.00    -0.248 NA
ATOM     30  C   UNL A   1      46.276  31.171  30.670  1.00  0.00     0.031 C 
ATOM     31  C   UNL A   1      46.537  25.431  28.706  1.00  0.00     0.029 A 
ATOM     32  C   UNL A   1      46.064  26.680  29.074  1.00  0.00     0.049 A 
ATOM     33  H   UNL A   1      44.083  27.409  29.067  1.00  0.00     0.167 HD
ATOM     34  C   UNL A   1      46.282  29.015  29.886  1.00  0.00     0.074 A 
ATOM     35  C   UNL A   1      47.055  30.143  30.364  1.00  0.00     0.031 C 
ATOM     36  C   UNL A   1      46.812  27.810  29.563  1.00  0.00     0.037 A 
BRANCH  23  37
ATOM     37  C   UNL A   1      42.701  23.662  27.544  1.00  0.00     0.058 A 
ATOM     38  C   UNL A   1      42.763  23.375  26.172  1.00  0.00     0.135 A 
ATOM     39  C   UNL A   1      42.474  22.594  28.427  1.00  0.00     0.135 A 
ATOM     40  F   UNL A   1      42.960  24.361  25.283  1.00  0.00    -0.206 F 
ATOM     41  C   UNL A   1      42.602  22.078  25.692  1.00  0.00     0.059 A 
ATOM     42  C   UNL A   1      42.330  21.286  27.971  1.00  0.00     0.059 A 
ATOM     43  F   UNL A   1      42.403  22.813  29.749  1.00  0.00    -0.206 F 
ATOM     44  C   UNL A   1      42.389  21.039  26.601  1.00  0.00     0.060 A 
BRANCH  44  45
ATOM     45  S   UNL A   1      42.211  19.359  25.963  1.00  0.00     0.124 S 
ATOM     46  O   UNL A   1      42.740  18.570  27.071  1.00  0.00    -0.237 OA
ATOM     47  O   UNL A   1      40.773  19.257  25.743  1.00  0.00    -0.237 OA
ATOM     48  O   UNL A   1      43.028  19.367  24.753  1.00  0.00    -0.744 OA
ENDBRANCH  44  45
ENDBRANCH  23  37
BRANCH  24  49
ATOM     49  C   UNL A   1      43.975  32.954  31.029  1.00  0.00     0.058 A 
ATOM     50  C   UNL A   1      44.124  34.051  30.168  1.00  0.00     0.135 A 
ATOM     51  C   UNL A   1      43.993  33.198  32.411  1.00  0.00     0.135 A 
ATOM     52  F   UNL A   1      44.116  33.867  28.840  1.00  0.00    -0.206 F 
ATOM     53  C   UNL A   1      44.301  35.341  30.659  1.00  0.00     0.059 A 
ATOM     54  C   UNL A   1      44.139  34.481  32.925  1.00  0.00     0.059 A 
ATOM     55  F   UNL A   1      43.832  32.183  33.276  1.00  0.00    -0.206 F 
ATOM     56  C   UNL A   1      44.308  35.544  32.041  1.00  0.00     0.060 A 
BRANCH  56  57
ATOM     57  S   UNL A   1      44.496  37.223  32.678  1.00  0.00     0.124 S 
ATOM     58  O   UNL A   1      43.476  37.253  33.720  1.00  0.00    -0.237 OA
ATOM     59  O   UNL A   1      45.880  37.229  33.140  1.00  0.00    -0.237 OA
ATOM     60  O   UNL A   1      44.232  38.053  31.508  1.00  0.00    -0.744 OA
ENDBRANCH  56  57
ENDBRANCH  24  49
BRANCH  36  61
ATOM     61  C   UNL A   1      48.297  27.665  29.721  1.00  0.00     0.058 A 
ATOM     62  C   UNL A   1      49.177  28.024  28.688  1.00  0.00     0.135 A 
ATOM     63  C   UNL A   1      48.844  27.164  30.911  1.00  0.00     0.135 A 
ATOM     64  F   UNL A   1      48.700  28.500  27.527  1.00  0.00    -0.206 F 
ATOM     65  C   UNL A   1      50.551  27.855  28.816  1.00  0.00     0.059 A 
ATOM     66  C   UNL A   1      50.217  27.008  31.070  1.00  0.00     0.059 A 
ATOM     67  F   UNL A   1      48.043  26.815  31.930  1.00  0.00    -0.206 F 
ATOM     68  C   UNL A   1      51.061  27.339  30.009  1.00  0.00     0.060 A 
BRANCH  68  69
ATOM     69  S   UNL A   1      52.846  27.120  30.169  1.00  0.00     0.124 S 
ATOM     70  O   UNL A   1      53.151  26.338  28.976  1.00  0.00    -0.237 OA
ATOM     71  O   UNL A   1      53.335  28.496  30.167  1.00  0.00    -0.237 OA
ATOM     72  O   UNL A   1      52.986  26.414  31.438  1.00  0.00    -0.744 OA
ENDBRANCH  68  69
ENDBRANCH  36  61
ENDBRANCH  10  11
ENDBRANCH   2   5
BRANCH   3  73
ATOM     73  C   UNL A   1      34.501  32.557  28.680  1.00  0.00     0.118 C 
BRANCH  73  74
ATOM     74  C   UNL A   1      34.703  32.636  30.185  1.00  0.00     0.042 C 
BRANCH  74  75
ATOM     75  C   UNL A   1      35.117  34.006  30.691  1.00  0.00     0.117 C 
BRANCH  75  76
ATOM     76  N   UNL A   1      36.557  34.190  30.682  1.00  0.00    -0.356 N 
ATOM     77  C   UNL A   1      37.468  34.129  31.693  1.00  0.00     0.225 C 
ATOM     78  H   UNL A   1      36.939  34.391  29.798  1.00  0.00     0.163 HD
ATOM     79  O   UNL A   1      38.616  34.491  31.426  1.00  0.00    -0.275 OA
BRANCH  77  80
ATOM     80  C   UNL A   1      37.027  33.712  33.093  1.00  0.00     0.102 C 
ATOM     81  C   UNL A   1      37.976  34.280  34.152  1.00  0.00     0.126 C 
ATOM     82  C   UNL A   1      36.920  32.195  33.289  1.00  0.00     0.053 C 
ATOM     83  N   UNL A   1      39.260  33.594  34.187  1.00  0.00    -0.384 N 
ATOM     84  C   UNL A   1      38.261  31.525  33.407  1.00  0.00    -0.024 A 
ATOM     85  C   UNL A   1      39.374  32.263  33.827  1.00  0.00     0.037 A 
ATOM     86  H   UNL A   1      40.062  34.087  34.473  1.00  0.00     0.160 HD
ATOM     87  C   UNL A   1      38.383  30.160  33.102  1.00  0.00     0.006 A 
ATOM     88  C   UNL A   1      40.604  31.609  33.937  1.00  0.00     0.026 A 
ATOM     89  C   UNL A   1      39.619  29.528  33.201  1.00  0.00     0.000 A 
ATOM     90  C   UNL A   1      40.730  30.254  33.619  1.00  0.00     0.002 A 
ENDBRANCH  77  80
ENDBRANCH  75  76
ENDBRANCH  74  75
ENDBRANCH  73  74
ENDBRANCH   3  73
TORSDOF 13
ENDMDL
MODEL 2
REMARK VINA RESULT:      -9.9      0.197      1.476
REMARK SMILES O=C(NCCCNC(=O)[C@@H]1CNc2ccccc2C1)c1ccc(-c2c3nc(c(-c4c(F)cc(S(=O)(=O)[O-])cc4F)c4ccc([nH]4)c(-c4c(F)cc(S(=O)(=O)[O-])cc4F)c4nc(c(-c5c(F)cc(S(=O)(=O)[O-])cc5F)c5ccc2[nH]5)C=C4)C=C3)cc1
REMARK SMILES IDX 1 1 2 2 3 3 20 5 21 6 85 7 22 8 84 9 23 10 24 11 25 12 78 13
REMARK SMILES IDX 26 14 83 15 77 16 79 17 27 18 82 19 76 20 75 21 28 23 62 24
REMARK SMILES IDX 41 25 61 26 42 27 45 28 60 29 80 30 43 31 44 32 59 34 81 35
REMARK SMILES IDX 46 36 29 37 30 38 39 39 31 40 32 41 38 42 40 43 33 44 34 45
REMARK SMILES IDX 35 46 36 47 37 48 63 49 64 50 73 51 65 52 66 53 72 54 74 55
REMARK SMILES IDX 67 56 68 57 69 58 70 59 71 60 47 61 48 62 57 63 49 64 50 65
REMARK SMILES IDX 56 66 58 67 51 68 52 69 53 70 54 71 55 72 4 73 5 74 6 75
REMARK SMILES IDX 7 76 8 77 9 79 10 80 11 81 19 82 12 83 18 84 13 85 17 87
REMARK SMILES IDX 14 88 16 89 15 90
REMARK H PARENT 3 4 79 22 45 33 7 78 12 86
REMARK Flexibility Score: inf
ROOT
ATOM      1  O   UNL A   1      33.792  29.207  27.435  1.00  0.00    -0.269 OA
ATOM      2  C   UNL A   1      34.474  30.087  27.954  1.00  0.00     0.251 C 
ATOM      3  N   UNL A   1      33.913  31.318  28.208  1.00  0.00    -0.352 N 
ATOM      4  H   UNL A   1      32.939  31.366  28.072  1.00  0.00     0.163 HD
ENDROOT
BRANCH   2   5
ATOM      5  C   UNL A   1      35.896  29.833  28.274  1.00  0.00     0.039 A 
ATOM      6  C   UNL A   1      36.891  30.089  27.332  1.00  0.00     0.014 A 
ATOM      7  C   UNL A   1      36.245  29.336  29.534  1.00  0.00     0.014 A 
ATOM      8  C   UNL A   1      38.191  29.668  27.569  1.00  0.00     0.010 A 
ATOM      9  C   UNL A   1      37.581  29.028  29.818  1.00  0.00     0.010 A 
ATOM     10  C   UNL A   1      38.561  29.155  28.824  1.00  0.00    -0.014 A 
BRANCH  10  11
ATOM     11  C   UNL A   1      39.996  28.845  29.065  1.00  0.00     0.031 A 
ATOM     12  C   UNL A   1      40.599  27.528  28.657  1.00  0.00     0.074 A 
ATOM     13  C   UNL A   1      40.771  29.812  29.596  1.00  0.00     0.049 A 
ATOM     14  N   UNL A   1      41.846  27.140  28.738  1.00  0.00    -0.248 NA
ATOM     15  C   UNL A   1      39.694  26.513  28.094  1.00  0.00     0.031 C 
ATOM     16  C   UNL A   1      40.289  31.119  30.055  1.00  0.00     0.029 A 
ATOM     17  N   UNL A   1      42.125  29.871  29.804  1.00  0.00    -0.354 N 
ATOM     18  C   UNL A   1      41.876  25.836  28.257  1.00  0.00     0.074 A 
ATOM     19  C   UNL A   1      40.516  25.489  27.903  1.00  0.00     0.031 C 
ATOM     20  C   UNL A   1      41.335  31.875  30.417  1.00  0.00     0.029 A 
ATOM     21  C   UNL A   1      42.552  31.087  30.284  1.00  0.00     0.049 A 
ATOM     22  H   UNL A   1      42.732  29.117  29.625  1.00  0.00     0.167 HD
ATOM     23  C   UNL A   1      42.943  25.010  28.117  1.00  0.00     0.037 A 
ATOM     24  C   UNL A   1      43.787  31.520  30.597  1.00  0.00     0.037 A 
ATOM     25  C   UNL A   1      44.297  25.373  28.453  1.00  0.00     0.049 A 
ATOM     26  C   UNL A   1      44.948  30.590  30.413  1.00  0.00     0.074 A 
ATOM     27  C   UNL A   1      45.447  24.610  28.338  1.00  0.00     0.029 A 
ATOM     28  N   UNL A   1      44.687  26.604  28.960  1.00  0.00    -0.354 N 
ATOM     29  N   UNL A   1      44.951  29.361  29.954  1.00  0.00    -0.248 NA
ATOM     30  C   UNL A   1      46.270  31.099  30.797  1.00  0.00     0.031 C 
ATOM     31  C   UNL A   1      46.528  25.369  28.803  1.00  0.00     0.029 A 
ATOM     32  C   UNL A   1      46.057  26.618  29.172  1.00  0.00     0.049 A 
ATOM     33  H   UNL A   1      44.080  27.357  29.143  1.00  0.00     0.167 HD
ATOM     34  C   UNL A   1      46.275  28.947  30.001  1.00  0.00     0.074 A 
ATOM     35  C   UNL A   1      47.048  30.068  30.496  1.00  0.00     0.031 C 
ATOM     36  C   UNL A   1      46.803  27.741  29.678  1.00  0.00     0.037 A 
BRANCH  23  37
ATOM     37  C   UNL A   1      42.698  23.627  27.580  1.00  0.00     0.058 A 
ATOM     38  C   UNL A   1      42.766  23.350  26.206  1.00  0.00     0.135 A 
ATOM     39  C   UNL A   1      42.466  22.552  28.453  1.00  0.00     0.135 A 
ATOM     40  F   UNL A   1      42.969  24.342  25.325  1.00  0.00    -0.206 F 
ATOM     41  C   UNL A   1      42.605  22.057  25.715  1.00  0.00     0.059 A 
ATOM     42  C   UNL A   1      42.322  21.248  27.987  1.00  0.00     0.059 A 
ATOM     43  F   UNL A   1      42.389  22.762  29.777  1.00  0.00    -0.206 F 
ATOM     44  C   UNL A   1      42.386  21.012  26.615  1.00  0.00     0.060 A 
BRANCH  44  45
ATOM     45  S   UNL A   1      42.208  19.337  25.964  1.00  0.00     0.124 S 
ATOM     46  O   UNL A   1      40.770  19.268  25.727  1.00  0.00    -0.237 OA
ATOM     47  O   UNL A   1      43.045  19.374  24.770  1.00  0.00    -0.237 OA
ATOM     48  O   UNL A   1      42.706  18.496  27.049  1.00  0.00    -0.744 OA
ENDBRANCH  44  45
ENDBRANCH  23  37
BRANCH  24  49
ATOM     49  C   UNL A   1      43.974  32.892  31.137  1.00  0.00     0.058 A 
ATOM     50  C   UNL A   1      43.938  33.142  32.515  1.00  0.00     0.135 A 
ATOM     51  C   UNL A   1      44.208  33.977  30.278  1.00  0.00     0.135 A 
ATOM     52  F   UNL A   1      43.716  32.137  33.375  1.00  0.00    -0.206 F 
ATOM     53  C   UNL A   1      44.112  34.425  33.026  1.00  0.00     0.059 A 
ATOM     54  C   UNL A   1      44.413  35.263  30.765  1.00  0.00     0.059 A 
ATOM     55  F   UNL A   1      44.273  33.784  28.951  1.00  0.00    -0.206 F 
ATOM     56  C   UNL A   1      44.347  35.479  32.140  1.00  0.00     0.060 A 
BRANCH  56  57
ATOM     57  S   UNL A   1      44.614  37.138  32.803  1.00  0.00     0.124 S 
ATOM     58  O   UNL A   1      44.115  37.969  31.713  1.00  0.00    -0.237 OA
ATOM     59  O   UNL A   1      43.805  37.123  34.017  1.00  0.00    -0.237 OA
ATOM     60  O   UNL A   1      46.056  37.178  33.022  1.00  0.00    -0.744 OA
ENDBRANCH  56  57
ENDBRANCH  24  49
BRANCH  36  61
ATOM     61  C   UNL A   1      48.286  27.588  29.855  1.00  0.00     0.058 A 
ATOM     62  C   UNL A   1      48.830  27.114  31.059  1.00  0.00     0.135 A 
ATOM     63  C   UNL A   1      49.168  27.918  28.816  1.00  0.00     0.135 A 
ATOM     64  F   UNL A   1      48.026  26.794  32.084  1.00  0.00    -0.206 F 
ATOM     65  C   UNL A   1      50.204  27.008  31.240  1.00  0.00     0.059 A 
ATOM     66  C   UNL A   1      50.545  27.798  28.966  1.00  0.00     0.059 A 
ATOM     67  F   UNL A   1      48.694  28.368  27.643  1.00  0.00    -0.206 F 
ATOM     68  C   UNL A   1      51.054  27.359  30.190  1.00  0.00     0.060 A 
BRANCH  68  69
ATOM     69  S   UNL A   1      52.838  27.221  30.432  1.00  0.00     0.124 S 
ATOM     70  O   UNL A   1      52.934  25.975  31.184  1.00  0.00    -0.237 OA
ATOM     71  O   UNL A   1      53.340  27.175  29.062  1.00  0.00    -0.237 OA
ATOM     72  O   UNL A   1      53.172  28.433  31.173  1.00  0.00    -0.744 OA
ENDBRANCH  68  69
ENDBRANCH  36  61
ENDBRANCH  10  11
ENDBRANCH   2   5
BRANCH   3  73
ATOM     73  C   UNL A   1      34.534  32.562  28.647  1.00  0.00     0.118 C 
BRANCH  73  74
ATOM     74  C   UNL A   1      34.727  32.634  30.154  1.00  0.00     0.042 C 
BRANCH  74  75
ATOM     75  C   UNL A   1      35.099  34.012  30.672  1.00  0.00     0.117 C 
BRANCH  75  76
ATOM     76  N   UNL A   1      36.535  34.222  30.713  1.00  0.00    -0.356 N 
ATOM     77  C   UNL A   1      37.414  34.160  31.752  1.00  0.00     0.225 C 
ATOM     78  H   UNL A   1      36.941  34.444  29.845  1.00  0.00     0.163 HD
ATOM     79  O   UNL A   1      38.563  34.546  31.528  1.00  0.00    -0.275 OA
BRANCH  77  80
ATOM     80  C   UNL A   1      36.937  33.711  33.130  1.00  0.00     0.102 C 
ATOM     81  C   UNL A   1      37.847  34.268  34.227  1.00  0.00     0.126 C 
ATOM     82  C   UNL A   1      36.838  32.190  33.294  1.00  0.00     0.053 C 
ATOM     83  N   UNL A   1      39.137  33.594  34.288  1.00  0.00    -0.384 N 
ATOM     84  C   UNL A   1      38.182  31.530  33.439  1.00  0.00    -0.024 A 
ATOM     85  C   UNL A   1      39.274  32.271  33.906  1.00  0.00     0.037 A 
ATOM     86  H   UNL A   1      39.925  34.088  34.606  1.00  0.00     0.160 HD
ATOM     87  C   UNL A   1      38.326  30.173  33.111  1.00  0.00     0.006 A 
ATOM     88  C   UNL A   1      40.507  31.627  34.040  1.00  0.00     0.026 A 
ATOM     89  C   UNL A   1      39.565  29.551  33.235  1.00  0.00     0.000 A 
ATOM     90  C   UNL A   1      40.656  30.279  33.699  1.00  0.00     0.002 A 
ENDBRANCH  77  80
ENDBRANCH  75  76
ENDBRANCH  74  75
ENDBRANCH  73  74
ENDBRANCH   3  73
TORSDOF 13
ENDMDL
MODEL 3
REMARK VINA RESULT:      -9.9      5.715     11.886
REMARK SMILES O=C(NCCCNC(=O)[C@@H]1CNc2ccccc2C1)c1ccc(-c2c3nc(c(-c4c(F)cc(S(=O)(=O)[O-])cc4F)c4ccc([nH]4)c(-c4c(F)cc(S(=O)(=O)[O-])cc4F)c4nc(c(-c5c(F)cc(S(=O)(=O)[O-])cc5F)c5ccc2[nH]5)C=C4)C=C3)cc1
REMARK SMILES IDX 1 1 2 2 3 3 20 5 21 6 85 7 22 8 84 9 23 10 24 11 25 12 78 13
REMARK SMILES IDX 26 14 83 15 77 16 79 17 27 18 82 19 76 20 75 21 28 23 62 24
REMARK SMILES IDX 41 25 61 26 42 27 45 28 60 29 80 30 43 31 44 32 59 34 81 35
REMARK SMILES IDX 46 36 29 37 30 38 39 39 31 40 32 41 38 42 40 43 33 44 34 45
REMARK SMILES IDX 35 46 36 47 37 48 63 49 64 50 73 51 65 52 66 53 72 54 74 55
REMARK SMILES IDX 67 56 68 57 69 58 70 59 71 60 47 61 48 62 57 63 49 64 50 65
REMARK SMILES IDX 56 66 58 67 51 68 52 69 53 70 54 71 55 72 4 73 5 74 6 75
REMARK SMILES IDX 7 76 8 77 9 79 10 80 11 81 19 82 12 83 18 84 13 85 17 87
REMARK SMILES IDX 14 88 16 89 15 90
REMARK H PARENT 3 4 79 22 45 33 7 78 12 86
REMARK Flexibility Score: inf
ROOT
ATOM      1  O   UNL A   1      41.787  25.132  25.790  1.00  0.00    -0.269 OA
ATOM      2  C   UNL A   1      40.742  25.100  26.435  1.00  0.00     0.251 C 
ATOM      3  N   UNL A   1      39.751  24.214  26.077  1.00  0.00    -0.352 N 
ATOM      4  H   UNL A   1      40.010  23.557  25.391  1.00  0.00     0.163 HD
ENDROOT
BRANCH   2   5
ATOM      5  C   UNL A   1      40.539  26.031  27.567  1.00  0.00     0.039 A 
ATOM      6  C   UNL A   1      41.278  27.210  27.657  1.00  0.00     0.014 A 
ATOM      7  C   UNL A   1      39.593  25.729  28.553  1.00  0.00     0.014 A 
ATOM      8  C   UNL A   1      41.221  27.974  28.813  1.00  0.00     0.010 A 
ATOM      9  C   UNL A   1      39.447  26.570  29.662  1.00  0.00     0.010 A 
ATOM     10  C   UNL A   1      40.287  27.681  29.821  1.00  0.00    -0.014 A 
BRANCH  10  11
ATOM     11  C   UNL A   1      40.179  28.612  30.976  1.00  0.00     0.031 A 
ATOM     12  C   UNL A   1      41.120  28.531  32.147  1.00  0.00     0.074 A 
ATOM     13  C   UNL A   1      39.253  29.591  30.914  1.00  0.00     0.049 A 
ATOM     14  N   UNL A   1      41.193  29.315  33.193  1.00  0.00    -0.248 NA
ATOM     15  C   UNL A   1      42.098  27.432  32.157  1.00  0.00     0.031 C 
ATOM     16  C   UNL A   1      38.268  29.751  29.838  1.00  0.00     0.029 A 
ATOM     17  N   UNL A   1      39.011  30.658  31.740  1.00  0.00    -0.354 N 
ATOM     18  C   UNL A   1      42.207  28.798  33.991  1.00  0.00     0.074 A 
ATOM     19  C   UNL A   1      42.709  27.619  33.319  1.00  0.00     0.031 C 
ATOM     20  C   UNL A   1      37.583  30.887  30.030  1.00  0.00     0.029 A 
ATOM     21  C   UNL A   1      38.028  31.499  31.275  1.00  0.00     0.049 A 
ATOM     22  H   UNL A   1      39.495  30.807  32.584  1.00  0.00     0.167 HD
ATOM     23  C   UNL A   1      42.678  29.271  35.171  1.00  0.00     0.037 A 
ATOM     24  C   UNL A   1      37.527  32.633  31.795  1.00  0.00     0.037 A 
ATOM     25  C   UNL A   1      42.186  30.459  35.822  1.00  0.00     0.049 A 
ATOM     26  C   UNL A   1      38.082  33.142  33.092  1.00  0.00     0.074 A 
ATOM     27  C   UNL A   1      42.604  31.025  37.015  1.00  0.00     0.029 A 
ATOM     28  N   UNL A   1      41.172  31.271  35.333  1.00  0.00    -0.354 N 
ATOM     29  N   UNL A   1      39.042  32.635  33.828  1.00  0.00    -0.248 NA
ATOM     30  C   UNL A   1      37.481  34.366  33.634  1.00  0.00     0.031 C 
ATOM     31  C   UNL A   1      41.825  32.162  37.261  1.00  0.00     0.029 A 
ATOM     32  C   UNL A   1      40.946  32.326  36.203  1.00  0.00     0.049 A 
ATOM     33  H   UNL A   1      40.684  31.119  34.491  1.00  0.00     0.167 HD
ATOM     34  C   UNL A   1      39.157  33.478  34.925  1.00  0.00     0.074 A 
ATOM     35  C   UNL A   1      38.195  34.545  34.737  1.00  0.00     0.031 C 
ATOM     36  C   UNL A   1      39.975  33.370  36.002  1.00  0.00     0.037 A 
BRANCH  23  37
ATOM     37  C   UNL A   1      43.784  28.507  35.847  1.00  0.00     0.058 A 
ATOM     38  C   UNL A   1      43.513  27.438  36.715  1.00  0.00     0.135 A 
ATOM     39  C   UNL A   1      45.128  28.799  35.568  1.00  0.00     0.135 A 
ATOM     40  F   UNL A   1      42.246  27.127  37.029  1.00  0.00    -0.206 F 
ATOM     41  C   UNL A   1      44.537  26.689  37.289  1.00  0.00     0.059 A 
ATOM     42  C   UNL A   1      46.168  28.051  36.115  1.00  0.00     0.059 A 
ATOM     43  F   UNL A   1      45.443  29.813  34.747  1.00  0.00    -0.206 F 
ATOM     44  C   UNL A   1      45.862  27.003  36.980  1.00  0.00     0.060 A 
BRANCH  44  45
ATOM     45  S   UNL A   1      47.177  26.003  37.710  1.00  0.00     0.124 S 
ATOM     46  O   UNL A   1      46.681  24.651  37.470  1.00  0.00    -0.237 OA
ATOM     47  O   UNL A   1      48.343  26.397  36.926  1.00  0.00    -0.237 OA
ATOM     48  O   UNL A   1      47.191  26.427  39.106  1.00  0.00    -0.744 OA
ENDBRANCH  44  45
ENDBRANCH  23  37
BRANCH  24  49
ATOM     49  C   UNL A   1      36.426  33.344  31.096  1.00  0.00     0.058 A 
ATOM     50  C   UNL A   1      35.118  33.335  31.599  1.00  0.00     0.135 A 
ATOM     51  C   UNL A   1      36.669  34.061  29.914  1.00  0.00     0.135 A 
ATOM     52  F   UNL A   1      34.837  32.662  32.725  1.00  0.00    -0.206 F 
ATOM     53  C   UNL A   1      34.083  33.999  30.947  1.00  0.00     0.059 A 
ATOM     54  C   UNL A   1      35.659  34.756  29.259  1.00  0.00     0.059 A 
ATOM     55  F   UNL A   1      37.910  34.118  29.404  1.00  0.00    -0.206 F 
ATOM     56  C   UNL A   1      34.365  34.706  29.775  1.00  0.00     0.060 A 
BRANCH  56  57
ATOM     57  S   UNL A   1      33.032  35.602  28.950  1.00  0.00     0.124 S 
ATOM     58  O   UNL A   1      32.256  36.079  30.089  1.00  0.00    -0.237 OA
ATOM     59  O   UNL A   1      33.759  36.621  28.200  1.00  0.00    -0.237 OA
ATOM     60  O   UNL A   1      32.396  34.572  28.135  1.00  0.00    -0.744 OA
ENDBRANCH  56  57
ENDBRANCH  24  49
BRANCH  36  61
ATOM     61  C   UNL A   1      39.852  34.439  37.048  1.00  0.00     0.058 A 
ATOM     62  C   UNL A   1      38.986  34.290  38.143  1.00  0.00     0.135 A 
ATOM     63  C   UNL A   1      40.603  35.620  36.955  1.00  0.00     0.135 A 
ATOM     64  F   UNL A   1      38.241  33.181  38.270  1.00  0.00    -0.206 F 
ATOM     65  C   UNL A   1      38.842  35.295  39.093  1.00  0.00     0.059 A 
ATOM     66  C   UNL A   1      40.491  36.628  37.906  1.00  0.00     0.059 A 
ATOM     67  F   UNL A   1      41.450  35.804  35.930  1.00  0.00    -0.206 F 
ATOM     68  C   UNL A   1      39.593  36.464  38.962  1.00  0.00     0.060 A 
BRANCH  68  69
ATOM     69  S   UNL A   1      39.399  37.766  40.197  1.00  0.00     0.124 S 
ATOM     70  O   UNL A   1      38.288  38.531  39.641  1.00  0.00    -0.237 OA
ATOM     71  O   UNL A   1      39.103  37.008  41.410  1.00  0.00    -0.237 OA
ATOM     72  O   UNL A   1      40.695  38.437  40.186  1.00  0.00    -0.744 OA
ENDBRANCH  68  69
ENDBRANCH  36  61
ENDBRANCH  10  11
ENDBRANCH   2   5
BRANCH   3  73
ATOM     73  C   UNL A   1      38.380  24.094  26.556  1.00  0.00     0.118 C 
BRANCH  73  74
ATOM     74  C   UNL A   1      37.395  23.713  25.462  1.00  0.00     0.042 C 
BRANCH  74  75
ATOM     75  C   UNL A   1      37.030  22.240  25.432  1.00  0.00     0.117 C 
BRANCH  75  76
ATOM     76  N   UNL A   1      36.108  21.875  26.492  1.00  0.00    -0.356 N 
ATOM     77  C   UNL A   1      34.778  21.580  26.452  1.00  0.00     0.225 C 
ATOM     78  H   UNL A   1      36.510  21.833  27.389  1.00  0.00     0.163 HD
ATOM     79  O   UNL A   1      34.206  21.462  27.538  1.00  0.00    -0.275 OA
BRANCH  77  80
ATOM     80  C   UNL A   1      34.056  21.493  25.112  1.00  0.00     0.102 C 
ATOM     81  C   UNL A   1      32.548  21.322  25.318  1.00  0.00     0.126 C 
ATOM     82  C   UNL A   1      34.560  20.368  24.200  1.00  0.00     0.053 C 
ATOM     83  N   UNL A   1      32.187  19.985  25.771  1.00  0.00    -0.384 N 
ATOM     84  C   UNL A   1      34.101  19.006  24.644  1.00  0.00    -0.024 A 
ATOM     85  C   UNL A   1      32.949  18.882  25.430  1.00  0.00     0.037 A 
ATOM     86  H   UNL A   1      31.386  19.865  26.329  1.00  0.00     0.160 HD
ATOM     87  C   UNL A   1      34.830  17.870  24.259  1.00  0.00     0.006 A 
ATOM     88  C   UNL A   1      32.543  17.602  25.818  1.00  0.00     0.026 A 
ATOM     89  C   UNL A   1      34.420  16.604  24.667  1.00  0.00     0.000 A 
ATOM     90  C   UNL A   1      33.276  16.471  25.447  1.00  0.00     0.002 A 
ENDBRANCH  77  80
ENDBRANCH  75  76
ENDBRANCH  74  75
ENDBRANCH  73  74
ENDBRANCH   3  73
TORSDOF 13
ENDMDL
