MODEL 1
REMARK VINA RESULT:     -14.2      0.000      0.000
REMARK SMILES Cc1ccc(CNc2ccc(C(=O)NCCCNC(=O)c3ccc(-c4c5nc(c(-c6c(F)cc(S(=O)(=O)[O-])cc6F)c6ccc([nH]6)c(-c6c(F)cc(S(=O)(=O)[O-])cc6F)c6nc(c(-c7c(F)cc(S(=O)(=O)[O-])cc7F)c7ccc4[nH]7)C=C6)C=C5)cc3)cc2Br)cc1
REMARK SMILES IDX 16 1 15 2 14 3 12 4 13 5 11 7 8 8 9 9 88 10 10 11 87 12
REMARK SMILES IDX 89 13 7 14 6 16 5 17 1 18 2 19 3 20 91 21 4 22 90 23 17 24
REMARK SMILES IDX 18 25 19 26 20 28 21 29 22 30 86 31 23 32 85 33 24 34 25 35
REMARK SMILES IDX 26 36 79 37 27 38 84 39 78 40 80 41 28 42 83 43 77 44 76 45
REMARK SMILES IDX 29 47 63 48 42 49 62 50 43 51 46 52 61 53 81 54 44 55 45 56
REMARK SMILES IDX 60 58 82 59 47 60 30 61 31 62 40 63 32 64 33 65 39 66 41 67
REMARK SMILES IDX 34 68 35 69 36 70 37 71 38 72 64 73 65 74 74 75 66 76 67 77
REMARK SMILES IDX 73 78 75 79 68 80 69 81 70 82 71 83 72 84 48 85 49 86 58 87
REMARK SMILES IDX 50 88 51 89 57 90 59 91 52 92 53 93 54 94 55 95 56 96
REMARK H PARENT 14 6 7 15 18 27 80 46 46 57
REMARK Flexibility Score: inf
ROOT
ATOM      1  C   UNL A   1      32.995  29.564  26.961  1.00  0.00     0.042 C 
ENDROOT
BRANCH   1   2
ATOM      2  C   UNL A   1      33.078  29.683  25.437  1.00  0.00     0.118 C 
BRANCH   2   3
ATOM      3  N   UNL A   1      31.805  30.082  24.848  1.00  0.00    -0.352 N 
ATOM      4  C   UNL A   1      30.824  29.402  24.170  1.00  0.00     0.251 C 
ATOM      5  O   UNL A   1      29.800  30.029  23.888  1.00  0.00    -0.269 OA
ATOM      6  H   UNL A   1      31.607  31.040  24.958  1.00  0.00     0.163 HD
BRANCH   4   7
ATOM      7  C   UNL A   1      30.904  27.963  23.761  1.00  0.00     0.041 A 
ATOM      8  C   UNL A   1      31.043  25.174  23.171  1.00  0.00     0.049 A 
ATOM      9  C   UNL A   1      31.152  26.137  22.170  1.00  0.00     0.028 A 
ATOM     10  C   UNL A   1      30.808  25.632  24.478  1.00  0.00     0.041 A 
ATOM     11  C   UNL A   1      31.089  27.502  22.460  1.00  0.00     0.016 A 
ATOM     12  C   UNL A   1      30.742  27.001  24.770  1.00  0.00     0.031 A 
ATOM     13  Br  UNL A   1      30.618  24.402  25.920  1.00  0.00    -0.049 Br
BRANCH   8  14
ATOM     14  N   UNL A   1      31.217  23.826  22.884  1.00  0.00    -0.380 N 
ATOM     15  H   UNL A   1      30.431  23.238  22.810  1.00  0.00     0.160 HD
BRANCH  14  16
ATOM     16  C   UNL A   1      32.549  23.275  22.692  1.00  0.00     0.148 C 
BRANCH  16  17
ATOM     17  C   UNL A   1      32.611  21.896  23.301  1.00  0.00    -0.029 A 
ATOM     18  C   UNL A   1      32.730  17.987  25.120  1.00  0.00     0.044 C 
ATOM     19  C   UNL A   1      32.707  19.338  24.472  1.00  0.00    -0.051 A 
ATOM     20  C   UNL A   1      33.166  20.454  25.177  1.00  0.00     0.004 A 
ATOM     21  C   UNL A   1      32.213  19.508  23.172  1.00  0.00     0.004 A 
ATOM     22  C   UNL A   1      33.126  21.720  24.595  1.00  0.00     0.006 A 
ATOM     23  C   UNL A   1      32.167  20.776  22.591  1.00  0.00     0.006 A 
ENDBRANCH  16  17
ENDBRANCH  14  16
ENDBRANCH   8  14
ENDBRANCH   4   7
ENDBRANCH   2   3
ENDBRANCH   1   2
BRANCH   1  24
ATOM     24  C   UNL A   1      34.350  29.405  27.627  1.00  0.00     0.118 C 
BRANCH  24  25
ATOM     25  N   UNL A   1      35.006  30.681  27.896  1.00  0.00    -0.352 N 
ATOM     26  C   UNL A   1      36.306  30.880  28.331  1.00  0.00     0.251 C 
ATOM     27  H   UNL A   1      34.464  31.490  27.751  1.00  0.00     0.163 HD
ATOM     28  O   UNL A   1      36.734  31.962  28.671  1.00  0.00    -0.269 OA
BRANCH  26  29
ATOM     29  C   UNL A   1      37.187  29.698  28.264  1.00  0.00     0.039 A 
ATOM     30  C   UNL A   1      37.355  28.967  29.445  1.00  0.00     0.014 A 
ATOM     31  C   UNL A   1      38.068  29.572  27.192  1.00  0.00     0.014 A 
ATOM     32  C   UNL A   1      38.515  28.221  29.619  1.00  0.00     0.010 A 
ATOM     33  C   UNL A   1      39.258  28.907  27.405  1.00  0.00     0.010 A 
ATOM     34  C   UNL A   1      39.499  28.266  28.630  1.00  0.00    -0.014 A 
BRANCH  34  35
ATOM     35  C   UNL A   1      40.846  27.743  28.822  1.00  0.00     0.031 A 
ATOM     36  C   UNL A   1      41.167  26.363  28.391  1.00  0.00     0.074 A 
ATOM     37  C   UNL A   1      41.816  28.530  29.336  1.00  0.00     0.049 A 
ATOM     38  N   UNL A   1      42.129  25.657  28.883  1.00  0.00    -0.248 NA
ATOM     39  C   UNL A   1      40.385  25.649  27.384  1.00  0.00     0.031 C 
ATOM     40  C   UNL A   1      43.254  28.272  29.326  1.00  0.00     0.029 A 
ATOM     41  N   UNL A   1      41.671  29.657  30.150  1.00  0.00    -0.354 N 
ATOM     42  C   UNL A   1      42.258  24.535  28.101  1.00  0.00     0.074 A 
ATOM     43  C   UNL A   1      41.120  24.547  27.212  1.00  0.00     0.031 C 
ATOM     44  C   UNL A   1      43.840  29.031  30.265  1.00  0.00     0.029 A 
ATOM     45  C   UNL A   1      42.785  29.693  31.012  1.00  0.00     0.049 A 
ATOM     46  H   UNL A   1      40.930  30.304  30.126  1.00  0.00     0.167 HD
ATOM     47  C   UNL A   1      43.380  23.767  28.182  1.00  0.00     0.037 A 
ATOM     48  C   UNL A   1      42.631  29.617  32.368  1.00  0.00     0.037 A 
ATOM     49  C   UNL A   1      44.307  24.266  29.188  1.00  0.00     0.049 A 
ATOM     50  C   UNL A   1      43.262  28.388  32.988  1.00  0.00     0.074 A 
ATOM     51  C   UNL A   1      45.394  25.120  29.111  1.00  0.00     0.029 A 
ATOM     52  N   UNL A   1      43.968  24.183  30.534  1.00  0.00    -0.354 N 
ATOM     53  N   UNL A   1      43.665  27.352  32.305  1.00  0.00    -0.248 NA
ATOM     54  C   UNL A   1      43.472  28.219  34.424  1.00  0.00     0.031 C 
ATOM     55  C   UNL A   1      45.653  25.622  30.410  1.00  0.00     0.029 A 
ATOM     56  C   UNL A   1      44.747  25.048  31.282  1.00  0.00     0.049 A 
ATOM     57  H   UNL A   1      43.272  23.591  30.903  1.00  0.00     0.167 HD
ATOM     58  C   UNL A   1      44.129  26.386  33.161  1.00  0.00     0.074 A 
ATOM     59  C   UNL A   1      44.015  26.989  34.476  1.00  0.00     0.031 C 
ATOM     60  C   UNL A   1      44.559  25.168  32.719  1.00  0.00     0.037 A 
BRANCH  47  61
ATOM     61  C   UNL A   1      43.711  22.770  27.106  1.00  0.00     0.058 A 
ATOM     62  C   UNL A   1      42.969  21.580  26.963  1.00  0.00     0.135 A 
ATOM     63  C   UNL A   1      44.815  22.906  26.241  1.00  0.00     0.135 A 
ATOM     64  F   UNL A   1      41.875  21.345  27.699  1.00  0.00    -0.206 F 
ATOM     65  C   UNL A   1      43.345  20.562  26.087  1.00  0.00     0.059 A 
ATOM     66  C   UNL A   1      45.237  21.880  25.389  1.00  0.00     0.059 A 
ATOM     67  F   UNL A   1      45.527  24.045  26.217  1.00  0.00    -0.206 F 
ATOM     68  C   UNL A   1      44.497  20.705  25.326  1.00  0.00     0.060 A 
BRANCH  68  69
ATOM     69  S   UNL A   1      45.033  19.321  24.300  1.00  0.00     0.124 S 
ATOM     70  O   UNL A   1      46.482  19.334  24.491  1.00  0.00    -0.237 OA
ATOM     71  O   UNL A   1      44.325  18.202  24.909  1.00  0.00    -0.237 OA
ATOM     72  O   UNL A   1      44.586  19.698  22.962  1.00  0.00    -0.744 OA
ENDBRANCH  68  69
ENDBRANCH  47  61
BRANCH  48  73
ATOM     73  C   UNL A   1      41.410  30.316  32.855  1.00  0.00     0.058 A 
ATOM     74  C   UNL A   1      40.279  29.526  33.137  1.00  0.00     0.135 A 
ATOM     75  C   UNL A   1      41.478  31.584  33.447  1.00  0.00     0.135 A 
ATOM     76  F   UNL A   1      40.155  28.309  32.582  1.00  0.00    -0.206 F 
ATOM     77  C   UNL A   1      39.342  29.902  34.094  1.00  0.00     0.059 A 
ATOM     78  C   UNL A   1      40.545  31.985  34.406  1.00  0.00     0.059 A 
ATOM     79  F   UNL A   1      42.527  32.385  33.210  1.00  0.00    -0.206 F 
ATOM     80  C   UNL A   1      39.523  31.106  34.771  1.00  0.00     0.060 A 
BRANCH  80  81
ATOM     81  S   UNL A   1      38.514  31.403  36.243  1.00  0.00     0.124 S 
ATOM     82  O   UNL A   1      38.214  30.044  36.684  1.00  0.00    -0.237 OA
ATOM     83  O   UNL A   1      39.437  32.150  37.098  1.00  0.00    -0.237 OA
ATOM     84  O   UNL A   1      37.384  32.166  35.729  1.00  0.00    -0.744 OA
ENDBRANCH  80  81
ENDBRANCH  48  73
BRANCH  60  85
ATOM     85  C   UNL A   1      44.926  23.997  33.593  1.00  0.00     0.058 A 
ATOM     86  C   UNL A   1      44.027  22.983  33.959  1.00  0.00     0.135 A 
ATOM     87  C   UNL A   1      46.276  23.789  33.968  1.00  0.00     0.135 A 
ATOM     88  F   UNL A   1      42.742  23.025  33.580  1.00  0.00    -0.206 F 
ATOM     89  C   UNL A   1      44.426  21.863  34.693  1.00  0.00     0.059 A 
ATOM     90  C   UNL A   1      46.704  22.657  34.654  1.00  0.00     0.059 A 
ATOM     91  F   UNL A   1      47.229  24.684  33.666  1.00  0.00    -0.206 F 
ATOM     92  C   UNL A   1      45.767  21.707  35.034  1.00  0.00     0.060 A 
BRANCH  92  93
ATOM     93  S   UNL A   1      46.308  20.236  35.923  1.00  0.00     0.124 S 
ATOM     94  O   UNL A   1      47.759  20.347  35.811  1.00  0.00    -0.237 OA
ATOM     95  O   UNL A   1      45.762  20.442  37.261  1.00  0.00    -0.237 OA
ATOM     96  O   UNL A   1      45.696  19.149  35.166  1.00  0.00    -0.744 OA
ENDBRANCH  92  93
ENDBRANCH  60  85
ENDBRANCH  34  35
ENDBRANCH  26  29
ENDBRANCH  24  25
ENDBRANCH   1  24
TORSDOF 16
ENDMDL
MODEL 2
REMARK VINA RESULT:     -14.1      1.267      2.032
REMARK SMILES Cc1ccc(CNc2ccc(C(=O)NCCCNC(=O)c3ccc(-c4c5nc(c(-c6c(F)cc(S(=O)(=O)[O-])cc6F)c6ccc([nH]6)c(-c6c(F)cc(S(=O)(=O)[O-])cc6F)c6nc(c(-c7c(F)cc(S(=O)(=O)[O-])cc7F)c7ccc4[nH]7)C=C6)C=C5)cc3)cc2Br)cc1
REMARK SMILES IDX 16 1 15 2 14 3 12 4 13 5 11 7 8 8 9 9 88 10 10 11 87 12
REMARK SMILES IDX 89 13 7 14 6 16 5 17 1 18 2 19 3 20 91 21 4 22 90 23 17 24
REMARK SMILES IDX 18 25 19 26 20 28 21 29 22 30 86 31 23 32 85 33 24 34 25 35
REMARK SMILES IDX 26 36 79 37 27 38 84 39 78 40 80 41 28 42 83 43 77 44 76 45
REMARK SMILES IDX 29 47 63 48 42 49 62 50 43 51 46 52 61 53 81 54 44 55 45 56
REMARK SMILES IDX 60 58 82 59 47 60 30 61 31 62 40 63 32 64 33 65 39 66 41 67
REMARK SMILES IDX 34 68 35 69 36 70 37 71 38 72 64 73 65 74 74 75 66 76 67 77
REMARK SMILES IDX 73 78 75 79 68 80 69 81 70 82 71 83 72 84 48 85 49 86 58 87
REMARK SMILES IDX 50 88 51 89 57 90 59 91 52 92 53 93 54 94 55 95 56 96
REMARK H PARENT 14 6 7 15 18 27 80 46 46 57
REMARK Flexibility Score: inf
ROOT
ATOM      1  C   UNL A   1      33.749  30.010  26.269  1.00  0.00     0.042 C 
ENDROOT
BRANCH   1   2
ATOM      2  C   UNL A   1      32.256  30.269  26.482  1.00  0.00     0.118 C 
BRANCH   2   3
ATOM      3  N   UNL A   1      31.498  30.165  25.240  1.00  0.00    -0.352 N 
ATOM      4  C   UNL A   1      31.257  29.136  24.365  1.00  0.00     0.251 C 
ATOM      5  O   UNL A   1      30.471  29.358  23.441  1.00  0.00    -0.269 OA
ATOM      6  H   UNL A   1      31.070  31.010  24.973  1.00  0.00     0.163 HD
BRANCH   4   7
ATOM      7  C   UNL A   1      31.868  27.771  24.456  1.00  0.00     0.041 A 
ATOM      8  C   UNL A   1      32.879  25.117  24.740  1.00  0.00     0.049 A 
ATOM      9  C   UNL A   1      33.592  26.098  24.055  1.00  0.00     0.028 A 
ATOM     10  C   UNL A   1      31.616  25.473  25.242  1.00  0.00     0.041 A 
ATOM     11  C   UNL A   1      33.098  27.398  23.921  1.00  0.00     0.016 A 
ATOM     12  C   UNL A   1      31.119  26.776  25.105  1.00  0.00     0.031 A 
ATOM     13  Br  UNL A   1      30.545  24.203  26.173  1.00  0.00    -0.049 Br
BRANCH   8  14
ATOM     14  N   UNL A   1      33.429  23.861  24.960  1.00  0.00    -0.380 N 
ATOM     15  H   UNL A   1      33.277  23.405  25.818  1.00  0.00     0.160 HD
BRANCH  14  16
ATOM     16  C   UNL A   1      34.230  23.213  23.933  1.00  0.00     0.148 C 
BRANCH  16  17
ATOM     17  C   UNL A   1      35.557  22.800  24.522  1.00  0.00    -0.029 A 
ATOM     18  C   UNL A   1      39.378  21.585  26.110  1.00  0.00     0.044 C 
ATOM     19  C   UNL A   1      38.042  22.011  25.582  1.00  0.00    -0.051 A 
ATOM     20  C   UNL A   1      37.211  21.074  24.960  1.00  0.00     0.004 A 
ATOM     21  C   UNL A   1      37.616  23.341  25.683  1.00  0.00     0.004 A 
ATOM     22  C   UNL A   1      35.976  21.463  24.442  1.00  0.00     0.006 A 
ATOM     23  C   UNL A   1      36.383  23.732  25.158  1.00  0.00     0.006 A 
ENDBRANCH  16  17
ENDBRANCH  14  16
ENDBRANCH   8  14
ENDBRANCH   4   7
ENDBRANCH   2   3
ENDBRANCH   1   2
BRANCH   1  24
ATOM     24  C   UNL A   1      34.494  29.689  27.552  1.00  0.00     0.118 C 
BRANCH  24  25
ATOM     25  N   UNL A   1      35.133  30.859  28.148  1.00  0.00    -0.352 N 
ATOM     26  C   UNL A   1      36.369  30.913  28.771  1.00  0.00     0.251 C 
ATOM     27  H   UNL A   1      34.629  31.703  28.103  1.00  0.00     0.163 HD
ATOM     28  O   UNL A   1      36.769  31.888  29.369  1.00  0.00    -0.269 OA
BRANCH  26  29
ATOM     29  C   UNL A   1      37.231  29.730  28.577  1.00  0.00     0.039 A 
ATOM     30  C   UNL A   1      37.426  28.903  29.689  1.00  0.00     0.014 A 
ATOM     31  C   UNL A   1      38.074  29.682  27.470  1.00  0.00     0.014 A 
ATOM     32  C   UNL A   1      38.580  28.131  29.763  1.00  0.00     0.010 A 
ATOM     33  C   UNL A   1      39.261  28.987  27.589  1.00  0.00     0.010 A 
ATOM     34  C   UNL A   1      39.532  28.245  28.749  1.00  0.00    -0.014 A 
BRANCH  34  35
ATOM     35  C   UNL A   1      40.877  27.692  28.852  1.00  0.00     0.031 A 
ATOM     36  C   UNL A   1      41.130  26.293  28.441  1.00  0.00     0.074 A 
ATOM     37  C   UNL A   1      41.903  28.468  29.266  1.00  0.00     0.049 A 
ATOM     38  N   UNL A   1      42.110  25.576  28.878  1.00  0.00    -0.248 NA
ATOM     39  C   UNL A   1      40.255  25.571  27.518  1.00  0.00     0.031 C 
ATOM     40  C   UNL A   1      43.329  28.172  29.153  1.00  0.00     0.029 A 
ATOM     41  N   UNL A   1      41.849  29.621  30.054  1.00  0.00    -0.354 N 
ATOM     42  C   UNL A   1      42.151  24.429  28.123  1.00  0.00     0.074 A 
ATOM     43  C   UNL A   1      40.948  24.446  27.325  1.00  0.00     0.031 C 
ATOM     44  C   UNL A   1      44.004  28.941  30.021  1.00  0.00     0.029 A 
ATOM     45  C   UNL A   1      43.026  29.652  30.826  1.00  0.00     0.049 A 
ATOM     46  H   UNL A   1      41.124  30.287  30.067  1.00  0.00     0.167 HD
ATOM     47  C   UNL A   1      43.256  23.634  28.141  1.00  0.00     0.037 A 
ATOM     48  C   UNL A   1      42.977  29.619  32.191  1.00  0.00     0.037 A 
ATOM     49  C   UNL A   1      44.270  24.137  29.057  1.00  0.00     0.049 A 
ATOM     50  C   UNL A   1      43.623  28.392  32.798  1.00  0.00     0.074 A 
ATOM     51  C   UNL A   1      45.369  24.959  28.871  1.00  0.00     0.029 A 
ATOM     52  N   UNL A   1      44.035  24.101  30.427  1.00  0.00    -0.354 N 
ATOM     53  N   UNL A   1      43.948  27.326  32.119  1.00  0.00    -0.248 NA
ATOM     54  C   UNL A   1      43.941  28.258  34.219  1.00  0.00     0.031 C 
ATOM     55  C   UNL A   1      45.740  25.491  30.130  1.00  0.00     0.029 A 
ATOM     56  C   UNL A   1      44.890  24.966  31.087  1.00  0.00     0.049 A 
ATOM     57  H   UNL A   1      43.356  23.538  30.866  1.00  0.00     0.167 HD
ATOM     58  C   UNL A   1      44.453  26.374  32.965  1.00  0.00     0.074 A 
ATOM     59  C   UNL A   1      44.456  27.017  34.266  1.00  0.00     0.031 C 
ATOM     60  C   UNL A   1      44.818  25.132  32.529  1.00  0.00     0.037 A 
BRANCH  47  61
ATOM     61  C   UNL A   1      43.479  22.598  27.074  1.00  0.00     0.058 A 
ATOM     62  C   UNL A   1      42.844  21.341  27.136  1.00  0.00     0.135 A 
ATOM     63  C   UNL A   1      44.383  22.770  26.007  1.00  0.00     0.135 A 
ATOM     64  F   UNL A   1      41.934  21.062  28.078  1.00  0.00    -0.206 F 
ATOM     65  C   UNL A   1      43.149  20.302  26.257  1.00  0.00     0.059 A 
ATOM     66  C   UNL A   1      44.739  21.729  25.145  1.00  0.00     0.059 A 
ATOM     67  F   UNL A   1      44.963  23.962  25.791  1.00  0.00    -0.206 F 
ATOM     68  C   UNL A   1      44.119  20.493  25.283  1.00  0.00     0.060 A 
BRANCH  68  69
ATOM     69  S   UNL A   1      44.590  19.094  24.246  1.00  0.00     0.124 S 
ATOM     70  O   UNL A   1      43.621  18.073  24.637  1.00  0.00    -0.237 OA
ATOM     71  O   UNL A   1      44.425  19.643  22.906  1.00  0.00    -0.237 OA
ATOM     72  O   UNL A   1      45.967  18.820  24.650  1.00  0.00    -0.744 OA
ENDBRANCH  68  69
ENDBRANCH  47  61
BRANCH  48  73
ATOM     73  C   UNL A   1      41.815  30.364  32.749  1.00  0.00     0.058 A 
ATOM     74  C   UNL A   1      40.662  29.621  33.070  1.00  0.00     0.135 A 
ATOM     75  C   UNL A   1      41.970  31.614  33.362  1.00  0.00     0.135 A 
ATOM     76  F   UNL A   1      40.453  28.424  32.498  1.00  0.00    -0.206 F 
ATOM     77  C   UNL A   1      39.789  30.021  34.077  1.00  0.00     0.059 A 
ATOM     78  C   UNL A   1      41.103  32.037  34.372  1.00  0.00     0.059 A 
ATOM     79  F   UNL A   1      43.045  32.370  33.091  1.00  0.00    -0.206 F 
ATOM     80  C   UNL A   1      40.058  31.199  34.768  1.00  0.00     0.060 A 
BRANCH  80  81
ATOM     81  S   UNL A   1      39.134  31.511  36.292  1.00  0.00     0.124 S 
ATOM     82  O   UNL A   1      38.513  30.215  36.540  1.00  0.00    -0.237 OA
ATOM     83  O   UNL A   1      40.201  31.884  37.222  1.00  0.00    -0.237 OA
ATOM     84  O   UNL A   1      38.227  32.589  35.920  1.00  0.00    -0.744 OA
ENDBRANCH  80  81
ENDBRANCH  48  73
BRANCH  60  85
ATOM     85  C   UNL A   1      45.223  23.977  33.408  1.00  0.00     0.058 A 
ATOM     86  C   UNL A   1      46.486  23.857  34.008  1.00  0.00     0.135 A 
ATOM     87  C   UNL A   1      44.261  23.012  33.795  1.00  0.00     0.135 A 
ATOM     88  F   UNL A   1      47.448  24.764  33.789  1.00  0.00    -0.206 F 
ATOM     89  C   UNL A   1      46.794  22.820  34.892  1.00  0.00     0.059 A 
ATOM     90  C   UNL A   1      44.532  22.002  34.713  1.00  0.00     0.059 A 
ATOM     91  F   UNL A   1      43.016  23.029  33.296  1.00  0.00    -0.206 F 
ATOM     92  C   UNL A   1      45.810  21.899  35.241  1.00  0.00     0.060 A 
BRANCH  92  93
ATOM     93  S   UNL A   1      46.174  20.596  36.432  1.00  0.00     0.124 S 
ATOM     94  O   UNL A   1      45.712  21.203  37.676  1.00  0.00    -0.237 OA
ATOM     95  O   UNL A   1      45.377  19.475  35.944  1.00  0.00    -0.237 OA
ATOM     96  O   UNL A   1      47.618  20.428  36.308  1.00  0.00    -0.744 OA
ENDBRANCH  92  93
ENDBRANCH  60  85
ENDBRANCH  34  35
ENDBRANCH  26  29
ENDBRANCH  24  25
ENDBRANCH   1  24
TORSDOF 16
ENDMDL
MODEL 3
REMARK VINA RESULT:     -14.0      5.100     11.695
REMARK SMILES Cc1ccc(CNc2ccc(C(=O)NCCCNC(=O)c3ccc(-c4c5nc(c(-c6c(F)cc(S(=O)(=O)[O-])cc6F)c6ccc([nH]6)c(-c6c(F)cc(S(=O)(=O)[O-])cc6F)c6nc(c(-c7c(F)cc(S(=O)(=O)[O-])cc7F)c7ccc4[nH]7)C=C6)C=C5)cc3)cc2Br)cc1
REMARK SMILES IDX 16 1 15 2 14 3 12 4 13 5 11 7 8 8 9 9 88 10 10 11 87 12
REMARK SMILES IDX 89 13 7 14 6 16 5 17 1 18 2 19 3 20 91 21 4 22 90 23 17 24
REMARK SMILES IDX 18 25 19 26 20 28 21 29 22 30 86 31 23 32 85 33 24 34 25 35
REMARK SMILES IDX 26 36 79 37 27 38 84 39 78 40 80 41 28 42 83 43 77 44 76 45
REMARK SMILES IDX 29 47 63 48 42 49 62 50 43 51 46 52 61 53 81 54 44 55 45 56
REMARK SMILES IDX 60 58 82 59 47 60 30 61 31 62 40 63 32 64 33 65 39 66 41 67
REMARK SMILES IDX 34 68 35 69 36 70 37 71 38 72 64 73 65 74 74 75 66 76 67 77
REMARK SMILES IDX 73 78 75 79 68 80 69 81 70 82 71 83 72 84 48 85 49 86 58 87
REMARK SMILES IDX 50 88 51 89 57 90 59 91 52 92 53 93 54 94 55 95 56 96
REMARK H PARENT 14 6 7 15 18 27 80 46 46 57
REMARK Flexibility Score: inf
ROOT
ATOM      1  C   UNL A   1      37.453  22.279  25.202  1.00  0.00     0.042 C 
ENDROOT
BRANCH   1   2
ATOM      2  C   UNL A   1      36.257  21.802  26.028  1.00  0.00     0.118 C 
BRANCH   2   3
ATOM      3  N   UNL A   1      35.637  20.611  25.459  1.00  0.00    -0.352 N 
ATOM      4  C   UNL A   1      34.416  20.367  24.880  1.00  0.00     0.251 C 
ATOM      5  O   UNL A   1      34.239  19.246  24.398  1.00  0.00    -0.269 OA
ATOM      6  H   UNL A   1      36.214  19.814  25.499  1.00  0.00     0.163 HD
BRANCH   4   7
ATOM      7  C   UNL A   1      33.298  21.359  24.786  1.00  0.00     0.041 A 
ATOM      8  C   UNL A   1      31.272  23.344  24.469  1.00  0.00     0.049 A 
ATOM      9  C   UNL A   1      31.153  22.327  25.413  1.00  0.00     0.028 A 
ATOM     10  C   UNL A   1      32.407  23.323  23.641  1.00  0.00     0.041 A 
ATOM     11  C   UNL A   1      32.148  21.359  25.571  1.00  0.00     0.016 A 
ATOM     12  C   UNL A   1      33.404  22.350  23.797  1.00  0.00     0.031 A 
ATOM     13  Br  UNL A   1      32.658  24.651  22.300  1.00  0.00    -0.049 Br
BRANCH   8  14
ATOM     14  N   UNL A   1      30.329  24.362  24.397  1.00  0.00    -0.380 N 
ATOM     15  H   UNL A   1      29.616  24.319  23.720  1.00  0.00     0.160 HD
BRANCH  14  16
ATOM     16  C   UNL A   1      30.386  25.490  25.313  1.00  0.00     0.148 C 
BRANCH  16  17
ATOM     17  C   UNL A   1      30.108  26.765  24.553  1.00  0.00    -0.029 A 
ATOM     18  C   UNL A   1      29.224  30.415  22.433  1.00  0.00     0.044 C 
ATOM     19  C   UNL A   1      29.550  29.142  23.153  1.00  0.00    -0.051 A 
ATOM     20  C   UNL A   1      28.672  28.057  23.079  1.00  0.00     0.004 A 
ATOM     21  C   UNL A   1      30.717  29.024  23.920  1.00  0.00     0.004 A 
ATOM     22  C   UNL A   1      28.951  26.876  23.766  1.00  0.00     0.006 A 
ATOM     23  C   UNL A   1      30.993  27.845  24.613  1.00  0.00     0.006 A 
ENDBRANCH  16  17
ENDBRANCH  14  16
ENDBRANCH   8  14
ENDBRANCH   4   7
ENDBRANCH   2   3
ENDBRANCH   1   2
BRANCH   1  24
ATOM     24  C   UNL A   1      38.166  23.474  25.809  1.00  0.00     0.118 C 
BRANCH  24  25
ATOM     25  N   UNL A   1      39.460  23.132  26.391  1.00  0.00    -0.352 N 
ATOM     26  C   UNL A   1      40.349  23.987  27.022  1.00  0.00     0.251 C 
ATOM     27  H   UNL A   1      39.731  22.188  26.329  1.00  0.00     0.163 HD
ATOM     28  O   UNL A   1      41.468  23.657  27.351  1.00  0.00    -0.269 OA
BRANCH  26  29
ATOM     29  C   UNL A   1      39.813  25.319  27.366  1.00  0.00     0.039 A 
ATOM     30  C   UNL A   1      40.277  26.401  26.610  1.00  0.00     0.014 A 
ATOM     31  C   UNL A   1      39.193  25.499  28.600  1.00  0.00     0.014 A 
ATOM     32  C   UNL A   1      40.267  27.672  27.172  1.00  0.00     0.010 A 
ATOM     33  C   UNL A   1      39.269  26.745  29.189  1.00  0.00     0.010 A 
ATOM     34  C   UNL A   1      39.841  27.821  28.493  1.00  0.00    -0.014 A 
BRANCH  34  35
ATOM     35  C   UNL A   1      40.034  29.046  29.259  1.00  0.00     0.031 A 
ATOM     36  C   UNL A   1      38.984  30.089  29.253  1.00  0.00     0.074 A 
ATOM     37  C   UNL A   1      41.139  29.208  30.020  1.00  0.00     0.049 A 
ATOM     38  N   UNL A   1      39.202  31.337  29.499  1.00  0.00    -0.248 NA
ATOM     39  C   UNL A   1      37.589  29.803  28.923  1.00  0.00     0.031 C 
ATOM     40  C   UNL A   1      41.353  30.216  31.055  1.00  0.00     0.029 A 
ATOM     41  N   UNL A   1      42.384  28.590  29.874  1.00  0.00    -0.354 N 
ATOM     42  C   UNL A   1      37.980  31.954  29.618  1.00  0.00     0.074 A 
ATOM     43  C   UNL A   1      37.007  30.973  29.200  1.00  0.00     0.031 C 
ATOM     44  C   UNL A   1      42.670  30.333  31.284  1.00  0.00     0.029 A 
ATOM     45  C   UNL A   1      43.358  29.513  30.303  1.00  0.00     0.049 A 
ATOM     46  H   UNL A   1      42.550  27.681  29.535  1.00  0.00     0.167 HD
ATOM     47  C   UNL A   1      37.887  33.190  30.181  1.00  0.00     0.037 A 
ATOM     48  C   UNL A   1      44.321  29.971  29.449  1.00  0.00     0.037 A 
ATOM     49  C   UNL A   1      39.192  33.717  30.551  1.00  0.00     0.049 A 
ATOM     50  C   UNL A   1      44.249  31.461  29.188  1.00  0.00     0.074 A 
ATOM     51  C   UNL A   1      39.910  33.683  31.735  1.00  0.00     0.029 A 
ATOM     52  N   UNL A   1      40.096  34.072  29.555  1.00  0.00    -0.354 N 
ATOM     53  N   UNL A   1      43.225  32.207  29.497  1.00  0.00    -0.248 NA
ATOM     54  C   UNL A   1      45.314  32.226  28.542  1.00  0.00     0.031 C 
ATOM     55  C   UNL A   1      41.271  33.932  31.433  1.00  0.00     0.029 A 
ATOM     56  C   UNL A   1      41.377  34.152  30.071  1.00  0.00     0.049 A 
ATOM     57  H   UNL A   1      39.857  34.243  28.615  1.00  0.00     0.167 HD
ATOM     58  C   UNL A   1      43.445  33.493  29.076  1.00  0.00     0.074 A 
ATOM     59  C   UNL A   1      44.781  33.460  28.510  1.00  0.00     0.031 C 
ATOM     60  C   UNL A   1      42.507  34.475  29.217  1.00  0.00     0.037 A 
BRANCH  47  61
ATOM     61  C   UNL A   1      36.562  33.725  30.654  1.00  0.00     0.058 A 
ATOM     62  C   UNL A   1      35.609  34.217  29.741  1.00  0.00     0.135 A 
ATOM     63  C   UNL A   1      36.222  33.849  32.015  1.00  0.00     0.135 A 
ATOM     64  F   UNL A   1      35.793  34.125  28.418  1.00  0.00    -0.206 F 
ATOM     65  C   UNL A   1      34.444  34.866  30.150  1.00  0.00     0.059 A 
ATOM     66  C   UNL A   1      35.084  34.537  32.449  1.00  0.00     0.059 A 
ATOM     67  F   UNL A   1      37.008  33.318  32.967  1.00  0.00    -0.206 F 
ATOM     68  C   UNL A   1      34.202  35.049  31.504  1.00  0.00     0.060 A 
BRANCH  68  69
ATOM     69  S   UNL A   1      32.757  36.006  32.003  1.00  0.00     0.124 S 
ATOM     70  O   UNL A   1      31.874  34.979  32.549  1.00  0.00    -0.237 OA
ATOM     71  O   UNL A   1      33.328  36.931  32.975  1.00  0.00    -0.237 OA
ATOM     72  O   UNL A   1      32.300  36.607  30.753  1.00  0.00    -0.744 OA
ENDBRANCH  68  69
ENDBRANCH  47  61
BRANCH  48  73
ATOM     73  C   UNL A   1      44.787  28.934  28.487  1.00  0.00     0.058 A 
ATOM     74  C   UNL A   1      44.219  28.942  27.199  1.00  0.00     0.135 A 
ATOM     75  C   UNL A   1      46.020  28.287  28.647  1.00  0.00     0.135 A 
ATOM     76  F   UNL A   1      43.030  29.533  26.993  1.00  0.00    -0.206 F 
ATOM     77  C   UNL A   1      44.915  28.479  26.088  1.00  0.00     0.059 A 
ATOM     78  C   UNL A   1      46.734  27.810  27.545  1.00  0.00     0.059 A 
ATOM     79  F   UNL A   1      46.608  28.241  29.852  1.00  0.00    -0.206 F 
ATOM     80  C   UNL A   1      46.202  27.976  26.265  1.00  0.00     0.060 A 
BRANCH  80  81
ATOM     81  S   UNL A   1      47.217  27.721  24.789  1.00  0.00     0.124 S 
ATOM     82  O   UNL A   1      46.606  28.644  23.838  1.00  0.00    -0.237 OA
ATOM     83  O   UNL A   1      48.547  28.102  25.266  1.00  0.00    -0.237 OA
ATOM     84  O   UNL A   1      47.040  26.304  24.500  1.00  0.00    -0.744 OA
ENDBRANCH  80  81
ENDBRANCH  48  73
BRANCH  60  85
ATOM     85  C   UNL A   1      42.597  35.864  28.638  1.00  0.00     0.058 A 
ATOM     86  C   UNL A   1      42.089  36.220  27.378  1.00  0.00     0.135 A 
ATOM     87  C   UNL A   1      43.081  36.932  29.432  1.00  0.00     0.135 A 
ATOM     88  F   UNL A   1      41.521  35.309  26.576  1.00  0.00    -0.206 F 
ATOM     89  C   UNL A   1      42.107  37.538  26.914  1.00  0.00     0.059 A 
ATOM     90  C   UNL A   1      43.061  38.257  29.010  1.00  0.00     0.059 A 
ATOM     91  F   UNL A   1      43.583  36.718  30.658  1.00  0.00    -0.206 F 
ATOM     92  C   UNL A   1      42.592  38.550  27.738  1.00  0.00     0.060 A 
BRANCH  92  93
ATOM     93  S   UNL A   1      42.559  40.263  27.178  1.00  0.00     0.124 S 
ATOM     94  O   UNL A   1      43.035  40.965  28.366  1.00  0.00    -0.237 OA
ATOM     95  O   UNL A   1      43.477  40.254  26.043  1.00  0.00    -0.237 OA
ATOM     96  O   UNL A   1      41.156  40.473  26.838  1.00  0.00    -0.744 OA
ENDBRANCH  92  93
ENDBRANCH  60  85
ENDBRANCH  34  35
ENDBRANCH  26  29
ENDBRANCH  24  25
ENDBRANCH   1  24
TORSDOF 16
ENDMDL
