MODEL 1
REMARK VINA RESULT:     -11.5      0.000      0.000
REMARK SMILES Cc1cc(Br)cc([N+](=O)[O-])c1OCCC[C@@](C)([NH3+])C(=O)NCCCNC(=O)c1ccc(-c2c3nc(c(-c4c(F)cc(S(=O)(=O)[O-])cc4F)c4ccc([nH]4)c(-c4c(F)cc(S(=O)(=O)[O-])cc4F)c4nc(c(-c5c(F)cc(S(=O)(=O)[O-])cc5F)c5ccc2[nH]5)C=C4)C=C3)cc1
REMARK SMILES IDX 19 1 20 2 21 3 16 5 17 6 15 7 14 8 13 9 12 10 11 11 1 12
REMARK SMILES IDX 2 13 3 14 4 15 7 16 5 17 6 18 8 19 9 20 10 21 18 22 22 26
REMARK SMILES IDX 23 27 24 28 25 29 26 30 27 32 28 33 29 34 93 35 30 36 92 37
REMARK SMILES IDX 31 38 32 39 33 40 86 41 34 42 91 43 85 44 87 45 35 46 90 47
REMARK SMILES IDX 84 48 83 49 36 51 70 52 49 53 69 54 50 55 53 56 68 57 88 58
REMARK SMILES IDX 51 59 52 60 67 62 89 63 54 64 37 65 38 66 47 67 39 68 40 69
REMARK SMILES IDX 46 70 48 71 41 72 42 73 43 74 44 75 45 76 71 77 72 78 81 79
REMARK SMILES IDX 73 80 74 81 80 82 82 83 75 84 76 85 77 86 78 87 79 88 55 89
REMARK SMILES IDX 56 90 65 91 57 92 58 93 64 94 66 95 59 96 60 97 61 98 62 99
REMARK SMILES IDX 63 100
REMARK H PARENT 21 4 18 23 18 24 18 25 25 31 87 50 53 61
REMARK Flexibility Score: inf
ROOT
ATOM      1  C   UNL A   1      34.351  21.454  25.384  1.00  0.00     0.280 C 
ATOM      2  O   UNL A   1      34.314  20.474  24.629  1.00  0.00    -0.268 OA
ATOM      3  N   UNL A   1      35.562  22.065  25.445  1.00  0.00    -0.351 N 
ATOM      4  H   UNL A   1      36.301  21.495  25.132  1.00  0.00     0.163 HD
ENDROOT
BRANCH   1   5
ATOM      5  C   UNL A   1      33.066  21.937  26.130  1.00  0.00     0.171 C 
ATOM      6  C   UNL A   1      33.406  21.871  27.627  1.00  0.00     0.090 C 
BRANCH   5   7
ATOM      7  C   UNL A   1      32.573  23.377  25.733  1.00  0.00     0.082 C 
BRANCH   7   8
ATOM      8  C   UNL A   1      31.237  23.586  24.985  1.00  0.00     0.049 C 
BRANCH   8   9
ATOM      9  C   UNL A   1      31.239  23.441  23.438  1.00  0.00     0.230 C 
BRANCH   9  10
ATOM     10  O   UNL A   1      30.843  24.674  22.813  1.00  0.00    -0.487 OA
BRANCH  10  11
ATOM     11  C   UNL A   1      31.318  25.853  23.353  1.00  0.00     0.200 A 
ATOM     12  C   UNL A   1      29.003  26.551  24.174  1.00  0.00     0.049 C 
ATOM     13  C   UNL A   1      30.488  26.588  24.221  1.00  0.00    -0.001 A 
ATOM     14  C   UNL A   1      31.045  27.396  25.225  1.00  0.00     0.023 A 
ATOM     15  C   UNL A   1      32.416  27.561  25.319  1.00  0.00     0.025 A 
ATOM     16  C   UNL A   1      32.697  26.128  23.391  1.00  0.00     0.312 A 
ATOM     17  Br  UNL A   1      33.129  28.586  26.735  1.00  0.00    -0.051 Br
ATOM     18  C   UNL A   1      33.246  26.981  24.373  1.00  0.00     0.105 A 
BRANCH  16  19
ATOM     19  N   UNL A   1      33.611  25.605  22.375  1.00  0.00     0.066 N 
ATOM     20  O   UNL A   1      34.377  24.689  22.713  1.00  0.00    -0.258 OA
ATOM     21  O   UNL A   1      33.630  26.150  21.263  1.00  0.00    -0.258 OA
ENDBRANCH  16  19
ENDBRANCH  10  11
ENDBRANCH   9  10
ENDBRANCH   8   9
ENDBRANCH   7   8
ENDBRANCH   5   7
BRANCH   5  22
ATOM     22  N   UNL A   1      31.916  21.012  25.962  1.00  0.00    -0.345 N 
ATOM     23  H   UNL A   1      32.126  20.123  26.414  1.00  0.00     0.345 HD
ATOM     24  H   UNL A   1      31.747  20.857  24.969  1.00  0.00     0.345 HD
ATOM     25  H   UNL A   1      31.085  21.423  26.388  1.00  0.00     0.345 HD
ENDBRANCH   5  22
ENDBRANCH   1   5
BRANCH   3  26
ATOM     26  C   UNL A   1      35.997  23.384  25.876  1.00  0.00     0.118 C 
BRANCH  26  27
ATOM     27  C   UNL A   1      37.414  23.712  25.406  1.00  0.00     0.042 C 
BRANCH  27  28
ATOM     28  C   UNL A   1      38.385  24.111  26.520  1.00  0.00     0.118 C 
BRANCH  28  29
ATOM     29  N   UNL A   1      39.781  24.039  26.106  1.00  0.00    -0.352 N 
ATOM     30  C   UNL A   1      40.859  24.810  26.451  1.00  0.00     0.251 C 
ATOM     31  H   UNL A   1      39.983  23.314  25.472  1.00  0.00     0.163 HD
ATOM     32  O   UNL A   1      41.899  24.714  25.792  1.00  0.00    -0.269 OA
BRANCH  30  33
ATOM     33  C   UNL A   1      40.794  25.756  27.583  1.00  0.00     0.039 A 
ATOM     34  C   UNL A   1      41.797  26.721  27.719  1.00  0.00     0.014 A 
ATOM     35  C   UNL A   1      39.780  25.665  28.541  1.00  0.00     0.014 A 
ATOM     36  C   UNL A   1      41.746  27.634  28.775  1.00  0.00     0.010 A 
ATOM     37  C   UNL A   1      39.688  26.623  29.548  1.00  0.00     0.010 A 
ATOM     38  C   UNL A   1      40.671  27.616  29.679  1.00  0.00    -0.014 A 
BRANCH  38  39
ATOM     39  C   UNL A   1      40.552  28.632  30.758  1.00  0.00     0.031 A 
ATOM     40  C   UNL A   1      41.438  28.562  31.972  1.00  0.00     0.074 A 
ATOM     41  C   UNL A   1      39.596  29.578  30.675  1.00  0.00     0.049 A 
ATOM     42  N   UNL A   1      41.444  29.324  33.036  1.00  0.00    -0.248 NA
ATOM     43  C   UNL A   1      42.429  27.476  32.007  1.00  0.00     0.031 C 
ATOM     44  C   UNL A   1      38.651  29.729  29.567  1.00  0.00     0.029 A 
ATOM     45  N   UNL A   1      39.259  30.591  31.538  1.00  0.00    -0.354 N 
ATOM     46  C   UNL A   1      42.423  28.801  33.874  1.00  0.00     0.074 A 
ATOM     47  C   UNL A   1      42.947  27.622  33.217  1.00  0.00     0.031 C 
ATOM     48  C   UNL A   1      37.868  30.793  29.798  1.00  0.00     0.029 A 
ATOM     49  C   UNL A   1      38.222  31.374  31.089  1.00  0.00     0.049 A 
ATOM     50  H   UNL A   1      39.716  30.740  32.397  1.00  0.00     0.167 HD
ATOM     51  C   UNL A   1      42.860  29.269  35.068  1.00  0.00     0.037 A 
ATOM     52  C   UNL A   1      37.622  32.441  31.654  1.00  0.00     0.037 A 
ATOM     53  C   UNL A   1      42.338  30.450  35.708  1.00  0.00     0.049 A 
ATOM     54  C   UNL A   1      38.103  32.928  32.993  1.00  0.00     0.074 A 
ATOM     55  C   UNL A   1      42.751  31.044  36.888  1.00  0.00     0.029 A 
ATOM     56  N   UNL A   1      41.279  31.208  35.230  1.00  0.00    -0.354 N 
ATOM     57  N   UNL A   1      39.076  32.462  33.740  1.00  0.00    -0.248 NA
ATOM     58  C   UNL A   1      37.406  34.088  33.564  1.00  0.00     0.031 C 
ATOM     59  C   UNL A   1      41.904  32.127  37.151  1.00  0.00     0.029 A 
ATOM     60  C   UNL A   1      41.002  32.246  36.106  1.00  0.00     0.049 A 
ATOM     61  H   UNL A   1      40.795  31.035  34.390  1.00  0.00     0.167 HD
ATOM     62  C   UNL A   1      39.129  33.291  34.856  1.00  0.00     0.074 A 
ATOM     63  C   UNL A   1      38.093  34.290  34.681  1.00  0.00     0.031 C 
ATOM     64  C   UNL A   1      39.965  33.234  35.922  1.00  0.00     0.037 A 
BRANCH  51  65
ATOM     65  C   UNL A   1      43.944  28.485  35.764  1.00  0.00     0.058 A 
ATOM     66  C   UNL A   1      45.308  28.739  35.536  1.00  0.00     0.135 A 
ATOM     67  C   UNL A   1      43.615  27.452  36.657  1.00  0.00     0.135 A 
ATOM     68  F   UNL A   1      45.682  29.708  34.686  1.00  0.00    -0.206 F 
ATOM     69  C   UNL A   1      46.301  27.959  36.119  1.00  0.00     0.059 A 
ATOM     70  C   UNL A   1      44.594  26.683  37.280  1.00  0.00     0.059 A 
ATOM     71  F   UNL A   1      42.330  27.169  36.922  1.00  0.00    -0.206 F 
ATOM     72  C   UNL A   1      45.934  26.926  36.982  1.00  0.00     0.060 A 
BRANCH  72  73
ATOM     73  S   UNL A   1      47.231  25.888  37.688  1.00  0.00     0.124 S 
ATOM     74  O   UNL A   1      47.397  26.489  39.007  1.00  0.00    -0.237 OA
ATOM     75  O   UNL A   1      46.616  24.564  37.669  1.00  0.00    -0.237 OA
ATOM     76  O   UNL A   1      48.351  26.069  36.770  1.00  0.00    -0.744 OA
ENDBRANCH  72  73
ENDBRANCH  51  65
BRANCH  52  77
ATOM     77  C   UNL A   1      36.537  33.147  30.922  1.00  0.00     0.058 A 
ATOM     78  C   UNL A   1      35.206  33.048  31.354  1.00  0.00     0.135 A 
ATOM     79  C   UNL A   1      36.807  33.967  29.817  1.00  0.00     0.135 A 
ATOM     80  F   UNL A   1      34.898  32.268  32.402  1.00  0.00    -0.206 F 
ATOM     81  C   UNL A   1      34.181  33.739  30.718  1.00  0.00     0.059 A 
ATOM     82  C   UNL A   1      35.802  34.687  29.179  1.00  0.00     0.059 A 
ATOM     83  F   UNL A   1      38.067  34.107  29.374  1.00  0.00    -0.206 F 
ATOM     84  C   UNL A   1      34.491  34.565  29.637  1.00  0.00     0.060 A 
BRANCH  84  85
ATOM     85  S   UNL A   1      33.161  35.521  28.874  1.00  0.00     0.124 S 
ATOM     86  O   UNL A   1      32.449  36.021  30.043  1.00  0.00    -0.237 OA
ATOM     87  O   UNL A   1      33.905  36.513  28.104  1.00  0.00    -0.237 OA
ATOM     88  O   UNL A   1      32.449  34.527  28.077  1.00  0.00    -0.744 OA
ENDBRANCH  84  85
ENDBRANCH  52  77
BRANCH  64  89
ATOM     89  C   UNL A   1      39.819  34.300  36.975  1.00  0.00     0.058 A 
ATOM     90  C   UNL A   1      40.429  35.558  36.847  1.00  0.00     0.135 A 
ATOM     91  C   UNL A   1      39.015  34.075  38.106  1.00  0.00     0.135 A 
ATOM     92  F   UNL A   1      41.215  35.824  35.792  1.00  0.00    -0.206 F 
ATOM     93  C   UNL A   1      40.266  36.546  37.813  1.00  0.00     0.059 A 
ATOM     94  C   UNL A   1      38.814  35.058  39.068  1.00  0.00     0.059 A 
ATOM     95  F   UNL A   1      38.401  32.893  38.273  1.00  0.00    -0.206 F 
ATOM     96  C   UNL A   1      39.453  36.287  38.919  1.00  0.00     0.060 A 
BRANCH  96  97
ATOM     97  S   UNL A   1      39.222  37.591  40.146  1.00  0.00     0.124 S 
ATOM     98  O   UNL A   1      38.124  38.354  39.563  1.00  0.00    -0.237 OA
ATOM     99  O   UNL A   1      38.898  36.831  41.350  1.00  0.00    -0.237 OA
ATOM    100  O   UNL A   1      40.514  38.269  40.170  1.00  0.00    -0.744 OA
ENDBRANCH  96  97
ENDBRANCH  64  89
ENDBRANCH  38  39
ENDBRANCH  30  33
ENDBRANCH  28  29
ENDBRANCH  27  28
ENDBRANCH  26  27
ENDBRANCH   3  26
TORSDOF 20
ENDMDL
MODEL 2
REMARK VINA RESULT:     -11.2      1.186      2.098
REMARK SMILES Cc1cc(Br)cc([N+](=O)[O-])c1OCCC[C@@](C)([NH3+])C(=O)NCCCNC(=O)c1ccc(-c2c3nc(c(-c4c(F)cc(S(=O)(=O)[O-])cc4F)c4ccc([nH]4)c(-c4c(F)cc(S(=O)(=O)[O-])cc4F)c4nc(c(-c5c(F)cc(S(=O)(=O)[O-])cc5F)c5ccc2[nH]5)C=C4)C=C3)cc1
REMARK SMILES IDX 19 1 20 2 21 3 16 5 17 6 15 7 14 8 13 9 12 10 11 11 1 12
REMARK SMILES IDX 2 13 3 14 4 15 7 16 5 17 6 18 8 19 9 20 10 21 18 22 22 26
REMARK SMILES IDX 23 27 24 28 25 29 26 30 27 32 28 33 29 34 93 35 30 36 92 37
REMARK SMILES IDX 31 38 32 39 33 40 86 41 34 42 91 43 85 44 87 45 35 46 90 47
REMARK SMILES IDX 84 48 83 49 36 51 70 52 49 53 69 54 50 55 53 56 68 57 88 58
REMARK SMILES IDX 51 59 52 60 67 62 89 63 54 64 37 65 38 66 47 67 39 68 40 69
REMARK SMILES IDX 46 70 48 71 41 72 42 73 43 74 44 75 45 76 71 77 72 78 81 79
REMARK SMILES IDX 73 80 74 81 80 82 82 83 75 84 76 85 77 86 78 87 79 88 55 89
REMARK SMILES IDX 56 90 65 91 57 92 58 93 64 94 66 95 59 96 60 97 61 98 62 99
REMARK SMILES IDX 63 100
REMARK H PARENT 21 4 18 23 18 24 18 25 25 31 87 50 53 61
REMARK Flexibility Score: inf
ROOT
ATOM      1  C   UNL A   1      35.143  21.128  24.991  1.00  0.00     0.280 C 
ATOM      2  O   UNL A   1      34.794  19.944  24.898  1.00  0.00    -0.268 OA
ATOM      3  N   UNL A   1      36.438  21.299  25.365  1.00  0.00    -0.351 N 
ATOM      4  H   UNL A   1      36.828  20.502  25.790  1.00  0.00     0.163 HD
ENDROOT
BRANCH   1   5
ATOM      5  C   UNL A   1      34.154  22.283  24.636  1.00  0.00     0.171 C 
ATOM      6  C   UNL A   1      32.771  21.625  24.525  1.00  0.00     0.090 C 
BRANCH   5   7
ATOM      7  C   UNL A   1      34.126  23.470  25.669  1.00  0.00     0.082 C 
BRANCH   7   8
ATOM      8  C   UNL A   1      34.547  24.898  25.256  1.00  0.00     0.049 C 
BRANCH   8   9
ATOM      9  C   UNL A   1      33.760  26.093  25.862  1.00  0.00     0.230 C 
BRANCH   9  10
ATOM     10  O   UNL A   1      33.687  27.181  24.924  1.00  0.00    -0.487 OA
BRANCH  10  11
ATOM     11  C   UNL A   1      32.452  27.494  24.394  1.00  0.00     0.200 A 
ATOM     12  C   UNL A   1      31.778  28.856  26.446  1.00  0.00     0.049 C 
ATOM     13  C   UNL A   1      31.682  28.501  25.006  1.00  0.00    -0.001 A 
ATOM     14  C   UNL A   1      30.775  29.264  24.252  1.00  0.00     0.023 A 
ATOM     15  C   UNL A   1      30.551  28.977  22.917  1.00  0.00     0.025 A 
ATOM     16  C   UNL A   1      32.122  27.144  23.071  1.00  0.00     0.312 A 
ATOM     17  Br  UNL A   1      29.390  30.078  21.917  1.00  0.00    -0.051 Br
ATOM     18  C   UNL A   1      31.173  27.884  22.333  1.00  0.00     0.105 A 
BRANCH  16  19
ATOM     19  N   UNL A   1      32.689  25.958  22.428  1.00  0.00     0.066 N 
ATOM     20  O   UNL A   1      33.653  26.128  21.665  1.00  0.00    -0.258 OA
ATOM     21  O   UNL A   1      32.136  24.866  22.615  1.00  0.00    -0.258 OA
ENDBRANCH  16  19
ENDBRANCH  10  11
ENDBRANCH   9  10
ENDBRANCH   8   9
ENDBRANCH   7   8
ENDBRANCH   5   7
BRANCH   5  22
ATOM     22  N   UNL A   1      34.404  22.869  23.295  1.00  0.00    -0.345 N 
ATOM     23  H   UNL A   1      33.549  22.824  22.740  1.00  0.00     0.345 HD
ATOM     24  H   UNL A   1      35.141  22.344  22.826  1.00  0.00     0.345 HD
ATOM     25  H   UNL A   1      34.692  23.842  23.398  1.00  0.00     0.345 HD
ENDBRANCH   5  22
ENDBRANCH   1   5
BRANCH   3  26
ATOM     26  C   UNL A   1      37.369  22.412  25.268  1.00  0.00     0.118 C 
BRANCH  26  27
ATOM     27  C   UNL A   1      38.617  22.203  26.127  1.00  0.00     0.042 C 
BRANCH  27  28
ATOM     28  C   UNL A   1      39.274  23.491  26.629  1.00  0.00     0.118 C 
BRANCH  28  29
ATOM     29  N   UNL A   1      40.631  23.667  26.126  1.00  0.00    -0.352 N 
ATOM     30  C   UNL A   1      41.534  24.678  26.320  1.00  0.00     0.251 C 
ATOM     31  H   UNL A   1      40.952  22.936  25.551  1.00  0.00     0.163 HD
ATOM     32  O   UNL A   1      42.537  24.729  25.600  1.00  0.00    -0.269 OA
BRANCH  30  33
ATOM     33  C   UNL A   1      41.323  25.706  27.358  1.00  0.00     0.039 A 
ATOM     34  C   UNL A   1      40.334  25.502  28.324  1.00  0.00     0.014 A 
ATOM     35  C   UNL A   1      42.059  26.894  27.354  1.00  0.00     0.014 A 
ATOM     36  C   UNL A   1      40.128  26.456  29.324  1.00  0.00     0.010 A 
ATOM     37  C   UNL A   1      41.906  27.808  28.395  1.00  0.00     0.010 A 
ATOM     38  C   UNL A   1      40.938  27.601  29.389  1.00  0.00    -0.014 A 
BRANCH  38  39
ATOM     39  C   UNL A   1      40.794  28.587  30.493  1.00  0.00     0.031 A 
ATOM     40  C   UNL A   1      41.682  28.509  31.705  1.00  0.00     0.074 A 
ATOM     41  C   UNL A   1      39.817  29.513  30.431  1.00  0.00     0.049 A 
ATOM     42  N   UNL A   1      41.669  29.246  32.787  1.00  0.00    -0.248 NA
ATOM     43  C   UNL A   1      42.698  27.447  31.715  1.00  0.00     0.031 C 
ATOM     44  C   UNL A   1      38.869  29.668  29.326  1.00  0.00     0.029 A 
ATOM     45  N   UNL A   1      39.455  30.496  31.318  1.00  0.00    -0.354 N 
ATOM     46  C   UNL A   1      42.660  28.725  33.613  1.00  0.00     0.074 A 
ATOM     47  C   UNL A   1      43.212  27.575  32.929  1.00  0.00     0.031 C 
ATOM     48  C   UNL A   1      38.061  30.708  29.582  1.00  0.00     0.029 A 
ATOM     49  C   UNL A   1      38.401  31.265  30.887  1.00  0.00     0.049 A 
ATOM     50  H   UNL A   1      39.909  30.636  32.181  1.00  0.00     0.167 HD
ATOM     51  C   UNL A   1      43.085  29.175  34.819  1.00  0.00     0.037 A 
ATOM     52  C   UNL A   1      37.776  32.304  31.477  1.00  0.00     0.037 A 
ATOM     53  C   UNL A   1      42.535  30.327  35.487  1.00  0.00     0.049 A 
ATOM     54  C   UNL A   1      38.245  32.770  32.827  1.00  0.00     0.074 A 
ATOM     55  C   UNL A   1      42.934  30.903  36.681  1.00  0.00     0.029 A 
ATOM     56  N   UNL A   1      41.459  31.072  35.025  1.00  0.00    -0.354 N 
ATOM     57  N   UNL A   1      39.228  32.310  33.564  1.00  0.00    -0.248 NA
ATOM     58  C   UNL A   1      37.520  33.899  33.426  1.00  0.00     0.031 C 
ATOM     59  C   UNL A   1      42.062  31.959  36.969  1.00  0.00     0.029 A 
ATOM     60  C   UNL A   1      41.158  32.082  35.926  1.00  0.00     0.049 A 
ATOM     61  H   UNL A   1      40.979  30.908  34.181  1.00  0.00     0.167 HD
ATOM     62  C   UNL A   1      39.261  33.113  34.699  1.00  0.00     0.074 A 
ATOM     63  C   UNL A   1      38.202  34.091  34.548  1.00  0.00     0.031 C 
ATOM     64  C   UNL A   1      40.098  33.049  35.765  1.00  0.00     0.037 A 
BRANCH  51  65
ATOM     65  C   UNL A   1      44.187  28.400  35.496  1.00  0.00     0.058 A 
ATOM     66  C   UNL A   1      43.914  27.366  36.409  1.00  0.00     0.135 A 
ATOM     67  C   UNL A   1      45.534  28.705  35.243  1.00  0.00     0.135 A 
ATOM     68  F   UNL A   1      42.646  27.036  36.698  1.00  0.00    -0.206 F 
ATOM     69  C   UNL A   1      44.933  26.709  37.091  1.00  0.00     0.059 A 
ATOM     70  C   UNL A   1      46.570  28.034  35.887  1.00  0.00     0.059 A 
ATOM     71  F   UNL A   1      45.857  29.675  34.373  1.00  0.00    -0.206 F 
ATOM     72  C   UNL A   1      46.259  27.057  36.830  1.00  0.00     0.060 A 
BRANCH  72  73
ATOM     73  S   UNL A   1      47.568  26.234  37.762  1.00  0.00     0.124 S 
ATOM     74  O   UNL A   1      46.928  24.967  38.101  1.00  0.00    -0.237 OA
ATOM     75  O   UNL A   1      48.646  26.156  36.781  1.00  0.00    -0.237 OA
ATOM     76  O   UNL A   1      47.808  27.136  38.883  1.00  0.00    -0.744 OA
ENDBRANCH  72  73
ENDBRANCH  51  65
BRANCH  52  77
ATOM     77  C   UNL A   1      36.675  33.002  30.761  1.00  0.00     0.058 A 
ATOM     78  C   UNL A   1      35.340  32.803  31.143  1.00  0.00     0.135 A 
ATOM     79  C   UNL A   1      36.931  33.911  29.724  1.00  0.00     0.135 A 
ATOM     80  F   UNL A   1      35.045  31.936  32.124  1.00  0.00    -0.206 F 
ATOM     81  C   UNL A   1      34.296  33.482  30.523  1.00  0.00     0.059 A 
ATOM     82  C   UNL A   1      35.905  34.620  29.105  1.00  0.00     0.059 A 
ATOM     83  F   UNL A   1      38.193  34.148  29.333  1.00  0.00    -0.206 F 
ATOM     84  C   UNL A   1      34.591  34.397  29.512  1.00  0.00     0.060 A 
BRANCH  84  85
ATOM     85  S   UNL A   1      33.233  35.333  28.774  1.00  0.00     0.124 S 
ATOM     86  O   UNL A   1      32.528  35.812  29.957  1.00  0.00    -0.237 OA
ATOM     87  O   UNL A   1      33.947  36.345  28.001  1.00  0.00    -0.237 OA
ATOM     88  O   UNL A   1      32.528  34.331  27.980  1.00  0.00    -0.744 OA
ENDBRANCH  84  85
ENDBRANCH  52  77
BRANCH  64  89
ATOM     89  C   UNL A   1      39.926  34.086  36.843  1.00  0.00     0.058 A 
ATOM     90  C   UNL A   1      39.115  33.862  37.966  1.00  0.00     0.135 A 
ATOM     91  C   UNL A   1      40.625  35.304  36.773  1.00  0.00     0.135 A 
ATOM     92  F   UNL A   1      38.418  32.720  38.080  1.00  0.00    -0.206 F 
ATOM     93  C   UNL A   1      38.984  34.816  38.971  1.00  0.00     0.059 A 
ATOM     94  C   UNL A   1      40.532  36.259  37.780  1.00  0.00     0.059 A 
ATOM     95  F   UNL A   1      41.421  35.566  35.726  1.00  0.00    -0.206 F 
ATOM     96  C   UNL A   1      39.700  36.010  38.869  1.00  0.00     0.060 A 
BRANCH  96  97
ATOM     97  S   UNL A   1      39.548  37.225  40.197  1.00  0.00     0.124 S 
ATOM     98  O   UNL A   1      39.869  36.421  41.371  1.00  0.00    -0.237 OA
ATOM     99  O   UNL A   1      40.545  38.223  39.821  1.00  0.00    -0.237 OA
ATOM    100  O   UNL A   1      38.160  37.666  40.098  1.00  0.00    -0.744 OA
ENDBRANCH  96  97
ENDBRANCH  64  89
ENDBRANCH  38  39
ENDBRANCH  30  33
ENDBRANCH  28  29
ENDBRANCH  27  28
ENDBRANCH  26  27
ENDBRANCH   3  26
TORSDOF 20
ENDMDL
MODEL 3
REMARK VINA RESULT:     -11.0      1.195      8.384
REMARK SMILES Cc1cc(Br)cc([N+](=O)[O-])c1OCCC[C@@](C)([NH3+])C(=O)NCCCNC(=O)c1ccc(-c2c3nc(c(-c4c(F)cc(S(=O)(=O)[O-])cc4F)c4ccc([nH]4)c(-c4c(F)cc(S(=O)(=O)[O-])cc4F)c4nc(c(-c5c(F)cc(S(=O)(=O)[O-])cc5F)c5ccc2[nH]5)C=C4)C=C3)cc1
REMARK SMILES IDX 19 1 20 2 21 3 16 5 17 6 15 7 14 8 13 9 12 10 11 11 1 12
REMARK SMILES IDX 2 13 3 14 4 15 7 16 5 17 6 18 8 19 9 20 10 21 18 22 22 26
REMARK SMILES IDX 23 27 24 28 25 29 26 30 27 32 28 33 29 34 93 35 30 36 92 37
REMARK SMILES IDX 31 38 32 39 33 40 86 41 34 42 91 43 85 44 87 45 35 46 90 47
REMARK SMILES IDX 84 48 83 49 36 51 70 52 49 53 69 54 50 55 53 56 68 57 88 58
REMARK SMILES IDX 51 59 52 60 67 62 89 63 54 64 37 65 38 66 47 67 39 68 40 69
REMARK SMILES IDX 46 70 48 71 41 72 42 73 43 74 44 75 45 76 71 77 72 78 81 79
REMARK SMILES IDX 73 80 74 81 80 82 82 83 75 84 76 85 77 86 78 87 79 88 55 89
REMARK SMILES IDX 56 90 65 91 57 92 58 93 64 94 66 95 59 96 60 97 61 98 62 99
REMARK SMILES IDX 63 100
REMARK H PARENT 21 4 18 23 18 24 18 25 25 31 87 50 53 61
REMARK Flexibility Score: inf
ROOT
ATOM      1  C   UNL A   1      37.620  21.100  25.169  1.00  0.00     0.280 C 
ATOM      2  O   UNL A   1      37.647  20.095  24.448  1.00  0.00    -0.268 OA
ATOM      3  N   UNL A   1      38.777  21.337  25.840  1.00  0.00    -0.351 N 
ATOM      4  H   UNL A   1      39.359  20.546  25.900  1.00  0.00     0.163 HD
ENDROOT
BRANCH   1   5
ATOM      5  C   UNL A   1      36.355  22.016  25.216  1.00  0.00     0.171 C 
ATOM      6  C   UNL A   1      36.765  23.326  24.527  1.00  0.00     0.090 C 
BRANCH   5   7
ATOM      7  C   UNL A   1      35.072  21.407  24.538  1.00  0.00     0.082 C 
BRANCH   7   8
ATOM      8  C   UNL A   1      33.714  22.142  24.595  1.00  0.00     0.049 C 
BRANCH   8   9
ATOM      9  C   UNL A   1      33.322  23.039  23.388  1.00  0.00     0.230 C 
BRANCH   9  10
ATOM     10  O   UNL A   1      32.081  23.720  23.645  1.00  0.00    -0.487 OA
BRANCH  10  11
ATOM     11  C   UNL A   1      32.140  24.969  24.231  1.00  0.00     0.200 A 
ATOM     12  C   UNL A   1      31.323  24.086  26.483  1.00  0.00     0.049 C 
ATOM     13  C   UNL A   1      32.040  25.071  25.632  1.00  0.00    -0.001 A 
ATOM     14  C   UNL A   1      32.659  26.129  26.316  1.00  0.00     0.023 A 
ATOM     15  C   UNL A   1      33.296  27.142  25.621  1.00  0.00     0.025 A 
ATOM     16  C   UNL A   1      32.687  26.067  23.542  1.00  0.00     0.312 A 
ATOM     17  Br  UNL A   1      34.189  28.501  26.580  1.00  0.00    -0.051 Br
ATOM     18  C   UNL A   1      33.264  27.152  24.235  1.00  0.00     0.105 A 
BRANCH  16  19
ATOM     19  N   UNL A   1      32.616  26.169  22.084  1.00  0.00     0.066 N 
ATOM     20  O   UNL A   1      31.521  26.472  21.585  1.00  0.00    -0.258 OA
ATOM     21  O   UNL A   1      33.621  25.874  21.423  1.00  0.00    -0.258 OA
ENDBRANCH  16  19
ENDBRANCH  10  11
ENDBRANCH   9  10
ENDBRANCH   8   9
ENDBRANCH   7   8
ENDBRANCH   5   7
BRANCH   5  22
ATOM     22  N   UNL A   1      35.980  22.415  26.597  1.00  0.00    -0.345 N 
ATOM     23  H   UNL A   1      34.999  22.697  26.614  1.00  0.00     0.345 HD
ATOM     24  H   UNL A   1      36.563  23.196  26.895  1.00  0.00     0.345 HD
ATOM     25  H   UNL A   1      36.118  21.626  27.228  1.00  0.00     0.345 HD
ENDBRANCH   5  22
ENDBRANCH   1   5
BRANCH   3  26
ATOM     26  C   UNL A   1      39.337  22.513  26.487  1.00  0.00     0.118 C 
BRANCH  26  27
ATOM     27  C   UNL A   1      40.494  22.166  27.424  1.00  0.00     0.042 C 
BRANCH  27  28
ATOM     28  C   UNL A   1      41.524  23.282  27.615  1.00  0.00     0.118 C 
BRANCH  28  29
ATOM     29  N   UNL A   1      41.683  24.113  26.427  1.00  0.00    -0.352 N 
ATOM     30  C   UNL A   1      41.452  25.448  26.231  1.00  0.00     0.251 C 
ATOM     31  H   UNL A   1      42.012  23.633  25.633  1.00  0.00     0.163 HD
ATOM     32  O   UNL A   1      41.429  25.887  25.076  1.00  0.00    -0.269 OA
BRANCH  30  33
ATOM     33  C   UNL A   1      41.220  26.362  27.366  1.00  0.00     0.039 A 
ATOM     34  C   UNL A   1      40.169  26.094  28.249  1.00  0.00     0.014 A 
ATOM     35  C   UNL A   1      41.998  27.510  27.538  1.00  0.00     0.014 A 
ATOM     36  C   UNL A   1      39.942  26.938  29.339  1.00  0.00     0.010 A 
ATOM     37  C   UNL A   1      41.820  28.307  28.667  1.00  0.00     0.010 A 
ATOM     38  C   UNL A   1      40.789  28.033  29.578  1.00  0.00    -0.014 A 
BRANCH  38  39
ATOM     39  C   UNL A   1      40.619  28.895  30.777  1.00  0.00     0.031 A 
ATOM     40  C   UNL A   1      39.557  29.960  30.806  1.00  0.00     0.074 A 
ATOM     41  C   UNL A   1      41.467  28.761  31.816  1.00  0.00     0.049 A 
ATOM     42  N   UNL A   1      39.294  30.839  31.739  1.00  0.00    -0.248 NA
ATOM     43  C   UNL A   1      38.696  30.070  29.619  1.00  0.00     0.031 C 
ATOM     44  C   UNL A   1      42.560  27.789  31.892  1.00  0.00     0.029 A 
ATOM     45  N   UNL A   1      41.547  29.443  33.003  1.00  0.00    -0.354 N 
ATOM     46  C   UNL A   1      38.251  31.617  31.246  1.00  0.00     0.074 A 
ATOM     47  C   UNL A   1      37.973  31.141  29.908  1.00  0.00     0.031 C 
ATOM     48  C   UNL A   1      43.176  27.913  33.078  1.00  0.00     0.029 A 
ATOM     49  C   UNL A   1      42.553  28.999  33.827  1.00  0.00     0.049 A 
ATOM     50  H   UNL A   1      40.941  30.182  33.241  1.00  0.00     0.167 HD
ATOM     51  C   UNL A   1      37.576  32.621  31.858  1.00  0.00     0.037 A 
ATOM     52  C   UNL A   1      42.934  29.419  35.050  1.00  0.00     0.037 A 
ATOM     53  C   UNL A   1      37.856  33.080  33.194  1.00  0.00     0.049 A 
ATOM     54  C   UNL A   1      42.189  30.552  35.700  1.00  0.00     0.074 A 
ATOM     55  C   UNL A   1      37.192  34.048  33.929  1.00  0.00     0.029 A 
ATOM     56  N   UNL A   1      38.891  32.615  33.992  1.00  0.00    -0.354 N 
ATOM     57  N   UNL A   1      41.162  31.232  35.248  1.00  0.00    -0.248 NA
ATOM     58  C   UNL A   1      42.653  30.974  37.028  1.00  0.00     0.031 C 
ATOM     59  C   UNL A   1      37.862  34.207  35.147  1.00  0.00     0.029 A 
ATOM     60  C   UNL A   1      38.906  33.297  35.199  1.00  0.00     0.049 A 
ATOM     61  H   UNL A   1      39.523  31.904  33.739  1.00  0.00     0.167 HD
ATOM     62  C   UNL A   1      40.837  32.142  36.249  1.00  0.00     0.074 A 
ATOM     63  C   UNL A   1      41.774  31.920  37.332  1.00  0.00     0.031 C 
ATOM     64  C   UNL A   1      39.847  33.069  36.270  1.00  0.00     0.037 A 
BRANCH  51  65
ATOM     65  C   UNL A   1      36.483  33.298  31.070  1.00  0.00     0.058 A 
ATOM     66  C   UNL A   1      36.766  34.158  29.995  1.00  0.00     0.135 A 
ATOM     67  C   UNL A   1      35.134  33.099  31.405  1.00  0.00     0.135 A 
ATOM     68  F   UNL A   1      38.038  34.394  29.634  1.00  0.00    -0.206 F 
ATOM     69  C   UNL A   1      35.758  34.842  29.324  1.00  0.00     0.059 A 
ATOM     70  C   UNL A   1      34.107  33.745  30.722  1.00  0.00     0.059 A 
ATOM     71  F   UNL A   1      34.800  32.281  32.416  1.00  0.00    -0.206 F 
ATOM     72  C   UNL A   1      34.431  34.637  29.702  1.00  0.00     0.060 A 
BRANCH  72  73
ATOM     73  S   UNL A   1      33.137  35.572  28.858  1.00  0.00     0.124 S 
ATOM     74  O   UNL A   1      32.456  34.518  28.115  1.00  0.00    -0.237 OA
ATOM     75  O   UNL A   1      32.390  36.146  29.973  1.00  0.00    -0.237 OA
ATOM     76  O   UNL A   1      33.882  36.530  28.048  1.00  0.00    -0.744 OA
ENDBRANCH  72  73
ENDBRANCH  51  65
BRANCH  52  77
ATOM     77  C   UNL A   1      44.042  28.722  35.755  1.00  0.00     0.058 A 
ATOM     78  C   UNL A   1      45.371  29.134  35.574  1.00  0.00     0.135 A 
ATOM     79  C   UNL A   1      43.799  27.673  36.654  1.00  0.00     0.135 A 
ATOM     80  F   UNL A   1      45.654  30.127  34.717  1.00  0.00    -0.206 F 
ATOM     81  C   UNL A   1      46.420  28.532  36.260  1.00  0.00     0.059 A 
ATOM     82  C   UNL A   1      44.830  27.072  37.370  1.00  0.00     0.059 A 
ATOM     83  F   UNL A   1      42.543  27.253  36.875  1.00  0.00    -0.206 F 
ATOM     84  C   UNL A   1      46.137  27.508  37.164  1.00  0.00     0.060 A 
BRANCH  84  85
ATOM     85  S   UNL A   1      47.501  26.793  38.110  1.00  0.00     0.124 S 
ATOM     86  O   UNL A   1      47.379  27.497  39.381  1.00  0.00    -0.237 OA
ATOM     87  O   UNL A   1      47.148  25.377  38.127  1.00  0.00    -0.237 OA
ATOM     88  O   UNL A   1      48.675  27.129  37.311  1.00  0.00    -0.744 OA
ENDBRANCH  84  85
ENDBRANCH  52  77
BRANCH  64  89
ATOM     89  C   UNL A   1      39.702  33.898  37.518  1.00  0.00     0.058 A 
ATOM     90  C   UNL A   1      38.831  33.532  38.556  1.00  0.00     0.135 A 
ATOM     91  C   UNL A   1      40.484  35.052  37.698  1.00  0.00     0.135 A 
ATOM     92  F   UNL A   1      38.054  32.444  38.434  1.00  0.00    -0.206 F 
ATOM     93  C   UNL A   1      38.724  34.291  39.717  1.00  0.00     0.059 A 
ATOM     94  C   UNL A   1      40.416  35.809  38.862  1.00  0.00     0.059 A 
ATOM     95  F   UNL A   1      41.340  35.444  36.741  1.00  0.00    -0.206 F 
ATOM     96  C   UNL A   1      39.524  35.426  39.862  1.00  0.00     0.060 A 
BRANCH  96  97
ATOM     97  S   UNL A   1      39.400  36.382  41.389  1.00  0.00     0.124 S 
ATOM     98  O   UNL A   1      38.415  35.612  42.140  1.00  0.00    -0.237 OA
ATOM     99  O   UNL A   1      40.767  36.331  41.900  1.00  0.00    -0.237 OA
ATOM    100  O   UNL A   1      38.956  37.695  40.934  1.00  0.00    -0.744 OA
ENDBRANCH  96  97
ENDBRANCH  64  89
ENDBRANCH  38  39
ENDBRANCH  30  33
ENDBRANCH  28  29
ENDBRANCH  27  28
ENDBRANCH  26  27
ENDBRANCH   3  26
TORSDOF 20
ENDMDL
