MODEL 1
REMARK VINA RESULT:     -14.6      0.000      0.000
REMARK SMILES Cc1ccc(-c2c(C)sc(NC(=O)[C@H]3CC=CC[C@H]3C(=O)NCCCNC(=O)c3ccc(-c4c5nc(c(-c6c(F)cc(S(=O)(=O)[O-])cc6F)c6ccc([nH]6)c(-c6c(F)cc(S(=O)(=O)[O-])cc6F)c6nc(c(-c7c(F)cc(S(=O)(=O)[O-])cc7F)c7ccc4[nH]7)C=C6)C=C5)cc3)c2C(N)=O)cc1
REMARK SMILES IDX 24 1 23 2 22 3 20 4 21 5 19 7 14 8 15 9 16 10 18 11 17 12
REMARK SMILES IDX 12 13 11 14 13 16 10 17 6 18 7 19 95 20 8 21 9 22 5 23 1 24
REMARK SMILES IDX 2 25 3 26 100 27 4 28 99 29 96 30 97 31 98 32 25 35 26 36
REMARK SMILES IDX 27 37 28 39 29 40 30 41 94 42 31 43 93 44 32 45 33 46 34 47
REMARK SMILES IDX 87 48 35 49 92 50 86 51 88 52 36 53 91 54 85 55 84 56 37 58
REMARK SMILES IDX 71 59 50 60 70 61 51 62 54 63 69 64 89 65 52 66 53 67 68 69
REMARK SMILES IDX 90 70 55 71 38 72 39 73 48 74 40 75 41 76 47 77 49 78 42 79
REMARK SMILES IDX 43 80 44 81 45 82 46 83 72 84 73 85 82 86 74 87 75 88 81 89
REMARK SMILES IDX 83 90 76 91 77 92 78 93 79 94 80 95 56 96 57 97 66 98 58 99
REMARK SMILES IDX 59 100 65 101 67 102 60 103 61 104 62 105 63 106 64 107
REMARK H PARENT 22 6 11 15 97 33 97 34 26 38 88 57 54 68
REMARK Flexibility Score: inf
ROOT
ATOM      1  C   UNL A   1      32.936  30.546  26.761  1.00  0.00     0.042 C 
ENDROOT
BRANCH   1   2
ATOM      2  C   UNL A   1      32.311  29.318  26.120  1.00  0.00     0.117 C 
BRANCH   2   3
ATOM      3  N   UNL A   1      31.326  29.733  25.148  1.00  0.00    -0.356 N 
ATOM      4  C   UNL A   1      30.802  29.066  24.096  1.00  0.00     0.224 C 
ATOM      5  O   UNL A   1      30.283  29.756  23.211  1.00  0.00    -0.275 OA
ATOM      6  H   UNL A   1      30.981  30.647  25.273  1.00  0.00     0.163 HD
BRANCH   4   7
ATOM      7  C   UNL A   1      30.761  27.547  23.975  1.00  0.00     0.095 C 
ATOM      8  C   UNL A   1      31.813  26.802  23.132  1.00  0.00     0.095 C 
ATOM      9  C   UNL A   1      31.211  25.467  22.643  1.00  0.00     0.041 C 
ATOM     10  C   UNL A   1      30.208  24.839  23.592  1.00  0.00    -0.030 C 
ATOM     11  C   UNL A   1      30.286  26.767  25.194  1.00  0.00     0.041 C 
ATOM     12  C   UNL A   1      29.828  25.397  24.756  1.00  0.00    -0.030 C 
BRANCH   8  13
ATOM     13  C   UNL A   1      33.309  26.773  23.542  1.00  0.00     0.229 C 
ATOM     14  N   UNL A   1      33.944  26.007  24.477  1.00  0.00    -0.317 N 
ATOM     15  H   UNL A   1      34.680  26.479  24.929  1.00  0.00     0.170 HD
ATOM     16  O   UNL A   1      34.045  27.628  23.014  1.00  0.00    -0.274 OA
BRANCH  14  17
ATOM     17  C   UNL A   1      33.774  24.711  24.922  1.00  0.00     0.109 A 
ATOM     18  C   UNL A   1      33.620  22.390  25.164  1.00  0.00     0.010 A 
ATOM     19  C   UNL A   1      33.280  22.841  26.429  1.00  0.00     0.012 A 
ATOM     20  C   UNL A   1      33.894  23.494  24.250  1.00  0.00     0.082 A 
ATOM     21  C   UNL A   1      33.122  22.129  27.729  1.00  0.00     0.057 C 
ATOM     22  S   UNL A   1      32.913  24.492  26.359  1.00  0.00    -0.122 S 
BRANCH  18  23
ATOM     23  C   UNL A   1      33.669  20.958  24.892  1.00  0.00    -0.016 A 
ATOM     24  C   UNL A   1      33.968  16.770  23.934  1.00  0.00     0.044 C 
ATOM     25  C   UNL A   1      33.868  18.230  24.262  1.00  0.00    -0.051 A 
ATOM     26  C   UNL A   1      32.628  18.883  24.220  1.00  0.00     0.004 A 
ATOM     27  C   UNL A   1      35.002  18.944  24.656  1.00  0.00     0.004 A 
ATOM     28  C   UNL A   1      32.527  20.244  24.527  1.00  0.00     0.009 A 
ATOM     29  C   UNL A   1      34.901  20.296  24.976  1.00  0.00     0.009 A 
ENDBRANCH  18  23
BRANCH  20  30
ATOM     30  C   UNL A   1      34.217  23.296  22.833  1.00  0.00     0.252 C 
ATOM     31  N   UNL A   1      33.168  23.112  21.987  1.00  0.00    -0.365 N 
ATOM     32  O   UNL A   1      35.359  23.310  22.396  1.00  0.00    -0.269 OA
ATOM     33  H   UNL A   1      32.248  23.101  22.338  1.00  0.00     0.159 HD
ATOM     34  H   UNL A   1      33.328  22.991  21.023  1.00  0.00     0.159 HD
ENDBRANCH  20  30
ENDBRANCH  14  17
ENDBRANCH   8  13
ENDBRANCH   4   7
ENDBRANCH   2   3
ENDBRANCH   1   2
BRANCH   1  35
ATOM     35  C   UNL A   1      34.174  30.251  27.582  1.00  0.00     0.118 C 
BRANCH  35  36
ATOM     36  N   UNL A   1      35.166  31.315  27.499  1.00  0.00    -0.352 N 
ATOM     37  C   UNL A   1      36.330  31.349  28.266  1.00  0.00     0.251 C 
ATOM     38  H   UNL A   1      35.005  32.051  26.866  1.00  0.00     0.163 HD
ATOM     39  O   UNL A   1      36.795  32.357  28.746  1.00  0.00    -0.269 OA
BRANCH  37  40
ATOM     40  C   UNL A   1      37.041  30.050  28.333  1.00  0.00     0.039 A 
ATOM     41  C   UNL A   1      37.183  29.457  29.590  1.00  0.00     0.014 A 
ATOM     42  C   UNL A   1      37.866  29.699  27.272  1.00  0.00     0.014 A 
ATOM     43  C   UNL A   1      38.278  28.629  29.833  1.00  0.00     0.010 A 
ATOM     44  C   UNL A   1      39.021  29.000  27.560  1.00  0.00     0.010 A 
ATOM     45  C   UNL A   1      39.249  28.478  28.844  1.00  0.00    -0.014 A 
BRANCH  45  46
ATOM     46  C   UNL A   1      40.570  27.888  29.069  1.00  0.00     0.031 A 
ATOM     47  C   UNL A   1      40.844  26.482  28.657  1.00  0.00     0.074 A 
ATOM     48  C   UNL A   1      41.594  28.617  29.572  1.00  0.00     0.049 A 
ATOM     49  N   UNL A   1      41.832  25.779  29.106  1.00  0.00    -0.248 NA
ATOM     50  C   UNL A   1      40.001  25.733  27.726  1.00  0.00     0.031 C 
ATOM     51  C   UNL A   1      43.016  28.294  29.471  1.00  0.00     0.029 A 
ATOM     52  N   UNL A   1      41.561  29.717  30.426  1.00  0.00    -0.354 N 
ATOM     53  C   UNL A   1      41.916  24.633  28.351  1.00  0.00     0.074 A 
ATOM     54  C   UNL A   1      40.733  24.634  27.524  1.00  0.00     0.031 C 
ATOM     55  C   UNL A   1      43.697  28.999  30.384  1.00  0.00     0.029 A 
ATOM     56  C   UNL A   1      42.731  29.702  31.205  1.00  0.00     0.049 A 
ATOM     57  H   UNL A   1      40.843  30.389  30.475  1.00  0.00     0.167 HD
ATOM     58  C   UNL A   1      43.028  23.850  28.414  1.00  0.00     0.037 A 
ATOM     59  C   UNL A   1      42.703  29.664  32.571  1.00  0.00     0.037 A 
ATOM     60  C   UNL A   1      44.005  24.366  29.360  1.00  0.00     0.049 A 
ATOM     61  C   UNL A   1      43.362  28.446  33.179  1.00  0.00     0.074 A 
ATOM     62  C   UNL A   1      45.127  25.165  29.211  1.00  0.00     0.029 A 
ATOM     63  N   UNL A   1      43.733  24.319  30.720  1.00  0.00    -0.354 N 
ATOM     64  N   UNL A   1      43.725  27.399  32.491  1.00  0.00    -0.248 NA
ATOM     65  C   UNL A   1      43.639  28.285  34.605  1.00  0.00     0.031 C 
ATOM     66  C   UNL A   1      45.518  25.622  30.492  1.00  0.00     0.029 A 
ATOM     67  C   UNL A   1      44.636  25.095  31.419  1.00  0.00     0.049 A 
ATOM     68  H   UNL A   1      43.000  23.804  31.129  1.00  0.00     0.167 HD
ATOM     69  C   UNL A   1      44.204  26.427  33.334  1.00  0.00     0.074 A 
ATOM     70  C   UNL A   1      44.170  27.048  34.644  1.00  0.00     0.031 C 
ATOM     71  C   UNL A   1      44.561  25.192  32.869  1.00  0.00     0.037 A 
BRANCH  58  72
ATOM     72  C   UNL A   1      43.313  22.756  27.417  1.00  0.00     0.058 A 
ATOM     73  C   UNL A   1      42.539  21.577  27.389  1.00  0.00     0.135 A 
ATOM     74  C   UNL A   1      44.369  22.804  26.486  1.00  0.00     0.135 A 
ATOM     75  F   UNL A   1      41.469  21.421  28.179  1.00  0.00    -0.206 F 
ATOM     76  C   UNL A   1      42.845  20.492  26.569  1.00  0.00     0.059 A 
ATOM     77  C   UNL A   1      44.728  21.709  25.694  1.00  0.00     0.059 A 
ATOM     78  F   UNL A   1      45.079  23.928  26.308  1.00  0.00    -0.206 F 
ATOM     79  C   UNL A   1      43.962  20.551  25.748  1.00  0.00     0.060 A 
BRANCH  79  80
ATOM     80  S   UNL A   1      44.407  19.093  24.787  1.00  0.00     0.124 S 
ATOM     81  O   UNL A   1      44.399  19.606  23.419  1.00  0.00    -0.237 OA
ATOM     82  O   UNL A   1      45.718  18.760  25.332  1.00  0.00    -0.237 OA
ATOM     83  O   UNL A   1      43.339  18.146  25.095  1.00  0.00    -0.744 OA
ENDBRANCH  79  80
ENDBRANCH  58  72
BRANCH  59  84
ATOM     84  C   UNL A   1      41.569  30.433  33.148  1.00  0.00     0.058 A 
ATOM     85  C   UNL A   1      41.746  31.825  33.259  1.00  0.00     0.135 A 
ATOM     86  C   UNL A   1      40.257  29.948  33.057  1.00  0.00     0.135 A 
ATOM     87  F   UNL A   1      42.982  32.334  33.394  1.00  0.00    -0.206 F 
ATOM     88  C   UNL A   1      40.694  32.710  33.052  1.00  0.00     0.059 A 
ATOM     89  C   UNL A   1      39.184  30.819  32.859  1.00  0.00     0.059 A 
ATOM     90  F   UNL A   1      40.029  28.629  32.973  1.00  0.00    -0.206 F 
ATOM     91  C   UNL A   1      39.436  32.189  32.754  1.00  0.00     0.060 A 
BRANCH  91  92
ATOM     92  S   UNL A   1      38.201  33.308  32.045  1.00  0.00     0.124 S 
ATOM     93  O   UNL A   1      37.041  32.438  31.895  1.00  0.00    -0.237 OA
ATOM     94  O   UNL A   1      38.086  34.334  33.084  1.00  0.00    -0.237 OA
ATOM     95  O   UNL A   1      38.826  33.748  30.804  1.00  0.00    -0.744 OA
ENDBRANCH  91  92
ENDBRANCH  59  84
BRANCH  71  96
ATOM     96  C   UNL A   1      44.932  23.971  33.686  1.00  0.00     0.058 A 
ATOM     97  C   UNL A   1      44.032  22.966  34.070  1.00  0.00     0.135 A 
ATOM     98  C   UNL A   1      46.295  23.709  33.988  1.00  0.00     0.135 A 
ATOM     99  F   UNL A   1      42.730  23.040  33.760  1.00  0.00    -0.206 F 
ATOM    100  C   UNL A   1      44.439  21.810  34.743  1.00  0.00     0.059 A 
ATOM    101  C   UNL A   1      46.730  22.539  34.608  1.00  0.00     0.059 A 
ATOM    102  F   UNL A   1      47.264  24.581  33.672  1.00  0.00    -0.206 F 
ATOM    103  C   UNL A   1      45.790  21.601  35.004  1.00  0.00     0.060 A 
BRANCH 103 104
ATOM    104  S   UNL A   1      46.341  20.079  35.798  1.00  0.00     0.124 S 
ATOM    105  O   UNL A   1      45.805  19.067  34.892  1.00  0.00    -0.237 OA
ATOM    106  O   UNL A   1      47.795  20.216  35.797  1.00  0.00    -0.237 OA
ATOM    107  O   UNL A   1      45.713  20.148  37.113  1.00  0.00    -0.744 OA
ENDBRANCH 103 104
ENDBRANCH  71  96
ENDBRANCH  45  46
ENDBRANCH  37  40
ENDBRANCH  35  36
ENDBRANCH   1  35
TORSDOF 17
ENDMDL
MODEL 2
REMARK VINA RESULT:     -14.5      4.377     11.276
REMARK SMILES Cc1ccc(-c2c(C)sc(NC(=O)[C@H]3CC=CC[C@H]3C(=O)NCCCNC(=O)c3ccc(-c4c5nc(c(-c6c(F)cc(S(=O)(=O)[O-])cc6F)c6ccc([nH]6)c(-c6c(F)cc(S(=O)(=O)[O-])cc6F)c6nc(c(-c7c(F)cc(S(=O)(=O)[O-])cc7F)c7ccc4[nH]7)C=C6)C=C5)cc3)c2C(N)=O)cc1
REMARK SMILES IDX 24 1 23 2 22 3 20 4 21 5 19 7 14 8 15 9 16 10 18 11 17 12
REMARK SMILES IDX 12 13 11 14 13 16 10 17 6 18 7 19 95 20 8 21 9 22 5 23 1 24
REMARK SMILES IDX 2 25 3 26 100 27 4 28 99 29 96 30 97 31 98 32 25 35 26 36
REMARK SMILES IDX 27 37 28 39 29 40 30 41 94 42 31 43 93 44 32 45 33 46 34 47
REMARK SMILES IDX 87 48 35 49 92 50 86 51 88 52 36 53 91 54 85 55 84 56 37 58
REMARK SMILES IDX 71 59 50 60 70 61 51 62 54 63 69 64 89 65 52 66 53 67 68 69
REMARK SMILES IDX 90 70 55 71 38 72 39 73 48 74 40 75 41 76 47 77 49 78 42 79
REMARK SMILES IDX 43 80 44 81 45 82 46 83 72 84 73 85 82 86 74 87 75 88 81 89
REMARK SMILES IDX 83 90 76 91 77 92 78 93 79 94 80 95 56 96 57 97 66 98 58 99
REMARK SMILES IDX 59 100 65 101 67 102 60 103 61 104 62 105 63 106 64 107
REMARK H PARENT 22 6 11 15 97 33 97 34 26 38 88 57 54 68
REMARK Flexibility Score: inf
ROOT
ATOM      1  C   UNL A   1      37.547  21.878  25.482  1.00  0.00     0.042 C 
ENDROOT
BRANCH   1   2
ATOM      2  C   UNL A   1      36.090  21.910  25.910  1.00  0.00     0.117 C 
BRANCH   2   3
ATOM      3  N   UNL A   1      35.443  20.684  25.503  1.00  0.00    -0.356 N 
ATOM      4  C   UNL A   1      34.163  20.452  25.136  1.00  0.00     0.224 C 
ATOM      5  O   UNL A   1      33.774  19.280  25.210  1.00  0.00    -0.275 OA
ATOM      6  H   UNL A   1      36.027  19.892  25.491  1.00  0.00     0.163 HD
BRANCH   4   7
ATOM      7  C   UNL A   1      33.218  21.517  24.590  1.00  0.00     0.095 C 
ATOM      8  C   UNL A   1      32.412  22.411  25.550  1.00  0.00     0.095 C 
ATOM      9  C   UNL A   1      31.131  22.891  24.833  1.00  0.00     0.041 C 
ATOM     10  C   UNL A   1      31.277  23.080  23.335  1.00  0.00    -0.030 C 
ATOM     11  C   UNL A   1      33.630  22.214  23.300  1.00  0.00     0.041 C 
ATOM     12  C   UNL A   1      32.409  22.821  22.655  1.00  0.00    -0.030 C 
BRANCH   8  13
ATOM     13  C   UNL A   1      33.109  23.442  26.477  1.00  0.00     0.229 C 
ATOM     14  N   UNL A   1      33.560  24.701  26.200  1.00  0.00    -0.317 N 
ATOM     15  H   UNL A   1      34.376  24.937  26.697  1.00  0.00     0.170 HD
ATOM     16  O   UNL A   1      33.388  23.053  27.627  1.00  0.00    -0.274 OA
BRANCH  14  17
ATOM     17  C   UNL A   1      33.114  25.712  25.374  1.00  0.00     0.109 A 
ATOM     18  C   UNL A   1      31.949  27.452  24.330  1.00  0.00     0.010 A 
ATOM     19  C   UNL A   1      33.036  27.279  23.489  1.00  0.00     0.012 A 
ATOM     20  C   UNL A   1      31.970  26.508  25.444  1.00  0.00     0.082 A 
ATOM     21  C   UNL A   1      33.565  28.105  22.367  1.00  0.00     0.057 C 
ATOM     22  S   UNL A   1      33.777  25.794  23.822  1.00  0.00    -0.122 S 
BRANCH  18  23
ATOM     23  C   UNL A   1      30.962  28.485  24.041  1.00  0.00    -0.016 A 
ATOM     24  C   UNL A   1      28.094  31.513  22.969  1.00  0.00     0.044 C 
ATOM     25  C   UNL A   1      29.095  30.459  23.336  1.00  0.00    -0.051 A 
ATOM     26  C   UNL A   1      30.115  30.739  24.256  1.00  0.00     0.004 A 
ATOM     27  C   UNL A   1      28.995  29.174  22.797  1.00  0.00     0.004 A 
ATOM     28  C   UNL A   1      31.050  29.759  24.605  1.00  0.00     0.009 A 
ATOM     29  C   UNL A   1      29.918  28.192  23.154  1.00  0.00     0.009 A 
ENDBRANCH  18  23
BRANCH  20  30
ATOM     30  C   UNL A   1      30.904  26.435  26.448  1.00  0.00     0.252 C 
ATOM     31  N   UNL A   1      29.913  25.530  26.222  1.00  0.00    -0.365 N 
ATOM     32  O   UNL A   1      30.884  27.121  27.460  1.00  0.00    -0.269 OA
ATOM     33  H   UNL A   1      29.928  24.976  25.408  1.00  0.00     0.159 HD
ATOM     34  H   UNL A   1      29.182  25.428  26.873  1.00  0.00     0.159 HD
ENDBRANCH  20  30
ENDBRANCH  14  17
ENDBRANCH   8  13
ENDBRANCH   4   7
ENDBRANCH   2   3
ENDBRANCH   1   2
BRANCH   1  35
ATOM     35  C   UNL A   1      38.320  23.132  25.829  1.00  0.00     0.118 C 
BRANCH  35  36
ATOM     36  N   UNL A   1      39.327  22.902  26.856  1.00  0.00    -0.352 N 
ATOM     37  C   UNL A   1      40.313  23.829  27.195  1.00  0.00     0.251 C 
ATOM     38  H   UNL A   1      39.312  22.044  27.337  1.00  0.00     0.163 HD
ATOM     39  O   UNL A   1      41.455  23.535  27.462  1.00  0.00    -0.269 OA
BRANCH  37  40
ATOM     40  C   UNL A   1      39.808  25.215  27.337  1.00  0.00     0.039 A 
ATOM     41  C   UNL A   1      40.431  26.210  26.578  1.00  0.00     0.014 A 
ATOM     42  C   UNL A   1      39.066  25.529  28.468  1.00  0.00     0.014 A 
ATOM     43  C   UNL A   1      40.455  27.518  27.058  1.00  0.00     0.010 A 
ATOM     44  C   UNL A   1      39.219  26.790  29.008  1.00  0.00     0.010 A 
ATOM     45  C   UNL A   1      39.930  27.789  28.322  1.00  0.00    -0.014 A 
BRANCH  45  46
ATOM     46  C   UNL A   1      40.152  29.035  29.057  1.00  0.00     0.031 A 
ATOM     47  C   UNL A   1      39.085  30.075  29.113  1.00  0.00     0.074 A 
ATOM     48  C   UNL A   1      41.284  29.244  29.770  1.00  0.00     0.049 A 
ATOM     49  N   UNL A   1      39.297  31.309  29.431  1.00  0.00    -0.248 NA
ATOM     50  C   UNL A   1      37.686  29.815  28.777  1.00  0.00     0.031 C 
ATOM     51  C   UNL A   1      41.462  30.221  30.842  1.00  0.00     0.029 A 
ATOM     52  N   UNL A   1      42.564  28.734  29.567  1.00  0.00    -0.354 N 
ATOM     53  C   UNL A   1      38.077  31.919  29.605  1.00  0.00     0.074 A 
ATOM     54  C   UNL A   1      37.102  30.955  29.154  1.00  0.00     0.031 C 
ATOM     55  C   UNL A   1      42.771  30.419  31.050  1.00  0.00     0.029 A 
ATOM     56  C   UNL A   1      43.492  29.683  30.031  1.00  0.00     0.049 A 
ATOM     57  H   UNL A   1      42.781  27.861  29.168  1.00  0.00     0.167 HD
ATOM     58  C   UNL A   1      37.998  33.133  30.216  1.00  0.00     0.037 A 
ATOM     59  C   UNL A   1      44.458  30.220  29.226  1.00  0.00     0.037 A 
ATOM     60  C   UNL A   1      39.309  33.644  30.583  1.00  0.00     0.049 A 
ATOM     61  C   UNL A   1      44.369  31.721  29.057  1.00  0.00     0.074 A 
ATOM     62  C   UNL A   1      40.038  33.605  31.761  1.00  0.00     0.029 A 
ATOM     63  N   UNL A   1      40.188  34.054  29.590  1.00  0.00    -0.354 N 
ATOM     64  N   UNL A   1      43.347  32.435  29.437  1.00  0.00    -0.248 NA
ATOM     65  C   UNL A   1      45.400  32.540  28.421  1.00  0.00     0.031 C 
ATOM     66  C   UNL A   1      41.373  33.969  31.467  1.00  0.00     0.029 A 
ATOM     67  C   UNL A   1      41.453  34.237  30.112  1.00  0.00     0.049 A 
ATOM     68  H   UNL A   1      39.943  34.194  28.647  1.00  0.00     0.167 HD
ATOM     69  C   UNL A   1      43.523  33.744  29.062  1.00  0.00     0.074 A 
ATOM     70  C   UNL A   1      44.845  33.765  28.468  1.00  0.00     0.031 C 
ATOM     71  C   UNL A   1      42.547  34.680  29.261  1.00  0.00     0.037 A 
BRANCH  58  72
ATOM     72  C   UNL A   1      36.696  33.720  30.698  1.00  0.00     0.058 A 
ATOM     73  C   UNL A   1      35.700  34.128  29.786  1.00  0.00     0.135 A 
ATOM     74  C   UNL A   1      36.393  33.940  32.056  1.00  0.00     0.135 A 
ATOM     75  F   UNL A   1      35.830  33.928  28.468  1.00  0.00    -0.206 F 
ATOM     76  C   UNL A   1      34.538  34.788  30.182  1.00  0.00     0.059 A 
ATOM     77  C   UNL A   1      35.262  34.648  32.473  1.00  0.00     0.059 A 
ATOM     78  F   UNL A   1      37.187  33.458  33.025  1.00  0.00    -0.206 F 
ATOM     79  C   UNL A   1      34.341  35.075  31.525  1.00  0.00     0.060 A 
BRANCH  79  80
ATOM     80  S   UNL A   1      32.891  36.034  32.001  1.00  0.00     0.124 S 
ATOM     81  O   UNL A   1      33.391  36.816  33.129  1.00  0.00    -0.237 OA
ATOM     82  O   UNL A   1      32.613  36.786  30.783  1.00  0.00    -0.237 OA
ATOM     83  O   UNL A   1      31.907  35.012  32.349  1.00  0.00    -0.744 OA
ENDBRANCH  79  80
ENDBRANCH  58  72
BRANCH  59  84
ATOM     84  C   UNL A   1      44.988  29.250  28.233  1.00  0.00     0.058 A 
ATOM     85  C   UNL A   1      46.001  28.383  28.681  1.00  0.00     0.135 A 
ATOM     86  C   UNL A   1      44.199  28.828  27.154  1.00  0.00     0.135 A 
ATOM     87  F   UNL A   1      46.813  28.761  29.683  1.00  0.00    -0.206 F 
ATOM     88  C   UNL A   1      46.077  27.065  28.242  1.00  0.00     0.059 A 
ATOM     89  C   UNL A   1      44.266  27.513  26.690  1.00  0.00     0.059 A 
ATOM     90  F   UNL A   1      43.235  29.625  26.670  1.00  0.00    -0.206 F 
ATOM     91  C   UNL A   1      45.136  26.619  27.316  1.00  0.00     0.060 A 
BRANCH  91  92
ATOM     92  S   UNL A   1      44.946  24.831  27.096  1.00  0.00     0.124 S 
ATOM     93  O   UNL A   1      44.066  24.751  25.936  1.00  0.00    -0.237 OA
ATOM     94  O   UNL A   1      46.327  24.403  26.866  1.00  0.00    -0.237 OA
ATOM     95  O   UNL A   1      44.364  24.401  28.361  1.00  0.00    -0.744 OA
ENDBRANCH  91  92
ENDBRANCH  59  84
BRANCH  71  96
ATOM     96  C   UNL A   1      42.519  36.106  28.748  1.00  0.00     0.058 A 
ATOM     97  C   UNL A   1      42.977  37.220  29.468  1.00  0.00     0.135 A 
ATOM     98  C   UNL A   1      42.148  36.367  27.402  1.00  0.00     0.135 A 
ATOM     99  F   UNL A   1      43.451  37.097  30.716  1.00  0.00    -0.206 F 
ATOM    100  C   UNL A   1      43.019  38.504  28.918  1.00  0.00     0.059 A 
ATOM    101  C   UNL A   1      42.235  37.629  26.817  1.00  0.00     0.059 A 
ATOM    102  F   UNL A   1      41.698  35.394  26.597  1.00  0.00    -0.206 F 
ATOM    103  C   UNL A   1      42.652  38.700  27.590  1.00  0.00     0.060 A 
BRANCH 103 104
ATOM    104  S   UNL A   1      42.778  40.335  26.840  1.00  0.00     0.124 S 
ATOM    105  O   UNL A   1      41.379  40.632  26.551  1.00  0.00    -0.237 OA
ATOM    106  O   UNL A   1      43.384  41.136  27.900  1.00  0.00    -0.237 OA
ATOM    107  O   UNL A   1      43.629  40.099  25.679  1.00  0.00    -0.744 OA
ENDBRANCH 103 104
ENDBRANCH  71  96
ENDBRANCH  45  46
ENDBRANCH  37  40
ENDBRANCH  35  36
ENDBRANCH   1  35
TORSDOF 17
ENDMDL
MODEL 3
REMARK VINA RESULT:     -14.0      4.301     10.961
REMARK SMILES Cc1ccc(-c2c(C)sc(NC(=O)[C@H]3CC=CC[C@H]3C(=O)NCCCNC(=O)c3ccc(-c4c5nc(c(-c6c(F)cc(S(=O)(=O)[O-])cc6F)c6ccc([nH]6)c(-c6c(F)cc(S(=O)(=O)[O-])cc6F)c6nc(c(-c7c(F)cc(S(=O)(=O)[O-])cc7F)c7ccc4[nH]7)C=C6)C=C5)cc3)c2C(N)=O)cc1
REMARK SMILES IDX 24 1 23 2 22 3 20 4 21 5 19 7 14 8 15 9 16 10 18 11 17 12
REMARK SMILES IDX 12 13 11 14 13 16 10 17 6 18 7 19 95 20 8 21 9 22 5 23 1 24
REMARK SMILES IDX 2 25 3 26 100 27 4 28 99 29 96 30 97 31 98 32 25 35 26 36
REMARK SMILES IDX 27 37 28 39 29 40 30 41 94 42 31 43 93 44 32 45 33 46 34 47
REMARK SMILES IDX 87 48 35 49 92 50 86 51 88 52 36 53 91 54 85 55 84 56 37 58
REMARK SMILES IDX 71 59 50 60 70 61 51 62 54 63 69 64 89 65 52 66 53 67 68 69
REMARK SMILES IDX 90 70 55 71 38 72 39 73 48 74 40 75 41 76 47 77 49 78 42 79
REMARK SMILES IDX 43 80 44 81 45 82 46 83 72 84 73 85 82 86 74 87 75 88 81 89
REMARK SMILES IDX 83 90 76 91 77 92 78 93 79 94 80 95 56 96 57 97 66 98 58 99
REMARK SMILES IDX 59 100 65 101 67 102 60 103 61 104 62 105 63 106 64 107
REMARK H PARENT 22 6 11 15 97 33 97 34 26 38 88 57 54 68
REMARK Flexibility Score: inf
ROOT
ATOM      1  C   UNL A   1      37.324  21.253  25.138  1.00  0.00     0.042 C 
ENDROOT
BRANCH   1   2
ATOM      2  C   UNL A   1      35.939  21.598  24.616  1.00  0.00     0.117 C 
BRANCH   2   3
ATOM      3  N   UNL A   1      35.043  20.492  24.864  1.00  0.00    -0.356 N 
ATOM      4  C   UNL A   1      33.714  20.482  25.107  1.00  0.00     0.224 C 
ATOM      5  O   UNL A   1      33.264  19.472  25.660  1.00  0.00    -0.275 OA
ATOM      6  H   UNL A   1      35.469  19.605  24.853  1.00  0.00     0.163 HD
BRANCH   4   7
ATOM      7  C   UNL A   1      32.755  21.593  24.691  1.00  0.00     0.095 C 
ATOM      8  C   UNL A   1      32.206  22.582  25.736  1.00  0.00     0.095 C 
ATOM      9  C   UNL A   1      30.847  23.128  25.245  1.00  0.00     0.041 C 
ATOM     10  C   UNL A   1      30.719  23.246  23.738  1.00  0.00    -0.030 C 
ATOM     11  C   UNL A   1      32.961  22.206  23.312  1.00  0.00     0.041 C 
ATOM     12  C   UNL A   1      31.682  22.877  22.874  1.00  0.00    -0.030 C 
BRANCH   8  13
ATOM     13  C   UNL A   1      33.132  23.594  26.461  1.00  0.00     0.229 C 
ATOM     14  N   UNL A   1      33.626  24.791  26.030  1.00  0.00    -0.317 N 
ATOM     15  H   UNL A   1      34.532  24.979  26.364  1.00  0.00     0.170 HD
ATOM     16  O   UNL A   1      33.577  23.242  27.571  1.00  0.00    -0.274 OA
BRANCH  14  17
ATOM     17  C   UNL A   1      33.124  25.794  25.225  1.00  0.00     0.109 A 
ATOM     18  C   UNL A   1      31.900  27.537  24.258  1.00  0.00     0.010 A 
ATOM     19  C   UNL A   1      32.895  27.319  23.319  1.00  0.00     0.012 A 
ATOM     20  C   UNL A   1      32.009  26.620  25.387  1.00  0.00     0.082 A 
ATOM     21  C   UNL A   1      33.328  28.106  22.129  1.00  0.00     0.057 C 
ATOM     22  S   UNL A   1      33.632  25.824  23.614  1.00  0.00    -0.122 S 
BRANCH  18  23
ATOM     23  C   UNL A   1      30.913  28.588  24.040  1.00  0.00    -0.016 A 
ATOM     24  C   UNL A   1      28.030  31.669  23.178  1.00  0.00     0.044 C 
ATOM     25  C   UNL A   1      29.035  30.596  23.472  1.00  0.00    -0.051 A 
ATOM     26  C   UNL A   1      30.108  30.847  24.339  1.00  0.00     0.004 A 
ATOM     27  C   UNL A   1      28.890  29.322  22.918  1.00  0.00     0.004 A 
ATOM     28  C   UNL A   1      31.048  29.850  24.619  1.00  0.00     0.009 A 
ATOM     29  C   UNL A   1      29.818  28.324  23.207  1.00  0.00     0.009 A 
ENDBRANCH  18  23
BRANCH  20  30
ATOM     30  C   UNL A   1      31.046  26.595  26.493  1.00  0.00     0.252 C 
ATOM     31  N   UNL A   1      31.286  27.441  27.531  1.00  0.00    -0.365 N 
ATOM     32  O   UNL A   1      30.054  25.880  26.506  1.00  0.00    -0.269 OA
ATOM     33  H   UNL A   1      32.084  28.018  27.521  1.00  0.00     0.159 HD
ATOM     34  H   UNL A   1      30.662  27.477  28.291  1.00  0.00     0.159 HD
ENDBRANCH  20  30
ENDBRANCH  14  17
ENDBRANCH   8  13
ENDBRANCH   4   7
ENDBRANCH   2   3
ENDBRANCH   1   2
BRANCH   1  35
ATOM     35  C   UNL A   1      38.096  22.442  25.670  1.00  0.00     0.118 C 
BRANCH  35  36
ATOM     36  N   UNL A   1      39.246  22.047  26.473  1.00  0.00    -0.352 N 
ATOM     37  C   UNL A   1      40.362  22.858  26.677  1.00  0.00     0.251 C 
ATOM     38  H   UNL A   1      39.235  21.158  26.894  1.00  0.00     0.163 HD
ATOM     39  O   UNL A   1      41.500  22.450  26.706  1.00  0.00    -0.269 OA
BRANCH  37  40
ATOM     40  C   UNL A   1      40.028  24.267  26.998  1.00  0.00     0.039 A 
ATOM     41  C   UNL A   1      40.495  25.255  26.127  1.00  0.00     0.014 A 
ATOM     42  C   UNL A   1      39.653  24.570  28.300  1.00  0.00     0.014 A 
ATOM     43  C   UNL A   1      40.755  26.532  26.623  1.00  0.00     0.010 A 
ATOM     44  C   UNL A   1      40.049  25.788  28.816  1.00  0.00     0.010 A 
ATOM     45  C   UNL A   1      40.622  26.771  27.991  1.00  0.00    -0.014 A 
BRANCH  45  46
ATOM     46  C   UNL A   1      41.136  27.959  28.674  1.00  0.00     0.031 A 
ATOM     47  C   UNL A   1      40.203  29.033  29.118  1.00  0.00     0.074 A 
ATOM     48  C   UNL A   1      42.446  28.078  28.995  1.00  0.00     0.049 A 
ATOM     49  N   UNL A   1      40.574  30.236  29.410  1.00  0.00    -0.248 NA
ATOM     50  C   UNL A   1      38.757  28.849  29.237  1.00  0.00     0.031 C 
ATOM     51  C   UNL A   1      43.011  28.979  29.998  1.00  0.00     0.029 A 
ATOM     52  N   UNL A   1      43.564  27.533  28.368  1.00  0.00    -0.354 N 
ATOM     53  C   UNL A   1      39.510  30.880  29.994  1.00  0.00     0.074 A 
ATOM     54  C   UNL A   1      38.389  29.985  29.835  1.00  0.00     0.031 C 
ATOM     55  C   UNL A   1      44.327  29.112  29.785  1.00  0.00     0.029 A 
ATOM     56  C   UNL A   1      44.644  28.414  28.554  1.00  0.00     0.049 A 
ATOM     57  H   UNL A   1      43.593  26.679  27.879  1.00  0.00     0.167 HD
ATOM     58  C   UNL A   1      39.698  32.056  30.655  1.00  0.00     0.037 A 
ATOM     59  C   UNL A   1      45.332  28.964  27.509  1.00  0.00     0.037 A 
ATOM     60  C   UNL A   1      41.085  32.492  30.606  1.00  0.00     0.049 A 
ATOM     61  C   UNL A   1      45.279  30.475  27.447  1.00  0.00     0.074 A 
ATOM     62  C   UNL A   1      42.147  32.350  31.485  1.00  0.00     0.029 A 
ATOM     63  N   UNL A   1      41.624  32.929  29.404  1.00  0.00    -0.354 N 
ATOM     64  N   UNL A   1      44.473  31.202  28.169  1.00  0.00    -0.248 NA
ATOM     65  C   UNL A   1      46.099  31.292  26.554  1.00  0.00     0.031 C 
ATOM     66  C   UNL A   1      43.338  32.680  30.795  1.00  0.00     0.029 A 
ATOM     67  C   UNL A   1      42.998  33.030  29.500  1.00  0.00     0.049 A 
ATOM     68  H   UNL A   1      41.100  33.137  28.597  1.00  0.00     0.167 HD
ATOM     69  C   UNL A   1      44.595  32.524  27.820  1.00  0.00     0.074 A 
ATOM     70  C   UNL A   1      45.658  32.532  26.835  1.00  0.00     0.031 C 
ATOM     71  C   UNL A   1      43.787  33.483  28.365  1.00  0.00     0.037 A 
BRANCH  58  72
ATOM     72  C   UNL A   1      38.653  32.661  31.557  1.00  0.00     0.058 A 
ATOM     73  C   UNL A   1      38.278  32.030  32.761  1.00  0.00     0.135 A 
ATOM     74  C   UNL A   1      37.959  33.850  31.260  1.00  0.00     0.135 A 
ATOM     75  F   UNL A   1      38.894  30.924  33.196  1.00  0.00    -0.206 F 
ATOM     76  C   UNL A   1      37.232  32.489  33.560  1.00  0.00     0.059 A 
ATOM     77  C   UNL A   1      36.871  34.299  32.015  1.00  0.00     0.059 A 
ATOM     78  F   UNL A   1      38.328  34.623  30.227  1.00  0.00    -0.206 F 
ATOM     79  C   UNL A   1      36.510  33.606  33.163  1.00  0.00     0.060 A 
BRANCH  79  80
ATOM     80  S   UNL A   1      35.086  34.109  34.147  1.00  0.00     0.124 S 
ATOM     81  O   UNL A   1      34.029  33.240  33.634  1.00  0.00    -0.237 OA
ATOM     82  O   UNL A   1      35.539  33.823  35.503  1.00  0.00    -0.237 OA
ATOM     83  O   UNL A   1      34.932  35.524  33.820  1.00  0.00    -0.744 OA
ENDBRANCH  79  80
ENDBRANCH  58  72
BRANCH  59  84
ATOM     84  C   UNL A   1      45.463  28.039  26.353  1.00  0.00     0.058 A 
ATOM     85  C   UNL A   1      46.545  27.140  26.387  1.00  0.00     0.135 A 
ATOM     86  C   UNL A   1      44.340  27.678  25.595  1.00  0.00     0.135 A 
ATOM     87  F   UNL A   1      47.662  27.461  27.062  1.00  0.00    -0.206 F 
ATOM     88  C   UNL A   1      46.431  25.846  25.893  1.00  0.00     0.059 A 
ATOM     89  C   UNL A   1      44.209  26.386  25.081  1.00  0.00     0.059 A 
ATOM     90  F   UNL A   1      43.290  28.507  25.508  1.00  0.00    -0.206 F 
ATOM     91  C   UNL A   1      45.218  25.454  25.330  1.00  0.00     0.060 A 
BRANCH  91  92
ATOM     92  S   UNL A   1      44.917  23.682  25.113  1.00  0.00     0.124 S 
ATOM     93  O   UNL A   1      43.544  23.655  24.623  1.00  0.00    -0.237 OA
ATOM     94  O   UNL A   1      45.940  23.316  24.131  1.00  0.00    -0.237 OA
ATOM     95  O   UNL A   1      45.120  23.144  26.452  1.00  0.00    -0.744 OA
ENDBRANCH  91  92
ENDBRANCH  59  84
BRANCH  71  96
ATOM     96  C   UNL A   1      43.679  34.938  27.957  1.00  0.00     0.058 A 
ATOM     97  C   UNL A   1      43.156  35.385  26.734  1.00  0.00     0.135 A 
ATOM     98  C   UNL A   1      43.982  35.961  28.894  1.00  0.00     0.135 A 
ATOM     99  F   UNL A   1      42.736  34.523  25.797  1.00  0.00    -0.206 F 
ATOM    100  C   UNL A   1      42.989  36.742  26.439  1.00  0.00     0.059 A 
ATOM    101  C   UNL A   1      43.771  37.315  28.643  1.00  0.00     0.059 A 
ATOM    102  F   UNL A   1      44.483  35.677  30.106  1.00  0.00    -0.206 F 
ATOM    103  C   UNL A   1      43.294  37.701  27.401  1.00  0.00     0.060 A 
BRANCH 103 104
ATOM    104  S   UNL A   1      43.007  39.449  27.068  1.00  0.00     0.124 S 
ATOM    105  O   UNL A   1      41.817  39.395  26.225  1.00  0.00    -0.237 OA
ATOM    106  O   UNL A   1      42.807  40.009  28.401  1.00  0.00    -0.237 OA
ATOM    107  O   UNL A   1      44.237  39.863  26.401  1.00  0.00    -0.744 OA
ENDBRANCH 103 104
ENDBRANCH  71  96
ENDBRANCH  45  46
ENDBRANCH  37  40
ENDBRANCH  35  36
ENDBRANCH   1  35
TORSDOF 17
ENDMDL
