MODEL 1
REMARK VINA RESULT:     -10.3      0.000      0.000
REMARK SMILES O=C(NCCCNC(=O)c1ccc(C[NH2+]Cc2cc(F)ccc2F)nc1)c1ccc(-c2c3nc(c(-c4c(F)cc(S(=O)(=O)[O-])cc4F)c4ccc([nH]4)c(-c4c(F)cc(S(=O)(=O)[O-])cc4F)c4nc(c(-c5c(F)cc(S(=O)(=O)[O-])cc5F)c5ccc2[nH]5)C=C4)C=C3)cc1
REMARK SMILES IDX 5 1 4 2 3 3 1 4 2 5 27 7 28 8 92 9 29 10 91 11 30 12 31 13
REMARK SMILES IDX 32 14 85 15 33 16 90 17 84 18 86 19 34 20 89 21 83 22 82 23
REMARK SMILES IDX 35 25 69 26 48 27 68 28 49 29 52 30 67 31 87 32 50 33 51 34
REMARK SMILES IDX 66 36 88 37 53 38 36 39 37 40 46 41 38 42 39 43 45 44 47 45
REMARK SMILES IDX 40 46 41 47 42 48 43 49 44 50 70 51 71 52 80 53 72 54 73 55
REMARK SMILES IDX 79 56 81 57 74 58 75 59 76 60 77 61 78 62 54 63 55 64 64 65
REMARK SMILES IDX 56 66 57 67 63 68 65 69 58 70 59 71 60 72 61 73 62 74 6 75
REMARK SMILES IDX 7 76 8 77 9 79 10 80 11 81 26 82 12 83 25 84 13 85 14 86
REMARK SMILES IDX 15 87 16 90 17 91 18 92 23 93 19 94 22 95 24 96 20 97 21 98
REMARK H PARENT 3 6 86 24 52 35 7 78 15 88 15 89
REMARK Flexibility Score: inf
ROOT
ATOM      1  C   UNL A   1      33.561  33.869  28.462  1.00  0.00     0.042 C 
ENDROOT
BRANCH   1   2
ATOM      2  C   UNL A   1      34.480  32.656  28.430  1.00  0.00     0.118 C 
BRANCH   2   3
ATOM      3  N   UNL A   1      33.768  31.421  28.132  1.00  0.00    -0.352 N 
ATOM      4  O   UNL A   1      33.479  29.293  27.473  1.00  0.00    -0.269 OA
ATOM      5  C   UNL A   1      34.244  30.153  27.902  1.00  0.00     0.251 C 
ATOM      6  H   UNL A   1      32.788  31.508  28.088  1.00  0.00     0.163 HD
BRANCH   5   7
ATOM      7  C   UNL A   1      35.665  29.822  28.156  1.00  0.00     0.039 A 
ATOM      8  C   UNL A   1      36.627  29.977  27.157  1.00  0.00     0.014 A 
ATOM      9  C   UNL A   1      36.050  29.399  29.433  1.00  0.00     0.014 A 
ATOM     10  C   UNL A   1      37.939  29.577  27.387  1.00  0.00     0.010 A 
ATOM     11  C   UNL A   1      37.389  29.085  29.691  1.00  0.00     0.010 A 
ATOM     12  C   UNL A   1      38.340  29.149  28.663  1.00  0.00    -0.014 A 
BRANCH  12  13
ATOM     13  C   UNL A   1      39.777  28.870  28.909  1.00  0.00     0.031 A 
ATOM     14  C   UNL A   1      40.398  27.557  28.522  1.00  0.00     0.074 A 
ATOM     15  C   UNL A   1      40.529  29.842  29.465  1.00  0.00     0.049 A 
ATOM     16  N   UNL A   1      41.641  27.170  28.649  1.00  0.00    -0.248 NA
ATOM     17  C   UNL A   1      39.514  26.543  27.924  1.00  0.00     0.031 C 
ATOM     18  C   UNL A   1      40.025  31.147  29.906  1.00  0.00     0.029 A 
ATOM     19  N   UNL A   1      41.870  29.896  29.742  1.00  0.00    -0.354 N 
ATOM     20  C   UNL A   1      41.689  25.866  28.169  1.00  0.00     0.074 A 
ATOM     21  C   UNL A   1      40.343  25.520  27.761  1.00  0.00     0.031 C 
ATOM     22  C   UNL A   1      41.049  31.888  30.353  1.00  0.00     0.029 A 
ATOM     23  C   UNL A   1      42.270  31.094  30.288  1.00  0.00     0.049 A 
ATOM     24  H   UNL A   1      42.488  29.151  29.566  1.00  0.00     0.167 HD
ATOM     25  C   UNL A   1      42.758  25.041  28.076  1.00  0.00     0.037 A 
ATOM     26  C   UNL A   1      43.481  31.504  30.707  1.00  0.00     0.037 A 
ATOM     27  C   UNL A   1      44.100  25.407  28.457  1.00  0.00     0.049 A 
ATOM     28  C   UNL A   1      44.647  30.568  30.583  1.00  0.00     0.074 A 
ATOM     29  C   UNL A   1      45.259  24.658  28.350  1.00  0.00     0.029 A 
ATOM     30  N   UNL A   1      44.462  26.622  29.020  1.00  0.00    -0.354 N 
ATOM     31  N   UNL A   1      44.677  29.353  30.091  1.00  0.00    -0.248 NA
ATOM     32  C   UNL A   1      45.943  31.054  31.077  1.00  0.00     0.031 C 
ATOM     33  C   UNL A   1      46.316  25.405  28.880  1.00  0.00     0.029 A 
ATOM     34  C   UNL A   1      45.821  26.634  29.285  1.00  0.00     0.049 A 
ATOM     35  H   UNL A   1      43.844  27.366  29.204  1.00  0.00     0.167 HD
ATOM     36  C   UNL A   1      45.994  28.930  30.211  1.00  0.00     0.074 A 
ATOM     37  C   UNL A   1      46.734  30.028  30.799  1.00  0.00     0.031 C 
ATOM     38  C   UNL A   1      46.539  27.736  29.874  1.00  0.00     0.037 A 
BRANCH  25  39
ATOM     39  C   UNL A   1      42.538  23.651  27.546  1.00  0.00     0.058 A 
ATOM     40  C   UNL A   1      42.552  23.375  26.170  1.00  0.00     0.135 A 
ATOM     41  C   UNL A   1      42.400  22.569  28.430  1.00  0.00     0.135 A 
ATOM     42  F   UNL A   1      42.667  24.376  25.282  1.00  0.00    -0.206 F 
ATOM     43  C   UNL A   1      42.431  22.076  25.688  1.00  0.00     0.059 A 
ATOM     44  C   UNL A   1      42.297  21.259  27.972  1.00  0.00     0.059 A 
ATOM     45  F   UNL A   1      42.378  22.778  29.756  1.00  0.00    -0.206 F 
ATOM     46  C   UNL A   1      42.308  21.023  26.597  1.00  0.00     0.060 A 
BRANCH  46  47
ATOM     47  S   UNL A   1      42.191  19.338  25.959  1.00  0.00     0.124 S 
ATOM     48  O   UNL A   1      43.043  19.414  24.775  1.00  0.00    -0.237 OA
ATOM     49  O   UNL A   1      42.717  18.545  27.066  1.00  0.00    -0.237 OA
ATOM     50  O   UNL A   1      40.765  19.171  25.695  1.00  0.00    -0.744 OA
ENDBRANCH  46  47
ENDBRANCH  25  39
BRANCH  26  51
ATOM     51  C   UNL A   1      43.639  32.856  31.303  1.00  0.00     0.058 A 
ATOM     52  C   UNL A   1      43.683  33.034  32.692  1.00  0.00     0.135 A 
ATOM     53  C   UNL A   1      43.762  33.993  30.490  1.00  0.00     0.135 A 
ATOM     54  F   UNL A   1      43.568  31.976  33.510  1.00  0.00    -0.206 F 
ATOM     55  C   UNL A   1      43.825  34.298  33.258  1.00  0.00     0.059 A 
ATOM     56  C   UNL A   1      43.931  35.263  31.031  1.00  0.00     0.059 A 
ATOM     57  F   UNL A   1      43.745  33.871  29.153  1.00  0.00    -0.206 F 
ATOM     58  C   UNL A   1      43.946  35.406  32.417  1.00  0.00     0.060 A 
BRANCH  58  59
ATOM     59  S   UNL A   1      44.168  37.040  33.152  1.00  0.00     0.124 S 
ATOM     60  O   UNL A   1      44.463  37.850  31.977  1.00  0.00    -0.237 OA
ATOM     61  O   UNL A   1      42.874  37.277  33.783  1.00  0.00    -0.237 OA
ATOM     62  O   UNL A   1      45.279  36.839  34.079  1.00  0.00    -0.744 OA
ENDBRANCH  58  59
ENDBRANCH  26  51
BRANCH  38  63
ATOM     63  C   UNL A   1      48.009  27.566  30.125  1.00  0.00     0.058 A 
ATOM     64  C   UNL A   1      48.486  27.018  31.325  1.00  0.00     0.135 A 
ATOM     65  C   UNL A   1      48.946  27.928  29.146  1.00  0.00     0.135 A 
ATOM     66  F   UNL A   1      47.627  26.665  32.295  1.00  0.00    -0.206 F 
ATOM     67  C   UNL A   1      49.847  26.857  31.557  1.00  0.00     0.059 A 
ATOM     68  C   UNL A   1      50.312  27.755  29.348  1.00  0.00     0.059 A 
ATOM     69  F   UNL A   1      48.538  28.449  27.978  1.00  0.00    -0.206 F 
ATOM     70  C   UNL A   1      50.753  27.231  30.563  1.00  0.00     0.060 A 
BRANCH  70  71
ATOM     71  S   UNL A   1      52.517  26.999  30.864  1.00  0.00     0.124 S 
ATOM     72  O   UNL A   1      52.515  25.816  31.717  1.00  0.00    -0.237 OA
ATOM     73  O   UNL A   1      53.046  26.809  29.517  1.00  0.00    -0.237 OA
ATOM     74  O   UNL A   1      52.915  28.243  31.516  1.00  0.00    -0.744 OA
ENDBRANCH  70  71
ENDBRANCH  38  63
ENDBRANCH  12  13
ENDBRANCH   5   7
ENDBRANCH   2   3
ENDBRANCH   1   2
BRANCH   1  75
ATOM     75  C   UNL A   1      34.142  35.065  29.204  1.00  0.00     0.118 C 
BRANCH  75  76
ATOM     76  N   UNL A   1      33.141  35.775  29.993  1.00  0.00    -0.352 N 
ATOM     77  C   UNL A   1      32.935  35.763  31.350  1.00  0.00     0.252 C 
ATOM     78  H   UNL A   1      32.525  36.343  29.477  1.00  0.00     0.163 HD
ATOM     79  O   UNL A   1      31.933  36.274  31.839  1.00  0.00    -0.269 OA
BRANCH  77  80
ATOM     80  C   UNL A   1      33.919  35.112  32.222  1.00  0.00     0.058 A 
ATOM     81  C   UNL A   1      33.718  33.826  32.721  1.00  0.00     0.017 A 
ATOM     82  C   UNL A   1      35.059  35.802  32.590  1.00  0.00     0.125 A 
ATOM     83  C   UNL A   1      34.612  33.324  33.660  1.00  0.00     0.030 A 
ATOM     84  N   UNL A   1      35.943  35.335  33.503  1.00  0.00    -0.255 NA
ATOM     85  C   UNL A   1      35.688  34.122  34.058  1.00  0.00     0.094 A 
BRANCH  85  86
ATOM     86  C   UNL A   1      36.552  33.681  35.222  1.00  0.00     0.318 C 
BRANCH  86  87
ATOM     87  N   UNL A   1      37.269  32.423  34.987  1.00  0.00    -0.337 N 
ATOM     88  H   UNL A   1      36.608  31.648  35.042  1.00  0.00     0.346 HD
ATOM     89  H   UNL A   1      37.994  32.328  35.698  1.00  0.00     0.346 HD
BRANCH  87  90
ATOM     90  C   UNL A   1      37.906  32.414  33.670  1.00  0.00     0.300 C 
BRANCH  90  91
ATOM     91  C   UNL A   1      38.787  31.211  33.450  1.00  0.00     0.045 A 
ATOM     92  C   UNL A   1      38.246  30.012  32.964  1.00  0.00     0.051 A 
ATOM     93  C   UNL A   1      40.154  31.245  33.758  1.00  0.00     0.132 A 
ATOM     94  C   UNL A   1      39.061  28.893  32.806  1.00  0.00     0.123 A 
ATOM     95  C   UNL A   1      40.962  30.118  33.618  1.00  0.00     0.043 A 
ATOM     96  F   UNL A   1      40.709  32.376  34.213  1.00  0.00    -0.206 F 
ATOM     97  F   UNL A   1      38.533  27.758  32.330  1.00  0.00    -0.207 F 
ATOM     98  C   UNL A   1      40.411  28.932  33.138  1.00  0.00     0.042 A 
ENDBRANCH  90  91
ENDBRANCH  87  90
ENDBRANCH  86  87
ENDBRANCH  85  86
ENDBRANCH  77  80
ENDBRANCH  75  76
ENDBRANCH   1  75
TORSDOF 17
ENDMDL
MODEL 2
REMARK VINA RESULT:     -10.1      5.507     11.789
REMARK SMILES O=C(NCCCNC(=O)c1ccc(C[NH2+]Cc2cc(F)ccc2F)nc1)c1ccc(-c2c3nc(c(-c4c(F)cc(S(=O)(=O)[O-])cc4F)c4ccc([nH]4)c(-c4c(F)cc(S(=O)(=O)[O-])cc4F)c4nc(c(-c5c(F)cc(S(=O)(=O)[O-])cc5F)c5ccc2[nH]5)C=C4)C=C3)cc1
REMARK SMILES IDX 5 1 4 2 3 3 1 4 2 5 27 7 28 8 92 9 29 10 91 11 30 12 31 13
REMARK SMILES IDX 32 14 85 15 33 16 90 17 84 18 86 19 34 20 89 21 83 22 82 23
REMARK SMILES IDX 35 25 69 26 48 27 68 28 49 29 52 30 67 31 87 32 50 33 51 34
REMARK SMILES IDX 66 36 88 37 53 38 36 39 37 40 46 41 38 42 39 43 45 44 47 45
REMARK SMILES IDX 40 46 41 47 42 48 43 49 44 50 70 51 71 52 80 53 72 54 73 55
REMARK SMILES IDX 79 56 81 57 74 58 75 59 76 60 77 61 78 62 54 63 55 64 64 65
REMARK SMILES IDX 56 66 57 67 63 68 65 69 58 70 59 71 60 72 61 73 62 74 6 75
REMARK SMILES IDX 7 76 8 77 9 79 10 80 11 81 26 82 12 83 25 84 13 85 14 86
REMARK SMILES IDX 15 87 16 90 17 91 18 92 23 93 19 94 22 95 24 96 20 97 21 98
REMARK H PARENT 3 6 86 24 52 35 7 78 15 88 15 89
REMARK Flexibility Score: inf
ROOT
ATOM      1  C   UNL A   1      38.156  23.783  26.465  1.00  0.00     0.042 C 
ENDROOT
BRANCH   1   2
ATOM      2  C   UNL A   1      39.604  23.660  26.918  1.00  0.00     0.118 C 
BRANCH   2   3
ATOM      3  N   UNL A   1      40.535  24.302  26.000  1.00  0.00    -0.352 N 
ATOM      4  O   UNL A   1      41.707  25.967  25.053  1.00  0.00    -0.269 OA
ATOM      5  C   UNL A   1      41.100  25.554  26.037  1.00  0.00     0.251 C 
ATOM      6  H   UNL A   1      40.803  23.751  25.229  1.00  0.00     0.163 HD
BRANCH   5   7
ATOM      7  C   UNL A   1      40.971  26.405  27.242  1.00  0.00     0.039 A 
ATOM      8  C   UNL A   1      41.761  27.544  27.404  1.00  0.00     0.014 A 
ATOM      9  C   UNL A   1      40.004  26.086  28.203  1.00  0.00     0.014 A 
ATOM     10  C   UNL A   1      41.689  28.278  28.582  1.00  0.00     0.010 A 
ATOM     11  C   UNL A   1      39.868  26.881  29.346  1.00  0.00     0.010 A 
ATOM     12  C   UNL A   1      40.725  27.970  29.556  1.00  0.00    -0.014 A 
BRANCH  12  13
ATOM     13  C   UNL A   1      40.580  28.864  30.732  1.00  0.00     0.031 A 
ATOM     14  C   UNL A   1      41.478  28.735  31.931  1.00  0.00     0.074 A 
ATOM     15  C   UNL A   1      39.634  29.825  30.690  1.00  0.00     0.049 A 
ATOM     16  N   UNL A   1      41.492  29.452  33.024  1.00  0.00    -0.248 NA
ATOM     17  C   UNL A   1      42.482  27.660  31.908  1.00  0.00     0.031 C 
ATOM     18  C   UNL A   1      38.688  30.026  29.587  1.00  0.00     0.029 A 
ATOM     19  N   UNL A   1      39.320  30.820  31.579  1.00  0.00    -0.354 N 
ATOM     20  C   UNL A   1      42.488  28.909  33.828  1.00  0.00     0.074 A 
ATOM     21  C   UNL A   1      43.048  27.788  33.102  1.00  0.00     0.031 C 
ATOM     22  C   UNL A   1      37.932  31.103  29.844  1.00  0.00     0.029 A 
ATOM     23  C   UNL A   1      38.297  31.635  31.151  1.00  0.00     0.049 A 
ATOM     24  H   UNL A   1      39.782  30.941  32.439  1.00  0.00     0.167 HD
ATOM     25  C   UNL A   1      42.896  29.313  35.053  1.00  0.00     0.037 A 
ATOM     26  C   UNL A   1      37.704  32.683  31.751  1.00  0.00     0.037 A 
ATOM     27  C   UNL A   1      42.353  30.450  35.754  1.00  0.00     0.049 A 
ATOM     28  C   UNL A   1      38.185  33.111  33.107  1.00  0.00     0.074 A 
ATOM     29  C   UNL A   1      42.738  30.971  36.978  1.00  0.00     0.029 A 
ATOM     30  N   UNL A   1      41.308  31.240  35.297  1.00  0.00    -0.354 N 
ATOM     31  N   UNL A   1      39.154  32.606  33.832  1.00  0.00    -0.248 NA
ATOM     32  C   UNL A   1      37.490  34.245  33.730  1.00  0.00     0.031 C 
ATOM     33  C   UNL A   1      41.904  32.053  37.278  1.00  0.00     0.029 A 
ATOM     34  C   UNL A   1      41.022  32.229  36.224  1.00  0.00     0.049 A 
ATOM     35  H   UNL A   1      40.839  31.116  34.440  1.00  0.00     0.167 HD
ATOM     36  C   UNL A   1      39.188  33.362  34.995  1.00  0.00     0.074 A 
ATOM     37  C   UNL A   1      38.160  34.375  34.866  1.00  0.00     0.031 C 
ATOM     38  C   UNL A   1      39.992  33.226  36.078  1.00  0.00     0.037 A 
BRANCH  25  39
ATOM     39  C   UNL A   1      43.982  28.528  35.735  1.00  0.00     0.058 A 
ATOM     40  C   UNL A   1      43.690  27.448  36.583  1.00  0.00     0.135 A 
ATOM     41  C   UNL A   1      45.332  28.802  35.466  1.00  0.00     0.135 A 
ATOM     42  F   UNL A   1      42.415  27.153  36.885  1.00  0.00    -0.206 F 
ATOM     43  C   UNL A   1      44.698  26.673  37.146  1.00  0.00     0.059 A 
ATOM     44  C   UNL A   1      46.358  28.028  36.001  1.00  0.00     0.059 A 
ATOM     45  F   UNL A   1      45.667  29.825  34.662  1.00  0.00    -0.206 F 
ATOM     46  C   UNL A   1      46.030  26.967  36.845  1.00  0.00     0.060 A 
BRANCH  46  47
ATOM     47  S   UNL A   1      47.327  25.928  37.552  1.00  0.00     0.124 S 
ATOM     48  O   UNL A   1      46.611  24.673  37.766  1.00  0.00    -0.237 OA
ATOM     49  O   UNL A   1      48.328  25.911  36.489  1.00  0.00    -0.237 OA
ATOM     50  O   UNL A   1      47.715  26.643  38.763  1.00  0.00    -0.744 OA
ENDBRANCH  46  47
ENDBRANCH  25  39
BRANCH  26  51
ATOM     51  C   UNL A   1      36.577  33.380  31.080  1.00  0.00     0.058 A 
ATOM     52  C   UNL A   1      36.794  34.205  29.968  1.00  0.00     0.135 A 
ATOM     53  C   UNL A   1      35.258  33.222  31.533  1.00  0.00     0.135 A 
ATOM     54  F   UNL A   1      38.039  34.388  29.499  1.00  0.00    -0.206 F 
ATOM     55  C   UNL A   1      35.744  34.865  29.337  1.00  0.00     0.059 A 
ATOM     56  C   UNL A   1      34.190  33.849  30.904  1.00  0.00     0.059 A 
ATOM     57  F   UNL A   1      34.998  32.426  32.583  1.00  0.00    -0.206 F 
ATOM     58  C   UNL A   1      34.445  34.682  29.815  1.00  0.00     0.060 A 
BRANCH  58  59
ATOM     59  S   UNL A   1      33.079  35.510  28.973  1.00  0.00     0.124 S 
ATOM     60  O   UNL A   1      32.491  34.408  28.220  1.00  0.00    -0.237 OA
ATOM     61  O   UNL A   1      32.286  36.017  30.088  1.00  0.00    -0.237 OA
ATOM     62  O   UNL A   1      33.751  36.533  28.178  1.00  0.00    -0.744 OA
ENDBRANCH  58  59
ENDBRANCH  26  51
BRANCH  38  63
ATOM     63  C   UNL A   1      39.794  34.204  37.198  1.00  0.00     0.058 A 
ATOM     64  C   UNL A   1      39.008  33.885  38.316  1.00  0.00     0.135 A 
ATOM     65  C   UNL A   1      40.419  35.460  37.168  1.00  0.00     0.135 A 
ATOM     66  F   UNL A   1      38.383  32.698  38.385  1.00  0.00    -0.206 F 
ATOM     67  C   UNL A   1      38.826  34.789  39.356  1.00  0.00     0.059 A 
ATOM     68  C   UNL A   1      40.268  36.372  38.208  1.00  0.00     0.059 A 
ATOM     69  F   UNL A   1      41.186  35.808  36.124  1.00  0.00    -0.206 F 
ATOM     70  C   UNL A   1      39.459  36.032  39.291  1.00  0.00     0.060 A 
BRANCH  70  71
ATOM     71  S   UNL A   1      39.235  37.191  40.656  1.00  0.00     0.124 S 
ATOM     72  O   UNL A   1      38.303  38.151  40.075  1.00  0.00    -0.237 OA
ATOM     73  O   UNL A   1      38.694  36.338  41.710  1.00  0.00    -0.237 OA
ATOM     74  O   UNL A   1      40.585  37.692  40.898  1.00  0.00    -0.744 OA
ENDBRANCH  70  71
ENDBRANCH  38  63
ENDBRANCH  12  13
ENDBRANCH   5   7
ENDBRANCH   2   3
ENDBRANCH   1   2
BRANCH   1  75
ATOM     75  C   UNL A   1      37.727  22.713  25.469  1.00  0.00     0.118 C 
BRANCH  75  76
ATOM     76  N   UNL A   1      36.571  21.951  25.928  1.00  0.00    -0.352 N 
ATOM     77  C   UNL A   1      35.235  22.240  25.804  1.00  0.00     0.252 C 
ATOM     78  H   UNL A   1      36.779  21.110  26.395  1.00  0.00     0.163 HD
ATOM     79  O   UNL A   1      34.391  21.585  26.406  1.00  0.00    -0.269 OA
BRANCH  77  80
ATOM     80  C   UNL A   1      34.816  23.360  24.954  1.00  0.00     0.058 A 
ATOM     81  C   UNL A   1      34.578  24.629  25.478  1.00  0.00     0.017 A 
ATOM     82  C   UNL A   1      34.617  23.147  23.602  1.00  0.00     0.125 A 
ATOM     83  C   UNL A   1      34.040  25.607  24.649  1.00  0.00     0.030 A 
ATOM     84  N   UNL A   1      34.093  24.082  22.775  1.00  0.00    -0.255 NA
ATOM     85  C   UNL A   1      33.772  25.286  23.316  1.00  0.00     0.094 A 
BRANCH  85  86
ATOM     86  C   UNL A   1      33.001  26.266  22.454  1.00  0.00     0.318 C 
BRANCH  86  87
ATOM     87  N   UNL A   1      32.168  27.201  23.217  1.00  0.00    -0.337 N 
ATOM     88  H   UNL A   1      32.147  28.098  22.733  1.00  0.00     0.346 HD
ATOM     89  H   UNL A   1      32.570  27.304  24.149  1.00  0.00     0.346 HD
BRANCH  87  90
ATOM     90  C   UNL A   1      30.800  26.701  23.355  1.00  0.00     0.300 C 
BRANCH  90  91
ATOM     91  C   UNL A   1      29.758  27.744  23.042  1.00  0.00     0.045 A 
ATOM     92  C   UNL A   1      30.118  28.945  22.414  1.00  0.00     0.051 A 
ATOM     93  C   UNL A   1      28.416  27.561  23.401  1.00  0.00     0.132 A 
ATOM     94  C   UNL A   1      29.155  29.919  22.167  1.00  0.00     0.123 A 
ATOM     95  C   UNL A   1      27.458  28.547  23.172  1.00  0.00     0.043 A 
ATOM     96  F   UNL A   1      28.031  26.422  23.992  1.00  0.00    -0.206 F 
ATOM     97  F   UNL A   1      29.512  31.056  21.556  1.00  0.00    -0.207 F 
ATOM     98  C   UNL A   1      27.830  29.736  22.550  1.00  0.00     0.042 A 
ENDBRANCH  90  91
ENDBRANCH  87  90
ENDBRANCH  86  87
ENDBRANCH  85  86
ENDBRANCH  77  80
ENDBRANCH  75  76
ENDBRANCH   1  75
TORSDOF 17
ENDMDL
MODEL 3
REMARK VINA RESULT:     -10.0      5.056     11.377
REMARK SMILES O=C(NCCCNC(=O)c1ccc(C[NH2+]Cc2cc(F)ccc2F)nc1)c1ccc(-c2c3nc(c(-c4c(F)cc(S(=O)(=O)[O-])cc4F)c4ccc([nH]4)c(-c4c(F)cc(S(=O)(=O)[O-])cc4F)c4nc(c(-c5c(F)cc(S(=O)(=O)[O-])cc5F)c5ccc2[nH]5)C=C4)C=C3)cc1
REMARK SMILES IDX 5 1 4 2 3 3 1 4 2 5 27 7 28 8 92 9 29 10 91 11 30 12 31 13
REMARK SMILES IDX 32 14 85 15 33 16 90 17 84 18 86 19 34 20 89 21 83 22 82 23
REMARK SMILES IDX 35 25 69 26 48 27 68 28 49 29 52 30 67 31 87 32 50 33 51 34
REMARK SMILES IDX 66 36 88 37 53 38 36 39 37 40 46 41 38 42 39 43 45 44 47 45
REMARK SMILES IDX 40 46 41 47 42 48 43 49 44 50 70 51 71 52 80 53 72 54 73 55
REMARK SMILES IDX 79 56 81 57 74 58 75 59 76 60 77 61 78 62 54 63 55 64 64 65
REMARK SMILES IDX 56 66 57 67 63 68 65 69 58 70 59 71 60 72 61 73 62 74 6 75
REMARK SMILES IDX 7 76 8 77 9 79 10 80 11 81 26 82 12 83 25 84 13 85 14 86
REMARK SMILES IDX 15 87 16 90 17 91 18 92 23 93 19 94 22 95 24 96 20 97 21 98
REMARK H PARENT 3 6 86 24 52 35 7 78 15 88 15 89
REMARK Flexibility Score: inf
ROOT
ATOM      1  C   UNL A   1      37.256  23.586  25.536  1.00  0.00     0.042 C 
ENDROOT
BRANCH   1   2
ATOM      2  C   UNL A   1      38.205  24.293  26.493  1.00  0.00     0.118 C 
BRANCH   2   3
ATOM      3  N   UNL A   1      39.596  24.214  26.065  1.00  0.00    -0.352 N 
ATOM      4  O   UNL A   1      41.732  24.855  25.806  1.00  0.00    -0.269 OA
ATOM      5  C   UNL A   1      40.686  24.961  26.440  1.00  0.00     0.251 C 
ATOM      6  H   UNL A   1      39.784  23.512  25.400  1.00  0.00     0.163 HD
BRANCH   5   7
ATOM      7  C   UNL A   1      40.604  25.892  27.588  1.00  0.00     0.039 A 
ATOM      8  C   UNL A   1      41.451  26.998  27.676  1.00  0.00     0.014 A 
ATOM      9  C   UNL A   1      39.626  25.685  28.568  1.00  0.00     0.014 A 
ATOM     10  C   UNL A   1      41.419  27.809  28.805  1.00  0.00     0.010 A 
ATOM     11  C   UNL A   1      39.534  26.557  29.658  1.00  0.00     0.010 A 
ATOM     12  C   UNL A   1      40.444  27.613  29.796  1.00  0.00    -0.014 A 
BRANCH  12  13
ATOM     13  C   UNL A   1      40.348  28.587  30.913  1.00  0.00     0.031 A 
ATOM     14  C   UNL A   1      41.253  28.499  32.110  1.00  0.00     0.074 A 
ATOM     15  C   UNL A   1      39.442  29.581  30.815  1.00  0.00     0.049 A 
ATOM     16  N   UNL A   1      41.308  29.285  33.154  1.00  0.00    -0.248 NA
ATOM     17  C   UNL A   1      42.213  27.385  32.149  1.00  0.00     0.031 C 
ATOM     18  C   UNL A   1      38.492  29.748  29.710  1.00  0.00     0.029 A 
ATOM     19  N   UNL A   1      39.177  30.643  31.640  1.00  0.00    -0.354 N 
ATOM     20  C   UNL A   1      42.289  28.755  33.983  1.00  0.00     0.074 A 
ATOM     21  C   UNL A   1      42.796  27.567  33.328  1.00  0.00     0.031 C 
ATOM     22  C   UNL A   1      37.783  30.870  29.902  1.00  0.00     0.029 A 
ATOM     23  C   UNL A   1      38.184  31.470  31.168  1.00  0.00     0.049 A 
ATOM     24  H   UNL A   1      39.653  30.801  32.486  1.00  0.00     0.167 HD
ATOM     25  C   UNL A   1      42.727  29.221  35.177  1.00  0.00     0.037 A 
ATOM     26  C   UNL A   1      37.640  32.579  31.703  1.00  0.00     0.037 A 
ATOM     27  C   UNL A   1      42.237  30.423  35.806  1.00  0.00     0.049 A 
ATOM     28  C   UNL A   1      38.152  33.073  33.024  1.00  0.00     0.074 A 
ATOM     29  C   UNL A   1      42.656  31.005  36.990  1.00  0.00     0.029 A 
ATOM     30  N   UNL A   1      41.220  31.223  35.307  1.00  0.00    -0.354 N 
ATOM     31  N   UNL A   1      39.107  32.577  33.772  1.00  0.00    -0.248 NA
ATOM     32  C   UNL A   1      37.510  34.273  33.577  1.00  0.00     0.031 C 
ATOM     33  C   UNL A   1      41.870  32.138  37.225  1.00  0.00     0.029 A 
ATOM     34  C   UNL A   1      40.984  32.281  36.169  1.00  0.00     0.049 A 
ATOM     35  H   UNL A   1      40.738  31.063  34.463  1.00  0.00     0.167 HD
ATOM     36  C   UNL A   1      39.184  33.406  34.884  1.00  0.00     0.074 A 
ATOM     37  C   UNL A   1      38.197  34.450  34.696  1.00  0.00     0.031 C 
ATOM     38  C   UNL A   1      39.994  33.308  35.966  1.00  0.00     0.037 A 
BRANCH  25  39
ATOM     39  C   UNL A   1      43.787  28.438  35.899  1.00  0.00     0.058 A 
ATOM     40  C   UNL A   1      43.464  27.363  36.743  1.00  0.00     0.135 A 
ATOM     41  C   UNL A   1      45.147  28.709  35.675  1.00  0.00     0.135 A 
ATOM     42  F   UNL A   1      42.180  27.071  37.002  1.00  0.00    -0.206 F 
ATOM     43  C   UNL A   1      44.452  26.589  37.344  1.00  0.00     0.059 A 
ATOM     44  C   UNL A   1      46.152  27.936  36.250  1.00  0.00     0.059 A 
ATOM     45  F   UNL A   1      45.510  29.727  34.878  1.00  0.00    -0.206 F 
ATOM     46  C   UNL A   1      45.793  26.880  37.088  1.00  0.00     0.060 A 
BRANCH  46  47
ATOM     47  S   UNL A   1      47.064  25.843  37.844  1.00  0.00     0.124 S 
ATOM     48  O   UNL A   1      46.826  26.081  39.265  1.00  0.00    -0.237 OA
ATOM     49  O   UNL A   1      46.712  24.512  37.359  1.00  0.00    -0.237 OA
ATOM     50  O   UNL A   1      48.310  26.390  37.316  1.00  0.00    -0.744 OA
ENDBRANCH  46  47
ENDBRANCH  25  39
BRANCH  26  51
ATOM     51  C   UNL A   1      36.535  33.276  30.996  1.00  0.00     0.058 A 
ATOM     52  C   UNL A   1      36.771  34.008  29.825  1.00  0.00     0.135 A 
ATOM     53  C   UNL A   1      35.217  33.210  31.476  1.00  0.00     0.135 A 
ATOM     54  F   UNL A   1      38.015  34.100  29.330  1.00  0.00    -0.206 F 
ATOM     55  C   UNL A   1      35.741  34.668  29.161  1.00  0.00     0.059 A 
ATOM     56  C   UNL A   1      34.168  33.839  30.816  1.00  0.00     0.059 A 
ATOM     57  F   UNL A   1      34.938  32.505  32.584  1.00  0.00    -0.206 F 
ATOM     58  C   UNL A   1      34.443  34.578  29.667  1.00  0.00     0.060 A 
BRANCH  58  59
ATOM     59  S   UNL A   1      33.102  35.405  28.783  1.00  0.00     0.124 S 
ATOM     60  O   UNL A   1      33.832  36.414  28.026  1.00  0.00    -0.237 OA
ATOM     61  O   UNL A   1      32.524  34.315  28.005  1.00  0.00    -0.237 OA
ATOM     62  O   UNL A   1      32.257  35.910  29.861  1.00  0.00    -0.744 OA
ENDBRANCH  58  59
ENDBRANCH  26  51
BRANCH  38  63
ATOM     63  C   UNL A   1      39.848  34.364  37.022  1.00  0.00     0.058 A 
ATOM     64  C   UNL A   1      40.535  35.584  36.934  1.00  0.00     0.135 A 
ATOM     65  C   UNL A   1      38.990  34.166  38.115  1.00  0.00     0.135 A 
ATOM     66  F   UNL A   1      41.374  35.815  35.911  1.00  0.00    -0.206 F 
ATOM     67  C   UNL A   1      40.398  36.564  37.910  1.00  0.00     0.059 A 
ATOM     68  C   UNL A   1      38.821  35.143  39.091  1.00  0.00     0.059 A 
ATOM     69  F   UNL A   1      38.305  33.019  38.238  1.00  0.00    -0.206 F 
ATOM     70  C   UNL A   1      39.539  36.333  38.986  1.00  0.00     0.060 A 
BRANCH  70  71
ATOM     71  S   UNL A   1      39.350  37.621  40.236  1.00  0.00     0.124 S 
ATOM     72  O   UNL A   1      38.266  38.418  39.674  1.00  0.00    -0.237 OA
ATOM     73  O   UNL A   1      39.018  36.853  41.433  1.00  0.00    -0.237 OA
ATOM     74  O   UNL A   1      40.659  38.265  40.259  1.00  0.00    -0.744 OA
ENDBRANCH  70  71
ENDBRANCH  38  63
ENDBRANCH  12  13
ENDBRANCH   5   7
ENDBRANCH   2   3
ENDBRANCH   1   2
BRANCH   1  75
ATOM     75  C   UNL A   1      36.044  22.962  26.216  1.00  0.00     0.118 C 
BRANCH  75  76
ATOM     76  N   UNL A   1      35.691  21.665  25.650  1.00  0.00    -0.352 N 
ATOM     77  C   UNL A   1      34.621  21.324  24.860  1.00  0.00     0.252 C 
ATOM     78  H   UNL A   1      36.308  20.929  25.866  1.00  0.00     0.163 HD
ATOM     79  O   UNL A   1      34.368  20.149  24.617  1.00  0.00    -0.269 OA
BRANCH  77  80
ATOM     80  C   UNL A   1      33.760  22.381  24.318  1.00  0.00     0.058 A 
ATOM     81  C   UNL A   1      34.077  23.049  23.138  1.00  0.00     0.017 A 
ATOM     82  C   UNL A   1      32.623  22.751  25.012  1.00  0.00     0.125 A 
ATOM     83  C   UNL A   1      33.304  24.141  22.757  1.00  0.00     0.030 A 
ATOM     84  N   UNL A   1      31.856  23.810  24.663  1.00  0.00    -0.255 NA
ATOM     85  C   UNL A   1      32.228  24.517  23.564  1.00  0.00     0.094 A 
BRANCH  85  86
ATOM     86  C   UNL A   1      31.502  25.818  23.281  1.00  0.00     0.318 C 
BRANCH  86  87
ATOM     87  N   UNL A   1      31.596  26.799  24.367  1.00  0.00    -0.337 N 
ATOM     88  H   UNL A   1      31.872  26.321  25.224  1.00  0.00     0.346 HD
ATOM     89  H   UNL A   1      30.685  27.242  24.480  1.00  0.00     0.346 HD
BRANCH  87  90
ATOM     90  C   UNL A   1      32.582  27.836  24.060  1.00  0.00     0.300 C 
BRANCH  90  91
ATOM     91  C   UNL A   1      32.829  28.773  25.215  1.00  0.00     0.045 A 
ATOM     92  C   UNL A   1      33.962  28.619  26.027  1.00  0.00     0.051 A 
ATOM     93  C   UNL A   1      31.922  29.793  25.530  1.00  0.00     0.132 A 
ATOM     94  C   UNL A   1      34.158  29.463  27.117  1.00  0.00     0.123 A 
ATOM     95  C   UNL A   1      32.111  30.623  26.634  1.00  0.00     0.043 A 
ATOM     96  F   UNL A   1      30.834  29.979  24.770  1.00  0.00    -0.206 F 
ATOM     97  F   UNL A   1      35.251  29.311  27.877  1.00  0.00    -0.207 F 
ATOM     98  C   UNL A   1      33.238  30.457  27.434  1.00  0.00     0.042 A 
ENDBRANCH  90  91
ENDBRANCH  87  90
ENDBRANCH  86  87
ENDBRANCH  85  86
ENDBRANCH  77  80
ENDBRANCH  75  76
ENDBRANCH   1  75
TORSDOF 17
ENDMDL
