MODEL 1
REMARK VINA RESULT:     -13.6      0.000      0.000
REMARK SMILES Cc1cc(C(=O)N[C@@H]2C(=O)N3C(C(=O)NCCCNC(=O)c4ccc(-c5c6nc(c(-c7c(F)cc(S(=O)(=O)[O-])cc7F)c7ccc([nH]7)c(-c7c(F)cc(S(=O)(=O)[O-])cc7F)c7nc(c(-c8c(F)cc(S(=O)(=O)[O-])cc8F)c8ccc5[nH]8)C=C7)C=C6)cc4)=C(CSc4nnc(C)s4)CS[C@H]23)n(C)n1
REMARK SMILES IDX 17 1 16 2 15 3 13 4 14 5 12 7 8 8 9 9 99 10 10 11 11 12
REMARK SMILES IDX 98 13 97 14 88 15 7 16 5 17 6 18 4 20 1 21 2 22 3 23 102 24
REMARK SMILES IDX 100 25 101 26 89 27 90 28 91 29 92 30 96 31 93 32 94 33
REMARK SMILES IDX 95 34 18 35 19 36 20 37 21 39 22 40 23 41 87 42 24 43 86 44
REMARK SMILES IDX 25 45 26 46 27 47 80 48 28 49 85 50 79 51 81 52 29 53 84 54
REMARK SMILES IDX 78 55 77 56 30 58 64 59 43 60 63 61 44 62 47 63 62 64 82 65
REMARK SMILES IDX 45 66 46 67 61 69 83 70 48 71 31 72 32 73 41 74 33 75 34 76
REMARK SMILES IDX 40 77 42 78 35 79 36 80 37 81 38 82 39 83 65 84 66 85 75 86
REMARK SMILES IDX 67 87 68 88 74 89 76 90 69 91 70 92 71 93 72 94 73 95 49 96
REMARK SMILES IDX 50 97 59 98 51 99 52 100 58 101 60 102 53 103 54 104 55 105
REMARK SMILES IDX 56 106 57 107
REMARK H PARENT 15 6 7 19 19 38 81 57 47 68
REMARK Flexibility Score: inf
ROOT
ATOM      1  C   UNL A   1      34.841  29.319  27.681  1.00  0.00     0.042 C 
ENDROOT
BRANCH   1   2
ATOM      2  C   UNL A   1      34.582  29.023  26.206  1.00  0.00     0.118 C 
BRANCH   2   3
ATOM      3  N   UNL A   1      33.423  29.745  25.717  1.00  0.00    -0.351 N 
ATOM      4  C   UNL A   1      32.294  29.463  25.017  1.00  0.00     0.268 C 
ATOM      5  O   UNL A   1      31.472  30.388  25.056  1.00  0.00    -0.268 OA
ATOM      6  H   UNL A   1      33.465  30.699  25.959  1.00  0.00     0.163 HD
BRANCH   4   7
ATOM      7  C   UNL A   1      31.885  28.113  24.395  1.00  0.00     0.111 C 
ATOM      8  C   UNL A   1      31.767  25.358  26.473  1.00  0.00     0.206 C 
ATOM      9  C   UNL A   1      31.506  26.891  26.566  1.00  0.00     0.253 C 
ATOM     10  C   UNL A   1      31.888  25.661  24.956  1.00  0.00     0.181 C 
ATOM     11  O   UNL A   1      30.971  27.608  27.389  1.00  0.00    -0.272 OA
ATOM     12  N   UNL A   1      32.004  27.062  25.300  1.00  0.00    -0.290 N 
ATOM     13  S   UNL A   1      30.392  25.416  23.952  1.00  0.00    -0.129 SA
ATOM     14  C   UNL A   1      31.112  26.424  22.660  1.00  0.00     0.106 C 
ATOM     15  C   UNL A   1      31.300  27.838  23.185  1.00  0.00    -0.020 C 
BRANCH   8  16
ATOM     16  N   UNL A   1      30.719  24.415  26.953  1.00  0.00    -0.336 N 
ATOM     17  C   UNL A   1      30.670  23.032  26.864  1.00  0.00     0.270 C 
ATOM     18  O   UNL A   1      29.702  22.463  27.366  1.00  0.00    -0.268 OA
ATOM     19  H   UNL A   1      29.948  24.834  27.398  1.00  0.00     0.164 HD
BRANCH  17  20
ATOM     20  C   UNL A   1      31.707  22.334  26.131  1.00  0.00     0.126 A 
ATOM     21  C   UNL A   1      32.835  19.660  23.939  1.00  0.00     0.069 C 
ATOM     22  C   UNL A   1      32.702  20.815  24.860  1.00  0.00     0.060 A 
ATOM     23  C   UNL A   1      31.742  21.852  24.830  1.00  0.00     0.059 A 
ATOM     24  N   UNL A   1      33.475  20.913  25.941  1.00  0.00    -0.178 NA
ATOM     25  N   UNL A   1      32.909  21.912  26.658  1.00  0.00    -0.263 N 
ATOM     26  C   UNL A   1      33.591  22.337  27.858  1.00  0.00     0.174 C 
ENDBRANCH  17  20
ENDBRANCH   8  16
BRANCH  15  27
ATOM     27  C   UNL A   1      30.450  28.787  22.371  1.00  0.00     0.111 C 
BRANCH  27  28
ATOM     28  S   UNL A   1      28.741  28.508  22.842  1.00  0.00    -0.089 SA
BRANCH  28  29
ATOM     29  C   UNL A   1      27.941  30.013  22.619  1.00  0.00     0.174 A 
ATOM     30  N   UNL A   1      27.056  30.478  23.469  1.00  0.00    -0.132 NA
ATOM     31  S   UNL A   1      28.678  31.205  21.637  1.00  0.00    -0.091 S 
ATOM     32  N   UNL A   1      27.237  31.842  23.643  1.00  0.00    -0.143 NA
ATOM     33  C   UNL A   1      28.214  32.295  22.878  1.00  0.00     0.115 A 
ATOM     34  C   UNL A   1      29.004  33.524  23.108  1.00  0.00     0.081 C 
ENDBRANCH  28  29
ENDBRANCH  27  28
ENDBRANCH  15  27
ENDBRANCH   4   7
ENDBRANCH   2   3
ENDBRANCH   1   2
BRANCH   1  35
ATOM     35  C   UNL A   1      35.356  30.703  28.016  1.00  0.00     0.118 C 
BRANCH  35  36
ATOM     36  N   UNL A   1      35.422  30.928  29.445  1.00  0.00    -0.352 N 
ATOM     37  C   UNL A   1      36.420  30.632  30.344  1.00  0.00     0.251 C 
ATOM     38  H   UNL A   1      34.628  31.361  29.833  1.00  0.00     0.163 HD
ATOM     39  O   UNL A   1      36.159  30.693  31.544  1.00  0.00    -0.269 OA
BRANCH  37  40
ATOM     40  C   UNL A   1      37.778  30.225  29.899  1.00  0.00     0.039 A 
ATOM     41  C   UNL A   1      38.708  29.829  30.867  1.00  0.00     0.014 A 
ATOM     42  C   UNL A   1      38.172  30.277  28.560  1.00  0.00     0.014 A 
ATOM     43  C   UNL A   1      40.000  29.452  30.488  1.00  0.00     0.010 A 
ATOM     44  C   UNL A   1      39.418  29.788  28.171  1.00  0.00     0.010 A 
ATOM     45  C   UNL A   1      40.359  29.398  29.132  1.00  0.00    -0.014 A 
BRANCH  45  46
ATOM     46  C   UNL A   1      41.722  28.983  28.705  1.00  0.00     0.031 A 
ATOM     47  C   UNL A   1      42.844  29.992  28.672  1.00  0.00     0.074 A 
ATOM     48  C   UNL A   1      41.945  27.712  28.317  1.00  0.00     0.049 A 
ATOM     49  N   UNL A   1      44.085  29.836  28.285  1.00  0.00    -0.248 NA
ATOM     50  C   UNL A   1      42.525  31.362  29.105  1.00  0.00     0.031 C 
ATOM     51  C   UNL A   1      40.935  26.653  28.267  1.00  0.00     0.029 A 
ATOM     52  N   UNL A   1      43.094  27.091  27.892  1.00  0.00    -0.354 N 
ATOM     53  C   UNL A   1      44.685  31.083  28.422  1.00  0.00     0.074 A 
ATOM     54  C   UNL A   1      43.658  32.001  28.856  1.00  0.00     0.031 C 
ATOM     55  C   UNL A   1      41.515  25.507  27.879  1.00  0.00     0.029 A 
ATOM     56  C   UNL A   1      42.926  25.756  27.605  1.00  0.00     0.049 A 
ATOM     57  H   UNL A   1      43.956  27.557  27.801  1.00  0.00     0.167 HD
ATOM     58  C   UNL A   1      45.983  31.426  28.236  1.00  0.00     0.037 A 
ATOM     59  C   UNL A   1      43.809  24.836  27.167  1.00  0.00     0.037 A 
ATOM     60  C   UNL A   1      47.006  30.500  27.825  1.00  0.00     0.049 A 
ATOM     61  C   UNL A   1      45.240  25.245  26.946  1.00  0.00     0.074 A 
ATOM     62  C   UNL A   1      48.356  30.738  27.638  1.00  0.00     0.029 A 
ATOM     63  N   UNL A   1      46.793  29.159  27.540  1.00  0.00    -0.354 N 
ATOM     64  N   UNL A   1      45.796  26.421  27.115  1.00  0.00    -0.248 NA
ATOM     65  C   UNL A   1      46.164  24.203  26.481  1.00  0.00     0.031 C 
ATOM     66  C   UNL A   1      48.950  29.555  27.192  1.00  0.00     0.029 A 
ATOM     67  C   UNL A   1      47.984  28.561  27.161  1.00  0.00     0.049 A 
ATOM     68  H   UNL A   1      45.924  28.700  27.598  1.00  0.00     0.167 HD
ATOM     69  C   UNL A   1      47.142  26.254  26.806  1.00  0.00     0.074 A 
ATOM     70  C   UNL A   1      47.315  24.860  26.451  1.00  0.00     0.031 C 
ATOM     71  C   UNL A   1      48.141  27.170  26.816  1.00  0.00     0.037 A 
BRANCH  58  72
ATOM     72  C   UNL A   1      46.373  32.858  28.492  1.00  0.00     0.058 A 
ATOM     73  C   UNL A   1      46.804  33.289  29.757  1.00  0.00     0.135 A 
ATOM     74  C   UNL A   1      46.363  33.802  27.451  1.00  0.00     0.135 A 
ATOM     75  F   UNL A   1      46.817  32.437  30.795  1.00  0.00    -0.206 F 
ATOM     76  C   UNL A   1      47.186  34.607  29.988  1.00  0.00     0.059 A 
ATOM     77  C   UNL A   1      46.773  35.117  27.652  1.00  0.00     0.059 A 
ATOM     78  F   UNL A   1      45.958  33.447  26.222  1.00  0.00    -0.206 F 
ATOM     79  C   UNL A   1      47.172  35.512  28.927  1.00  0.00     0.060 A 
BRANCH  79  80
ATOM     80  S   UNL A   1      47.697  37.211  29.242  1.00  0.00     0.124 S 
ATOM     81  O   UNL A   1      47.221  37.414  30.607  1.00  0.00    -0.237 OA
ATOM     82  O   UNL A   1      49.144  37.123  29.082  1.00  0.00    -0.237 OA
ATOM     83  O   UNL A   1      46.999  37.979  28.216  1.00  0.00    -0.744 OA
ENDBRANCH  79  80
ENDBRANCH  58  72
BRANCH  59  84
ATOM     84  C   UNL A   1      43.367  23.432  26.946  1.00  0.00     0.058 A 
ATOM     85  C   UNL A   1      43.171  22.934  25.649  1.00  0.00     0.135 A 
ATOM     86  C   UNL A   1      43.163  22.552  28.021  1.00  0.00     0.135 A 
ATOM     87  F   UNL A   1      43.347  23.738  24.589  1.00  0.00    -0.206 F 
ATOM     88  C   UNL A   1      42.782  21.618  25.424  1.00  0.00     0.059 A 
ATOM     89  C   UNL A   1      42.801  21.223  27.820  1.00  0.00     0.059 A 
ATOM     90  F   UNL A   1      43.351  22.973  29.281  1.00  0.00    -0.206 F 
ATOM     91  C   UNL A   1      42.607  20.767  26.516  1.00  0.00     0.060 A 
BRANCH  91  92
ATOM     92  S   UNL A   1      42.167  19.043  26.206  1.00  0.00     0.124 S 
ATOM     93  O   UNL A   1      42.437  18.434  27.503  1.00  0.00    -0.237 OA
ATOM     94  O   UNL A   1      40.760  19.153  25.832  1.00  0.00    -0.237 OA
ATOM     95  O   UNL A   1      43.068  18.656  25.126  1.00  0.00    -0.744 OA
ENDBRANCH  91  92
ENDBRANCH  59  84
BRANCH  71  96
ATOM     96  C   UNL A   1      49.526  26.692  26.470  1.00  0.00     0.058 A 
ATOM     97  C   UNL A   1      50.017  26.734  25.156  1.00  0.00     0.135 A 
ATOM     98  C   UNL A   1      50.392  26.241  27.480  1.00  0.00     0.135 A 
ATOM     99  F   UNL A   1      49.230  27.152  24.152  1.00  0.00    -0.206 F 
ATOM    100  C   UNL A   1      51.311  26.321  24.851  1.00  0.00     0.059 A 
ATOM    101  C   UNL A   1      51.699  25.855  27.203  1.00  0.00     0.059 A 
ATOM    102  F   UNL A   1      49.976  26.192  28.756  1.00  0.00    -0.206 F 
ATOM    103  C   UNL A   1      52.145  25.887  25.883  1.00  0.00     0.060 A 
BRANCH 103 104
ATOM    104  S   UNL A   1      53.831  25.387  25.475  1.00  0.00     0.124 S 
ATOM    105  O   UNL A   1      53.598  24.352  24.475  1.00  0.00    -0.237 OA
ATOM    106  O   UNL A   1      54.412  26.632  24.979  1.00  0.00    -0.237 OA
ATOM    107  O   UNL A   1      54.366  24.919  26.751  1.00  0.00    -0.744 OA
ENDBRANCH 103 104
ENDBRANCH  71  96
ENDBRANCH  45  46
ENDBRANCH  37  40
ENDBRANCH  35  36
ENDBRANCH   1  35
TORSDOF 18
ENDMDL
MODEL 2
REMARK VINA RESULT:     -12.7      1.152      2.063
REMARK SMILES Cc1cc(C(=O)N[C@@H]2C(=O)N3C(C(=O)NCCCNC(=O)c4ccc(-c5c6nc(c(-c7c(F)cc(S(=O)(=O)[O-])cc7F)c7ccc([nH]7)c(-c7c(F)cc(S(=O)(=O)[O-])cc7F)c7nc(c(-c8c(F)cc(S(=O)(=O)[O-])cc8F)c8ccc5[nH]8)C=C7)C=C6)cc4)=C(CSc4nnc(C)s4)CS[C@H]23)n(C)n1
REMARK SMILES IDX 17 1 16 2 15 3 13 4 14 5 12 7 8 8 9 9 99 10 10 11 11 12
REMARK SMILES IDX 98 13 97 14 88 15 7 16 5 17 6 18 4 20 1 21 2 22 3 23 102 24
REMARK SMILES IDX 100 25 101 26 89 27 90 28 91 29 92 30 96 31 93 32 94 33
REMARK SMILES IDX 95 34 18 35 19 36 20 37 21 39 22 40 23 41 87 42 24 43 86 44
REMARK SMILES IDX 25 45 26 46 27 47 80 48 28 49 85 50 79 51 81 52 29 53 84 54
REMARK SMILES IDX 78 55 77 56 30 58 64 59 43 60 63 61 44 62 47 63 62 64 82 65
REMARK SMILES IDX 45 66 46 67 61 69 83 70 48 71 31 72 32 73 41 74 33 75 34 76
REMARK SMILES IDX 40 77 42 78 35 79 36 80 37 81 38 82 39 83 65 84 66 85 75 86
REMARK SMILES IDX 67 87 68 88 74 89 76 90 69 91 70 92 71 93 72 94 73 95 49 96
REMARK SMILES IDX 50 97 59 98 51 99 52 100 58 101 60 102 53 103 54 104 55 105
REMARK SMILES IDX 56 106 57 107
REMARK H PARENT 15 6 7 19 19 38 81 57 47 68
REMARK Flexibility Score: inf
ROOT
ATOM      1  C   UNL A   1      34.066  30.070  27.247  1.00  0.00     0.042 C 
ENDROOT
BRANCH   1   2
ATOM      2  C   UNL A   1      33.525  29.036  26.263  1.00  0.00     0.118 C 
BRANCH   2   3
ATOM      3  N   UNL A   1      32.314  28.413  26.762  1.00  0.00    -0.351 N 
ATOM      4  C   UNL A   1      31.477  27.413  26.383  1.00  0.00     0.268 C 
ATOM      5  O   UNL A   1      30.695  27.087  27.285  1.00  0.00    -0.268 OA
ATOM      6  H   UNL A   1      32.018  28.828  27.605  1.00  0.00     0.163 HD
BRANCH   4   7
ATOM      7  C   UNL A   1      31.546  26.565  25.097  1.00  0.00     0.111 C 
ATOM      8  C   UNL A   1      32.653  23.307  25.379  1.00  0.00     0.206 C 
ATOM      9  C   UNL A   1      31.849  24.334  26.229  1.00  0.00     0.253 C 
ATOM     10  C   UNL A   1      32.513  24.392  24.279  1.00  0.00     0.181 C 
ATOM     11  O   UNL A   1      31.162  24.249  27.229  1.00  0.00    -0.272 OA
ATOM     12  N   UNL A   1      32.130  25.322  25.320  1.00  0.00    -0.290 N 
ATOM     13  S   UNL A   1      31.132  24.201  23.113  1.00  0.00    -0.129 SA
ATOM     14  C   UNL A   1      31.304  25.922  22.650  1.00  0.00     0.106 C 
ATOM     15  C   UNL A   1      30.998  26.791  23.859  1.00  0.00    -0.020 C 
BRANCH   8  16
ATOM     16  N   UNL A   1      32.080  21.951  25.150  1.00  0.00    -0.336 N 
ATOM     17  C   UNL A   1      32.696  20.711  25.219  1.00  0.00     0.270 C 
ATOM     18  O   UNL A   1      32.000  19.717  25.015  1.00  0.00    -0.268 OA
ATOM     19  H   UNL A   1      31.124  21.932  24.915  1.00  0.00     0.164 HD
BRANCH  17  20
ATOM     20  C   UNL A   1      34.125  20.643  25.452  1.00  0.00     0.126 A 
ATOM     21  C   UNL A   1      37.449  22.117  25.417  1.00  0.00     0.069 C 
ATOM     22  C   UNL A   1      36.260  21.237  25.511  1.00  0.00     0.060 A 
ATOM     23  C   UNL A   1      34.995  21.532  26.068  1.00  0.00     0.059 A 
ATOM     24  N   UNL A   1      36.256  20.038  24.929  1.00  0.00    -0.178 NA
ATOM     25  N   UNL A   1      34.961  19.648  24.992  1.00  0.00    -0.263 N 
ATOM     26  C   UNL A   1      34.645  18.317  24.530  1.00  0.00     0.174 C 
ENDBRANCH  17  20
ENDBRANCH   8  16
BRANCH  15  27
ATOM     27  C   UNL A   1      29.786  27.644  23.565  1.00  0.00     0.111 C 
BRANCH  27  28
ATOM     28  S   UNL A   1      30.344  29.346  23.465  1.00  0.00    -0.089 SA
BRANCH  28  29
ATOM     29  C   UNL A   1      28.933  30.287  23.189  1.00  0.00     0.174 A 
ATOM     30  N   UNL A   1      28.684  31.399  23.840  1.00  0.00    -0.132 NA
ATOM     31  S   UNL A   1      28.124  30.147  21.688  1.00  0.00    -0.091 S 
ATOM     32  N   UNL A   1      28.162  32.349  22.975  1.00  0.00    -0.143 NA
ATOM     33  C   UNL A   1      28.024  31.859  21.756  1.00  0.00     0.115 A 
ATOM     34  C   UNL A   1      27.965  32.641  20.502  1.00  0.00     0.081 C 
ENDBRANCH  28  29
ENDBRANCH  27  28
ENDBRANCH  15  27
ENDBRANCH   4   7
ENDBRANCH   2   3
ENDBRANCH   1   2
BRANCH   1  35
ATOM     35  C   UNL A   1      35.329  29.701  27.996  1.00  0.00     0.118 C 
BRANCH  35  36
ATOM     36  N   UNL A   1      35.433  30.394  29.263  1.00  0.00    -0.352 N 
ATOM     37  C   UNL A   1      36.493  30.496  30.133  1.00  0.00     0.251 C 
ATOM     38  H   UNL A   1      34.617  30.866  29.545  1.00  0.00     0.163 HD
ATOM     39  O   UNL A   1      36.280  30.931  31.262  1.00  0.00    -0.269 OA
BRANCH  37  40
ATOM     40  C   UNL A   1      37.865  30.075  29.747  1.00  0.00     0.039 A 
ATOM     41  C   UNL A   1      38.178  29.982  28.387  1.00  0.00     0.014 A 
ATOM     42  C   UNL A   1      38.830  29.721  30.692  1.00  0.00     0.014 A 
ATOM     43  C   UNL A   1      39.455  29.577  27.986  1.00  0.00     0.010 A 
ATOM     44  C   UNL A   1      40.136  29.433  30.296  1.00  0.00     0.010 A 
ATOM     45  C   UNL A   1      40.457  29.328  28.936  1.00  0.00    -0.014 A 
BRANCH  45  46
ATOM     46  C   UNL A   1      41.827  28.913  28.531  1.00  0.00     0.031 A 
ATOM     47  C   UNL A   1      42.946  29.925  28.505  1.00  0.00     0.074 A 
ATOM     48  C   UNL A   1      42.059  27.640  28.157  1.00  0.00     0.049 A 
ATOM     49  N   UNL A   1      44.193  29.770  28.136  1.00  0.00    -0.248 NA
ATOM     50  C   UNL A   1      42.617  31.298  28.921  1.00  0.00     0.031 C 
ATOM     51  C   UNL A   1      41.053  26.578  28.103  1.00  0.00     0.029 A 
ATOM     52  N   UNL A   1      43.215  27.018  27.753  1.00  0.00    -0.354 N 
ATOM     53  C   UNL A   1      44.788  31.020  28.270  1.00  0.00     0.074 A 
ATOM     54  C   UNL A   1      43.752  31.939  28.682  1.00  0.00     0.031 C 
ATOM     55  C   UNL A   1      41.642  25.430  27.732  1.00  0.00     0.029 A 
ATOM     56  C   UNL A   1      43.056  25.680  27.475  1.00  0.00     0.049 A 
ATOM     57  H   UNL A   1      44.077  27.487  27.670  1.00  0.00     0.167 HD
ATOM     58  C   UNL A   1      46.086  31.366  28.099  1.00  0.00     0.037 A 
ATOM     59  C   UNL A   1      43.947  24.760  27.057  1.00  0.00     0.037 A 
ATOM     60  C   UNL A   1      47.117  30.439  27.709  1.00  0.00     0.049 A 
ATOM     61  C   UNL A   1      45.379  25.171  26.851  1.00  0.00     0.074 A 
ATOM     62  C   UNL A   1      48.470  30.680  27.539  1.00  0.00     0.029 A 
ATOM     63  N   UNL A   1      46.913  29.095  27.433  1.00  0.00    -0.354 N 
ATOM     64  N   UNL A   1      45.929  26.351  27.018  1.00  0.00    -0.248 NA
ATOM     65  C   UNL A   1      46.312  24.128  26.408  1.00  0.00     0.031 C 
ATOM     66  C   UNL A   1      49.073  29.495  27.110  1.00  0.00     0.029 A 
ATOM     67  C   UNL A   1      48.110  28.498  27.075  1.00  0.00     0.049 A 
ATOM     68  H   UNL A   1      46.044  28.634  27.484  1.00  0.00     0.167 HD
ATOM     69  C   UNL A   1      47.280  26.185  26.728  1.00  0.00     0.074 A 
ATOM     70  C   UNL A   1      47.462  24.788  26.388  1.00  0.00     0.031 C 
ATOM     71  C   UNL A   1      48.277  27.104  26.744  1.00  0.00     0.037 A 
BRANCH  58  72
ATOM     72  C   UNL A   1      46.469  32.801  28.347  1.00  0.00     0.058 A 
ATOM     73  C   UNL A   1      46.435  33.760  27.322  1.00  0.00     0.135 A 
ATOM     74  C   UNL A   1      46.828  33.235  29.634  1.00  0.00     0.135 A 
ATOM     75  F   UNL A   1      46.117  33.400  26.068  1.00  0.00    -0.206 F 
ATOM     76  C   UNL A   1      46.765  35.091  27.557  1.00  0.00     0.059 A 
ATOM     77  C   UNL A   1      47.131  34.568  29.899  1.00  0.00     0.059 A 
ATOM     78  F   UNL A   1      46.881  32.362  30.652  1.00  0.00    -0.206 F 
ATOM     79  C   UNL A   1      47.108  35.486  28.851  1.00  0.00     0.060 A 
BRANCH  79  80
ATOM     80  S   UNL A   1      47.509  37.223  29.138  1.00  0.00     0.124 S 
ATOM     81  O   UNL A   1      46.859  37.463  30.423  1.00  0.00    -0.237 OA
ATOM     82  O   UNL A   1      48.968  37.205  29.159  1.00  0.00    -0.237 OA
ATOM     83  O   UNL A   1      46.908  37.905  27.997  1.00  0.00    -0.744 OA
ENDBRANCH  79  80
ENDBRANCH  58  72
BRANCH  59  84
ATOM     84  C   UNL A   1      43.512  23.353  26.842  1.00  0.00     0.058 A 
ATOM     85  C   UNL A   1      43.329  22.845  25.548  1.00  0.00     0.135 A 
ATOM     86  C   UNL A   1      43.302  22.480  27.921  1.00  0.00     0.135 A 
ATOM     87  F   UNL A   1      43.511  23.642  24.483  1.00  0.00    -0.206 F 
ATOM     88  C   UNL A   1      42.947  21.526  25.328  1.00  0.00     0.059 A 
ATOM     89  C   UNL A   1      42.947  21.148  27.727  1.00  0.00     0.059 A 
ATOM     90  F   UNL A   1      43.478  22.910  29.180  1.00  0.00    -0.206 F 
ATOM     91  C   UNL A   1      42.766  20.682  26.425  1.00  0.00     0.060 A 
BRANCH  91  92
ATOM     92  S   UNL A   1      42.335  18.954  26.123  1.00  0.00     0.124 S 
ATOM     93  O   UNL A   1      42.620  18.350  27.420  1.00  0.00    -0.237 OA
ATOM     94  O   UNL A   1      40.924  19.053  25.760  1.00  0.00    -0.237 OA
ATOM     95  O   UNL A   1      43.230  18.570  25.036  1.00  0.00    -0.744 OA
ENDBRANCH  91  92
ENDBRANCH  59  84
BRANCH  71  96
ATOM     96  C   UNL A   1      49.667  26.627  26.420  1.00  0.00     0.058 A 
ATOM     97  C   UNL A   1      50.539  26.159  27.414  1.00  0.00     0.135 A 
ATOM     98  C   UNL A   1      50.108  26.586  25.087  1.00  0.00     0.135 A 
ATOM     99  F   UNL A   1      50.170  26.181  28.704  1.00  0.00    -0.206 F 
ATOM    100  C   UNL A   1      51.811  25.688  27.101  1.00  0.00     0.059 A 
ATOM    101  C   UNL A   1      51.362  26.089  24.747  1.00  0.00     0.059 A 
ATOM    102  F   UNL A   1      49.309  27.012  24.096  1.00  0.00    -0.206 F 
ATOM    103  C   UNL A   1      52.211  25.654  25.763  1.00  0.00     0.060 A 
BRANCH 103 104
ATOM    104  S   UNL A   1      53.851  25.009  25.371  1.00  0.00     0.124 S 
ATOM    105  O   UNL A   1      54.428  24.842  26.700  1.00  0.00    -0.237 OA
ATOM    106  O   UNL A   1      53.536  23.776  24.655  1.00  0.00    -0.237 OA
ATOM    107  O   UNL A   1      54.446  26.065  24.556  1.00  0.00    -0.744 OA
ENDBRANCH 103 104
ENDBRANCH  71  96
ENDBRANCH  45  46
ENDBRANCH  37  40
ENDBRANCH  35  36
ENDBRANCH   1  35
TORSDOF 18
ENDMDL
MODEL 3
REMARK VINA RESULT:     -12.5      1.227      7.978
REMARK SMILES Cc1cc(C(=O)N[C@@H]2C(=O)N3C(C(=O)NCCCNC(=O)c4ccc(-c5c6nc(c(-c7c(F)cc(S(=O)(=O)[O-])cc7F)c7ccc([nH]7)c(-c7c(F)cc(S(=O)(=O)[O-])cc7F)c7nc(c(-c8c(F)cc(S(=O)(=O)[O-])cc8F)c8ccc5[nH]8)C=C7)C=C6)cc4)=C(CSc4nnc(C)s4)CS[C@H]23)n(C)n1
REMARK SMILES IDX 17 1 16 2 15 3 13 4 14 5 12 7 8 8 9 9 99 10 10 11 11 12
REMARK SMILES IDX 98 13 97 14 88 15 7 16 5 17 6 18 4 20 1 21 2 22 3 23 102 24
REMARK SMILES IDX 100 25 101 26 89 27 90 28 91 29 92 30 96 31 93 32 94 33
REMARK SMILES IDX 95 34 18 35 19 36 20 37 21 39 22 40 23 41 87 42 24 43 86 44
REMARK SMILES IDX 25 45 26 46 27 47 80 48 28 49 85 50 79 51 81 52 29 53 84 54
REMARK SMILES IDX 78 55 77 56 30 58 64 59 43 60 63 61 44 62 47 63 62 64 82 65
REMARK SMILES IDX 45 66 46 67 61 69 83 70 48 71 31 72 32 73 41 74 33 75 34 76
REMARK SMILES IDX 40 77 42 78 35 79 36 80 37 81 38 82 39 83 65 84 66 85 75 86
REMARK SMILES IDX 67 87 68 88 74 89 76 90 69 91 70 92 71 93 72 94 73 95 49 96
REMARK SMILES IDX 50 97 59 98 51 99 52 100 58 101 60 102 53 103 54 104 55 105
REMARK SMILES IDX 56 106 57 107
REMARK H PARENT 15 6 7 19 19 38 81 57 47 68
REMARK Flexibility Score: inf
ROOT
ATOM      1  C   UNL A   1      34.173  29.975  27.348  1.00  0.00     0.042 C 
ENDROOT
BRANCH   1   2
ATOM      2  C   UNL A   1      33.595  28.980  26.344  1.00  0.00     0.118 C 
BRANCH   2   3
ATOM      3  N   UNL A   1      32.340  28.424  26.814  1.00  0.00    -0.351 N 
ATOM      4  C   UNL A   1      31.460  27.469  26.414  1.00  0.00     0.268 C 
ATOM      5  O   UNL A   1      30.640  27.187  27.296  1.00  0.00    -0.268 OA
ATOM      6  H   UNL A   1      32.046  28.855  27.649  1.00  0.00     0.163 HD
BRANCH   4   7
ATOM      7  C   UNL A   1      31.515  26.618  25.130  1.00  0.00     0.111 C 
ATOM      8  C   UNL A   1      32.627  23.360  25.409  1.00  0.00     0.206 C 
ATOM      9  C   UNL A   1      31.832  24.390  26.266  1.00  0.00     0.253 C 
ATOM     10  C   UNL A   1      32.475  24.443  24.308  1.00  0.00     0.181 C 
ATOM     11  O   UNL A   1      31.156  24.308  27.273  1.00  0.00    -0.272 OA
ATOM     12  N   UNL A   1      32.102  25.375  25.350  1.00  0.00    -0.290 N 
ATOM     13  S   UNL A   1      31.081  24.247  23.158  1.00  0.00    -0.129 SA
ATOM     14  C   UNL A   1      31.247  25.967  22.688  1.00  0.00     0.106 C 
ATOM     15  C   UNL A   1      30.954  26.839  23.898  1.00  0.00    -0.020 C 
BRANCH   8  16
ATOM     16  N   UNL A   1      32.052  22.003  25.191  1.00  0.00    -0.336 N 
ATOM     17  C   UNL A   1      32.671  20.764  25.252  1.00  0.00     0.270 C 
ATOM     18  O   UNL A   1      31.973  19.770  25.060  1.00  0.00    -0.268 OA
ATOM     19  H   UNL A   1      31.093  21.984  24.971  1.00  0.00     0.164 HD
BRANCH  17  20
ATOM     20  C   UNL A   1      34.103  20.699  25.462  1.00  0.00     0.126 A 
ATOM     21  C   UNL A   1      37.414  22.202  25.450  1.00  0.00     0.069 C 
ATOM     22  C   UNL A   1      36.233  21.308  25.519  1.00  0.00     0.060 A 
ATOM     23  C   UNL A   1      34.974  21.566  26.106  1.00  0.00     0.059 A 
ATOM     24  N   UNL A   1      36.231  20.137  24.883  1.00  0.00    -0.178 NA
ATOM     25  N   UNL A   1      34.940  19.733  24.945  1.00  0.00    -0.263 N 
ATOM     26  C   UNL A   1      34.629  18.422  24.427  1.00  0.00     0.174 C 
ENDBRANCH  17  20
ENDBRANCH   8  16
BRANCH  15  27
ATOM     27  C   UNL A   1      29.738  27.691  23.614  1.00  0.00     0.111 C 
BRANCH  27  28
ATOM     28  S   UNL A   1      30.307  29.380  23.409  1.00  0.00    -0.089 SA
BRANCH  28  29
ATOM     29  C   UNL A   1      28.896  30.319  23.128  1.00  0.00     0.174 A 
ATOM     30  N   UNL A   1      28.660  31.449  23.754  1.00  0.00    -0.132 NA
ATOM     31  S   UNL A   1      28.068  30.145  21.641  1.00  0.00    -0.091 S 
ATOM     32  N   UNL A   1      28.131  32.379  22.871  1.00  0.00    -0.143 NA
ATOM     33  C   UNL A   1      27.975  31.859  21.667  1.00  0.00     0.115 A 
ATOM     34  C   UNL A   1      27.903  32.609  20.395  1.00  0.00     0.081 C 
ENDBRANCH  28  29
ENDBRANCH  27  28
ENDBRANCH  15  27
ENDBRANCH   4   7
ENDBRANCH   2   3
ENDBRANCH   1   2
BRANCH   1  35
ATOM     35  C   UNL A   1      35.449  29.566  28.052  1.00  0.00     0.118 C 
BRANCH  35  36
ATOM     36  N   UNL A   1      35.555  30.150  29.372  1.00  0.00    -0.352 N 
ATOM     37  C   UNL A   1      36.629  30.222  30.227  1.00  0.00     0.251 C 
ATOM     38  H   UNL A   1      34.726  30.560  29.711  1.00  0.00     0.163 HD
ATOM     39  O   UNL A   1      36.425  30.549  31.395  1.00  0.00    -0.269 OA
BRANCH  37  40
ATOM     40  C   UNL A   1      38.009  29.896  29.779  1.00  0.00     0.039 A 
ATOM     41  C   UNL A   1      38.926  29.430  30.726  1.00  0.00     0.014 A 
ATOM     42  C   UNL A   1      38.431  30.091  28.462  1.00  0.00     0.014 A 
ATOM     43  C   UNL A   1      40.237  29.126  30.344  1.00  0.00     0.010 A 
ATOM     44  C   UNL A   1      39.699  29.676  28.058  1.00  0.00     0.010 A 
ATOM     45  C   UNL A   1      40.628  29.216  29.000  1.00  0.00    -0.014 A 
BRANCH  45  46
ATOM     46  C   UNL A   1      42.012  28.880  28.569  1.00  0.00     0.031 A 
ATOM     47  C   UNL A   1      42.353  27.470  28.152  1.00  0.00     0.074 A 
ATOM     48  C   UNL A   1      42.968  29.830  28.582  1.00  0.00     0.049 A 
ATOM     49  N   UNL A   1      43.508  26.971  27.792  1.00  0.00    -0.248 NA
ATOM     50  C   UNL A   1      41.259  26.485  28.168  1.00  0.00     0.031 C 
ATOM     51  C   UNL A   1      42.773  31.220  29.000  1.00  0.00     0.029 A 
ATOM     52  N   UNL A   1      44.295  29.775  28.232  1.00  0.00    -0.354 N 
ATOM     53  C   UNL A   1      43.279  25.621  27.547  1.00  0.00     0.074 A 
ATOM     54  C   UNL A   1      41.895  25.362  27.870  1.00  0.00     0.031 C 
ATOM     55  C   UNL A   1      43.922  31.893  28.843  1.00  0.00     0.029 A 
ATOM     56  C   UNL A   1      44.950  30.978  28.359  1.00  0.00     0.049 A 
ATOM     57  H   UNL A   1      44.734  28.952  27.920  1.00  0.00     0.167 HD
ATOM     58  C   UNL A   1      44.135  24.688  27.065  1.00  0.00     0.037 A 
ATOM     59  C   UNL A   1      46.234  31.306  28.116  1.00  0.00     0.037 A 
ATOM     60  C   UNL A   1      45.507  24.960  26.724  1.00  0.00     0.049 A 
ATOM     61  C   UNL A   1      47.173  30.248  27.602  1.00  0.00     0.074 A 
ATOM     62  C   UNL A   1      46.450  24.094  26.198  1.00  0.00     0.029 A 
ATOM     63  N   UNL A   1      46.133  26.189  26.872  1.00  0.00    -0.354 N 
ATOM     64  N   UNL A   1      46.928  28.985  27.343  1.00  0.00    -0.248 NA
ATOM     65  C   UNL A   1      48.558  30.660  27.341  1.00  0.00     0.031 C 
ATOM     66  C   UNL A   1      47.658  24.785  26.076  1.00  0.00     0.029 A 
ATOM     67  C   UNL A   1      47.454  26.100  26.465  1.00  0.00     0.049 A 
ATOM     68  H   UNL A   1      45.702  27.005  27.216  1.00  0.00     0.167 HD
ATOM     69  C   UNL A   1      48.122  28.458  26.860  1.00  0.00     0.074 A 
ATOM     70  C   UNL A   1      49.082  29.543  26.853  1.00  0.00     0.031 C 
ATOM     71  C   UNL A   1      48.396  27.192  26.459  1.00  0.00     0.037 A 
BRANCH  58  72
ATOM     72  C   UNL A   1      43.608  23.292  26.860  1.00  0.00     0.058 A 
ATOM     73  C   UNL A   1      43.367  22.777  25.577  1.00  0.00     0.135 A 
ATOM     74  C   UNL A   1      43.386  22.442  27.957  1.00  0.00     0.135 A 
ATOM     75  F   UNL A   1      43.544  23.549  24.492  1.00  0.00    -0.206 F 
ATOM     76  C   UNL A   1      42.903  21.479  25.386  1.00  0.00     0.059 A 
ATOM     77  C   UNL A   1      42.954  21.129  27.788  1.00  0.00     0.059 A 
ATOM     78  F   UNL A   1      43.597  22.881  29.207  1.00  0.00    -0.206 F 
ATOM     79  C   UNL A   1      42.704  20.661  26.499  1.00  0.00     0.060 A 
BRANCH  79  80
ATOM     80  S   UNL A   1      42.125  18.972  26.229  1.00  0.00     0.124 S 
ATOM     81  O   UNL A   1      42.257  18.401  27.566  1.00  0.00    -0.237 OA
ATOM     82  O   UNL A   1      40.759  19.184  25.762  1.00  0.00    -0.237 OA
ATOM     83  O   UNL A   1      43.053  18.450  25.232  1.00  0.00    -0.744 OA
ENDBRANCH  79  80
ENDBRANCH  58  72
BRANCH  59  84
ATOM     84  C   UNL A   1      46.693  32.706  28.323  1.00  0.00     0.058 A 
ATOM     85  C   UNL A   1      46.588  33.658  27.297  1.00  0.00     0.135 A 
ATOM     86  C   UNL A   1      47.213  33.131  29.556  1.00  0.00     0.135 A 
ATOM     87  F   UNL A   1      46.103  33.300  26.098  1.00  0.00    -0.206 F 
ATOM     88  C   UNL A   1      46.989  34.977  27.481  1.00  0.00     0.059 A 
ATOM     89  C   UNL A   1      47.594  34.451  29.774  1.00  0.00     0.059 A 
ATOM     90  F   UNL A   1      47.320  32.264  30.575  1.00  0.00    -0.206 F 
ATOM     91  C   UNL A   1      47.483  35.366  28.727  1.00  0.00     0.060 A 
BRANCH  91  92
ATOM     92  S   UNL A   1      47.937  37.097  28.973  1.00  0.00     0.124 S 
ATOM     93  O   UNL A   1      46.629  37.729  29.097  1.00  0.00    -0.237 OA
ATOM     94  O   UNL A   1      48.733  37.030  30.196  1.00  0.00    -0.237 OA
ATOM     95  O   UNL A   1      48.686  37.423  27.764  1.00  0.00    -0.744 OA
ENDBRANCH  91  92
ENDBRANCH  59  84
BRANCH  71  96
ATOM     96  C   UNL A   1      49.781  26.912  25.940  1.00  0.00     0.058 A 
ATOM     97  C   UNL A   1      50.135  27.158  24.605  1.00  0.00     0.135 A 
ATOM     98  C   UNL A   1      50.782  26.446  26.810  1.00  0.00     0.135 A 
ATOM     99  F   UNL A   1      49.217  27.598  23.731  1.00  0.00    -0.206 F 
ATOM    100  C   UNL A   1      51.428  26.928  24.143  1.00  0.00     0.059 A 
ATOM    101  C   UNL A   1      52.088  26.241  26.377  1.00  0.00     0.059 A 
ATOM    102  F   UNL A   1      50.499  26.206  28.100  1.00  0.00    -0.206 F 
ATOM    103  C   UNL A   1      52.397  26.473  25.038  1.00  0.00     0.060 A 
BRANCH 103 104
ATOM    104  S   UNL A   1      54.077  26.213  24.431  1.00  0.00     0.124 S 
ATOM    105  O   UNL A   1      54.374  24.881  24.947  1.00  0.00    -0.237 OA
ATOM    106  O   UNL A   1      53.902  26.309  22.984  1.00  0.00    -0.237 OA
ATOM    107  O   UNL A   1      54.833  27.304  25.039  1.00  0.00    -0.744 OA
ENDBRANCH 103 104
ENDBRANCH  71  96
ENDBRANCH  45  46
ENDBRANCH  37  40
ENDBRANCH  35  36
ENDBRANCH   1  35
TORSDOF 18
ENDMDL
