MODEL 1
REMARK VINA RESULT:     -10.9      0.000      0.000
REMARK SMILES O=C(NCCCNC(=O)[C@H](CO)NC(=O)[C@H](CS)NC(=O)c1ccc(F)cc1)c1ccc(-c2c3nc(c(-c4c(F)cc(S(=O)(=O)[O-])cc4F)c4ccc([nH]4)c(-c4c(F)cc(S(=O)(=O)[O-])cc4F)c4nc(c(-c5c(F)cc(S(=O)(=O)[O-])cc5F)c5ccc2[nH]5)C=C4)C=C3)cc1
REMARK SMILES IDX 5 1 4 2 3 3 1 4 2 5 29 7 30 8 94 9 31 10 93 11 32 12 33 13
REMARK SMILES IDX 34 14 87 15 35 16 92 17 86 18 88 19 36 20 91 21 85 22 84 23
REMARK SMILES IDX 37 25 71 26 50 27 70 28 51 29 54 30 69 31 89 32 52 33 53 34
REMARK SMILES IDX 68 36 90 37 55 38 38 39 39 40 48 41 40 42 41 43 47 44 49 45
REMARK SMILES IDX 42 46 43 47 44 48 45 49 46 50 72 51 73 52 82 53 74 54 75 55
REMARK SMILES IDX 81 56 83 57 76 58 77 59 78 60 79 61 80 62 56 63 57 64 66 65
REMARK SMILES IDX 58 66 59 67 65 68 67 69 60 70 61 71 62 72 63 73 64 74 6 75
REMARK SMILES IDX 7 76 8 77 9 79 10 80 13 81 14 82 15 84 16 85 19 86 20 87
REMARK SMILES IDX 21 89 22 90 23 91 28 92 24 93 27 94 25 95 26 96 17 97 18 98
REMARK SMILES IDX 11 100 12 101
REMARK H PARENT 3 6 88 24 54 35 7 78 13 83 19 88 18 99 12 102
REMARK Flexibility Score: inf
ROOT
ATOM      1  C   UNL A   1      31.363  31.943  26.839  1.00  0.00     0.042 C 
ENDROOT
BRANCH   1   2
ATOM      2  C   UNL A   1      32.682  32.589  27.234  1.00  0.00     0.118 C 
BRANCH   2   3
ATOM      3  N   UNL A   1      32.524  33.994  27.598  1.00  0.00    -0.352 N 
ATOM      4  O   UNL A   1      32.747  35.841  28.873  1.00  0.00    -0.269 OA
ATOM      5  C   UNL A   1      33.175  34.732  28.560  1.00  0.00     0.251 C 
ATOM      6  H   UNL A   1      31.850  34.487  27.077  1.00  0.00     0.163 HD
BRANCH   5   7
ATOM      7  C   UNL A   1      34.372  34.174  29.226  1.00  0.00     0.039 A 
ATOM      8  C   UNL A   1      34.218  33.319  30.312  1.00  0.00     0.014 A 
ATOM      9  C   UNL A   1      35.653  34.508  28.779  1.00  0.00     0.014 A 
ATOM     10  C   UNL A   1      35.316  32.992  31.088  1.00  0.00     0.010 A 
ATOM     11  C   UNL A   1      36.776  34.034  29.470  1.00  0.00     0.010 A 
ATOM     12  C   UNL A   1      36.616  33.297  30.652  1.00  0.00    -0.014 A 
BRANCH  12  13
ATOM     13  C   UNL A   1      37.755  32.725  31.421  1.00  0.00     0.031 A 
ATOM     14  C   UNL A   1      38.120  33.225  32.790  1.00  0.00     0.074 A 
ATOM     15  C   UNL A   1      38.402  31.667  30.884  1.00  0.00     0.049 A 
ATOM     16  N   UNL A   1      39.038  32.770  33.605  1.00  0.00    -0.248 NA
ATOM     17  C   UNL A   1      37.378  34.381  33.318  1.00  0.00     0.031 C 
ATOM     18  C   UNL A   1      38.134  31.109  29.552  1.00  0.00     0.029 A 
ATOM     19  N   UNL A   1      39.361  30.835  31.396  1.00  0.00    -0.354 N 
ATOM     20  C   UNL A   1      39.000  33.588  34.728  1.00  0.00     0.074 A 
ATOM     21  C   UNL A   1      37.981  34.586  34.485  1.00  0.00     0.031 C 
ATOM     22  C   UNL A   1      38.823  29.971  29.401  1.00  0.00     0.029 A 
ATOM     23  C   UNL A   1      39.664  29.774  30.573  1.00  0.00     0.049 A 
ATOM     24  H   UNL A   1      39.793  30.981  32.269  1.00  0.00     0.167 HD
ATOM     25  C   UNL A   1      39.745  33.504  35.856  1.00  0.00     0.037 A 
ATOM     26  C   UNL A   1      40.534  28.760  30.728  1.00  0.00     0.037 A 
ATOM     27  C   UNL A   1      40.740  32.486  36.092  1.00  0.00     0.049 A 
ATOM     28  C   UNL A   1      41.357  28.711  31.981  1.00  0.00     0.074 A 
ATOM     29  C   UNL A   1      41.537  32.309  37.211  1.00  0.00     0.029 A 
ATOM     30  N   UNL A   1      41.070  31.472  35.205  1.00  0.00    -0.354 N 
ATOM     31  N   UNL A   1      41.307  29.501  33.026  1.00  0.00    -0.248 NA
ATOM     32  C   UNL A   1      42.367  27.651  32.067  1.00  0.00     0.031 C 
ATOM     33  C   UNL A   1      42.378  31.217  36.982  1.00  0.00     0.029 A 
ATOM     34  C   UNL A   1      42.072  30.679  35.743  1.00  0.00     0.049 A 
ATOM     35  H   UNL A   1      40.654  31.336  34.323  1.00  0.00     0.167 HD
ATOM     36  C   UNL A   1      42.280  29.031  33.898  1.00  0.00     0.074 A 
ATOM     37  C   UNL A   1      42.875  27.868  33.271  1.00  0.00     0.031 C 
ATOM     38  C   UNL A   1      42.655  29.528  35.102  1.00  0.00     0.037 A 
BRANCH  25  39
ATOM     39  C   UNL A   1      39.529  34.528  36.938  1.00  0.00     0.058 A 
ATOM     40  C   UNL A   1      40.209  35.758  36.899  1.00  0.00     0.135 A 
ATOM     41  C   UNL A   1      38.751  34.248  38.072  1.00  0.00     0.135 A 
ATOM     42  F   UNL A   1      40.960  36.081  35.835  1.00  0.00    -0.206 F 
ATOM     43  C   UNL A   1      40.152  36.656  37.960  1.00  0.00     0.059 A 
ATOM     44  C   UNL A   1      38.663  35.142  39.136  1.00  0.00     0.059 A 
ATOM     45  F   UNL A   1      38.063  33.097  38.151  1.00  0.00    -0.206 F 
ATOM     46  C   UNL A   1      39.384  36.334  39.080  1.00  0.00     0.060 A 
BRANCH  46  47
ATOM     47  S   UNL A   1      39.341  37.501  40.457  1.00  0.00     0.124 S 
ATOM     48  O   UNL A   1      38.295  38.426  40.037  1.00  0.00    -0.237 OA
ATOM     49  O   UNL A   1      39.011  36.633  41.582  1.00  0.00    -0.237 OA
ATOM     50  O   UNL A   1      40.695  38.050  40.477  1.00  0.00    -0.744 OA
ENDBRANCH  46  47
ENDBRANCH  25  39
BRANCH  26  51
ATOM     51  C   UNL A   1      40.682  27.734  29.661  1.00  0.00     0.058 A 
ATOM     52  C   UNL A   1      39.764  26.679  29.536  1.00  0.00     0.135 A 
ATOM     53  C   UNL A   1      41.757  27.774  28.761  1.00  0.00     0.135 A 
ATOM     54  F   UNL A   1      38.724  26.586  30.379  1.00  0.00    -0.206 F 
ATOM     55  C   UNL A   1      39.918  25.689  28.575  1.00  0.00     0.059 A 
ATOM     56  C   UNL A   1      41.913  26.812  27.767  1.00  0.00     0.059 A 
ATOM     57  F   UNL A   1      42.658  28.766  28.837  1.00  0.00    -0.206 F 
ATOM     58  C   UNL A   1      40.996  25.765  27.693  1.00  0.00     0.060 A 
BRANCH  58  59
ATOM     59  S   UNL A   1      41.161  24.482  26.434  1.00  0.00     0.124 S 
ATOM     60  O   UNL A   1      41.845  23.431  27.179  1.00  0.00    -0.237 OA
ATOM     61  O   UNL A   1      39.768  24.212  26.089  1.00  0.00    -0.237 OA
ATOM     62  O   UNL A   1      41.948  25.132  25.393  1.00  0.00    -0.744 OA
ENDBRANCH  58  59
ENDBRANCH  26  51
BRANCH  38  63
ATOM     63  C   UNL A   1      43.758  28.806  35.822  1.00  0.00     0.058 A 
ATOM     64  C   UNL A   1      43.465  27.741  36.688  1.00  0.00     0.135 A 
ATOM     65  C   UNL A   1      45.101  29.189  35.678  1.00  0.00     0.135 A 
ATOM     66  F   UNL A   1      42.197  27.339  36.864  1.00  0.00    -0.206 F 
ATOM     67  C   UNL A   1      44.467  27.086  37.394  1.00  0.00     0.059 A 
ATOM     68  C   UNL A   1      46.122  28.527  36.351  1.00  0.00     0.059 A 
ATOM     69  F   UNL A   1      45.432  30.192  34.849  1.00  0.00    -0.206 F 
ATOM     70  C   UNL A   1      45.793  27.485  37.217  1.00  0.00     0.060 A 
BRANCH  70  71
ATOM     71  S   UNL A   1      47.084  26.593  38.108  1.00  0.00     0.124 S 
ATOM     72  O   UNL A   1      48.280  26.980  37.368  1.00  0.00    -0.237 OA
ATOM     73  O   UNL A   1      46.965  27.142  39.456  1.00  0.00    -0.237 OA
ATOM     74  O   UNL A   1      46.685  25.195  37.972  1.00  0.00    -0.744 OA
ENDBRANCH  70  71
ENDBRANCH  38  63
ENDBRANCH  12  13
ENDBRANCH   5   7
ENDBRANCH   2   3
ENDBRANCH   1   2
BRANCH   1  75
ATOM     75  C   UNL A   1      31.515  31.045  25.624  1.00  0.00     0.117 C 
BRANCH  75  76
ATOM     76  N   UNL A   1      30.354  31.142  24.753  1.00  0.00    -0.354 N 
ATOM     77  C   UNL A   1      29.883  30.255  23.834  1.00  0.00     0.244 C 
ATOM     78  H   UNL A   1      29.830  31.972  24.842  1.00  0.00     0.163 HD
ATOM     79  O   UNL A   1      28.963  30.618  23.096  1.00  0.00    -0.273 OA
BRANCH  77  80
ATOM     80  C   UNL A   1      30.516  28.860  23.710  1.00  0.00     0.197 C 
BRANCH  80  81
ATOM     81  N   UNL A   1      29.406  27.916  23.598  1.00  0.00    -0.340 N 
ATOM     82  C   UNL A   1      29.312  26.585  23.818  1.00  0.00     0.244 C 
ATOM     83  H   UNL A   1      28.562  28.330  23.306  1.00  0.00     0.164 HD
ATOM     84  O   UNL A   1      28.169  26.109  23.759  1.00  0.00    -0.273 OA
BRANCH  82  85
ATOM     85  C   UNL A   1      30.511  25.625  23.924  1.00  0.00     0.181 C 
BRANCH  85  86
ATOM     86  N   UNL A   1      30.376  24.850  25.170  1.00  0.00    -0.339 N 
ATOM     87  C   UNL A   1      31.077  25.007  26.341  1.00  0.00     0.251 C 
ATOM     88  H   UNL A   1      29.700  24.134  25.163  1.00  0.00     0.164 HD
ATOM     89  O   UNL A   1      31.058  24.141  27.209  1.00  0.00    -0.269 OA
BRANCH  87  90
ATOM     90  C   UNL A   1      31.898  26.221  26.526  1.00  0.00     0.040 A 
ATOM     91  C   UNL A   1      33.204  26.274  26.020  1.00  0.00     0.017 A 
ATOM     92  C   UNL A   1      31.366  27.298  27.242  1.00  0.00     0.017 A 
ATOM     93  C   UNL A   1      34.011  27.371  26.311  1.00  0.00     0.040 A 
ATOM     94  C   UNL A   1      32.173  28.403  27.515  1.00  0.00     0.040 A 
ATOM     95  C   UNL A   1      33.491  28.421  27.063  1.00  0.00     0.123 A 
ATOM     96  F   UNL A   1      34.274  29.466  27.359  1.00  0.00    -0.207 F 
ENDBRANCH  87  90
ENDBRANCH  85  86
BRANCH  85  97
ATOM     97  C   UNL A   1      30.947  24.711  22.779  1.00  0.00     0.101 C 
BRANCH  97  98
ATOM     98  S   UNL A   1      32.662  24.136  22.853  1.00  0.00    -0.177 SA
ATOM     99  H   UNL A   1      33.466  25.029  22.213  1.00  0.00     0.102 HD
ENDBRANCH  97  98
ENDBRANCH  85  97
ENDBRANCH  82  85
ENDBRANCH  80  81
BRANCH  80 100
ATOM    100  C   UNL A   1      31.374  28.850  22.439  1.00  0.00     0.191 C 
BRANCH 100 101
ATOM    101  O   UNL A   1      31.200  30.054  21.698  1.00  0.00    -0.394 OA
ATOM    102  H   UNL A   1      30.409  29.979  21.142  1.00  0.00     0.210 HD
ENDBRANCH 100 101
ENDBRANCH  80 100
ENDBRANCH  77  80
ENDBRANCH  75  76
ENDBRANCH   1  75
TORSDOF 21
ENDMDL
MODEL 2
REMARK VINA RESULT:     -10.8      6.624     12.045
REMARK SMILES O=C(NCCCNC(=O)[C@H](CO)NC(=O)[C@H](CS)NC(=O)c1ccc(F)cc1)c1ccc(-c2c3nc(c(-c4c(F)cc(S(=O)(=O)[O-])cc4F)c4ccc([nH]4)c(-c4c(F)cc(S(=O)(=O)[O-])cc4F)c4nc(c(-c5c(F)cc(S(=O)(=O)[O-])cc5F)c5ccc2[nH]5)C=C4)C=C3)cc1
REMARK SMILES IDX 5 1 4 2 3 3 1 4 2 5 29 7 30 8 94 9 31 10 93 11 32 12 33 13
REMARK SMILES IDX 34 14 87 15 35 16 92 17 86 18 88 19 36 20 91 21 85 22 84 23
REMARK SMILES IDX 37 25 71 26 50 27 70 28 51 29 54 30 69 31 89 32 52 33 53 34
REMARK SMILES IDX 68 36 90 37 55 38 38 39 39 40 48 41 40 42 41 43 47 44 49 45
REMARK SMILES IDX 42 46 43 47 44 48 45 49 46 50 72 51 73 52 82 53 74 54 75 55
REMARK SMILES IDX 81 56 83 57 76 58 77 59 78 60 79 61 80 62 56 63 57 64 66 65
REMARK SMILES IDX 58 66 59 67 65 68 67 69 60 70 61 71 62 72 63 73 64 74 6 75
REMARK SMILES IDX 7 76 8 77 9 79 10 80 13 81 14 82 15 84 16 85 19 86 20 87
REMARK SMILES IDX 21 89 22 90 23 91 28 92 24 93 27 94 25 95 26 96 17 97 18 98
REMARK SMILES IDX 11 100 12 101
REMARK H PARENT 3 6 88 24 54 35 7 78 13 83 19 88 18 99 12 102
REMARK Flexibility Score: inf
ROOT
ATOM      1  C   UNL A   1      38.002  19.940  24.798  1.00  0.00     0.042 C 
ENDROOT
BRANCH   1   2
ATOM      2  C   UNL A   1      39.091  20.366  25.770  1.00  0.00     0.118 C 
BRANCH   2   3
ATOM      3  N   UNL A   1      40.138  19.357  25.907  1.00  0.00    -0.352 N 
ATOM      4  O   UNL A   1      42.244  18.554  25.980  1.00  0.00    -0.269 OA
ATOM      5  C   UNL A   1      41.489  19.513  26.119  1.00  0.00     0.251 C 
ATOM      6  H   UNL A   1      39.830  18.425  25.837  1.00  0.00     0.163 HD
BRANCH   5   7
ATOM      7  C   UNL A   1      42.022  20.841  26.491  1.00  0.00     0.039 A 
ATOM      8  C   UNL A   1      42.239  21.796  25.502  1.00  0.00     0.014 A 
ATOM      9  C   UNL A   1      42.320  21.140  27.823  1.00  0.00     0.014 A 
ATOM     10  C   UNL A   1      42.960  22.939  25.798  1.00  0.00     0.010 A 
ATOM     11  C   UNL A   1      42.899  22.374  28.146  1.00  0.00     0.010 A 
ATOM     12  C   UNL A   1      43.255  23.273  27.131  1.00  0.00    -0.014 A 
BRANCH  12  13
ATOM     13  C   UNL A   1      43.836  24.617  27.394  1.00  0.00     0.031 A 
ATOM     14  C   UNL A   1      45.262  24.947  27.053  1.00  0.00     0.074 A 
ATOM     15  C   UNL A   1      43.008  25.573  27.868  1.00  0.00     0.049 A 
ATOM     16  N   UNL A   1      45.879  26.098  27.157  1.00  0.00    -0.248 NA
ATOM     17  C   UNL A   1      46.113  23.862  26.540  1.00  0.00     0.031 C 
ATOM     18  C   UNL A   1      41.605  25.355  28.245  1.00  0.00     0.029 A 
ATOM     19  N   UNL A   1      43.188  26.917  28.060  1.00  0.00    -0.354 N 
ATOM     20  C   UNL A   1      47.187  25.874  26.744  1.00  0.00     0.074 A 
ATOM     21  C   UNL A   1      47.286  24.471  26.406  1.00  0.00     0.031 C 
ATOM     22  C   UNL A   1      41.028  26.534  28.509  1.00  0.00     0.029 A 
ATOM     23  C   UNL A   1      42.040  27.578  28.431  1.00  0.00     0.049 A 
ATOM     24  H   UNL A   1      44.056  27.368  27.942  1.00  0.00     0.167 HD
ATOM     25  C   UNL A   1      48.204  26.765  26.651  1.00  0.00     0.037 A 
ATOM     26  C   UNL A   1      41.819  28.878  28.700  1.00  0.00     0.037 A 
ATOM     27  C   UNL A   1      48.080  28.167  26.969  1.00  0.00     0.049 A 
ATOM     28  C   UNL A   1      42.973  29.831  28.608  1.00  0.00     0.074 A 
ATOM     29  C   UNL A   1      49.050  29.152  26.893  1.00  0.00     0.029 A 
ATOM     30  N   UNL A   1      46.920  28.786  27.412  1.00  0.00    -0.354 N 
ATOM     31  N   UNL A   1      44.203  29.594  28.221  1.00  0.00    -0.248 NA
ATOM     32  C   UNL A   1      42.717  31.219  29.008  1.00  0.00     0.031 C 
ATOM     33  C   UNL A   1      48.490  30.354  27.333  1.00  0.00     0.029 A 
ATOM     34  C   UNL A   1      47.156  30.133  27.633  1.00  0.00     0.049 A 
ATOM     35  H   UNL A   1      46.056  28.333  27.550  1.00  0.00     0.167 HD
ATOM     36  C   UNL A   1      44.870  30.807  28.330  1.00  0.00     0.074 A 
ATOM     37  C   UNL A   1      43.897  31.780  28.783  1.00  0.00     0.031 C 
ATOM     38  C   UNL A   1      46.175  31.085  28.090  1.00  0.00     0.037 A 
BRANCH  25  39
ATOM     39  C   UNL A   1      49.550  26.274  26.188  1.00  0.00     0.058 A 
ATOM     40  C   UNL A   1      50.411  25.613  27.081  1.00  0.00     0.135 A 
ATOM     41  C   UNL A   1      50.037  26.564  24.905  1.00  0.00     0.135 A 
ATOM     42  F   UNL A   1      49.993  25.303  28.319  1.00  0.00    -0.206 F 
ATOM     43  C   UNL A   1      51.717  25.289  26.729  1.00  0.00     0.059 A 
ATOM     44  C   UNL A   1      51.334  26.230  24.524  1.00  0.00     0.059 A 
ATOM     45  F   UNL A   1      49.249  27.175  24.005  1.00  0.00    -0.206 F 
ATOM     46  C   UNL A   1      52.174  25.612  25.450  1.00  0.00     0.060 A 
BRANCH  46  47
ATOM     47  S   UNL A   1      53.879  25.205  25.018  1.00  0.00     0.124 S 
ATOM     48  O   UNL A   1      53.832  23.750  24.937  1.00  0.00    -0.237 OA
ATOM     49  O   UNL A   1      54.049  25.909  23.751  1.00  0.00    -0.237 OA
ATOM     50  O   UNL A   1      54.649  25.748  26.134  1.00  0.00    -0.744 OA
ENDBRANCH  46  47
ENDBRANCH  25  39
BRANCH  26  51
ATOM     51  C   UNL A   1      40.463  29.337  29.102  1.00  0.00     0.058 A 
ATOM     52  C   UNL A   1      39.459  29.560  28.145  1.00  0.00     0.135 A 
ATOM     53  C   UNL A   1      40.151  29.586  30.446  1.00  0.00     0.135 A 
ATOM     54  F   UNL A   1      39.708  29.350  26.844  1.00  0.00    -0.206 F 
ATOM     55  C   UNL A   1      38.204  30.035  28.503  1.00  0.00     0.059 A 
ATOM     56  C   UNL A   1      38.888  30.028  30.833  1.00  0.00     0.059 A 
ATOM     57  F   UNL A   1      41.074  29.382  31.398  1.00  0.00    -0.206 F 
ATOM     58  C   UNL A   1      37.927  30.265  29.851  1.00  0.00     0.060 A 
BRANCH  58  59
ATOM     59  S   UNL A   1      36.280  30.855  30.295  1.00  0.00     0.124 S 
ATOM     60  O   UNL A   1      36.497  32.296  30.361  1.00  0.00    -0.237 OA
ATOM     61  O   UNL A   1      35.474  30.384  29.173  1.00  0.00    -0.237 OA
ATOM     62  O   UNL A   1      36.021  30.197  31.571  1.00  0.00    -0.744 OA
ENDBRANCH  58  59
ENDBRANCH  26  51
BRANCH  38  63
ATOM     63  C   UNL A   1      46.619  32.503  28.307  1.00  0.00     0.058 A 
ATOM     64  C   UNL A   1      46.513  33.449  27.275  1.00  0.00     0.135 A 
ATOM     65  C   UNL A   1      47.180  32.918  29.525  1.00  0.00     0.135 A 
ATOM     66  F   UNL A   1      45.988  33.102  26.089  1.00  0.00    -0.206 F 
ATOM     67  C   UNL A   1      46.955  34.755  27.442  1.00  0.00     0.059 A 
ATOM     68  C   UNL A   1      47.600  34.228  29.725  1.00  0.00     0.059 A 
ATOM     69  F   UNL A   1      47.289  32.052  30.546  1.00  0.00    -0.206 F 
ATOM     70  C   UNL A   1      47.495  35.136  28.672  1.00  0.00     0.060 A 
BRANCH  70  71
ATOM     71  S   UNL A   1      48.022  36.849  28.884  1.00  0.00     0.124 S 
ATOM     72  O   UNL A   1      49.474  36.712  28.925  1.00  0.00    -0.237 OA
ATOM     73  O   UNL A   1      47.478  37.491  27.692  1.00  0.00    -0.237 OA
ATOM     74  O   UNL A   1      47.392  37.243  30.142  1.00  0.00    -0.744 OA
ENDBRANCH  70  71
ENDBRANCH  38  63
ENDBRANCH  12  13
ENDBRANCH   5   7
ENDBRANCH   2   3
ENDBRANCH   1   2
BRANCH   1  75
ATOM     75  C   UNL A   1      36.617  20.288  25.314  1.00  0.00     0.117 C 
BRANCH  75  76
ATOM     76  N   UNL A   1      35.659  19.244  24.984  1.00  0.00    -0.354 N 
ATOM     77  C   UNL A   1      34.327  19.342  24.721  1.00  0.00     0.244 C 
ATOM     78  H   UNL A   1      36.029  18.332  24.945  1.00  0.00     0.163 HD
ATOM     79  O   UNL A   1      33.678  18.298  24.617  1.00  0.00    -0.273 OA
BRANCH  77  80
ATOM     80  C   UNL A   1      33.662  20.722  24.596  1.00  0.00     0.197 C 
BRANCH  80  81
ATOM     81  N   UNL A   1      32.724  20.625  23.479  1.00  0.00    -0.340 N 
ATOM     82  C   UNL A   1      32.139  21.556  22.693  1.00  0.00     0.244 C 
ATOM     83  H   UNL A   1      32.469  19.701  23.256  1.00  0.00     0.164 HD
ATOM     84  O   UNL A   1      31.490  21.118  21.733  1.00  0.00    -0.273 OA
BRANCH  82  85
ATOM     85  C   UNL A   1      32.057  23.058  23.022  1.00  0.00     0.181 C 
BRANCH  85  86
ATOM     86  N   UNL A   1      32.618  23.812  21.886  1.00  0.00    -0.339 N 
ATOM     87  C   UNL A   1      33.112  25.094  21.888  1.00  0.00     0.251 C 
ATOM     88  H   UNL A   1      32.640  23.341  21.023  1.00  0.00     0.164 HD
ATOM     89  O   UNL A   1      33.306  25.696  20.838  1.00  0.00    -0.269 OA
BRANCH  87  90
ATOM     90  C   UNL A   1      33.371  25.759  23.180  1.00  0.00     0.040 A 
ATOM     91  C   UNL A   1      34.207  25.156  24.130  1.00  0.00     0.017 A 
ATOM     92  C   UNL A   1      32.742  26.979  23.455  1.00  0.00     0.017 A 
ATOM     93  C   UNL A   1      34.341  25.730  25.392  1.00  0.00     0.040 A 
ATOM     94  C   UNL A   1      32.895  27.558  24.714  1.00  0.00     0.040 A 
ATOM     95  C   UNL A   1      33.677  26.920  25.676  1.00  0.00     0.123 A 
ATOM     96  F   UNL A   1      33.790  27.460  26.896  1.00  0.00    -0.207 F 
ENDBRANCH  87  90
ENDBRANCH  85  86
BRANCH  85  97
ATOM     97  C   UNL A   1      30.779  23.730  23.522  1.00  0.00     0.101 C 
BRANCH  97  98
ATOM     98  S   UNL A   1      30.734  24.094  25.295  1.00  0.00    -0.177 SA
ATOM     99  H   UNL A   1      30.103  25.282  25.497  1.00  0.00     0.102 HD
ENDBRANCH  97  98
ENDBRANCH  85  97
ENDBRANCH  82  85
ENDBRANCH  80  81
BRANCH  80 100
ATOM    100  C   UNL A   1      32.922  21.003  25.910  1.00  0.00     0.191 C 
BRANCH 100 101
ATOM    101  O   UNL A   1      33.275  20.048  26.907  1.00  0.00    -0.394 OA
ATOM    102  H   UNL A   1      33.739  19.304  26.492  1.00  0.00     0.210 HD
ENDBRANCH 100 101
ENDBRANCH  80 100
ENDBRANCH  77  80
ENDBRANCH  75  76
ENDBRANCH   1  75
TORSDOF 21
ENDMDL
MODEL 3
REMARK VINA RESULT:     -10.7      6.653     10.515
REMARK SMILES O=C(NCCCNC(=O)[C@H](CO)NC(=O)[C@H](CS)NC(=O)c1ccc(F)cc1)c1ccc(-c2c3nc(c(-c4c(F)cc(S(=O)(=O)[O-])cc4F)c4ccc([nH]4)c(-c4c(F)cc(S(=O)(=O)[O-])cc4F)c4nc(c(-c5c(F)cc(S(=O)(=O)[O-])cc5F)c5ccc2[nH]5)C=C4)C=C3)cc1
REMARK SMILES IDX 5 1 4 2 3 3 1 4 2 5 29 7 30 8 94 9 31 10 93 11 32 12 33 13
REMARK SMILES IDX 34 14 87 15 35 16 92 17 86 18 88 19 36 20 91 21 85 22 84 23
REMARK SMILES IDX 37 25 71 26 50 27 70 28 51 29 54 30 69 31 89 32 52 33 53 34
REMARK SMILES IDX 68 36 90 37 55 38 38 39 39 40 48 41 40 42 41 43 47 44 49 45
REMARK SMILES IDX 42 46 43 47 44 48 45 49 46 50 72 51 73 52 82 53 74 54 75 55
REMARK SMILES IDX 81 56 83 57 76 58 77 59 78 60 79 61 80 62 56 63 57 64 66 65
REMARK SMILES IDX 58 66 59 67 65 68 67 69 60 70 61 71 62 72 63 73 64 74 6 75
REMARK SMILES IDX 7 76 8 77 9 79 10 80 13 81 14 82 15 84 16 85 19 86 20 87
REMARK SMILES IDX 21 89 22 90 23 91 28 92 24 93 27 94 25 95 26 96 17 97 18 98
REMARK SMILES IDX 11 100 12 101
REMARK H PARENT 3 6 88 24 54 35 7 78 13 83 19 88 18 99 12 102
REMARK Flexibility Score: inf
ROOT
ATOM      1  C   UNL A   1      38.226  19.486  24.866  1.00  0.00     0.042 C 
ENDROOT
BRANCH   1   2
ATOM      2  C   UNL A   1      39.271  20.102  25.784  1.00  0.00     0.118 C 
BRANCH   2   3
ATOM      3  N   UNL A   1      40.372  19.185  26.064  1.00  0.00    -0.352 N 
ATOM      4  O   UNL A   1      42.520  18.540  26.305  1.00  0.00    -0.269 OA
ATOM      5  C   UNL A   1      41.698  19.454  26.318  1.00  0.00     0.251 C 
ATOM      6  H   UNL A   1      40.130  18.231  26.073  1.00  0.00     0.163 HD
BRANCH   5   7
ATOM      7  C   UNL A   1      42.126  20.845  26.580  1.00  0.00     0.039 A 
ATOM      8  C   UNL A   1      42.254  21.736  25.519  1.00  0.00     0.014 A 
ATOM      9  C   UNL A   1      42.411  21.266  27.881  1.00  0.00     0.014 A 
ATOM     10  C   UNL A   1      42.883  22.952  25.717  1.00  0.00     0.010 A 
ATOM     11  C   UNL A   1      42.891  22.564  28.102  1.00  0.00     0.010 A 
ATOM     12  C   UNL A   1      43.163  23.409  27.016  1.00  0.00    -0.014 A 
BRANCH  12  13
ATOM     13  C   UNL A   1      43.635  24.812  27.169  1.00  0.00     0.031 A 
ATOM     14  C   UNL A   1      42.754  25.890  27.734  1.00  0.00     0.074 A 
ATOM     15  C   UNL A   1      44.927  25.072  26.869  1.00  0.00     0.049 A 
ATOM     16  N   UNL A   1      43.058  27.137  27.995  1.00  0.00    -0.248 NA
ATOM     17  C   UNL A   1      41.357  25.543  28.041  1.00  0.00     0.031 C 
ATOM     18  C   UNL A   1      45.868  24.098  26.300  1.00  0.00     0.029 A 
ATOM     19  N   UNL A   1      45.692  26.193  27.049  1.00  0.00    -0.354 N 
ATOM     20  C   UNL A   1      41.894  27.726  28.475  1.00  0.00     0.074 A 
ATOM     21  C   UNL A   1      40.867  26.707  28.451  1.00  0.00     0.031 C 
ATOM     22  C   UNL A   1      47.098  24.625  26.287  1.00  0.00     0.029 A 
ATOM     23  C   UNL A   1      47.020  26.007  26.737  1.00  0.00     0.049 A 
ATOM     24  H   UNL A   1      45.328  27.050  27.370  1.00  0.00     0.167 HD
ATOM     25  C   UNL A   1      41.710  28.999  28.901  1.00  0.00     0.037 A 
ATOM     26  C   UNL A   1      48.063  26.855  26.788  1.00  0.00     0.037 A 
ATOM     27  C   UNL A   1      42.753  29.996  28.941  1.00  0.00     0.049 A 
ATOM     28  C   UNL A   1      47.818  28.262  27.244  1.00  0.00     0.074 A 
ATOM     29  C   UNL A   1      42.667  31.309  29.371  1.00  0.00     0.029 A 
ATOM     30  N   UNL A   1      44.068  29.791  28.549  1.00  0.00    -0.354 N 
ATOM     31  N   UNL A   1      46.706  28.798  27.687  1.00  0.00    -0.248 NA
ATOM     32  C   UNL A   1      48.957  29.184  27.187  1.00  0.00     0.031 C 
ATOM     33  C   UNL A   1      43.917  31.910  29.195  1.00  0.00     0.029 A 
ATOM     34  C   UNL A   1      44.797  30.959  28.707  1.00  0.00     0.049 A 
ATOM     35  H   UNL A   1      44.429  28.941  28.208  1.00  0.00     0.167 HD
ATOM     36  C   UNL A   1      47.013  30.123  27.964  1.00  0.00     0.074 A 
ATOM     37  C   UNL A   1      48.422  30.295  27.673  1.00  0.00     0.031 C 
ATOM     38  C   UNL A   1      46.198  31.112  28.407  1.00  0.00     0.037 A 
BRANCH  25  39
ATOM     39  C   UNL A   1      40.338  29.410  29.365  1.00  0.00     0.058 A 
ATOM     40  C   UNL A   1      39.352  29.774  28.432  1.00  0.00     0.135 A 
ATOM     41  C   UNL A   1      40.037  29.564  30.726  1.00  0.00     0.135 A 
ATOM     42  F   UNL A   1      39.583  29.639  27.117  1.00  0.00    -0.206 F 
ATOM     43  C   UNL A   1      38.131  30.307  28.832  1.00  0.00     0.059 A 
ATOM     44  C   UNL A   1      38.814  30.076  31.151  1.00  0.00     0.059 A 
ATOM     45  F   UNL A   1      40.935  29.211  31.661  1.00  0.00    -0.206 F 
ATOM     46  C   UNL A   1      37.875  30.465  30.195  1.00  0.00     0.060 A 
BRANCH  46  47
ATOM     47  S   UNL A   1      36.294  31.180  30.696  1.00  0.00     0.124 S 
ATOM     48  O   UNL A   1      35.487  31.001  29.495  1.00  0.00    -0.237 OA
ATOM     49  O   UNL A   1      35.931  30.348  31.839  1.00  0.00    -0.237 OA
ATOM     50  O   UNL A   1      36.637  32.562  31.022  1.00  0.00    -0.744 OA
ENDBRANCH  46  47
ENDBRANCH  25  39
BRANCH  26  51
ATOM     51  C   UNL A   1      49.417  26.398  26.373  1.00  0.00     0.058 A 
ATOM     52  C   UNL A   1      50.264  25.729  27.272  1.00  0.00     0.135 A 
ATOM     53  C   UNL A   1      49.900  26.643  25.080  1.00  0.00     0.135 A 
ATOM     54  F   UNL A   1      49.856  25.482  28.527  1.00  0.00    -0.206 F 
ATOM     55  C   UNL A   1      51.547  25.341  26.912  1.00  0.00     0.059 A 
ATOM     56  C   UNL A   1      51.170  26.231  24.684  1.00  0.00     0.059 A 
ATOM     57  F   UNL A   1      49.126  27.273  24.183  1.00  0.00    -0.206 F 
ATOM     58  C   UNL A   1      51.991  25.595  25.614  1.00  0.00     0.060 A 
BRANCH  58  59
ATOM     59  S   UNL A   1      53.653  25.056  25.160  1.00  0.00     0.124 S 
ATOM     60  O   UNL A   1      54.455  25.671  26.212  1.00  0.00    -0.237 OA
ATOM     61  O   UNL A   1      53.531  23.602  25.222  1.00  0.00    -0.237 OA
ATOM     62  O   UNL A   1      53.833  25.612  23.824  1.00  0.00    -0.744 OA
ENDBRANCH  58  59
ENDBRANCH  26  51
BRANCH  38  63
ATOM     63  C   UNL A   1      46.817  32.465  28.609  1.00  0.00     0.058 A 
ATOM     64  C   UNL A   1      47.351  32.825  29.856  1.00  0.00     0.135 A 
ATOM     65  C   UNL A   1      46.852  33.417  27.577  1.00  0.00     0.135 A 
ATOM     66  F   UNL A   1      47.338  31.953  30.876  1.00  0.00    -0.206 F 
ATOM     67  C   UNL A   1      47.892  34.086  30.075  1.00  0.00     0.059 A 
ATOM     68  C   UNL A   1      47.417  34.674  27.766  1.00  0.00     0.059 A 
ATOM     69  F   UNL A   1      46.366  33.113  26.363  1.00  0.00    -0.206 F 
ATOM     70  C   UNL A   1      47.922  35.003  29.023  1.00  0.00     0.060 A 
BRANCH  70  71
ATOM     71  S   UNL A   1      48.669  36.619  29.314  1.00  0.00     0.124 S 
ATOM     72  O   UNL A   1      47.859  37.481  28.459  1.00  0.00    -0.237 OA
ATOM     73  O   UNL A   1      48.482  36.793  30.751  1.00  0.00    -0.237 OA
ATOM     74  O   UNL A   1      50.054  36.434  28.888  1.00  0.00    -0.744 OA
ENDBRANCH  70  71
ENDBRANCH  38  63
ENDBRANCH  12  13
ENDBRANCH   5   7
ENDBRANCH   2   3
ENDBRANCH   1   2
BRANCH   1  75
ATOM     75  C   UNL A   1      36.824  19.962  25.206  1.00  0.00     0.117 C 
BRANCH  75  76
ATOM     76  N   UNL A   1      35.831  18.963  24.844  1.00  0.00    -0.354 N 
ATOM     77  C   UNL A   1      34.492  19.104  24.649  1.00  0.00     0.244 C 
ATOM     78  H   UNL A   1      36.180  18.049  24.721  1.00  0.00     0.163 HD
ATOM     79  O   UNL A   1      33.816  18.082  24.497  1.00  0.00    -0.273 OA
BRANCH  77  80
ATOM     80  C   UNL A   1      33.851  20.501  24.656  1.00  0.00     0.197 C 
BRANCH  80  81
ATOM     81  N   UNL A   1      32.846  20.496  23.595  1.00  0.00    -0.340 N 
ATOM     82  C   UNL A   1      32.150  21.485  22.991  1.00  0.00     0.244 C 
ATOM     83  H   UNL A   1      32.636  19.597  23.253  1.00  0.00     0.164 HD
ATOM     84  O   UNL A   1      31.464  21.142  22.017  1.00  0.00    -0.273 OA
BRANCH  82  85
ATOM     85  C   UNL A   1      31.994  22.914  23.542  1.00  0.00     0.181 C 
BRANCH  85  86
ATOM     86  N   UNL A   1      32.484  23.859  22.522  1.00  0.00    -0.339 N 
ATOM     87  C   UNL A   1      33.676  24.541  22.509  1.00  0.00     0.251 C 
ATOM     88  H   UNL A   1      31.884  24.021  21.758  1.00  0.00     0.164 HD
ATOM     89  O   UNL A   1      33.854  25.487  21.749  1.00  0.00    -0.269 OA
BRANCH  87  90
ATOM     90  C   UNL A   1      34.737  24.147  23.458  1.00  0.00     0.040 A 
ATOM     91  C   UNL A   1      34.743  24.661  24.763  1.00  0.00     0.017 A 
ATOM     92  C   UNL A   1      35.751  23.285  23.026  1.00  0.00     0.017 A 
ATOM     93  C   UNL A   1      35.815  24.384  25.607  1.00  0.00     0.040 A 
ATOM     94  C   UNL A   1      36.813  22.997  23.883  1.00  0.00     0.040 A 
ATOM     95  C   UNL A   1      36.845  23.562  25.156  1.00  0.00     0.123 A 
ATOM     96  F   UNL A   1      37.885  23.313  25.961  1.00  0.00    -0.207 F 
ENDBRANCH  87  90
ENDBRANCH  85  86
BRANCH  85  97
ATOM     97  C   UNL A   1      30.695  23.430  24.158  1.00  0.00     0.101 C 
BRANCH  97  98
ATOM     98  S   UNL A   1      30.741  25.140  24.753  1.00  0.00    -0.177 SA
ATOM     99  H   UNL A   1      31.920  25.714  24.388  1.00  0.00     0.102 HD
ENDBRANCH  97  98
ENDBRANCH  85  97
ENDBRANCH  82  85
ENDBRANCH  80  81
BRANCH  80 100
ATOM    100  C   UNL A   1      33.198  20.707  26.028  1.00  0.00     0.191 C 
BRANCH 100 101
ATOM    101  O   UNL A   1      33.132  19.480  26.749  1.00  0.00    -0.394 OA
ATOM    102  H   UNL A   1      34.030  19.185  26.968  1.00  0.00     0.210 HD
ENDBRANCH 100 101
ENDBRANCH  80 100
ENDBRANCH  77  80
ENDBRANCH  75  76
ENDBRANCH   1  75
TORSDOF 21
ENDMDL
