MODEL 1
REMARK VINA RESULT:     -10.3      0.000      0.000
REMARK SMILES C[C@H](CC(=O)NCCCNC(=O)c1ccc(-c2c3nc(c(-c4c(F)cc(S(=O)(=O)[O-])cc4F)c4ccc([nH]4)c(-c4c(F)cc(S(=O)(=O)[O-])cc4F)c4nc(c(-c5c(F)cc(S(=O)(=O)[O-])cc5F)c5ccc2[nH]5)C=C4)C=C3)cc1)[NH2+][C@H](C)c1ccccc1
REMARK SMILES IDX 7 1 6 2 4 3 5 4 3 6 2 7 1 8 79 9 80 12 81 13 82 14 83 15
REMARK SMILES IDX 87 16 84 17 86 18 85 19 8 20 9 21 10 22 11 23 12 25 13 26
REMARK SMILES IDX 14 27 78 28 15 29 77 30 16 31 17 32 18 33 71 34 19 35 76 36
REMARK SMILES IDX 70 37 72 38 20 39 75 40 69 41 68 42 21 44 55 45 34 46 54 47
REMARK SMILES IDX 35 48 38 49 53 50 73 51 36 52 37 53 52 55 74 56 39 57 22 58
REMARK SMILES IDX 23 59 32 60 24 61 25 62 31 63 33 64 26 65 27 66 28 67 29 68
REMARK SMILES IDX 30 69 56 70 57 71 66 72 58 73 59 74 65 75 67 76 60 77 61 78
REMARK SMILES IDX 62 79 63 80 64 81 40 82 41 83 50 84 42 85 43 86 49 87 51 88
REMARK SMILES IDX 44 89 45 90 46 91 47 92 48 93
REMARK H PARENT 6 5 79 10 79 11 10 24 72 43 38 54
REMARK Flexibility Score: inf
ROOT
ATOM      1  C   UNL A   1      34.743  34.607  27.902  1.00  0.00     0.117 C 
ENDROOT
BRANCH   1   2
ATOM      2  N   UNL A   1      34.257  35.956  28.116  1.00  0.00    -0.356 N 
ATOM      3  C   UNL A   1      33.411  36.437  29.067  1.00  0.00     0.225 C 
ATOM      4  O   UNL A   1      33.104  37.631  29.024  1.00  0.00    -0.275 OA
ATOM      5  H   UNL A   1      34.592  36.627  27.477  1.00  0.00     0.163 HD
BRANCH   3   6
ATOM      6  C   UNL A   1      32.982  35.561  30.222  1.00  0.00     0.164 C 
BRANCH   6   7
ATOM      7  C   UNL A   1      34.020  35.287  31.331  1.00  0.00     0.189 C 
ATOM      8  C   UNL A   1      33.655  36.218  32.497  1.00  0.00     0.075 C 
BRANCH   7   9
ATOM      9  N   UNL A   1      34.031  33.873  31.690  1.00  0.00    -0.338 N 
ATOM     10  H   UNL A   1      33.614  33.372  30.906  1.00  0.00     0.347 HD
ATOM     11  H   UNL A   1      33.542  33.869  32.586  1.00  0.00     0.347 HD
BRANCH   9  12
ATOM     12  C   UNL A   1      35.290  33.172  32.012  1.00  0.00     0.210 C 
ATOM     13  C   UNL A   1      35.561  33.076  33.519  1.00  0.00     0.081 C 
BRANCH  12  14
ATOM     14  C   UNL A   1      36.550  33.529  31.230  1.00  0.00     0.009 A 
ATOM     15  C   UNL A   1      36.738  32.994  29.942  1.00  0.00     0.010 A 
ATOM     16  C   UNL A   1      37.597  34.298  31.764  1.00  0.00     0.010 A 
ATOM     17  C   UNL A   1      37.907  33.245  29.214  1.00  0.00     0.001 A 
ATOM     18  C   UNL A   1      38.750  34.581  31.026  1.00  0.00     0.001 A 
ATOM     19  C   UNL A   1      38.906  34.051  29.750  1.00  0.00     0.000 A 
ENDBRANCH  12  14
ENDBRANCH   9  12
ENDBRANCH   7   9
ENDBRANCH   6   7
ENDBRANCH   3   6
ENDBRANCH   1   2
BRANCH   1  20
ATOM     20  C   UNL A   1      33.589  33.616  27.776  1.00  0.00     0.042 C 
BRANCH  20  21
ATOM     21  C   UNL A   1      33.858  32.267  28.440  1.00  0.00     0.118 C 
BRANCH  21  22
ATOM     22  N   UNL A   1      33.607  31.144  27.547  1.00  0.00    -0.352 N 
ATOM     23  C   UNL A   1      34.420  30.096  27.192  1.00  0.00     0.251 C 
ATOM     24  H   UNL A   1      32.714  31.135  27.134  1.00  0.00     0.163 HD
ATOM     25  O   UNL A   1      34.076  29.355  26.277  1.00  0.00    -0.269 OA
BRANCH  23  26
ATOM     26  C   UNL A   1      35.705  29.868  27.889  1.00  0.00     0.039 A 
ATOM     27  C   UNL A   1      35.678  29.465  29.227  1.00  0.00     0.014 A 
ATOM     28  C   UNL A   1      36.930  30.082  27.251  1.00  0.00     0.014 A 
ATOM     29  C   UNL A   1      36.874  29.220  29.904  1.00  0.00     0.010 A 
ATOM     30  C   UNL A   1      38.121  29.765  27.905  1.00  0.00     0.010 A 
ATOM     31  C   UNL A   1      38.106  29.334  29.239  1.00  0.00    -0.014 A 
BRANCH  31  32
ATOM     32  C   UNL A   1      39.380  28.994  29.924  1.00  0.00     0.031 A 
ATOM     33  C   UNL A   1      39.816  29.752  31.149  1.00  0.00     0.074 A 
ATOM     34  C   UNL A   1      40.170  28.029  29.411  1.00  0.00     0.049 A 
ATOM     35  N   UNL A   1      40.911  29.621  31.854  1.00  0.00    -0.248 NA
ATOM     36  C   UNL A   1      38.915  30.811  31.632  1.00  0.00     0.031 C 
ATOM     37  C   UNL A   1      39.879  27.252  28.203  1.00  0.00     0.029 A 
ATOM     38  N   UNL A   1      41.379  27.536  29.837  1.00  0.00    -0.354 N 
ATOM     39  C   UNL A   1      40.835  30.581  32.857  1.00  0.00     0.074 A 
ATOM     40  C   UNL A   1      39.614  31.325  32.634  1.00  0.00     0.031 C 
ATOM     41  C   UNL A   1      40.867  26.365  28.001  1.00  0.00     0.029 A 
ATOM     42  C   UNL A   1      41.879  26.535  29.038  1.00  0.00     0.049 A 
ATOM     43  H   UNL A   1      41.844  27.870  30.637  1.00  0.00     0.167 HD
ATOM     44  C   UNL A   1      41.692  30.808  33.882  1.00  0.00     0.037 A 
ATOM     45  C   UNL A   1      43.028  25.836  29.126  1.00  0.00     0.037 A 
ATOM     46  C   UNL A   1      42.899  30.054  34.105  1.00  0.00     0.049 A 
ATOM     47  C   UNL A   1      43.970  26.115  30.266  1.00  0.00     0.074 A 
ATOM     48  C   UNL A   1      43.810  30.175  35.141  1.00  0.00     0.029 A 
ATOM     49  N   UNL A   1      43.369  29.043  33.279  1.00  0.00    -0.354 N 
ATOM     50  N   UNL A   1      43.852  26.986  31.240  1.00  0.00    -0.248 NA
ATOM     51  C   UNL A   1      45.198  25.311  30.324  1.00  0.00     0.031 C 
ATOM     52  C   UNL A   1      44.854  29.272  34.915  1.00  0.00     0.029 A 
ATOM     53  C   UNL A   1      44.567  28.548  33.769  1.00  0.00     0.049 A 
ATOM     54  H   UNL A   1      42.918  28.725  32.463  1.00  0.00     0.167 HD
ATOM     55  C   UNL A   1      44.975  26.815  32.041  1.00  0.00     0.074 A 
ATOM     56  C   UNL A   1      45.752  25.747  31.447  1.00  0.00     0.031 C 
ATOM     57  C   UNL A   1      45.330  27.480  33.169  1.00  0.00     0.037 A 
BRANCH  44  58
ATOM     58  C   UNL A   1      41.354  31.914  34.845  1.00  0.00     0.058 A 
ATOM     59  C   UNL A   1      41.882  33.208  34.698  1.00  0.00     0.135 A 
ATOM     60  C   UNL A   1      40.459  31.693  35.905  1.00  0.00     0.135 A 
ATOM     61  F   UNL A   1      42.752  33.475  33.712  1.00  0.00    -0.206 F 
ATOM     62  C   UNL A   1      41.561  34.232  35.583  1.00  0.00     0.059 A 
ATOM     63  C   UNL A   1      40.099  32.711  36.785  1.00  0.00     0.059 A 
ATOM     64  F   UNL A   1      39.922  30.477  36.094  1.00  0.00    -0.206 F 
ATOM     65  C   UNL A   1      40.666  33.974  36.624  1.00  0.00     0.060 A 
BRANCH  65  66
ATOM     66  S   UNL A   1      40.255  35.317  37.758  1.00  0.00     0.124 S 
ATOM     67  O   UNL A   1      39.065  34.787  38.417  1.00  0.00    -0.237 OA
ATOM     68  O   UNL A   1      41.453  35.402  38.588  1.00  0.00    -0.237 OA
ATOM     69  O   UNL A   1      40.027  36.453  36.872  1.00  0.00    -0.744 OA
ENDBRANCH  65  66
ENDBRANCH  44  58
BRANCH  45  70
ATOM     70  C   UNL A   1      43.339  24.787  28.117  1.00  0.00     0.058 A 
ATOM     71  C   UNL A   1      44.056  25.097  26.952  1.00  0.00     0.135 A 
ATOM     72  C   UNL A   1      42.934  23.455  28.301  1.00  0.00     0.135 A 
ATOM     73  F   UNL A   1      44.459  26.356  26.728  1.00  0.00    -0.206 F 
ATOM     74  C   UNL A   1      44.347  24.129  25.996  1.00  0.00     0.059 A 
ATOM     75  C   UNL A   1      43.238  22.464  27.373  1.00  0.00     0.059 A 
ATOM     76  F   UNL A   1      42.261  23.102  29.407  1.00  0.00    -0.206 F 
ATOM     77  C   UNL A   1      43.936  22.813  26.218  1.00  0.00     0.060 A 
BRANCH  77  78
ATOM     78  S   UNL A   1      44.362  21.556  24.993  1.00  0.00     0.124 S 
ATOM     79  O   UNL A   1      43.394  20.509  25.300  1.00  0.00    -0.237 OA
ATOM     80  O   UNL A   1      44.156  22.270  23.737  1.00  0.00    -0.237 OA
ATOM     81  O   UNL A   1      45.753  21.242  25.306  1.00  0.00    -0.744 OA
ENDBRANCH  77  78
ENDBRANCH  45  70
BRANCH  57  82
ATOM     82  C   UNL A   1      46.597  27.050  33.856  1.00  0.00     0.058 A 
ATOM     83  C   UNL A   1      46.608  26.034  34.825  1.00  0.00     0.135 A 
ATOM     84  C   UNL A   1      47.826  27.639  33.512  1.00  0.00     0.135 A 
ATOM     85  F   UNL A   1      45.461  25.442  35.195  1.00  0.00    -0.206 F 
ATOM     86  C   UNL A   1      47.785  25.638  35.450  1.00  0.00     0.059 A 
ATOM     87  C   UNL A   1      49.020  27.236  34.103  1.00  0.00     0.059 A 
ATOM     88  F   UNL A   1      47.876  28.607  32.585  1.00  0.00    -0.206 F 
ATOM     89  C   UNL A   1      48.988  26.244  35.082  1.00  0.00     0.060 A 
BRANCH  89  90
ATOM     90  S   UNL A   1      50.511  25.706  35.886  1.00  0.00     0.124 S 
ATOM     91  O   UNL A   1      50.997  24.698  34.950  1.00  0.00    -0.237 OA
ATOM     92  O   UNL A   1      51.286  26.940  35.947  1.00  0.00    -0.237 OA
ATOM     93  O   UNL A   1      50.055  25.196  37.175  1.00  0.00    -0.744 OA
ENDBRANCH  89  90
ENDBRANCH  57  82
ENDBRANCH  31  32
ENDBRANCH  23  26
ENDBRANCH  21  22
ENDBRANCH  20  21
ENDBRANCH   1  20
TORSDOF 17
ENDMDL
MODEL 2
REMARK VINA RESULT:     -10.0      3.305     10.912
REMARK SMILES C[C@H](CC(=O)NCCCNC(=O)c1ccc(-c2c3nc(c(-c4c(F)cc(S(=O)(=O)[O-])cc4F)c4ccc([nH]4)c(-c4c(F)cc(S(=O)(=O)[O-])cc4F)c4nc(c(-c5c(F)cc(S(=O)(=O)[O-])cc5F)c5ccc2[nH]5)C=C4)C=C3)cc1)[NH2+][C@H](C)c1ccccc1
REMARK SMILES IDX 7 1 6 2 4 3 5 4 3 6 2 7 1 8 79 9 80 12 81 13 82 14 83 15
REMARK SMILES IDX 87 16 84 17 86 18 85 19 8 20 9 21 10 22 11 23 12 25 13 26
REMARK SMILES IDX 14 27 78 28 15 29 77 30 16 31 17 32 18 33 71 34 19 35 76 36
REMARK SMILES IDX 70 37 72 38 20 39 75 40 69 41 68 42 21 44 55 45 34 46 54 47
REMARK SMILES IDX 35 48 38 49 53 50 73 51 36 52 37 53 52 55 74 56 39 57 22 58
REMARK SMILES IDX 23 59 32 60 24 61 25 62 31 63 33 64 26 65 27 66 28 67 29 68
REMARK SMILES IDX 30 69 56 70 57 71 66 72 58 73 59 74 65 75 67 76 60 77 61 78
REMARK SMILES IDX 62 79 63 80 64 81 40 82 41 83 50 84 42 85 43 86 49 87 51 88
REMARK SMILES IDX 44 89 45 90 46 91 47 92 48 93
REMARK H PARENT 6 5 79 10 79 11 10 24 72 43 38 54
REMARK Flexibility Score: inf
ROOT
ATOM      1  C   UNL A   1      42.412  21.009  26.001  1.00  0.00     0.117 C 
ENDROOT
BRANCH   1   2
ATOM      2  N   UNL A   1      42.436  22.260  25.268  1.00  0.00    -0.356 N 
ATOM      3  C   UNL A   1      43.084  23.423  25.548  1.00  0.00     0.225 C 
ATOM      4  O   UNL A   1      42.918  24.380  24.789  1.00  0.00    -0.275 OA
ATOM      5  H   UNL A   1      41.902  22.268  24.440  1.00  0.00     0.163 HD
BRANCH   3   6
ATOM      6  C   UNL A   1      44.091  23.484  26.675  1.00  0.00     0.164 C 
BRANCH   6   7
ATOM      7  C   UNL A   1      45.535  23.897  26.319  1.00  0.00     0.189 C 
ATOM      8  C   UNL A   1      46.073  22.802  25.386  1.00  0.00     0.075 C 
BRANCH   7   9
ATOM      9  N   UNL A   1      45.561  25.233  25.732  1.00  0.00    -0.338 N 
ATOM     10  H   UNL A   1      44.625  25.408  25.369  1.00  0.00     0.347 HD
ATOM     11  H   UNL A   1      46.336  25.167  25.071  1.00  0.00     0.347 HD
BRANCH   9  12
ATOM     12  C   UNL A   1      45.925  26.417  26.535  1.00  0.00     0.210 C 
ATOM     13  C   UNL A   1      46.482  26.060  27.920  1.00  0.00     0.081 C 
BRANCH  12  14
ATOM     14  C   UNL A   1      44.952  27.589  26.599  1.00  0.00     0.009 A 
ATOM     15  C   UNL A   1      45.276  28.714  27.378  1.00  0.00     0.010 A 
ATOM     16  C   UNL A   1      43.685  27.574  25.990  1.00  0.00     0.010 A 
ATOM     17  C   UNL A   1      44.387  29.786  27.515  1.00  0.00     0.001 A 
ATOM     18  C   UNL A   1      42.810  28.658  26.094  1.00  0.00     0.001 A 
ATOM     19  C   UNL A   1      43.159  29.764  26.861  1.00  0.00     0.000 A 
ENDBRANCH  12  14
ENDBRANCH   9  12
ENDBRANCH   7   9
ENDBRANCH   6   7
ENDBRANCH   3   6
ENDBRANCH   1   2
BRANCH   1  20
ATOM     20  C   UNL A   1      40.985  20.502  26.185  1.00  0.00     0.042 C 
BRANCH  20  21
ATOM     21  C   UNL A   1      40.059  21.502  26.875  1.00  0.00     0.118 C 
BRANCH  21  22
ATOM     22  N   UNL A   1      39.053  22.047  25.973  1.00  0.00    -0.352 N 
ATOM     23  C   UNL A   1      38.496  23.301  25.923  1.00  0.00     0.251 C 
ATOM     24  H   UNL A   1      38.722  21.418  25.292  1.00  0.00     0.163 HD
ATOM     25  O   UNL A   1      37.525  23.495  25.197  1.00  0.00    -0.269 OA
BRANCH  23  26
ATOM     26  C   UNL A   1      39.042  24.404  26.744  1.00  0.00     0.039 A 
ATOM     27  C   UNL A   1      39.906  25.322  26.141  1.00  0.00     0.014 A 
ATOM     28  C   UNL A   1      38.741  24.520  28.104  1.00  0.00     0.014 A 
ATOM     29  C   UNL A   1      40.419  26.386  26.886  1.00  0.00     0.010 A 
ATOM     30  C   UNL A   1      39.194  25.624  28.826  1.00  0.00     0.010 A 
ATOM     31  C   UNL A   1      40.040  26.567  28.225  1.00  0.00    -0.014 A 
BRANCH  31  32
ATOM     32  C   UNL A   1      40.512  27.742  29.003  1.00  0.00     0.031 A 
ATOM     33  C   UNL A   1      41.872  27.737  29.648  1.00  0.00     0.074 A 
ATOM     34  C   UNL A   1      39.691  28.800  29.167  1.00  0.00     0.049 A 
ATOM     35  N   UNL A   1      42.435  28.654  30.393  1.00  0.00    -0.248 NA
ATOM     36  C   UNL A   1      42.698  26.535  29.449  1.00  0.00     0.031 C 
ATOM     37  C   UNL A   1      38.333  28.907  28.629  1.00  0.00     0.029 A 
ATOM     38  N   UNL A   1      39.876  29.985  29.834  1.00  0.00    -0.354 N 
ATOM     39  C   UNL A   1      43.674  28.140  30.757  1.00  0.00     0.074 A 
ATOM     40  C   UNL A   1      43.757  26.808  30.198  1.00  0.00     0.031 C 
ATOM     41  C   UNL A   1      37.819  30.101  28.963  1.00  0.00     0.029 A 
ATOM     42  C   UNL A   1      38.791  30.829  29.772  1.00  0.00     0.049 A 
ATOM     43  H   UNL A   1      40.706  30.210  30.313  1.00  0.00     0.167 HD
ATOM     44  C   UNL A   1      44.662  28.732  31.471  1.00  0.00     0.037 A 
ATOM     45  C   UNL A   1      38.598  32.048  30.313  1.00  0.00     0.037 A 
ATOM     46  C   UNL A   1      44.579  30.064  32.013  1.00  0.00     0.049 A 
ATOM     47  C   UNL A   1      39.704  32.679  31.113  1.00  0.00     0.074 A 
ATOM     48  C   UNL A   1      45.542  30.771  32.711  1.00  0.00     0.029 A 
ATOM     49  N   UNL A   1      43.466  30.890  31.924  1.00  0.00    -0.354 N 
ATOM     50  N   UNL A   1      40.894  32.202  31.396  1.00  0.00    -0.248 NA
ATOM     51  C   UNL A   1      39.447  34.016  31.662  1.00  0.00     0.031 C 
ATOM     52  C   UNL A   1      44.997  32.004  33.086  1.00  0.00     0.029 A 
ATOM     53  C   UNL A   1      43.713  32.089  32.574  1.00  0.00     0.049 A 
ATOM     54  H   UNL A   1      42.625  30.657  31.468  1.00  0.00     0.167 HD
ATOM     55  C   UNL A   1      41.536  33.193  32.131  1.00  0.00     0.074 A 
ATOM     56  C   UNL A   1      40.608  34.300  32.235  1.00  0.00     0.031 C 
ATOM     57  C   UNL A   1      42.781  33.187  32.668  1.00  0.00     0.037 A 
BRANCH  44  58
ATOM     58  C   UNL A   1      45.924  27.944  31.706  1.00  0.00     0.058 A 
ATOM     59  C   UNL A   1      47.084  28.165  30.944  1.00  0.00     0.135 A 
ATOM     60  C   UNL A   1      45.991  26.986  32.730  1.00  0.00     0.135 A 
ATOM     61  F   UNL A   1      47.076  29.059  29.943  1.00  0.00    -0.206 F 
ATOM     62  C   UNL A   1      48.252  27.443  31.168  1.00  0.00     0.059 A 
ATOM     63  C   UNL A   1      47.158  26.273  32.992  1.00  0.00     0.059 A 
ATOM     64  F   UNL A   1      44.913  26.734  33.491  1.00  0.00    -0.206 F 
ATOM     65  C   UNL A   1      48.279  26.499  32.196  1.00  0.00     0.060 A 
BRANCH  65  66
ATOM     66  S   UNL A   1      49.806  25.577  32.478  1.00  0.00     0.124 S 
ATOM     67  O   UNL A   1      49.385  24.622  33.498  1.00  0.00    -0.237 OA
ATOM     68  O   UNL A   1      50.078  25.015  31.159  1.00  0.00    -0.237 OA
ATOM     69  O   UNL A   1      50.744  26.600  32.927  1.00  0.00    -0.744 OA
ENDBRANCH  65  66
ENDBRANCH  44  58
BRANCH  45  70
ATOM     70  C   UNL A   1      37.311  32.762  30.093  1.00  0.00     0.058 A 
ATOM     71  C   UNL A   1      36.205  32.528  30.923  1.00  0.00     0.135 A 
ATOM     72  C   UNL A   1      37.164  33.698  29.056  1.00  0.00     0.135 A 
ATOM     73  F   UNL A   1      36.293  31.639  31.923  1.00  0.00    -0.206 F 
ATOM     74  C   UNL A   1      34.993  33.182  30.724  1.00  0.00     0.059 A 
ATOM     75  C   UNL A   1      35.971  34.386  28.856  1.00  0.00     0.059 A 
ATOM     76  F   UNL A   1      38.197  33.972  28.245  1.00  0.00    -0.206 F 
ATOM     77  C   UNL A   1      34.887  34.113  29.689  1.00  0.00     0.060 A 
BRANCH  77  78
ATOM     78  S   UNL A   1      33.325  34.991  29.472  1.00  0.00     0.124 S 
ATOM     79  O   UNL A   1      32.650  34.152  28.488  1.00  0.00    -0.237 OA
ATOM     80  O   UNL A   1      32.770  34.968  30.822  1.00  0.00    -0.237 OA
ATOM     81  O   UNL A   1      33.744  36.307  28.997  1.00  0.00    -0.744 OA
ENDBRANCH  77  78
ENDBRANCH  45  70
BRANCH  57  82
ATOM     82  C   UNL A   1      43.230  34.429  33.388  1.00  0.00     0.058 A 
ATOM     83  C   UNL A   1      43.027  34.602  34.766  1.00  0.00     0.135 A 
ATOM     84  C   UNL A   1      43.907  35.446  32.694  1.00  0.00     0.135 A 
ATOM     85  F   UNL A   1      42.380  33.664  35.477  1.00  0.00    -0.206 F 
ATOM     86  C   UNL A   1      43.451  35.751  35.426  1.00  0.00     0.059 A 
ATOM     87  C   UNL A   1      44.368  36.590  33.340  1.00  0.00     0.059 A 
ATOM     88  F   UNL A   1      44.138  35.328  31.377  1.00  0.00    -0.206 F 
ATOM     89  C   UNL A   1      44.121  36.740  34.704  1.00  0.00     0.060 A 
BRANCH  89  90
ATOM     90  S   UNL A   1      44.685  38.217  35.576  1.00  0.00     0.124 S 
ATOM     91  O   UNL A   1      46.120  38.180  35.318  1.00  0.00    -0.237 OA
ATOM     92  O   UNL A   1      43.947  39.279  34.901  1.00  0.00    -0.237 OA
ATOM     93  O   UNL A   1      44.290  37.968  36.958  1.00  0.00    -0.744 OA
ENDBRANCH  89  90
ENDBRANCH  57  82
ENDBRANCH  31  32
ENDBRANCH  23  26
ENDBRANCH  21  22
ENDBRANCH  20  21
ENDBRANCH   1  20
TORSDOF 17
ENDMDL
MODEL 3
REMARK VINA RESULT:      -9.9      5.442      7.574
REMARK SMILES C[C@H](CC(=O)NCCCNC(=O)c1ccc(-c2c3nc(c(-c4c(F)cc(S(=O)(=O)[O-])cc4F)c4ccc([nH]4)c(-c4c(F)cc(S(=O)(=O)[O-])cc4F)c4nc(c(-c5c(F)cc(S(=O)(=O)[O-])cc5F)c5ccc2[nH]5)C=C4)C=C3)cc1)[NH2+][C@H](C)c1ccccc1
REMARK SMILES IDX 7 1 6 2 4 3 5 4 3 6 2 7 1 8 79 9 80 12 81 13 82 14 83 15
REMARK SMILES IDX 87 16 84 17 86 18 85 19 8 20 9 21 10 22 11 23 12 25 13 26
REMARK SMILES IDX 14 27 78 28 15 29 77 30 16 31 17 32 18 33 71 34 19 35 76 36
REMARK SMILES IDX 70 37 72 38 20 39 75 40 69 41 68 42 21 44 55 45 34 46 54 47
REMARK SMILES IDX 35 48 38 49 53 50 73 51 36 52 37 53 52 55 74 56 39 57 22 58
REMARK SMILES IDX 23 59 32 60 24 61 25 62 31 63 33 64 26 65 27 66 28 67 29 68
REMARK SMILES IDX 30 69 56 70 57 71 66 72 58 73 59 74 65 75 67 76 60 77 61 78
REMARK SMILES IDX 62 79 63 80 64 81 40 82 41 83 50 84 42 85 43 86 49 87 51 88
REMARK SMILES IDX 44 89 45 90 46 91 47 92 48 93
REMARK H PARENT 6 5 79 10 79 11 10 24 72 43 38 54
REMARK Flexibility Score: inf
ROOT
ATOM      1  C   UNL A   1      34.721  31.541  27.963  1.00  0.00     0.117 C 
ENDROOT
BRANCH   1   2
ATOM      2  N   UNL A   1      33.373  31.867  27.544  1.00  0.00    -0.356 N 
ATOM      3  C   UNL A   1      32.440  31.093  26.926  1.00  0.00     0.225 C 
ATOM      4  O   UNL A   1      31.361  31.608  26.625  1.00  0.00    -0.275 OA
ATOM      5  H   UNL A   1      33.087  32.790  27.737  1.00  0.00     0.163 HD
BRANCH   3   6
ATOM      6  C   UNL A   1      32.673  29.609  26.752  1.00  0.00     0.164 C 
BRANCH   6   7
ATOM      7  C   UNL A   1      33.337  29.141  25.440  1.00  0.00     0.189 C 
ATOM      8  C   UNL A   1      33.525  27.624  25.574  1.00  0.00     0.075 C 
BRANCH   7   9
ATOM      9  N   UNL A   1      32.535  29.534  24.286  1.00  0.00    -0.338 N 
ATOM     10  H   UNL A   1      33.185  29.652  23.509  1.00  0.00     0.347 HD
ATOM     11  H   UNL A   1      32.037  30.354  24.633  1.00  0.00     0.347 HD
BRANCH   9  12
ATOM     12  C   UNL A   1      31.438  28.681  23.787  1.00  0.00     0.210 C 
ATOM     13  C   UNL A   1      31.840  27.824  22.580  1.00  0.00     0.081 C 
BRANCH  12  14
ATOM     14  C   UNL A   1      30.052  29.294  23.613  1.00  0.00     0.009 A 
ATOM     15  C   UNL A   1      29.001  28.497  23.124  1.00  0.00     0.010 A 
ATOM     16  C   UNL A   1      29.779  30.656  23.826  1.00  0.00     0.010 A 
ATOM     17  C   UNL A   1      27.730  29.032  22.890  1.00  0.00     0.001 A 
ATOM     18  C   UNL A   1      28.501  31.186  23.629  1.00  0.00     0.001 A 
ATOM     19  C   UNL A   1      27.476  30.374  23.157  1.00  0.00     0.000 A 
ENDBRANCH  12  14
ENDBRANCH   9  12
ENDBRANCH   7   9
ENDBRANCH   6   7
ENDBRANCH   3   6
ENDBRANCH   1   2
BRANCH   1  20
ATOM     20  C   UNL A   1      35.606  32.784  27.999  1.00  0.00     0.042 C 
BRANCH  20  21
ATOM     21  C   UNL A   1      36.458  32.898  29.261  1.00  0.00     0.118 C 
BRANCH  21  22
ATOM     22  N   UNL A   1      36.072  31.938  30.286  1.00  0.00    -0.352 N 
ATOM     23  C   UNL A   1      36.685  30.778  30.689  1.00  0.00     0.251 C 
ATOM     24  H   UNL A   1      35.241  32.157  30.766  1.00  0.00     0.163 HD
ATOM     25  O   UNL A   1      36.090  30.019  31.447  1.00  0.00    -0.269 OA
BRANCH  23  26
ATOM     26  C   UNL A   1      38.041  30.433  30.206  1.00  0.00     0.039 A 
ATOM     27  C   UNL A   1      39.078  30.333  31.138  1.00  0.00     0.014 A 
ATOM     28  C   UNL A   1      38.305  30.244  28.847  1.00  0.00     0.014 A 
ATOM     29  C   UNL A   1      40.362  29.987  30.714  1.00  0.00     0.010 A 
ATOM     30  C   UNL A   1      39.570  29.825  28.435  1.00  0.00     0.010 A 
ATOM     31  C   UNL A   1      40.613  29.696  29.364  1.00  0.00    -0.014 A 
BRANCH  31  32
ATOM     32  C   UNL A   1      41.955  29.244  28.914  1.00  0.00     0.031 A 
ATOM     33  C   UNL A   1      43.103  30.214  28.837  1.00  0.00     0.074 A 
ATOM     34  C   UNL A   1      42.128  27.962  28.529  1.00  0.00     0.049 A 
ATOM     35  N   UNL A   1      44.331  30.010  28.432  1.00  0.00    -0.248 NA
ATOM     36  C   UNL A   1      42.830  31.602  29.245  1.00  0.00     0.031 C 
ATOM     37  C   UNL A   1      41.083  26.937  28.517  1.00  0.00     0.029 A 
ATOM     38  N   UNL A   1      43.242  27.304  28.073  1.00  0.00    -0.354 N 
ATOM     39  C   UNL A   1      44.974  31.238  28.530  1.00  0.00     0.074 A 
ATOM     40  C   UNL A   1      43.985  32.195  28.978  1.00  0.00     0.031 C 
ATOM     41  C   UNL A   1      41.611  25.774  28.101  1.00  0.00     0.029 A 
ATOM     42  C   UNL A   1      43.020  25.979  27.780  1.00  0.00     0.049 A 
ATOM     43  H   UNL A   1      44.118  27.740  27.964  1.00  0.00     0.167 HD
ATOM     44  C   UNL A   1      46.274  31.538  28.292  1.00  0.00     0.037 A 
ATOM     45  C   UNL A   1      43.854  25.036  27.299  1.00  0.00     0.037 A 
ATOM     46  C   UNL A   1      47.257  30.577  27.859  1.00  0.00     0.049 A 
ATOM     47  C   UNL A   1      45.289  25.396  27.029  1.00  0.00     0.074 A 
ATOM     48  C   UNL A   1      48.609  30.771  27.635  1.00  0.00     0.029 A 
ATOM     49  N   UNL A   1      46.994  29.243  27.580  1.00  0.00    -0.354 N 
ATOM     50  N   UNL A   1      45.894  26.549  27.186  1.00  0.00    -0.248 NA
ATOM     51  C   UNL A   1      46.158  24.325  26.524  1.00  0.00     0.031 C 
ATOM     52  C   UNL A   1      49.154  29.568  27.174  1.00  0.00     0.029 A 
ATOM     53  C   UNL A   1      48.154  28.609  27.164  1.00  0.00     0.049 A 
ATOM     54  H   UNL A   1      46.113  28.811  27.663  1.00  0.00     0.167 HD
ATOM     55  C   UNL A   1      47.220  26.336  26.826  1.00  0.00     0.074 A 
ATOM     56  C   UNL A   1      47.332  24.939  26.460  1.00  0.00     0.031 C 
ATOM     57  C   UNL A   1      48.253  27.215  26.804  1.00  0.00     0.037 A 
BRANCH  44  58
ATOM     58  C   UNL A   1      46.712  32.964  28.497  1.00  0.00     0.058 A 
ATOM     59  C   UNL A   1      46.669  33.906  27.455  1.00  0.00     0.135 A 
ATOM     60  C   UNL A   1      47.142  33.407  29.758  1.00  0.00     0.135 A 
ATOM     61  F   UNL A   1      46.280  33.536  26.225  1.00  0.00    -0.206 F 
ATOM     62  C   UNL A   1      47.065  35.226  27.648  1.00  0.00     0.059 A 
ATOM     63  C   UNL A   1      47.514  34.730  29.982  1.00  0.00     0.059 A 
ATOM     64  F   UNL A   1      47.203  32.551  30.791  1.00  0.00    -0.206 F 
ATOM     65  C   UNL A   1      47.486  35.629  28.917  1.00  0.00     0.060 A 
BRANCH  65  66
ATOM     66  S   UNL A   1      47.989  37.346  29.152  1.00  0.00     0.124 S 
ATOM     67  O   UNL A   1      48.556  37.664  27.845  1.00  0.00    -0.237 OA
ATOM     68  O   UNL A   1      46.723  38.001  29.469  1.00  0.00    -0.237 OA
ATOM     69  O   UNL A   1      48.947  37.274  30.249  1.00  0.00    -0.744 OA
ENDBRANCH  65  66
ENDBRANCH  44  58
BRANCH  45  70
ATOM     70  C   UNL A   1      43.356  23.653  27.065  1.00  0.00     0.058 A 
ATOM     71  C   UNL A   1      43.096  23.190  25.767  1.00  0.00     0.135 A 
ATOM     72  C   UNL A   1      43.139  22.766  28.132  1.00  0.00     0.135 A 
ATOM     73  F   UNL A   1      43.281  24.001  24.716  1.00  0.00    -0.206 F 
ATOM     74  C   UNL A   1      42.622  21.902  25.534  1.00  0.00     0.059 A 
ATOM     75  C   UNL A   1      42.693  21.464  27.921  1.00  0.00     0.059 A 
ATOM     76  F   UNL A   1      43.389  23.153  29.392  1.00  0.00    -0.206 F 
ATOM     77  C   UNL A   1      42.427  21.045  26.619  1.00  0.00     0.060 A 
BRANCH  77  78
ATOM     78  S   UNL A   1      41.859  19.362  26.300  1.00  0.00     0.124 S 
ATOM     79  O   UNL A   1      42.348  18.658  27.480  1.00  0.00    -0.237 OA
ATOM     80  O   UNL A   1      40.413  19.538  26.213  1.00  0.00    -0.237 OA
ATOM     81  O   UNL A   1      42.518  19.019  25.042  1.00  0.00    -0.744 OA
ENDBRANCH  77  78
ENDBRANCH  45  70
BRANCH  57  82
ATOM     82  C   UNL A   1      49.603  26.687  26.404  1.00  0.00     0.058 A 
ATOM     83  C   UNL A   1      50.098  26.830  25.098  1.00  0.00     0.135 A 
ATOM     84  C   UNL A   1      50.430  26.060  27.352  1.00  0.00     0.135 A 
ATOM     85  F   UNL A   1      49.348  27.415  24.151  1.00  0.00    -0.206 F 
ATOM     86  C   UNL A   1      51.351  26.344  24.738  1.00  0.00     0.059 A 
ATOM     87  C   UNL A   1      51.700  25.596  27.021  1.00  0.00     0.059 A 
ATOM     88  F   UNL A   1      50.012  25.907  28.618  1.00  0.00    -0.206 F 
ATOM     89  C   UNL A   1      52.145  25.728  25.707  1.00  0.00     0.060 A 
BRANCH  89  90
ATOM     90  S   UNL A   1      53.778  25.122  25.231  1.00  0.00     0.124 S 
ATOM     91  O   UNL A   1      53.597  23.678  25.338  1.00  0.00    -0.237 OA
ATOM     92  O   UNL A   1      53.922  25.643  23.877  1.00  0.00    -0.237 OA
ATOM     93  O   UNL A   1      54.665  25.719  26.224  1.00  0.00    -0.744 OA
ENDBRANCH  89  90
ENDBRANCH  57  82
ENDBRANCH  31  32
ENDBRANCH  23  26
ENDBRANCH  21  22
ENDBRANCH  20  21
ENDBRANCH   1  20
TORSDOF 17
ENDMDL
