MODEL 1
REMARK VINA RESULT:     -12.1      0.000      0.000
REMARK SMILES N#C/C(=C/c1cc(Br)ccc1OCC(=O)NCCCNC(=O)c1ccc(-c2c3nc(c(-c4c(F)cc(S(=O)(=O)[O-])cc4F)c4ccc([nH]4)c(-c4c(F)cc(S(=O)(=O)[O-])cc4F)c4nc(c(-c5c(F)cc(S(=O)(=O)[O-])cc5F)c5ccc2[nH]5)C=C4)C=C3)cc1)c1ccc(F)cc1
REMARK SMILES IDX 17 1 16 2 14 3 15 4 13 6 12 7 11 8 5 9 6 10 7 11 10 12 8 13
REMARK SMILES IDX 9 14 4 15 3 16 2 17 1 18 89 19 90 20 95 21 91 22 94 23 92 24
REMARK SMILES IDX 93 25 18 26 19 27 20 28 21 29 22 31 23 32 24 33 88 34 25 35
REMARK SMILES IDX 87 36 26 37 27 38 28 39 81 40 29 41 86 42 80 43 82 44 30 45
REMARK SMILES IDX 85 46 79 47 78 48 31 50 65 51 44 52 64 53 45 54 48 55 63 56
REMARK SMILES IDX 83 57 46 58 47 59 62 61 84 62 49 63 32 64 33 65 42 66 34 67
REMARK SMILES IDX 35 68 41 69 43 70 36 71 37 72 38 73 39 74 40 75 66 76 67 77
REMARK SMILES IDX 76 78 68 79 69 80 75 81 77 82 70 83 71 84 72 85 73 86 74 87
REMARK SMILES IDX 50 88 51 89 60 90 52 91 53 92 59 93 61 94 54 95 55 96 56 97
REMARK SMILES IDX 57 98 58 99
REMARK H PARENT 16 5 20 30 82 49 48 60
REMARK Flexibility Score: inf
ROOT
ATOM      1  C   UNL A   1      38.991  22.376  26.130  1.00  0.00     0.117 C 
ENDROOT
BRANCH   1   2
ATOM      2  N   UNL A   1      37.980  21.382  25.831  1.00  0.00    -0.353 N 
ATOM      3  C   UNL A   1      36.677  21.590  25.500  1.00  0.00     0.257 C 
ATOM      4  O   UNL A   1      36.051  20.656  24.992  1.00  0.00    -0.271 OA
ATOM      5  H   UNL A   1      38.271  20.442  25.873  1.00  0.00     0.163 HD
BRANCH   3   6
ATOM      6  C   UNL A   1      36.018  22.956  25.736  1.00  0.00     0.329 C 
BRANCH   6   7
ATOM      7  O   UNL A   1      34.955  23.358  24.897  1.00  0.00    -0.483 OA
BRANCH   7   8
ATOM      8  C   UNL A   1      33.634  23.257  25.232  1.00  0.00     0.127 A 
ATOM      9  C   UNL A   1      32.478  23.369  24.438  1.00  0.00     0.019 A 
ATOM     10  C   UNL A   1      31.215  23.162  25.033  1.00  0.00     0.027 A 
ATOM     11  C   UNL A   1      31.097  22.939  26.404  1.00  0.00     0.018 A 
ATOM     12  C   UNL A   1      33.486  23.010  26.610  1.00  0.00     0.048 A 
ATOM     13  Br  UNL A   1      29.385  22.796  27.190  1.00  0.00    -0.051 Br
ATOM     14  C   UNL A   1      32.231  22.869  27.201  1.00  0.00     0.019 A 
BRANCH   9  15
ATOM     15  C   UNL A   1      32.505  23.797  23.033  1.00  0.00     0.032 C 
ATOM     16  C   UNL A   1      32.677  25.057  22.587  1.00  0.00     0.060 C 
BRANCH  16  17
ATOM     17  C   UNL A   1      32.819  25.301  21.093  1.00  0.00     0.100 C 
ATOM     18  N   UNL A   1      32.938  25.503  19.854  1.00  0.00    -0.192 NA
ENDBRANCH  16  17
BRANCH  16  19
ATOM     19  C   UNL A   1      32.441  26.244  23.449  1.00  0.00    -0.008 A 
ATOM     20  C   UNL A   1      33.450  26.854  24.210  1.00  0.00     0.012 A 
ATOM     21  C   UNL A   1      31.109  26.675  23.626  1.00  0.00     0.012 A 
ATOM     22  C   UNL A   1      33.124  27.814  25.173  1.00  0.00     0.040 A 
ATOM     23  C   UNL A   1      30.790  27.647  24.574  1.00  0.00     0.040 A 
ATOM     24  C   UNL A   1      31.798  28.194  25.353  1.00  0.00     0.123 A 
ATOM     25  F   UNL A   1      31.487  29.090  26.299  1.00  0.00    -0.207 F 
ENDBRANCH  16  19
ENDBRANCH   9  15
ENDBRANCH   7   8
ENDBRANCH   6   7
ENDBRANCH   3   6
ENDBRANCH   1   2
BRANCH   1  26
ATOM     26  C   UNL A   1      40.106  21.866  27.033  1.00  0.00     0.042 C 
BRANCH  26  27
ATOM     27  C   UNL A   1      41.224  22.866  27.312  1.00  0.00     0.118 C 
BRANCH  27  28
ATOM     28  N   UNL A   1      41.508  23.739  26.181  1.00  0.00    -0.352 N 
ATOM     29  C   UNL A   1      41.529  25.109  26.081  1.00  0.00     0.251 C 
ATOM     30  H   UNL A   1      41.722  23.265  25.345  1.00  0.00     0.163 HD
ATOM     31  O   UNL A   1      41.621  25.622  24.970  1.00  0.00    -0.269 OA
BRANCH  29  32
ATOM     32  C   UNL A   1      41.419  25.964  27.284  1.00  0.00     0.039 A 
ATOM     33  C   UNL A   1      42.451  26.867  27.560  1.00  0.00     0.014 A 
ATOM     34  C   UNL A   1      40.333  25.864  28.154  1.00  0.00     0.014 A 
ATOM     35  C   UNL A   1      42.355  27.715  28.665  1.00  0.00     0.010 A 
ATOM     36  C   UNL A   1      40.198  26.769  29.206  1.00  0.00     0.010 A 
ATOM     37  C   UNL A   1      41.208  27.705  29.475  1.00  0.00    -0.014 A 
BRANCH  37  38
ATOM     38  C   UNL A   1      41.043  28.676  30.588  1.00  0.00     0.031 A 
ATOM     39  C   UNL A   1      41.892  28.573  31.826  1.00  0.00     0.074 A 
ATOM     40  C   UNL A   1      40.072  29.609  30.513  1.00  0.00     0.049 A 
ATOM     41  N   UNL A   1      41.850  29.292  32.918  1.00  0.00    -0.248 NA
ATOM     42  C   UNL A   1      42.904  27.504  31.852  1.00  0.00     0.031 C 
ATOM     43  C   UNL A   1      39.141  29.771  29.394  1.00  0.00     0.029 A 
ATOM     44  N   UNL A   1      39.695  30.587  31.400  1.00  0.00    -0.354 N 
ATOM     45  C   UNL A   1      42.810  28.752  33.767  1.00  0.00     0.074 A 
ATOM     46  C   UNL A   1      43.384  27.615  33.081  1.00  0.00     0.031 C 
ATOM     47  C   UNL A   1      38.313  30.794  29.655  1.00  0.00     0.029 A 
ATOM     48  C   UNL A   1      38.623  31.335  30.973  1.00  0.00     0.049 A 
ATOM     49  H   UNL A   1      40.150  30.739  32.260  1.00  0.00     0.167 HD
ATOM     50  C   UNL A   1      43.190  29.177  34.996  1.00  0.00     0.037 A 
ATOM     51  C   UNL A   1      37.953  32.335  31.580  1.00  0.00     0.037 A 
ATOM     52  C   UNL A   1      42.627  30.324  35.662  1.00  0.00     0.049 A 
ATOM     53  C   UNL A   1      38.401  32.801  32.937  1.00  0.00     0.074 A 
ATOM     54  C   UNL A   1      42.999  30.885  36.870  1.00  0.00     0.029 A 
ATOM     55  N   UNL A   1      41.564  31.078  35.183  1.00  0.00    -0.354 N 
ATOM     56  N   UNL A   1      39.371  32.336  33.687  1.00  0.00    -0.248 NA
ATOM     57  C   UNL A   1      37.673  33.932  33.527  1.00  0.00     0.031 C 
ATOM     58  C   UNL A   1      42.122  31.939  37.153  1.00  0.00     0.029 A 
ATOM     59  C   UNL A   1      41.244  32.077  36.089  1.00  0.00     0.049 A 
ATOM     60  H   UNL A   1      41.103  30.925  34.327  1.00  0.00     0.167 HD
ATOM     61  C   UNL A   1      39.384  33.130  34.829  1.00  0.00     0.074 A 
ATOM     62  C   UNL A   1      38.335  34.115  34.662  1.00  0.00     0.031 C 
ATOM     63  C   UNL A   1      40.193  33.050  35.915  1.00  0.00     0.037 A 
BRANCH  50  64
ATOM     64  C   UNL A   1      44.260  28.392  35.709  1.00  0.00     0.058 A 
ATOM     65  C   UNL A   1      43.962  27.256  36.479  1.00  0.00     0.135 A 
ATOM     66  C   UNL A   1      45.610  28.768  35.598  1.00  0.00     0.135 A 
ATOM     67  F   UNL A   1      42.689  26.855  36.629  1.00  0.00    -0.206 F 
ATOM     68  C   UNL A   1      44.956  26.545  37.144  1.00  0.00     0.059 A 
ATOM     69  C   UNL A   1      46.624  28.051  36.228  1.00  0.00     0.059 A 
ATOM     70  F   UNL A   1      45.956  29.843  34.873  1.00  0.00    -0.206 F 
ATOM     71  C   UNL A   1      46.284  26.951  37.014  1.00  0.00     0.060 A 
BRANCH  71  72
ATOM     72  S   UNL A   1      47.560  26.024  37.893  1.00  0.00     0.124 S 
ATOM     73  O   UNL A   1      48.682  26.956  37.843  1.00  0.00    -0.237 OA
ATOM     74  O   UNL A   1      46.955  25.831  39.207  1.00  0.00    -0.237 OA
ATOM     75  O   UNL A   1      47.713  24.813  37.092  1.00  0.00    -0.744 OA
ENDBRANCH  71  72
ENDBRANCH  50  64
BRANCH  51  76
ATOM     76  C   UNL A   1      36.791  32.962  30.893  1.00  0.00     0.058 A 
ATOM     77  C   UNL A   1      35.478  32.737  31.332  1.00  0.00     0.135 A 
ATOM     78  C   UNL A   1      36.976  33.836  29.809  1.00  0.00     0.135 A 
ATOM     79  F   UNL A   1      35.247  31.905  32.359  1.00  0.00    -0.206 F 
ATOM     80  C   UNL A   1      34.390  33.350  30.719  1.00  0.00     0.059 A 
ATOM     81  C   UNL A   1      35.907  34.481  29.198  1.00  0.00     0.059 A 
ATOM     82  F   UNL A   1      38.214  34.099  29.363  1.00  0.00    -0.206 F 
ATOM     83  C   UNL A   1      34.616  34.228  29.657  1.00  0.00     0.060 A 
BRANCH  83  84
ATOM     84  S   UNL A   1      33.204  35.078  28.918  1.00  0.00     0.124 S 
ATOM     85  O   UNL A   1      32.364  35.323  30.085  1.00  0.00    -0.237 OA
ATOM     86  O   UNL A   1      33.833  36.254  28.325  1.00  0.00    -0.237 OA
ATOM     87  O   UNL A   1      32.688  34.103  27.962  1.00  0.00    -0.744 OA
ENDBRANCH  83  84
ENDBRANCH  51  76
BRANCH  63  88
ATOM     88  C   UNL A   1      39.997  34.071  37.003  1.00  0.00     0.058 A 
ATOM     89  C   UNL A   1      40.615  35.331  36.958  1.00  0.00     0.135 A 
ATOM     90  C   UNL A   1      39.137  33.803  38.082  1.00  0.00     0.135 A 
ATOM     91  F   UNL A   1      41.451  35.638  35.954  1.00  0.00    -0.206 F 
ATOM     92  C   UNL A   1      40.406  36.279  37.955  1.00  0.00     0.059 A 
ATOM     93  C   UNL A   1      38.890  34.748  39.073  1.00  0.00     0.059 A 
ATOM     94  F   UNL A   1      38.513  32.618  38.170  1.00  0.00    -0.206 F 
ATOM     95  C   UNL A   1      39.540  35.980  39.007  1.00  0.00     0.060 A 
BRANCH  95  96
ATOM     96  S   UNL A   1      39.255  37.230  40.277  1.00  0.00     0.124 S 
ATOM     97  O   UNL A   1      38.472  38.220  39.544  1.00  0.00    -0.237 OA
ATOM     98  O   UNL A   1      38.531  36.479  41.298  1.00  0.00    -0.237 OA
ATOM     99  O   UNL A   1      40.602  37.649  40.652  1.00  0.00    -0.744 OA
ENDBRANCH  95  96
ENDBRANCH  63  88
ENDBRANCH  37  38
ENDBRANCH  29  32
ENDBRANCH  27  28
ENDBRANCH  26  27
ENDBRANCH   1  26
TORSDOF 18
ENDMDL
MODEL 2
REMARK VINA RESULT:     -11.6      6.552     11.800
REMARK SMILES N#C/C(=C/c1cc(Br)ccc1OCC(=O)NCCCNC(=O)c1ccc(-c2c3nc(c(-c4c(F)cc(S(=O)(=O)[O-])cc4F)c4ccc([nH]4)c(-c4c(F)cc(S(=O)(=O)[O-])cc4F)c4nc(c(-c5c(F)cc(S(=O)(=O)[O-])cc5F)c5ccc2[nH]5)C=C4)C=C3)cc1)c1ccc(F)cc1
REMARK SMILES IDX 17 1 16 2 14 3 15 4 13 6 12 7 11 8 5 9 6 10 7 11 10 12 8 13
REMARK SMILES IDX 9 14 4 15 3 16 2 17 1 18 89 19 90 20 95 21 91 22 94 23 92 24
REMARK SMILES IDX 93 25 18 26 19 27 20 28 21 29 22 31 23 32 24 33 88 34 25 35
REMARK SMILES IDX 87 36 26 37 27 38 28 39 81 40 29 41 86 42 80 43 82 44 30 45
REMARK SMILES IDX 85 46 79 47 78 48 31 50 65 51 44 52 64 53 45 54 48 55 63 56
REMARK SMILES IDX 83 57 46 58 47 59 62 61 84 62 49 63 32 64 33 65 42 66 34 67
REMARK SMILES IDX 35 68 41 69 43 70 36 71 37 72 38 73 39 74 40 75 66 76 67 77
REMARK SMILES IDX 76 78 68 79 69 80 75 81 77 82 70 83 71 84 72 85 73 86 74 87
REMARK SMILES IDX 50 88 51 89 60 90 52 91 53 92 59 93 61 94 54 95 55 96 56 97
REMARK SMILES IDX 57 98 58 99
REMARK H PARENT 16 5 20 30 82 49 48 60
REMARK Flexibility Score: inf
ROOT
ATOM      1  C   UNL A   1      33.632  30.702  26.994  1.00  0.00     0.117 C 
ENDROOT
BRANCH   1   2
ATOM      2  N   UNL A   1      32.779  29.832  27.777  1.00  0.00    -0.353 N 
ATOM      3  C   UNL A   1      32.150  28.694  27.373  1.00  0.00     0.257 C 
ATOM      4  O   UNL A   1      31.718  27.931  28.240  1.00  0.00    -0.271 OA
ATOM      5  H   UNL A   1      32.636  30.095  28.715  1.00  0.00     0.163 HD
BRANCH   3   6
ATOM      6  C   UNL A   1      32.006  28.368  25.880  1.00  0.00     0.329 C 
BRANCH   6   7
ATOM      7  O   UNL A   1      32.846  27.386  25.309  1.00  0.00    -0.483 OA
BRANCH   7   8
ATOM      8  C   UNL A   1      32.622  26.797  24.097  1.00  0.00     0.127 A 
ATOM      9  C   UNL A   1      31.727  25.777  23.727  1.00  0.00     0.019 A 
ATOM     10  C   UNL A   1      31.655  25.385  22.373  1.00  0.00     0.027 A 
ATOM     11  C   UNL A   1      32.517  25.931  21.423  1.00  0.00     0.018 A 
ATOM     12  C   UNL A   1      33.466  27.345  23.112  1.00  0.00     0.048 A 
ATOM     13  Br  UNL A   1      32.484  25.292  19.645  1.00  0.00    -0.051 Br
ATOM     14  C   UNL A   1      33.431  26.908  21.789  1.00  0.00     0.019 A 
BRANCH   9  15
ATOM     15  C   UNL A   1      30.930  25.014  24.698  1.00  0.00     0.032 C 
ATOM     16  C   UNL A   1      31.403  24.121  25.590  1.00  0.00     0.060 C 
BRANCH  16  17
ATOM     17  C   UNL A   1      30.452  23.527  26.616  1.00  0.00     0.100 C 
ATOM     18  N   UNL A   1      29.663  23.034  27.468  1.00  0.00    -0.192 NA
ENDBRANCH  16  17
BRANCH  16  19
ATOM     19  C   UNL A   1      32.729  23.468  25.435  1.00  0.00    -0.008 A 
ATOM     20  C   UNL A   1      32.977  22.442  24.512  1.00  0.00     0.012 A 
ATOM     21  C   UNL A   1      33.735  23.793  26.369  1.00  0.00     0.012 A 
ATOM     22  C   UNL A   1      34.168  21.712  24.571  1.00  0.00     0.040 A 
ATOM     23  C   UNL A   1      34.930  23.075  26.413  1.00  0.00     0.040 A 
ATOM     24  C   UNL A   1      35.129  22.029  25.526  1.00  0.00     0.123 A 
ATOM     25  F   UNL A   1      36.254  21.306  25.600  1.00  0.00    -0.207 F 
ENDBRANCH  16  19
ENDBRANCH   9  15
ENDBRANCH   7   8
ENDBRANCH   6   7
ENDBRANCH   3   6
ENDBRANCH   1   2
BRANCH   1  26
ATOM     26  C   UNL A   1      35.115  30.548  27.300  1.00  0.00     0.042 C 
BRANCH  26  27
ATOM     27  C   UNL A   1      35.442  29.654  28.492  1.00  0.00     0.118 C 
BRANCH  27  28
ATOM     28  N   UNL A   1      35.488  30.376  29.756  1.00  0.00    -0.352 N 
ATOM     29  C   UNL A   1      36.533  30.641  30.606  1.00  0.00     0.251 C 
ATOM     30  H   UNL A   1      34.621  30.735  30.050  1.00  0.00     0.163 HD
ATOM     31  O   UNL A   1      36.294  31.118  31.711  1.00  0.00    -0.269 OA
BRANCH  29  32
ATOM     32  C   UNL A   1      37.929  30.338  30.218  1.00  0.00     0.039 A 
ATOM     33  C   UNL A   1      38.799  29.833  31.190  1.00  0.00     0.014 A 
ATOM     34  C   UNL A   1      38.396  30.575  28.925  1.00  0.00     0.014 A 
ATOM     35  C   UNL A   1      40.111  29.501  30.843  1.00  0.00     0.010 A 
ATOM     36  C   UNL A   1      39.677  30.163  28.560  1.00  0.00     0.010 A 
ATOM     37  C   UNL A   1      40.549  29.622  29.514  1.00  0.00    -0.014 A 
BRANCH  37  38
ATOM     38  C   UNL A   1      41.906  29.169  29.107  1.00  0.00     0.031 A 
ATOM     39  C   UNL A   1      43.051  30.143  29.045  1.00  0.00     0.074 A 
ATOM     40  C   UNL A   1      42.088  27.889  28.722  1.00  0.00     0.049 A 
ATOM     41  N   UNL A   1      44.285  29.943  28.658  1.00  0.00    -0.248 NA
ATOM     42  C   UNL A   1      42.767  31.531  29.443  1.00  0.00     0.031 C 
ATOM     43  C   UNL A   1      41.043  26.864  28.677  1.00  0.00     0.029 A 
ATOM     44  N   UNL A   1      43.211  27.236  28.279  1.00  0.00    -0.354 N 
ATOM     45  C   UNL A   1      44.917  31.178  28.745  1.00  0.00     0.074 A 
ATOM     46  C   UNL A   1      43.916  32.131  29.175  1.00  0.00     0.031 C 
ATOM     47  C   UNL A   1      41.576  25.710  28.247  1.00  0.00     0.029 A 
ATOM     48  C   UNL A   1      42.988  25.920  27.945  1.00  0.00     0.049 A 
ATOM     49  H   UNL A   1      44.093  27.667  28.207  1.00  0.00     0.167 HD
ATOM     50  C   UNL A   1      46.215  31.485  28.507  1.00  0.00     0.037 A 
ATOM     51  C   UNL A   1      43.820  24.989  27.439  1.00  0.00     0.037 A 
ATOM     52  C   UNL A   1      47.208  30.524  28.100  1.00  0.00     0.049 A 
ATOM     53  C   UNL A   1      45.261  25.347  27.197  1.00  0.00     0.074 A 
ATOM     54  C   UNL A   1      48.565  30.718  27.913  1.00  0.00     0.029 A 
ATOM     55  N   UNL A   1      46.952  29.192  27.804  1.00  0.00    -0.354 N 
ATOM     56  N   UNL A   1      45.862  26.499  27.371  1.00  0.00    -0.248 NA
ATOM     57  C   UNL A   1      46.138  24.279  26.700  1.00  0.00     0.031 C 
ATOM     58  C   UNL A   1      49.118  29.521  27.445  1.00  0.00     0.029 A 
ATOM     59  C   UNL A   1      48.118  28.562  27.402  1.00  0.00     0.049 A 
ATOM     60  H   UNL A   1      46.069  28.760  27.868  1.00  0.00     0.167 HD
ATOM     61  C   UNL A   1      47.193  26.291  27.025  1.00  0.00     0.074 A 
ATOM     62  C   UNL A   1      47.311  24.897  26.648  1.00  0.00     0.031 C 
ATOM     63  C   UNL A   1      48.223  27.174  27.023  1.00  0.00     0.037 A 
BRANCH  50  64
ATOM     64  C   UNL A   1      46.636  32.923  28.670  1.00  0.00     0.058 A 
ATOM     65  C   UNL A   1      47.090  33.431  29.898  1.00  0.00     0.135 A 
ATOM     66  C   UNL A   1      46.607  33.800  27.573  1.00  0.00     0.135 A 
ATOM     67  F   UNL A   1      47.128  32.642  30.984  1.00  0.00    -0.206 F 
ATOM     68  C   UNL A   1      47.463  34.763  30.043  1.00  0.00     0.059 A 
ATOM     69  C   UNL A   1      47.008  35.129  27.686  1.00  0.00     0.059 A 
ATOM     70  F   UNL A   1      46.186  33.370  26.373  1.00  0.00    -0.206 F 
ATOM     71  C   UNL A   1      47.417  35.605  28.931  1.00  0.00     0.060 A 
BRANCH  71  72
ATOM     72  S   UNL A   1      47.893  37.334  29.138  1.00  0.00     0.124 S 
ATOM     73  O   UNL A   1      46.593  37.996  29.141  1.00  0.00    -0.237 OA
ATOM     74  O   UNL A   1      48.595  37.312  30.418  1.00  0.00    -0.237 OA
ATOM     75  O   UNL A   1      48.730  37.599  27.972  1.00  0.00    -0.744 OA
ENDBRANCH  71  72
ENDBRANCH  50  64
BRANCH  51  76
ATOM     76  C   UNL A   1      43.303  23.627  27.139  1.00  0.00     0.058 A 
ATOM     77  C   UNL A   1      42.983  23.243  25.828  1.00  0.00     0.135 A 
ATOM     78  C   UNL A   1      43.159  22.667  28.154  1.00  0.00     0.135 A 
ATOM     79  F   UNL A   1      43.096  24.125  24.824  1.00  0.00    -0.206 F 
ATOM     80  C   UNL A   1      42.535  21.959  25.534  1.00  0.00     0.059 A 
ATOM     81  C   UNL A   1      42.739  21.370  27.881  1.00  0.00     0.059 A 
ATOM     82  F   UNL A   1      43.469  22.978  29.422  1.00  0.00    -0.206 F 
ATOM     83  C   UNL A   1      42.423  21.027  26.567  1.00  0.00     0.060 A 
BRANCH  83  84
ATOM     84  S   UNL A   1      41.915  19.341  26.164  1.00  0.00     0.124 S 
ATOM     85  O   UNL A   1      42.277  18.625  27.381  1.00  0.00    -0.237 OA
ATOM     86  O   UNL A   1      40.485  19.504  25.920  1.00  0.00    -0.237 OA
ATOM     87  O   UNL A   1      42.712  19.024  24.983  1.00  0.00    -0.744 OA
ENDBRANCH  83  84
ENDBRANCH  51  76
BRANCH  63  88
ATOM     88  C   UNL A   1      49.579  26.658  26.622  1.00  0.00     0.058 A 
ATOM     89  C   UNL A   1      50.045  26.747  25.301  1.00  0.00     0.135 A 
ATOM     90  C   UNL A   1      50.444  26.111  27.585  1.00  0.00     0.135 A 
ATOM     91  F   UNL A   1      49.258  27.254  24.339  1.00  0.00    -0.206 F 
ATOM     92  C   UNL A   1      51.311  26.292  24.944  1.00  0.00     0.059 A 
ATOM     93  C   UNL A   1      51.725  25.678  27.256  1.00  0.00     0.059 A 
ATOM     94  F   UNL A   1      50.052  26.010  28.865  1.00  0.00    -0.206 F 
ATOM     95  C   UNL A   1      52.145  25.761  25.930  1.00  0.00     0.060 A 
BRANCH  95  96
ATOM     96  S   UNL A   1      53.795  25.202  25.459  1.00  0.00     0.124 S 
ATOM     97  O   UNL A   1      54.278  26.338  24.680  1.00  0.00    -0.237 OA
ATOM     98  O   UNL A   1      54.438  25.002  26.753  1.00  0.00    -0.237 OA
ATOM     99  O   UNL A   1      53.538  23.984  24.698  1.00  0.00    -0.744 OA
ENDBRANCH  95  96
ENDBRANCH  63  88
ENDBRANCH  37  38
ENDBRANCH  29  32
ENDBRANCH  27  28
ENDBRANCH  26  27
ENDBRANCH   1  26
TORSDOF 18
ENDMDL
MODEL 3
REMARK VINA RESULT:     -11.2      6.054     10.667
REMARK SMILES N#C/C(=C/c1cc(Br)ccc1OCC(=O)NCCCNC(=O)c1ccc(-c2c3nc(c(-c4c(F)cc(S(=O)(=O)[O-])cc4F)c4ccc([nH]4)c(-c4c(F)cc(S(=O)(=O)[O-])cc4F)c4nc(c(-c5c(F)cc(S(=O)(=O)[O-])cc5F)c5ccc2[nH]5)C=C4)C=C3)cc1)c1ccc(F)cc1
REMARK SMILES IDX 17 1 16 2 14 3 15 4 13 6 12 7 11 8 5 9 6 10 7 11 10 12 8 13
REMARK SMILES IDX 9 14 4 15 3 16 2 17 1 18 89 19 90 20 95 21 91 22 94 23 92 24
REMARK SMILES IDX 93 25 18 26 19 27 20 28 21 29 22 31 23 32 24 33 88 34 25 35
REMARK SMILES IDX 87 36 26 37 27 38 28 39 81 40 29 41 86 42 80 43 82 44 30 45
REMARK SMILES IDX 85 46 79 47 78 48 31 50 65 51 44 52 64 53 45 54 48 55 63 56
REMARK SMILES IDX 83 57 46 58 47 59 62 61 84 62 49 63 32 64 33 65 42 66 34 67
REMARK SMILES IDX 35 68 41 69 43 70 36 71 37 72 38 73 39 74 40 75 66 76 67 77
REMARK SMILES IDX 76 78 68 79 69 80 75 81 77 82 70 83 71 84 72 85 73 86 74 87
REMARK SMILES IDX 50 88 51 89 60 90 52 91 53 92 59 93 61 94 54 95 55 96 56 97
REMARK SMILES IDX 57 98 58 99
REMARK H PARENT 16 5 20 30 82 49 48 60
REMARK Flexibility Score: inf
ROOT
ATOM      1  C   UNL A   1      38.204  22.618  26.177  1.00  0.00     0.117 C 
ENDROOT
BRANCH   1   2
ATOM      2  N   UNL A   1      37.970  22.808  24.760  1.00  0.00    -0.353 N 
ATOM      3  C   UNL A   1      36.815  22.610  24.070  1.00  0.00     0.257 C 
ATOM      4  O   UNL A   1      36.720  23.104  22.944  1.00  0.00    -0.271 OA
ATOM      5  H   UNL A   1      38.742  23.118  24.233  1.00  0.00     0.163 HD
BRANCH   3   6
ATOM      6  C   UNL A   1      35.660  21.811  24.691  1.00  0.00     0.329 C 
BRANCH   6   7
ATOM      7  O   UNL A   1      34.423  21.757  24.013  1.00  0.00    -0.483 OA
BRANCH   7   8
ATOM      8  C   UNL A   1      33.227  22.115  24.570  1.00  0.00     0.127 A 
ATOM      9  C   UNL A   1      32.159  22.862  24.041  1.00  0.00     0.019 A 
ATOM     10  C   UNL A   1      30.995  23.041  24.820  1.00  0.00     0.027 A 
ATOM     11  C   UNL A   1      30.930  22.567  26.129  1.00  0.00     0.018 A 
ATOM     12  C   UNL A   1      33.125  21.629  25.888  1.00  0.00     0.048 A 
ATOM     13  Br  UNL A   1      29.410  22.937  27.189  1.00  0.00    -0.051 Br
ATOM     14  C   UNL A   1      31.996  21.865  26.672  1.00  0.00     0.019 A 
BRANCH   9  15
ATOM     15  C   UNL A   1      32.228  23.563  22.752  1.00  0.00     0.032 C 
ATOM     16  C   UNL A   1      32.694  24.811  22.547  1.00  0.00     0.060 C 
BRANCH  16  17
ATOM     17  C   UNL A   1      32.823  25.328  21.124  1.00  0.00     0.100 C 
ATOM     18  N   UNL A   1      32.930  25.758  19.943  1.00  0.00    -0.192 NA
ENDBRANCH  16  17
BRANCH  16  19
ATOM     19  C   UNL A   1      32.809  25.806  23.644  1.00  0.00    -0.008 A 
ATOM     20  C   UNL A   1      33.932  25.902  24.480  1.00  0.00     0.012 A 
ATOM     21  C   UNL A   1      31.671  26.580  23.953  1.00  0.00     0.012 A 
ATOM     22  C   UNL A   1      33.889  26.693  25.632  1.00  0.00     0.040 A 
ATOM     23  C   UNL A   1      31.638  27.384  25.093  1.00  0.00     0.040 A 
ATOM     24  C   UNL A   1      32.741  27.418  25.933  1.00  0.00     0.123 A 
ATOM     25  F   UNL A   1      32.692  28.148  27.055  1.00  0.00    -0.207 F 
ENDBRANCH  16  19
ENDBRANCH   9  15
ENDBRANCH   7   8
ENDBRANCH   6   7
ENDBRANCH   3   6
ENDBRANCH   1   2
BRANCH   1  26
ATOM     26  C   UNL A   1      39.310  21.620  26.490  1.00  0.00     0.042 C 
BRANCH  26  27
ATOM     27  C   UNL A   1      39.470  20.489  25.478  1.00  0.00     0.118 C 
BRANCH  27  28
ATOM     28  N   UNL A   1      40.379  19.442  25.926  1.00  0.00    -0.352 N 
ATOM     29  C   UNL A   1      41.681  19.501  26.355  1.00  0.00     0.251 C 
ATOM     30  H   UNL A   1      39.992  18.537  25.918  1.00  0.00     0.163 HD
ATOM     31  O   UNL A   1      42.304  18.456  26.512  1.00  0.00    -0.269 OA
BRANCH  29  32
ATOM     32  C   UNL A   1      42.344  20.801  26.606  1.00  0.00     0.039 A 
ATOM     33  C   UNL A   1      42.731  21.578  25.510  1.00  0.00     0.014 A 
ATOM     34  C   UNL A   1      42.616  21.245  27.901  1.00  0.00     0.014 A 
ATOM     35  C   UNL A   1      43.321  22.827  25.716  1.00  0.00     0.010 A 
ATOM     36  C   UNL A   1      43.126  22.526  28.106  1.00  0.00     0.010 A 
ATOM     37  C   UNL A   1      43.485  23.332  27.016  1.00  0.00    -0.014 A 
BRANCH  37  38
ATOM     38  C   UNL A   1      44.010  24.703  27.248  1.00  0.00     0.031 A 
ATOM     39  C   UNL A   1      43.089  25.812  27.681  1.00  0.00     0.074 A 
ATOM     40  C   UNL A   1      45.309  24.966  26.998  1.00  0.00     0.049 A 
ATOM     41  N   UNL A   1      43.356  27.078  27.875  1.00  0.00    -0.248 NA
ATOM     42  C   UNL A   1      41.677  25.459  27.896  1.00  0.00     0.031 C 
ATOM     43  C   UNL A   1      46.289  23.991  26.514  1.00  0.00     0.029 A 
ATOM     44  N   UNL A   1      46.025  26.132  27.099  1.00  0.00    -0.354 N 
ATOM     45  C   UNL A   1      42.147  27.675  28.213  1.00  0.00     0.074 A 
ATOM     46  C   UNL A   1      41.137  26.641  28.150  1.00  0.00     0.031 C 
ATOM     47  C   UNL A   1      47.479  24.595  26.375  1.00  0.00     0.029 A 
ATOM     48  C   UNL A   1      47.342  26.006  26.718  1.00  0.00     0.049 A 
ATOM     49  H   UNL A   1      45.636  26.979  27.414  1.00  0.00     0.167 HD
ATOM     50  C   UNL A   1      41.905  28.962  28.563  1.00  0.00     0.037 A 
ATOM     51  C   UNL A   1      48.325  26.924  26.639  1.00  0.00     0.037 A 
ATOM     52  C   UNL A   1      42.921  29.980  28.643  1.00  0.00     0.049 A 
ATOM     53  C   UNL A   1      48.038  28.343  27.046  1.00  0.00     0.074 A 
ATOM     54  C   UNL A   1      42.793  31.291  29.066  1.00  0.00     0.029 A 
ATOM     55  N   UNL A   1      44.250  29.806  28.282  1.00  0.00    -0.354 N 
ATOM     56  N   UNL A   1      46.908  28.870  27.451  1.00  0.00    -0.248 NA
ATOM     57  C   UNL A   1      49.160  29.289  26.997  1.00  0.00     0.031 C 
ATOM     58  C   UNL A   1      44.029  31.926  28.902  1.00  0.00     0.029 A 
ATOM     59  C   UNL A   1      44.945  30.995  28.438  1.00  0.00     0.049 A 
ATOM     60  H   UNL A   1      44.642  28.961  27.960  1.00  0.00     0.167 HD
ATOM     61  C   UNL A   1      47.185  30.205  27.724  1.00  0.00     0.074 A 
ATOM     62  C   UNL A   1      48.596  30.399  27.454  1.00  0.00     0.031 C 
ATOM     63  C   UNL A   1      46.348  31.179  28.161  1.00  0.00     0.037 A 
BRANCH  50  64
ATOM     64  C   UNL A   1      40.482  29.347  28.875  1.00  0.00     0.058 A 
ATOM     65  C   UNL A   1      39.524  29.540  27.865  1.00  0.00     0.135 A 
ATOM     66  C   UNL A   1      40.063  29.500  30.208  1.00  0.00     0.135 A 
ATOM     67  F   UNL A   1      39.869  29.419  26.574  1.00  0.00    -0.206 F 
ATOM     68  C   UNL A   1      38.216  29.909  28.163  1.00  0.00     0.059 A 
ATOM     69  C   UNL A   1      38.750  29.835  30.530  1.00  0.00     0.059 A 
ATOM     70  F   UNL A   1      40.933  29.324  31.214  1.00  0.00    -0.206 F 
ATOM     71  C   UNL A   1      37.839  30.056  29.498  1.00  0.00     0.060 A 
BRANCH  71  72
ATOM     72  S   UNL A   1      36.141  30.545  29.866  1.00  0.00     0.124 S 
ATOM     73  O   UNL A   1      35.403  29.845  28.819  1.00  0.00    -0.237 OA
ATOM     74  O   UNL A   1      35.956  30.034  31.220  1.00  0.00    -0.237 OA
ATOM     75  O   UNL A   1      36.172  32.000  29.746  1.00  0.00    -0.744 OA
ENDBRANCH  71  72
ENDBRANCH  50  64
BRANCH  51  76
ATOM     76  C   UNL A   1      49.673  26.515  26.160  1.00  0.00     0.058 A 
ATOM     77  C   UNL A   1      50.092  26.785  24.848  1.00  0.00     0.135 A 
ATOM     78  C   UNL A   1      50.587  25.886  27.020  1.00  0.00     0.135 A 
ATOM     79  F   UNL A   1      49.253  27.378  23.985  1.00  0.00    -0.206 F 
ATOM     80  C   UNL A   1      51.364  26.440  24.405  1.00  0.00     0.059 A 
ATOM     81  C   UNL A   1      51.874  25.557  26.608  1.00  0.00     0.059 A 
ATOM     82  F   UNL A   1      50.242  25.623  28.290  1.00  0.00    -0.206 F 
ATOM     83  C   UNL A   1      52.252  25.833  25.295  1.00  0.00     0.060 A 
BRANCH  83  84
ATOM     84  S   UNL A   1      53.927  25.461  24.732  1.00  0.00     0.124 S 
ATOM     85  O   UNL A   1      53.968  24.009  24.870  1.00  0.00    -0.237 OA
ATOM     86  O   UNL A   1      53.910  25.973  23.366  1.00  0.00    -0.237 OA
ATOM     87  O   UNL A   1      54.767  26.208  25.663  1.00  0.00    -0.744 OA
ENDBRANCH  83  84
ENDBRANCH  51  76
BRANCH  63  88
ATOM     88  C   UNL A   1      46.937  32.543  28.400  1.00  0.00     0.058 A 
ATOM     89  C   UNL A   1      47.525  32.892  29.626  1.00  0.00     0.135 A 
ATOM     90  C   UNL A   1      46.957  33.499  27.370  1.00  0.00     0.135 A 
ATOM     91  F   UNL A   1      47.527  32.021  30.647  1.00  0.00    -0.206 F 
ATOM     92  C   UNL A   1      48.091  34.147  29.830  1.00  0.00     0.059 A 
ATOM     93  C   UNL A   1      47.545  34.748  27.542  1.00  0.00     0.059 A 
ATOM     94  F   UNL A   1      46.417  33.214  26.174  1.00  0.00    -0.206 F 
ATOM     95  C   UNL A   1      48.098  35.068  28.781  1.00  0.00     0.060 A 
BRANCH  95  96
ATOM     96  S   UNL A   1      48.862  36.681  29.049  1.00  0.00     0.124 S 
ATOM     97  O   UNL A   1      50.274  36.375  28.842  1.00  0.00    -0.237 OA
ATOM     98  O   UNL A   1      48.233  37.500  28.019  1.00  0.00    -0.237 OA
ATOM     99  O   UNL A   1      48.488  37.011  30.421  1.00  0.00    -0.744 OA
ENDBRANCH  95  96
ENDBRANCH  63  88
ENDBRANCH  37  38
ENDBRANCH  29  32
ENDBRANCH  27  28
ENDBRANCH  26  27
ENDBRANCH   1  26
TORSDOF 18
ENDMDL
