MODEL 1
REMARK VINA RESULT:     -11.9      0.000      0.000
REMARK SMILES C[C@@]1(C(=O)NCCCNC(=O)c2ccc(-c3c4nc(c(-c5c(F)cc(S(=O)(=O)[O-])cc5F)c5ccc([nH]5)c(-c5c(F)cc(S(=O)(=O)[O-])cc5F)c5nc(c(-c6c(F)cc(S(=O)(=O)[O-])cc6F)c6ccc3[nH]6)C=C5)C=C4)cc2)COC[C@H]1NC(=O)C[C@@H]1C[NH2+]CCO1
REMARK SMILES IDX 7 1 6 2 5 3 3 4 4 5 2 7 1 8 78 9 81 10 79 11 80 12 82 13
REMARK SMILES IDX 83 14 84 16 85 17 86 18 87 19 91 20 88 21 90 22 89 23 8 26
REMARK SMILES IDX 9 27 10 28 11 30 12 31 13 32 77 33 14 34 76 35 15 36 16 37
REMARK SMILES IDX 17 38 70 39 18 40 75 41 69 42 71 43 19 44 74 45 68 46 67 47
REMARK SMILES IDX 20 49 54 50 33 51 53 52 34 53 37 54 52 55 72 56 35 57 36 58
REMARK SMILES IDX 51 60 73 61 38 62 21 63 22 64 31 65 23 66 24 67 30 68 32 69
REMARK SMILES IDX 25 70 26 71 27 72 28 73 29 74 55 75 56 76 65 77 57 78 58 79
REMARK SMILES IDX 64 80 66 81 59 82 60 83 61 84 62 85 63 86 39 87 40 88 49 89
REMARK SMILES IDX 41 90 42 91 48 92 50 93 43 94 44 95 45 96 46 97 47 98
REMARK H PARENT 5 6 82 15 88 24 88 25 9 29 71 48 37 59
REMARK Flexibility Score: inf
ROOT
ATOM      1  C   UNL A   1      38.903  22.458  26.135  1.00  0.00     0.042 C 
ENDROOT
BRANCH   1   2
ATOM      2  C   UNL A   1      37.713  23.371  25.849  1.00  0.00     0.117 C 
BRANCH   2   3
ATOM      3  N   UNL A   1      36.536  23.005  26.610  1.00  0.00    -0.355 N 
ATOM      4  C   UNL A   1      35.215  22.929  26.324  1.00  0.00     0.230 C 
ATOM      5  O   UNL A   1      34.528  22.464  27.246  1.00  0.00    -0.274 OA
ATOM      6  H   UNL A   1      36.742  22.757  27.541  1.00  0.00     0.163 HD
BRANCH   4   7
ATOM      7  C   UNL A   1      34.560  23.329  24.982  1.00  0.00     0.092 C 
ATOM      8  C   UNL A   1      35.374  22.611  23.874  1.00  0.00     0.026 C 
ATOM      9  C   UNL A   1      34.669  24.833  24.752  1.00  0.00     0.179 C 
ATOM     10  C   UNL A   1      33.053  23.033  24.909  1.00  0.00     0.125 C 
ATOM     11  O   UNL A   1      33.370  25.423  24.841  1.00  0.00    -0.378 OA
ATOM     12  C   UNL A   1      32.376  24.404  24.941  1.00  0.00     0.186 C 
BRANCH  10  13
ATOM     13  N   UNL A   1      32.643  22.327  23.685  1.00  0.00    -0.350 N 
ATOM     14  C   UNL A   1      32.328  21.019  23.485  1.00  0.00     0.223 C 
ATOM     15  H   UNL A   1      32.589  22.893  22.881  1.00  0.00     0.163 HD
ATOM     16  O   UNL A   1      32.071  20.650  22.339  1.00  0.00    -0.275 OA
BRANCH  14  17
ATOM     17  C   UNL A   1      32.307  20.047  24.641  1.00  0.00     0.138 C 
BRANCH  17  18
ATOM     18  C   UNL A   1      32.922  18.706  24.238  1.00  0.00     0.182 C 
ATOM     19  C   UNL A   1      32.232  17.534  24.975  1.00  0.00     0.293 C 
ATOM     20  O   UNL A   1      34.325  18.745  24.572  1.00  0.00    -0.366 OA
ATOM     21  N   UNL A   1      32.866  16.233  24.680  1.00  0.00    -0.342 N 
ATOM     22  C   UNL A   1      34.963  17.500  24.256  1.00  0.00     0.222 C 
ATOM     23  C   UNL A   1      34.302  16.334  24.998  1.00  0.00     0.289 C 
ATOM     24  H   UNL A   1      32.746  16.009  23.692  1.00  0.00     0.346 HD
ATOM     25  H   UNL A   1      32.433  15.498  25.238  1.00  0.00     0.346 HD
ENDBRANCH  17  18
ENDBRANCH  14  17
ENDBRANCH  10  13
ENDBRANCH   4   7
ENDBRANCH   2   3
ENDBRANCH   1   2
BRANCH   1  26
ATOM     26  C   UNL A   1      40.030  23.125  26.924  1.00  0.00     0.118 C 
BRANCH  26  27
ATOM     27  N   UNL A   1      41.025  23.744  26.058  1.00  0.00    -0.352 N 
ATOM     28  C   UNL A   1      41.549  25.011  26.045  1.00  0.00     0.251 C 
ATOM     29  H   UNL A   1      41.384  23.149  25.361  1.00  0.00     0.163 HD
ATOM     30  O   UNL A   1      42.198  25.368  25.062  1.00  0.00    -0.269 OA
BRANCH  28  31
ATOM     31  C   UNL A   1      41.353  25.949  27.175  1.00  0.00     0.039 A 
ATOM     32  C   UNL A   1      42.226  27.036  27.301  1.00  0.00     0.014 A 
ATOM     33  C   UNL A   1      40.386  25.725  28.158  1.00  0.00     0.014 A 
ATOM     34  C   UNL A   1      42.099  27.917  28.379  1.00  0.00     0.010 A 
ATOM     35  C   UNL A   1      40.213  26.644  29.194  1.00  0.00     0.010 A 
ATOM     36  C   UNL A   1      41.075  27.743  29.323  1.00  0.00    -0.014 A 
BRANCH  36  37
ATOM     37  C   UNL A   1      40.903  28.693  30.454  1.00  0.00     0.031 A 
ATOM     38  C   UNL A   1      41.766  28.578  31.684  1.00  0.00     0.074 A 
ATOM     39  C   UNL A   1      39.933  29.627  30.397  1.00  0.00     0.049 A 
ATOM     40  N   UNL A   1      41.722  29.272  32.792  1.00  0.00    -0.248 NA
ATOM     41  C   UNL A   1      42.797  27.527  31.676  1.00  0.00     0.031 C 
ATOM     42  C   UNL A   1      39.001  29.810  29.282  1.00  0.00     0.029 A 
ATOM     43  N   UNL A   1      39.562  30.591  31.301  1.00  0.00    -0.354 N 
ATOM     44  C   UNL A   1      42.702  28.734  33.618  1.00  0.00     0.074 A 
ATOM     45  C   UNL A   1      43.294  27.624  32.901  1.00  0.00     0.031 C 
ATOM     46  C   UNL A   1      38.179  30.836  29.560  1.00  0.00     0.029 A 
ATOM     47  C   UNL A   1      38.503  31.361  30.883  1.00  0.00     0.049 A 
ATOM     48  H   UNL A   1      40.012  30.719  32.166  1.00  0.00     0.167 HD
ATOM     49  C   UNL A   1      43.090  29.139  34.852  1.00  0.00     0.037 A 
ATOM     50  C   UNL A   1      37.860  32.373  31.497  1.00  0.00     0.037 A 
ATOM     51  C   UNL A   1      42.520  30.264  35.547  1.00  0.00     0.049 A 
ATOM     52  C   UNL A   1      38.318  32.816  32.859  1.00  0.00     0.074 A 
ATOM     53  C   UNL A   1      42.887  30.794  36.773  1.00  0.00     0.029 A 
ATOM     54  N   UNL A   1      41.467  31.035  35.079  1.00  0.00    -0.354 N 
ATOM     55  N   UNL A   1      39.286  32.333  33.600  1.00  0.00    -0.248 NA
ATOM     56  C   UNL A   1      37.602  33.946  33.466  1.00  0.00     0.031 C 
ATOM     57  C   UNL A   1      42.031  31.864  37.061  1.00  0.00     0.029 A 
ATOM     58  C   UNL A   1      41.158  32.026  35.998  1.00  0.00     0.049 A 
ATOM     59  H   UNL A   1      41.006  30.899  34.220  1.00  0.00     0.167 HD
ATOM     60  C   UNL A   1      39.309  33.112  34.751  1.00  0.00     0.074 A 
ATOM     61  C   UNL A   1      38.268  34.108  34.601  1.00  0.00     0.031 C 
ATOM     62  C   UNL A   1      40.120  33.012  35.833  1.00  0.00     0.037 A 
BRANCH  49  63
ATOM     63  C   UNL A   1      44.188  28.364  35.527  1.00  0.00     0.058 A 
ATOM     64  C   UNL A   1      43.908  27.283  36.380  1.00  0.00     0.135 A 
ATOM     65  C   UNL A   1      45.536  28.683  35.298  1.00  0.00     0.135 A 
ATOM     66  F   UNL A   1      42.637  26.943  36.646  1.00  0.00    -0.206 F 
ATOM     67  C   UNL A   1      44.924  26.568  37.006  1.00  0.00     0.059 A 
ATOM     68  C   UNL A   1      46.569  27.964  35.892  1.00  0.00     0.059 A 
ATOM     69  F   UNL A   1      45.861  29.704  34.491  1.00  0.00    -0.206 F 
ATOM     70  C   UNL A   1      46.252  26.918  36.758  1.00  0.00     0.060 A 
BRANCH  70  71
ATOM     71  S   UNL A   1      47.561  25.982  37.579  1.00  0.00     0.124 S 
ATOM     72  O   UNL A   1      47.181  26.125  38.981  1.00  0.00    -0.237 OA
ATOM     73  O   UNL A   1      47.393  24.646  37.011  1.00  0.00    -0.237 OA
ATOM     74  O   UNL A   1      48.777  26.678  37.183  1.00  0.00    -0.744 OA
ENDBRANCH  70  71
ENDBRANCH  49  63
BRANCH  50  75
ATOM     75  C   UNL A   1      36.728  33.053  30.814  1.00  0.00     0.058 A 
ATOM     76  C   UNL A   1      35.403  32.819  31.210  1.00  0.00     0.135 A 
ATOM     77  C   UNL A   1      36.947  33.963  29.768  1.00  0.00     0.135 A 
ATOM     78  F   UNL A   1      35.143  31.954  32.202  1.00  0.00    -0.206 F 
ATOM     79  C   UNL A   1      34.333  33.452  30.587  1.00  0.00     0.059 A 
ATOM     80  C   UNL A   1      35.895  34.627  29.144  1.00  0.00     0.059 A 
ATOM     81  F   UNL A   1      38.198  34.235  29.364  1.00  0.00    -0.206 F 
ATOM     82  C   UNL A   1      34.590  34.358  29.555  1.00  0.00     0.060 A 
BRANCH  82  83
ATOM     83  S   UNL A   1      33.199  35.218  28.789  1.00  0.00     0.124 S 
ATOM     84  O   UNL A   1      32.455  35.672  29.957  1.00  0.00    -0.237 OA
ATOM     85  O   UNL A   1      33.869  36.257  28.013  1.00  0.00    -0.237 OA
ATOM     86  O   UNL A   1      32.557  34.173  27.996  1.00  0.00    -0.744 OA
ENDBRANCH  82  83
ENDBRANCH  50  75
BRANCH  62  87
ATOM     87  C   UNL A   1      39.930  34.020  36.931  1.00  0.00     0.058 A 
ATOM     88  C   UNL A   1      40.551  35.278  36.890  1.00  0.00     0.135 A 
ATOM     89  C   UNL A   1      39.080  33.742  38.014  1.00  0.00     0.135 A 
ATOM     90  F   UNL A   1      41.377  35.591  35.879  1.00  0.00    -0.206 F 
ATOM     91  C   UNL A   1      40.356  36.216  37.898  1.00  0.00     0.059 A 
ATOM     92  C   UNL A   1      38.851  34.676  39.020  1.00  0.00     0.059 A 
ATOM     93  F   UNL A   1      38.454  32.557  38.095  1.00  0.00    -0.206 F 
ATOM     94  C   UNL A   1      39.504  35.906  38.959  1.00  0.00     0.060 A 
BRANCH  94  95
ATOM     95  S   UNL A   1      39.236  37.142  40.247  1.00  0.00     0.124 S 
ATOM     96  O   UNL A   1      38.460  38.149  39.532  1.00  0.00    -0.237 OA
ATOM     97  O   UNL A   1      38.511  36.386  41.263  1.00  0.00    -0.237 OA
ATOM     98  O   UNL A   1      40.591  37.540  40.620  1.00  0.00    -0.744 OA
ENDBRANCH  94  95
ENDBRANCH  62  87
ENDBRANCH  36  37
ENDBRANCH  28  31
ENDBRANCH  26  27
ENDBRANCH   1  26
TORSDOF 16
ENDMDL
MODEL 2
REMARK VINA RESULT:     -11.9      3.225      9.361
REMARK SMILES C[C@@]1(C(=O)NCCCNC(=O)c2ccc(-c3c4nc(c(-c5c(F)cc(S(=O)(=O)[O-])cc5F)c5ccc([nH]5)c(-c5c(F)cc(S(=O)(=O)[O-])cc5F)c5nc(c(-c6c(F)cc(S(=O)(=O)[O-])cc6F)c6ccc3[nH]6)C=C5)C=C4)cc2)COC[C@H]1NC(=O)C[C@@H]1C[NH2+]CCO1
REMARK SMILES IDX 7 1 6 2 5 3 3 4 4 5 2 7 1 8 78 9 81 10 79 11 80 12 82 13
REMARK SMILES IDX 83 14 84 16 85 17 86 18 87 19 91 20 88 21 90 22 89 23 8 26
REMARK SMILES IDX 9 27 10 28 11 30 12 31 13 32 77 33 14 34 76 35 15 36 16 37
REMARK SMILES IDX 17 38 70 39 18 40 75 41 69 42 71 43 19 44 74 45 68 46 67 47
REMARK SMILES IDX 20 49 54 50 33 51 53 52 34 53 37 54 52 55 72 56 35 57 36 58
REMARK SMILES IDX 51 60 73 61 38 62 21 63 22 64 31 65 23 66 24 67 30 68 32 69
REMARK SMILES IDX 25 70 26 71 27 72 28 73 29 74 55 75 56 76 65 77 57 78 58 79
REMARK SMILES IDX 64 80 66 81 59 82 60 83 61 84 62 85 63 86 39 87 40 88 49 89
REMARK SMILES IDX 41 90 42 91 48 92 50 93 43 94 44 95 45 96 46 97 47 98
REMARK H PARENT 5 6 82 15 88 24 88 25 9 29 71 48 37 59
REMARK Flexibility Score: inf
ROOT
ATOM      1  C   UNL A   1      32.834  27.385  26.330  1.00  0.00     0.042 C 
ENDROOT
BRANCH   1   2
ATOM      2  C   UNL A   1      32.999  25.925  25.916  1.00  0.00     0.117 C 
BRANCH   2   3
ATOM      3  N   UNL A   1      32.063  25.047  26.589  1.00  0.00    -0.355 N 
ATOM      4  C   UNL A   1      31.684  23.760  26.411  1.00  0.00     0.230 C 
ATOM      5  O   UNL A   1      30.912  23.339  27.285  1.00  0.00    -0.274 OA
ATOM      6  H   UNL A   1      31.601  25.483  27.342  1.00  0.00     0.163 HD
BRANCH   4   7
ATOM      7  C   UNL A   1      32.159  22.830  25.270  1.00  0.00     0.092 C 
ATOM      8  C   UNL A   1      31.876  23.591  23.948  1.00  0.00     0.026 C 
ATOM      9  C   UNL A   1      31.354  21.535  25.255  1.00  0.00     0.179 C 
ATOM     10  C   UNL A   1      33.623  22.377  25.402  1.00  0.00     0.125 C 
ATOM     11  O   UNL A   1      32.196  20.447  25.644  1.00  0.00    -0.378 OA
ATOM     12  C   UNL A   1      33.549  20.890  25.751  1.00  0.00     0.186 C 
BRANCH  10  13
ATOM     13  N   UNL A   1      34.410  22.539  24.169  1.00  0.00    -0.350 N 
ATOM     14  C   UNL A   1      35.526  23.278  23.927  1.00  0.00     0.223 C 
ATOM     15  H   UNL A   1      34.074  22.031  23.395  1.00  0.00     0.163 HD
ATOM     16  O   UNL A   1      35.972  23.299  22.780  1.00  0.00    -0.275 OA
BRANCH  14  17
ATOM     17  C   UNL A   1      36.189  24.058  25.037  1.00  0.00     0.138 C 
BRANCH  17  18
ATOM     18  C   UNL A   1      37.119  23.163  25.855  1.00  0.00     0.182 C 
ATOM     19  C   UNL A   1      38.317  23.966  26.413  1.00  0.00     0.293 C 
ATOM     20  O   UNL A   1      37.590  22.107  24.990  1.00  0.00    -0.366 OA
ATOM     21  N   UNL A   1      39.285  23.110  27.128  1.00  0.00    -0.342 N 
ATOM     22  C   UNL A   1      38.502  21.244  25.683  1.00  0.00     0.222 C 
ATOM     23  C   UNL A   1      39.705  22.026  26.221  1.00  0.00     0.289 C 
ATOM     24  H   UNL A   1      38.845  22.714  27.958  1.00  0.00     0.346 HD
ATOM     25  H   UNL A   1      40.094  23.660  27.416  1.00  0.00     0.346 HD
ENDBRANCH  17  18
ENDBRANCH  14  17
ENDBRANCH  10  13
ENDBRANCH   4   7
ENDBRANCH   2   3
ENDBRANCH   1   2
BRANCH   1  26
ATOM     26  C   UNL A   1      34.013  28.281  25.950  1.00  0.00     0.118 C 
BRANCH  26  27
ATOM     27  N   UNL A   1      33.776  29.680  26.277  1.00  0.00    -0.352 N 
ATOM     28  C   UNL A   1      34.375  30.509  27.191  1.00  0.00     0.251 C 
ATOM     29  H   UNL A   1      33.061  30.106  25.750  1.00  0.00     0.163 HD
ATOM     30  O   UNL A   1      33.834  31.583  27.452  1.00  0.00    -0.269 OA
BRANCH  28  31
ATOM     31  C   UNL A   1      35.643  30.143  27.864  1.00  0.00     0.039 A 
ATOM     32  C   UNL A   1      35.587  29.640  29.169  1.00  0.00     0.014 A 
ATOM     33  C   UNL A   1      36.885  30.369  27.266  1.00  0.00     0.014 A 
ATOM     34  C   UNL A   1      36.766  29.324  29.851  1.00  0.00     0.010 A 
ATOM     35  C   UNL A   1      38.058  29.986  27.919  1.00  0.00     0.010 A 
ATOM     36  C   UNL A   1      38.012  29.471  29.223  1.00  0.00    -0.014 A 
BRANCH  36  37
ATOM     37  C   UNL A   1      39.273  29.105  29.921  1.00  0.00     0.031 A 
ATOM     38  C   UNL A   1      39.708  29.855  31.153  1.00  0.00     0.074 A 
ATOM     39  C   UNL A   1      40.054  28.131  29.414  1.00  0.00     0.049 A 
ATOM     40  N   UNL A   1      40.801  29.720  31.859  1.00  0.00    -0.248 NA
ATOM     41  C   UNL A   1      38.807  30.912  31.640  1.00  0.00     0.031 C 
ATOM     42  C   UNL A   1      39.767  27.362  28.201  1.00  0.00     0.029 A 
ATOM     43  N   UNL A   1      41.254  27.626  29.850  1.00  0.00    -0.354 N 
ATOM     44  C   UNL A   1      40.729  30.682  32.860  1.00  0.00     0.074 A 
ATOM     45  C   UNL A   1      39.506  31.426  32.642  1.00  0.00     0.031 C 
ATOM     46  C   UNL A   1      40.753  26.472  28.000  1.00  0.00     0.029 A 
ATOM     47  C   UNL A   1      41.756  26.627  29.049  1.00  0.00     0.049 A 
ATOM     48  H   UNL A   1      41.712  27.949  30.659  1.00  0.00     0.167 HD
ATOM     49  C   UNL A   1      41.591  30.913  33.880  1.00  0.00     0.037 A 
ATOM     50  C   UNL A   1      42.898  25.920  29.145  1.00  0.00     0.037 A 
ATOM     51  C   UNL A   1      42.790  30.150  34.112  1.00  0.00     0.049 A 
ATOM     52  C   UNL A   1      43.832  26.182  30.294  1.00  0.00     0.074 A 
ATOM     53  C   UNL A   1      43.696  30.264  35.153  1.00  0.00     0.029 A 
ATOM     54  N   UNL A   1      43.250  29.129  33.294  1.00  0.00    -0.354 N 
ATOM     55  N   UNL A   1      43.718  27.057  31.264  1.00  0.00    -0.248 NA
ATOM     56  C   UNL A   1      45.045  25.357  30.366  1.00  0.00     0.031 C 
ATOM     57  C   UNL A   1      44.722  29.336  34.944  1.00  0.00     0.029 A 
ATOM     58  C   UNL A   1      44.436  28.616  33.796  1.00  0.00     0.049 A 
ATOM     59  H   UNL A   1      42.801  28.815  32.476  1.00  0.00     0.167 HD
ATOM     60  C   UNL A   1      44.833  26.874  32.074  1.00  0.00     0.074 A 
ATOM     61  C   UNL A   1      45.602  25.795  31.488  1.00  0.00     0.031 C 
ATOM     62  C   UNL A   1      45.188  27.539  33.202  1.00  0.00     0.037 A 
BRANCH  49  63
ATOM     63  C   UNL A   1      41.265  32.035  34.828  1.00  0.00     0.058 A 
ATOM     64  C   UNL A   1      40.481  31.824  35.975  1.00  0.00     0.135 A 
ATOM     65  C   UNL A   1      41.767  33.328  34.608  1.00  0.00     0.135 A 
ATOM     66  F   UNL A   1      39.964  30.612  36.226  1.00  0.00    -0.206 F 
ATOM     67  C   UNL A   1      40.179  32.863  36.850  1.00  0.00     0.059 A 
ATOM     68  C   UNL A   1      41.500  34.375  35.486  1.00  0.00     0.059 A 
ATOM     69  F   UNL A   1      42.524  33.584  33.531  1.00  0.00    -0.206 F 
ATOM     70  C   UNL A   1      40.690  34.136  36.595  1.00  0.00     0.060 A 
BRANCH  70  71
ATOM     71  S   UNL A   1      40.288  35.474  37.739  1.00  0.00     0.124 S 
ATOM     72  O   UNL A   1      40.251  36.623  36.838  1.00  0.00    -0.237 OA
ATOM     73  O   UNL A   1      38.997  35.050  38.275  1.00  0.00    -0.237 OA
ATOM     74  O   UNL A   1      41.393  35.455  38.688  1.00  0.00    -0.744 OA
ENDBRANCH  70  71
ENDBRANCH  49  63
BRANCH  50  75
ATOM     75  C   UNL A   1      43.209  24.876  28.133  1.00  0.00     0.058 A 
ATOM     76  C   UNL A   1      43.863  25.204  26.937  1.00  0.00     0.135 A 
ATOM     77  C   UNL A   1      42.877  23.530  28.349  1.00  0.00     0.135 A 
ATOM     78  F   UNL A   1      44.196  26.480  26.683  1.00  0.00    -0.206 F 
ATOM     79  C   UNL A   1      44.167  24.239  25.983  1.00  0.00     0.059 A 
ATOM     80  C   UNL A   1      43.190  22.541  27.420  1.00  0.00     0.059 A 
ATOM     81  F   UNL A   1      42.265  23.160  29.486  1.00  0.00    -0.206 F 
ATOM     82  C   UNL A   1      43.828  22.908  26.236  1.00  0.00     0.060 A 
BRANCH  82  83
ATOM     83  S   UNL A   1      44.277  21.653  25.017  1.00  0.00     0.124 S 
ATOM     84  O   UNL A   1      44.182  22.405  23.772  1.00  0.00    -0.237 OA
ATOM     85  O   UNL A   1      45.625  21.282  25.439  1.00  0.00    -0.237 OA
ATOM     86  O   UNL A   1      43.263  20.621  25.212  1.00  0.00    -0.744 OA
ENDBRANCH  82  83
ENDBRANCH  50  75
BRANCH  62  87
ATOM     87  C   UNL A   1      46.451  27.103  33.889  1.00  0.00     0.058 A 
ATOM     88  C   UNL A   1      46.448  26.086  34.857  1.00  0.00     0.135 A 
ATOM     89  C   UNL A   1      47.685  27.678  33.543  1.00  0.00     0.135 A 
ATOM     90  F   UNL A   1      45.295  25.509  35.226  1.00  0.00    -0.206 F 
ATOM     91  C   UNL A   1      47.623  25.671  35.475  1.00  0.00     0.059 A 
ATOM     92  C   UNL A   1      48.874  27.261  34.132  1.00  0.00     0.059 A 
ATOM     93  F   UNL A   1      47.742  28.648  32.616  1.00  0.00    -0.206 F 
ATOM     94  C   UNL A   1      48.831  26.265  35.106  1.00  0.00     0.060 A 
BRANCH  94  95
ATOM     95  S   UNL A   1      50.352  25.698  35.897  1.00  0.00     0.124 S 
ATOM     96  O   UNL A   1      50.210  24.250  35.805  1.00  0.00    -0.237 OA
ATOM     97  O   UNL A   1      51.385  26.289  35.050  1.00  0.00    -0.237 OA
ATOM     98  O   UNL A   1      50.262  26.255  37.243  1.00  0.00    -0.744 OA
ENDBRANCH  94  95
ENDBRANCH  62  87
ENDBRANCH  36  37
ENDBRANCH  28  31
ENDBRANCH  26  27
ENDBRANCH   1  26
TORSDOF 16
ENDMDL
MODEL 3
REMARK VINA RESULT:     -11.8      5.324      7.450
REMARK SMILES C[C@@]1(C(=O)NCCCNC(=O)c2ccc(-c3c4nc(c(-c5c(F)cc(S(=O)(=O)[O-])cc5F)c5ccc([nH]5)c(-c5c(F)cc(S(=O)(=O)[O-])cc5F)c5nc(c(-c6c(F)cc(S(=O)(=O)[O-])cc6F)c6ccc3[nH]6)C=C5)C=C4)cc2)COC[C@H]1NC(=O)C[C@@H]1C[NH2+]CCO1
REMARK SMILES IDX 7 1 6 2 5 3 3 4 4 5 2 7 1 8 78 9 81 10 79 11 80 12 82 13
REMARK SMILES IDX 83 14 84 16 85 17 86 18 87 19 91 20 88 21 90 22 89 23 8 26
REMARK SMILES IDX 9 27 10 28 11 30 12 31 13 32 77 33 14 34 76 35 15 36 16 37
REMARK SMILES IDX 17 38 70 39 18 40 75 41 69 42 71 43 19 44 74 45 68 46 67 47
REMARK SMILES IDX 20 49 54 50 33 51 53 52 34 53 37 54 52 55 72 56 35 57 36 58
REMARK SMILES IDX 51 60 73 61 38 62 21 63 22 64 31 65 23 66 24 67 30 68 32 69
REMARK SMILES IDX 25 70 26 71 27 72 28 73 29 74 55 75 56 76 65 77 57 78 58 79
REMARK SMILES IDX 64 80 66 81 59 82 60 83 61 84 62 85 63 86 39 87 40 88 49 89
REMARK SMILES IDX 41 90 42 91 48 92 50 93 43 94 44 95 45 96 46 97 47 98
REMARK H PARENT 5 6 82 15 88 24 88 25 9 29 71 48 37 59
REMARK Flexibility Score: inf
ROOT
ATOM      1  C   UNL A   1      35.663  23.979  24.512  1.00  0.00     0.042 C 
ENDROOT
BRANCH   1   2
ATOM      2  C   UNL A   1      34.343  24.729  24.359  1.00  0.00     0.117 C 
BRANCH   2   3
ATOM      3  N   UNL A   1      34.105  25.164  22.998  1.00  0.00    -0.355 N 
ATOM      4  C   UNL A   1      33.121  25.870  22.393  1.00  0.00     0.230 C 
ATOM      5  O   UNL A   1      33.346  26.123  21.200  1.00  0.00    -0.274 OA
ATOM      6  H   UNL A   1      34.814  24.883  22.375  1.00  0.00     0.163 HD
BRANCH   4   7
ATOM      7  C   UNL A   1      31.830  26.383  23.073  1.00  0.00     0.092 C 
ATOM      8  C   UNL A   1      31.239  25.171  23.842  1.00  0.00     0.026 C 
ATOM      9  C   UNL A   1      30.809  26.829  22.033  1.00  0.00     0.179 C 
ATOM     10  C   UNL A   1      32.041  27.617  23.966  1.00  0.00     0.125 C 
ATOM     11  O   UNL A   1      30.655  28.248  22.096  1.00  0.00    -0.378 OA
ATOM     12  C   UNL A   1      31.368  28.768  23.218  1.00  0.00     0.186 C 
BRANCH  10  13
ATOM     13  N   UNL A   1      31.435  27.497  25.301  1.00  0.00    -0.350 N 
ATOM     14  C   UNL A   1      32.014  27.464  26.532  1.00  0.00     0.223 C 
ATOM     15  H   UNL A   1      30.453  27.427  25.304  1.00  0.00     0.163 HD
ATOM     16  O   UNL A   1      31.289  27.294  27.513  1.00  0.00    -0.275 OA
BRANCH  14  17
ATOM     17  C   UNL A   1      33.508  27.623  26.685  1.00  0.00     0.138 C 
BRANCH  17  18
ATOM     18  C   UNL A   1      33.911  29.096  26.615  1.00  0.00     0.182 C 
ATOM     19  C   UNL A   1      35.201  29.360  27.426  1.00  0.00     0.293 C 
ATOM     20  O   UNL A   1      32.821  29.879  27.146  1.00  0.00    -0.366 OA
ATOM     21  N   UNL A   1      35.564  30.791  27.456  1.00  0.00    -0.342 N 
ATOM     22  C   UNL A   1      33.145  31.276  27.146  1.00  0.00     0.222 C 
ATOM     23  C   UNL A   1      34.409  31.553  27.967  1.00  0.00     0.289 C 
ATOM     24  H   UNL A   1      35.796  31.107  26.515  1.00  0.00     0.346 HD
ATOM     25  H   UNL A   1      36.373  30.935  28.059  1.00  0.00     0.346 HD
ENDBRANCH  17  18
ENDBRANCH  14  17
ENDBRANCH  10  13
ENDBRANCH   4   7
ENDBRANCH   2   3
ENDBRANCH   1   2
BRANCH   1  26
ATOM     26  C   UNL A   1      36.110  23.784  25.961  1.00  0.00     0.118 C 
BRANCH  26  27
ATOM     27  N   UNL A   1      37.107  22.731  26.100  1.00  0.00    -0.352 N 
ATOM     28  C   UNL A   1      38.455  22.789  26.346  1.00  0.00     0.251 C 
ATOM     29  H   UNL A   1      36.751  21.819  25.999  1.00  0.00     0.163 HD
ATOM     30  O   UNL A   1      39.127  21.772  26.176  1.00  0.00    -0.269 OA
BRANCH  28  31
ATOM     31  C   UNL A   1      39.112  24.035  26.806  1.00  0.00     0.039 A 
ATOM     32  C   UNL A   1      39.821  24.801  25.873  1.00  0.00     0.014 A 
ATOM     33  C   UNL A   1      39.115  24.411  28.152  1.00  0.00     0.014 A 
ATOM     34  C   UNL A   1      40.489  25.960  26.280  1.00  0.00     0.010 A 
ATOM     35  C   UNL A   1      39.721  25.605  28.544  1.00  0.00     0.010 A 
ATOM     36  C   UNL A   1      40.426  26.386  27.616  1.00  0.00    -0.014 A 
BRANCH  36  37
ATOM     37  C   UNL A   1      41.100  27.635  28.057  1.00  0.00     0.031 A 
ATOM     38  C   UNL A   1      42.597  27.771  27.955  1.00  0.00     0.074 A 
ATOM     39  C   UNL A   1      40.369  28.630  28.599  1.00  0.00     0.049 A 
ATOM     40  N   UNL A   1      43.366  28.755  28.344  1.00  0.00    -0.248 NA
ATOM     41  C   UNL A   1      43.327  26.639  27.361  1.00  0.00     0.031 C 
ATOM     42  C   UNL A   1      38.918  28.601  28.796  1.00  0.00     0.029 A 
ATOM     43  N   UNL A   1      40.747  29.853  29.093  1.00  0.00    -0.354 N 
ATOM     44  C   UNL A   1      44.667  28.357  28.060  1.00  0.00     0.074 A 
ATOM     45  C   UNL A   1      44.588  27.021  27.508  1.00  0.00     0.031 C 
ATOM     46  C   UNL A   1      38.527  29.760  29.351  1.00  0.00     0.029 A 
ATOM     47  C   UNL A   1      39.699  30.599  29.580  1.00  0.00     0.049 A 
ATOM     48  H   UNL A   1      41.680  30.167  29.099  1.00  0.00     0.167 HD
ATOM     49  C   UNL A   1      45.822  29.048  28.223  1.00  0.00     0.037 A 
ATOM     50  C   UNL A   1      39.684  31.819  30.150  1.00  0.00     0.037 A 
ATOM     51  C   UNL A   1      45.893  30.390  28.742  1.00  0.00     0.049 A 
ATOM     52  C   UNL A   1      40.975  32.574  30.306  1.00  0.00     0.074 A 
ATOM     53  C   UNL A   1      47.007  31.200  28.886  1.00  0.00     0.029 A 
ATOM     54  N   UNL A   1      44.807  31.121  29.198  1.00  0.00    -0.354 N 
ATOM     55  N   UNL A   1      42.190  32.205  29.977  1.00  0.00    -0.248 NA
ATOM     56  C   UNL A   1      40.894  33.914  30.904  1.00  0.00     0.031 C 
ATOM     57  C   UNL A   1      46.598  32.407  29.464  1.00  0.00     0.029 A 
ATOM     58  C   UNL A   1      45.225  32.367  29.641  1.00  0.00     0.049 A 
ATOM     59  H   UNL A   1      43.875  30.803  29.207  1.00  0.00     0.167 HD
ATOM     60  C   UNL A   1      43.015  33.274  30.308  1.00  0.00     0.074 A 
ATOM     61  C   UNL A   1      42.158  34.310  30.849  1.00  0.00     0.031 C 
ATOM     62  C   UNL A   1      44.360  33.388  30.176  1.00  0.00     0.037 A 
BRANCH  49  63
ATOM     63  C   UNL A   1      47.104  28.367  27.830  1.00  0.00     0.058 A 
ATOM     64  C   UNL A   1      47.622  28.468  26.527  1.00  0.00     0.135 A 
ATOM     65  C   UNL A   1      47.842  27.631  28.771  1.00  0.00     0.135 A 
ATOM     66  F   UNL A   1      46.951  29.148  25.584  1.00  0.00    -0.206 F 
ATOM     67  C   UNL A   1      48.807  27.836  26.164  1.00  0.00     0.059 A 
ATOM     68  C   UNL A   1      49.044  27.013  28.436  1.00  0.00     0.059 A 
ATOM     69  F   UNL A   1      47.396  27.504  30.029  1.00  0.00    -0.206 F 
ATOM     70  C   UNL A   1      49.510  27.108  27.125  1.00  0.00     0.060 A 
BRANCH  70  71
ATOM     71  S   UNL A   1      51.045  26.291  26.639  1.00  0.00     0.124 S 
ATOM     72  O   UNL A   1      50.942  26.325  25.183  1.00  0.00    -0.237 OA
ATOM     73  O   UNL A   1      52.062  27.166  27.221  1.00  0.00    -0.237 OA
ATOM     74  O   UNL A   1      50.937  24.973  27.247  1.00  0.00    -0.744 OA
ENDBRANCH  70  71
ENDBRANCH  49  63
BRANCH  50  75
ATOM     75  C   UNL A   1      38.395  32.413  30.593  1.00  0.00     0.058 A 
ATOM     76  C   UNL A   1      37.641  33.222  29.731  1.00  0.00     0.135 A 
ATOM     77  C   UNL A   1      37.882  32.167  31.876  1.00  0.00     0.135 A 
ATOM     78  F   UNL A   1      38.093  33.490  28.496  1.00  0.00    -0.206 F 
ATOM     79  C   UNL A   1      36.430  33.779  30.127  1.00  0.00     0.059 A 
ATOM     80  C   UNL A   1      36.661  32.694  32.288  1.00  0.00     0.059 A 
ATOM     81  F   UNL A   1      38.557  31.384  32.733  1.00  0.00    -0.206 F 
ATOM     82  C   UNL A   1      35.947  33.506  31.409  1.00  0.00     0.060 A 
BRANCH  82  83
ATOM     83  S   UNL A   1      34.346  34.188  31.896  1.00  0.00     0.124 S 
ATOM     84  O   UNL A   1      33.686  34.337  30.605  1.00  0.00    -0.237 OA
ATOM     85  O   UNL A   1      33.818  33.142  32.767  1.00  0.00    -0.237 OA
ATOM     86  O   UNL A   1      34.704  35.431  32.571  1.00  0.00    -0.744 OA
ENDBRANCH  82  83
ENDBRANCH  50  75
BRANCH  62  87
ATOM     87  C   UNL A   1      44.986  34.686  30.601  1.00  0.00     0.058 A 
ATOM     88  C   UNL A   1      45.470  34.878  31.904  1.00  0.00     0.135 A 
ATOM     89  C   UNL A   1      45.144  35.735  29.681  1.00  0.00     0.135 A 
ATOM     90  F   UNL A   1      45.337  33.908  32.822  1.00  0.00    -0.206 F 
ATOM     91  C   UNL A   1      46.067  36.073  32.287  1.00  0.00     0.059 A 
ATOM     92  C   UNL A   1      45.761  36.930  30.036  1.00  0.00     0.059 A 
ATOM     93  F   UNL A   1      44.707  35.598  28.418  1.00  0.00    -0.206 F 
ATOM     94  C   UNL A   1      46.208  37.094  31.346  1.00  0.00     0.060 A 
BRANCH  94  95
ATOM     95  S   UNL A   1      47.010  38.632  31.848  1.00  0.00     0.124 S 
ATOM     96  O   UNL A   1      47.765  38.975  30.648  1.00  0.00    -0.237 OA
ATOM     97  O   UNL A   1      45.873  39.496  32.150  1.00  0.00    -0.237 OA
ATOM     98  O   UNL A   1      47.811  38.235  33.002  1.00  0.00    -0.744 OA
ENDBRANCH  94  95
ENDBRANCH  62  87
ENDBRANCH  36  37
ENDBRANCH  28  31
ENDBRANCH  26  27
ENDBRANCH   1  26
TORSDOF 16
ENDMDL
