MODEL 1
REMARK VINA RESULT:     -10.6      0.000      0.000
REMARK SMILES CC[C@](O)(C(=O)NCCCNC(=O)c1ccc(-c2c3nc(c(-c4c(F)cc(S(=O)(=O)[O-])cc4F)c4ccc([nH]4)c(-c4c(F)cc(S(=O)(=O)[O-])cc4F)c4nc(c(-c5c(F)cc(S(=O)(=O)[O-])cc5F)c5ccc2[nH]5)C=C4)C=C3)cc1)[C@@H](C)c1ccc(C)s1
REMARK SMILES IDX 9 1 8 2 7 3 5 4 6 5 3 7 2 8 1 9 80 10 81 11 82 12 83 13
REMARK SMILES IDX 87 14 84 15 85 16 86 17 4 18 10 20 11 21 12 22 13 24 14 25
REMARK SMILES IDX 15 26 79 27 16 28 78 29 17 30 18 31 19 32 72 33 20 34 77 35
REMARK SMILES IDX 71 36 73 37 21 38 76 39 70 40 69 41 22 43 56 44 35 45 55 46
REMARK SMILES IDX 36 47 39 48 54 49 74 50 37 51 38 52 53 54 75 55 40 56 23 57
REMARK SMILES IDX 24 58 33 59 25 60 26 61 32 62 34 63 27 64 28 65 29 66 30 67
REMARK SMILES IDX 31 68 57 69 58 70 67 71 59 72 60 73 66 74 68 75 61 76 62 77
REMARK SMILES IDX 63 78 64 79 65 80 41 81 42 82 51 83 43 84 44 85 50 86 52 87
REMARK SMILES IDX 45 88 46 89 47 90 48 91 49 92
REMARK H PARENT 7 6 4 19 11 23 73 42 39 53
REMARK Flexibility Score: inf
ROOT
ATOM      1  C   UNL A   1      32.925  27.621  26.748  1.00  0.00     0.042 C 
ENDROOT
BRANCH   1   2
ATOM      2  C   UNL A   1      32.819  26.246  26.126  1.00  0.00     0.117 C 
BRANCH   2   3
ATOM      3  N   UNL A   1      31.625  25.523  26.517  1.00  0.00    -0.354 N 
ATOM      4  C   UNL A   1      31.386  24.175  26.565  1.00  0.00     0.252 C 
ATOM      5  O   UNL A   1      30.416  23.819  27.239  1.00  0.00    -0.272 OA
ATOM      6  H   UNL A   1      30.868  26.090  26.790  1.00  0.00     0.163 HD
BRANCH   4   7
ATOM      7  C   UNL A   1      32.359  23.158  25.867  1.00  0.00     0.150 C 
BRANCH   7   8
ATOM      8  C   UNL A   1      32.324  23.527  24.346  1.00  0.00     0.043 C 
ATOM      9  C   UNL A   1      32.138  22.377  23.357  1.00  0.00     0.007 C 
ENDBRANCH   7   8
BRANCH   7  10
ATOM     10  C   UNL A   1      33.814  23.294  26.499  1.00  0.00     0.068 C 
ATOM     11  C   UNL A   1      33.910  22.556  27.860  1.00  0.00     0.017 C 
BRANCH  10  12
ATOM     12  C   UNL A   1      34.920  22.750  25.571  1.00  0.00     0.011 A 
ATOM     13  C   UNL A   1      35.788  23.439  24.734  1.00  0.00     0.016 A 
ATOM     14  S   UNL A   1      35.194  21.060  25.373  1.00  0.00    -0.145 S 
ATOM     15  C   UNL A   1      36.855  22.621  24.258  1.00  0.00     0.015 A 
ATOM     16  C   UNL A   1      36.756  21.336  24.739  1.00  0.00     0.002 A 
ATOM     17  C   UNL A   1      37.778  20.256  24.734  1.00  0.00     0.056 C 
ENDBRANCH  10  12
ENDBRANCH   7  10
BRANCH   7  18
ATOM     18  O   UNL A   1      31.929  21.815  26.133  1.00  0.00    -0.379 OA
ATOM     19  H   UNL A   1      31.818  21.695  27.090  1.00  0.00     0.212 HD
ENDBRANCH   7  18
ENDBRANCH   4   7
ENDBRANCH   2   3
ENDBRANCH   1   2
BRANCH   1  20
ATOM     20  C   UNL A   1      33.894  28.532  26.017  1.00  0.00     0.118 C 
BRANCH  20  21
ATOM     21  N   UNL A   1      33.715  29.937  26.367  1.00  0.00    -0.352 N 
ATOM     22  C   UNL A   1      34.385  30.724  27.271  1.00  0.00     0.251 C 
ATOM     23  H   UNL A   1      32.997  30.397  25.874  1.00  0.00     0.163 HD
ATOM     24  O   UNL A   1      33.934  31.827  27.559  1.00  0.00    -0.269 OA
BRANCH  22  25
ATOM     25  C   UNL A   1      35.627  30.235  27.906  1.00  0.00     0.039 A 
ATOM     26  C   UNL A   1      36.845  30.425  27.252  1.00  0.00     0.014 A 
ATOM     27  C   UNL A   1      35.593  29.586  29.142  1.00  0.00     0.014 A 
ATOM     28  C   UNL A   1      38.030  30.025  27.873  1.00  0.00     0.010 A 
ATOM     29  C   UNL A   1      36.776  29.302  29.810  1.00  0.00     0.010 A 
ATOM     30  C   UNL A   1      38.009  29.499  29.175  1.00  0.00    -0.014 A 
BRANCH  30  31
ATOM     31  C   UNL A   1      39.262  29.133  29.879  1.00  0.00     0.031 A 
ATOM     32  C   UNL A   1      39.678  29.877  31.121  1.00  0.00     0.074 A 
ATOM     33  C   UNL A   1      40.048  28.163  29.370  1.00  0.00     0.049 A 
ATOM     34  N   UNL A   1      40.749  29.720  31.856  1.00  0.00    -0.248 NA
ATOM     35  C   UNL A   1      38.793  30.960  31.582  1.00  0.00     0.031 C 
ATOM     36  C   UNL A   1      39.786  27.423  28.133  1.00  0.00     0.029 A 
ATOM     37  N   UNL A   1      41.228  27.634  29.827  1.00  0.00    -0.354 N 
ATOM     38  C   UNL A   1      40.667  30.682  32.856  1.00  0.00     0.074 A 
ATOM     39  C   UNL A   1      39.484  31.469  32.590  1.00  0.00     0.031 C 
ATOM     40  C   UNL A   1      40.756  26.513  27.950  1.00  0.00     0.029 A 
ATOM     41  C   UNL A   1      41.728  26.630  29.030  1.00  0.00     0.049 A 
ATOM     42  H   UNL A   1      41.675  27.943  30.647  1.00  0.00     0.167 HD
ATOM     43  C   UNL A   1      41.481  30.870  33.921  1.00  0.00     0.037 A 
ATOM     44  C   UNL A   1      42.846  25.890  29.156  1.00  0.00     0.037 A 
ATOM     45  C   UNL A   1      42.647  30.068  34.188  1.00  0.00     0.049 A 
ATOM     46  C   UNL A   1      43.733  26.111  30.352  1.00  0.00     0.074 A 
ATOM     47  C   UNL A   1      43.515  30.144  35.262  1.00  0.00     0.029 A 
ATOM     48  N   UNL A   1      43.107  29.045  33.373  1.00  0.00    -0.354 N 
ATOM     49  N   UNL A   1      43.600  26.980  31.326  1.00  0.00    -0.248 NA
ATOM     50  C   UNL A   1      44.912  25.246  30.472  1.00  0.00     0.031 C 
ATOM     51  C   UNL A   1      44.527  29.197  35.072  1.00  0.00     0.029 A 
ATOM     52  C   UNL A   1      44.258  28.492  33.910  1.00  0.00     0.049 A 
ATOM     53  H   UNL A   1      42.679  28.753  32.535  1.00  0.00     0.167 HD
ATOM     54  C   UNL A   1      44.667  26.749  32.188  1.00  0.00     0.074 A 
ATOM     55  C   UNL A   1      45.420  25.644  31.629  1.00  0.00     0.031 C 
ATOM     56  C   UNL A   1      44.994  27.392  33.337  1.00  0.00     0.037 A 
BRANCH  43  57
ATOM     57  C   UNL A   1      41.129  31.973  34.883  1.00  0.00     0.058 A 
ATOM     58  C   UNL A   1      41.634  33.276  34.725  1.00  0.00     0.135 A 
ATOM     59  C   UNL A   1      40.255  31.740  35.957  1.00  0.00     0.135 A 
ATOM     60  F   UNL A   1      42.488  33.555  33.726  1.00  0.00    -0.206 F 
ATOM     61  C   UNL A   1      41.309  34.296  35.612  1.00  0.00     0.059 A 
ATOM     62  C   UNL A   1      39.891  32.754  36.838  1.00  0.00     0.059 A 
ATOM     63  F   UNL A   1      39.746  30.515  36.160  1.00  0.00    -0.206 F 
ATOM     64  C   UNL A   1      40.435  34.026  36.665  1.00  0.00     0.060 A 
BRANCH  64  65
ATOM     65  S   UNL A   1      40.016  35.367  37.799  1.00  0.00     0.124 S 
ATOM     66  O   UNL A   1      41.228  35.452  38.610  1.00  0.00    -0.237 OA
ATOM     67  O   UNL A   1      39.785  36.483  36.888  1.00  0.00    -0.237 OA
ATOM     68  O   UNL A   1      38.832  34.870  38.492  1.00  0.00    -0.744 OA
ENDBRANCH  64  65
ENDBRANCH  43  57
BRANCH  44  69
ATOM     69  C   UNL A   1      43.173  24.857  28.136  1.00  0.00     0.058 A 
ATOM     70  C   UNL A   1      43.851  25.191  26.954  1.00  0.00     0.135 A 
ATOM     71  C   UNL A   1      42.826  23.511  28.330  1.00  0.00     0.135 A 
ATOM     72  F   UNL A   1      44.202  26.464  26.719  1.00  0.00    -0.206 F 
ATOM     73  C   UNL A   1      44.154  24.234  25.991  1.00  0.00     0.059 A 
ATOM     74  C   UNL A   1      43.145  22.529  27.397  1.00  0.00     0.059 A 
ATOM     75  F   UNL A   1      42.196  23.133  29.454  1.00  0.00    -0.206 F 
ATOM     76  C   UNL A   1      43.798  22.903  26.224  1.00  0.00     0.060 A 
BRANCH  76  77
ATOM     77  S   UNL A   1      44.235  21.661  24.988  1.00  0.00     0.124 S 
ATOM     78  O   UNL A   1      44.096  22.418  23.749  1.00  0.00    -0.237 OA
ATOM     79  O   UNL A   1      45.598  21.311  25.374  1.00  0.00    -0.237 OA
ATOM     80  O   UNL A   1      43.242  20.612  25.202  1.00  0.00    -0.744 OA
ENDBRANCH  76  77
ENDBRANCH  44  69
BRANCH  56  81
ATOM     81  C   UNL A   1      46.204  26.895  34.083  1.00  0.00     0.058 A 
ATOM     82  C   UNL A   1      47.484  27.419  33.849  1.00  0.00     0.135 A 
ATOM     83  C   UNL A   1      46.072  25.902  35.067  1.00  0.00     0.135 A 
ATOM     84  F   UNL A   1      47.667  28.367  32.916  1.00  0.00    -0.206 F 
ATOM     85  C   UNL A   1      48.598  26.949  34.538  1.00  0.00     0.059 A 
ATOM     86  C   UNL A   1      47.165  25.441  35.791  1.00  0.00     0.059 A 
ATOM     87  F   UNL A   1      44.866  25.376  35.341  1.00  0.00    -0.206 F 
ATOM     88  C   UNL A   1      48.428  25.959  35.507  1.00  0.00     0.060 A 
BRANCH  88  89
ATOM     89  S   UNL A   1      49.880  25.366  36.401  1.00  0.00     0.124 S 
ATOM     90  O   UNL A   1      49.919  26.283  37.536  1.00  0.00    -0.237 OA
ATOM     91  O   UNL A   1      49.513  23.989  36.711  1.00  0.00    -0.237 OA
ATOM     92  O   UNL A   1      50.961  25.518  35.433  1.00  0.00    -0.744 OA
ENDBRANCH  88  89
ENDBRANCH  56  81
ENDBRANCH  30  31
ENDBRANCH  22  25
ENDBRANCH  20  21
ENDBRANCH   1  20
TORSDOF 17
ENDMDL
MODEL 2
REMARK VINA RESULT:     -10.6      2.996      4.365
REMARK SMILES CC[C@](O)(C(=O)NCCCNC(=O)c1ccc(-c2c3nc(c(-c4c(F)cc(S(=O)(=O)[O-])cc4F)c4ccc([nH]4)c(-c4c(F)cc(S(=O)(=O)[O-])cc4F)c4nc(c(-c5c(F)cc(S(=O)(=O)[O-])cc5F)c5ccc2[nH]5)C=C4)C=C3)cc1)[C@@H](C)c1ccc(C)s1
REMARK SMILES IDX 9 1 8 2 7 3 5 4 6 5 3 7 2 8 1 9 80 10 81 11 82 12 83 13
REMARK SMILES IDX 87 14 84 15 85 16 86 17 4 18 10 20 11 21 12 22 13 24 14 25
REMARK SMILES IDX 15 26 79 27 16 28 78 29 17 30 18 31 19 32 72 33 20 34 77 35
REMARK SMILES IDX 71 36 73 37 21 38 76 39 70 40 69 41 22 43 56 44 35 45 55 46
REMARK SMILES IDX 36 47 39 48 54 49 74 50 37 51 38 52 53 54 75 55 40 56 23 57
REMARK SMILES IDX 24 58 33 59 25 60 26 61 32 62 34 63 27 64 28 65 29 66 30 67
REMARK SMILES IDX 31 68 57 69 58 70 67 71 59 72 60 73 66 74 68 75 61 76 62 77
REMARK SMILES IDX 63 78 64 79 65 80 41 81 42 82 51 83 43 84 44 85 50 86 52 87
REMARK SMILES IDX 45 88 46 89 47 90 48 91 49 92
REMARK H PARENT 7 6 4 19 11 23 73 42 39 53
REMARK Flexibility Score: inf
ROOT
ATOM      1  C   UNL A   1      31.558  32.270  26.687  1.00  0.00     0.042 C 
ENDROOT
BRANCH   1   2
ATOM      2  C   UNL A   1      31.707  30.800  26.363  1.00  0.00     0.117 C 
BRANCH   2   3
ATOM      3  N   UNL A   1      31.224  30.445  25.044  1.00  0.00    -0.354 N 
ATOM      4  C   UNL A   1      31.005  29.213  24.486  1.00  0.00     0.252 C 
ATOM      5  O   UNL A   1      30.288  29.189  23.483  1.00  0.00    -0.272 OA
ATOM      6  H   UNL A   1      31.022  31.208  24.457  1.00  0.00     0.163 HD
BRANCH   4   7
ATOM      7  C   UNL A   1      31.573  27.911  25.159  1.00  0.00     0.150 C 
BRANCH   7   8
ATOM      8  C   UNL A   1      30.735  26.733  24.557  1.00  0.00     0.043 C 
ATOM      9  C   UNL A   1      29.984  25.841  25.545  1.00  0.00     0.007 C 
ENDBRANCH   7   8
BRANCH   7  10
ATOM     10  C   UNL A   1      33.128  27.783  24.841  1.00  0.00     0.068 C 
ATOM     11  C   UNL A   1      33.990  28.194  26.064  1.00  0.00     0.017 C 
BRANCH  10  12
ATOM     12  C   UNL A   1      33.535  26.357  24.416  1.00  0.00     0.011 A 
ATOM     13  C   UNL A   1      33.973  25.294  25.194  1.00  0.00     0.016 A 
ATOM     14  S   UNL A   1      33.580  25.878  22.760  1.00  0.00    -0.145 S 
ATOM     15  C   UNL A   1      33.976  24.058  24.484  1.00  0.00     0.015 A 
ATOM     16  C   UNL A   1      33.551  24.224  23.185  1.00  0.00     0.002 A 
ATOM     17  C   UNL A   1      33.134  23.191  22.201  1.00  0.00     0.056 C 
ENDBRANCH  10  12
ENDBRANCH   7  10
BRANCH   7  18
ATOM     18  O   UNL A   1      31.461  28.014  26.586  1.00  0.00    -0.379 OA
ATOM     19  H   UNL A   1      32.327  27.847  26.990  1.00  0.00     0.212 HD
ENDBRANCH   7  18
ENDBRANCH   4   7
ENDBRANCH   2   3
ENDBRANCH   1   2
BRANCH   1  20
ATOM     20  C   UNL A   1      32.754  32.841  27.427  1.00  0.00     0.118 C 
BRANCH  20  21
ATOM     21  N   UNL A   1      32.571  34.243  27.790  1.00  0.00    -0.352 N 
ATOM     22  C   UNL A   1      33.147  34.988  28.789  1.00  0.00     0.251 C 
ATOM     23  H   UNL A   1      31.930  34.735  27.227  1.00  0.00     0.163 HD
ATOM     24  O   UNL A   1      32.694  36.097  29.050  1.00  0.00    -0.269 OA
BRANCH  22  25
ATOM     25  C   UNL A   1      34.291  34.448  29.555  1.00  0.00     0.039 A 
ATOM     26  C   UNL A   1      34.052  33.819  30.778  1.00  0.00     0.014 A 
ATOM     27  C   UNL A   1      35.596  34.564  29.073  1.00  0.00     0.014 A 
ATOM     28  C   UNL A   1      35.117  33.250  31.478  1.00  0.00     0.010 A 
ATOM     29  C   UNL A   1      36.633  33.892  29.706  1.00  0.00     0.010 A 
ATOM     30  C   UNL A   1      36.410  33.244  30.927  1.00  0.00    -0.014 A 
BRANCH  30  31
ATOM     31  C   UNL A   1      37.541  32.582  31.623  1.00  0.00     0.031 A 
ATOM     32  C   UNL A   1      38.040  33.121  32.938  1.00  0.00     0.074 A 
ATOM     33  C   UNL A   1      38.147  31.526  31.045  1.00  0.00     0.049 A 
ATOM     34  N   UNL A   1      39.031  32.697  33.680  1.00  0.00    -0.248 NA
ATOM     35  C   UNL A   1      37.360  34.311  33.477  1.00  0.00     0.031 C 
ATOM     36  C   UNL A   1      37.800  30.961  29.739  1.00  0.00     0.029 A 
ATOM     37  N   UNL A   1      39.185  30.742  31.478  1.00  0.00    -0.354 N 
ATOM     38  C   UNL A   1      39.092  33.567  34.762  1.00  0.00     0.074 A 
ATOM     39  C   UNL A   1      38.093  34.588  34.543  1.00  0.00     0.031 C 
ATOM     40  C   UNL A   1      38.584  29.900  29.494  1.00  0.00     0.029 A 
ATOM     41  C   UNL A   1      39.516  29.732  30.604  1.00  0.00     0.049 A 
ATOM     42  H   UNL A   1      39.649  30.886  32.334  1.00  0.00     0.167 HD
ATOM     43  C   UNL A   1      39.883  33.501  35.860  1.00  0.00     0.037 A 
ATOM     44  C   UNL A   1      40.467  28.782  30.686  1.00  0.00     0.037 A 
ATOM     45  C   UNL A   1      40.863  32.468  36.078  1.00  0.00     0.049 A 
ATOM     46  C   UNL A   1      41.330  28.723  31.918  1.00  0.00     0.074 A 
ATOM     47  C   UNL A   1      41.685  32.281  37.174  1.00  0.00     0.029 A 
ATOM     48  N   UNL A   1      41.152  31.450  35.182  1.00  0.00    -0.354 N 
ATOM     49  N   UNL A   1      41.326  29.513  32.965  1.00  0.00    -0.248 NA
ATOM     50  C   UNL A   1      42.317  27.639  31.985  1.00  0.00     0.031 C 
ATOM     51  C   UNL A   1      42.505  31.177  36.921  1.00  0.00     0.029 A 
ATOM     52  C   UNL A   1      42.154  30.640  35.692  1.00  0.00     0.049 A 
ATOM     53  H   UNL A   1      40.711  31.320  34.311  1.00  0.00     0.167 HD
ATOM     54  C   UNL A   1      42.293  29.007  33.826  1.00  0.00     0.074 A 
ATOM     55  C   UNL A   1      42.843  27.830  33.185  1.00  0.00     0.031 C 
ATOM     56  C   UNL A   1      42.690  29.473  35.038  1.00  0.00     0.037 A 
BRANCH  43  57
ATOM     57  C   UNL A   1      39.709  34.564  36.911  1.00  0.00     0.058 A 
ATOM     58  C   UNL A   1      38.923  34.345  38.056  1.00  0.00     0.135 A 
ATOM     59  C   UNL A   1      40.356  35.805  36.792  1.00  0.00     0.135 A 
ATOM     60  F   UNL A   1      38.266  33.185  38.214  1.00  0.00    -0.206 F 
ATOM     61  C   UNL A   1      38.761  35.327  39.027  1.00  0.00     0.059 A 
ATOM     62  C   UNL A   1      40.234  36.790  37.769  1.00  0.00     0.059 A 
ATOM     63  F   UNL A   1      41.116  36.071  35.719  1.00  0.00    -0.206 F 
ATOM     64  C   UNL A   1      39.422  36.546  38.876  1.00  0.00     0.060 A 
BRANCH  64  65
ATOM     65  S   UNL A   1      39.210  37.802  40.154  1.00  0.00     0.124 S 
ATOM     66  O   UNL A   1      38.863  36.983  41.313  1.00  0.00    -0.237 OA
ATOM     67  O   UNL A   1      40.526  38.430  40.194  1.00  0.00    -0.237 OA
ATOM     68  O   UNL A   1      38.134  38.639  39.635  1.00  0.00    -0.744 OA
ENDBRANCH  64  65
ENDBRANCH  43  57
BRANCH  44  69
ATOM     69  C   UNL A   1      40.632  27.797  29.582  1.00  0.00     0.058 A 
ATOM     70  C   UNL A   1      41.678  27.913  28.655  1.00  0.00     0.135 A 
ATOM     71  C   UNL A   1      39.754  26.711  29.443  1.00  0.00     0.135 A 
ATOM     72  F   UNL A   1      42.543  28.935  28.743  1.00  0.00    -0.206 F 
ATOM     73  C   UNL A   1      41.836  27.003  27.615  1.00  0.00     0.059 A 
ATOM     74  C   UNL A   1      39.909  25.769  28.430  1.00  0.00     0.059 A 
ATOM     75  F   UNL A   1      38.749  26.540  30.316  1.00  0.00    -0.206 F 
ATOM     76  C   UNL A   1      40.946  25.931  27.513  1.00  0.00     0.060 A 
BRANCH  76  77
ATOM     77  S   UNL A   1      41.186  24.730  26.186  1.00  0.00     0.124 S 
ATOM     78  O   UNL A   1      39.931  23.988  26.230  1.00  0.00    -0.237 OA
ATOM     79  O   UNL A   1      41.379  25.592  25.024  1.00  0.00    -0.237 OA
ATOM     80  O   UNL A   1      42.371  23.992  26.613  1.00  0.00    -0.744 OA
ENDBRANCH  76  77
ENDBRANCH  44  69
BRANCH  56  81
ATOM     81  C   UNL A   1      43.751  28.688  35.762  1.00  0.00     0.058 A 
ATOM     82  C   UNL A   1      45.116  28.981  35.618  1.00  0.00     0.135 A 
ATOM     83  C   UNL A   1      43.392  27.648  36.635  1.00  0.00     0.135 A 
ATOM     84  F   UNL A   1      45.513  29.962  34.792  1.00  0.00    -0.206 F 
ATOM     85  C   UNL A   1      46.090  28.247  36.286  1.00  0.00     0.059 A 
ATOM     86  C   UNL A   1      44.347  26.924  37.339  1.00  0.00     0.059 A 
ATOM     87  F   UNL A   1      42.099  27.336  36.821  1.00  0.00    -0.206 F 
ATOM     88  C   UNL A   1      45.696  27.219  37.144  1.00  0.00     0.060 A 
BRANCH  88  89
ATOM     89  S   UNL A   1      46.970  26.282  38.013  1.00  0.00     0.124 S 
ATOM     90  O   UNL A   1      46.474  24.916  37.877  1.00  0.00    -0.237 OA
ATOM     91  O   UNL A   1      48.169  26.600  37.245  1.00  0.00    -0.237 OA
ATOM     92  O   UNL A   1      46.934  26.831  39.365  1.00  0.00    -0.744 OA
ENDBRANCH  88  89
ENDBRANCH  56  81
ENDBRANCH  30  31
ENDBRANCH  22  25
ENDBRANCH  20  21
ENDBRANCH   1  20
TORSDOF 17
ENDMDL
MODEL 3
REMARK VINA RESULT:     -10.6      3.279      9.509
REMARK SMILES CC[C@](O)(C(=O)NCCCNC(=O)c1ccc(-c2c3nc(c(-c4c(F)cc(S(=O)(=O)[O-])cc4F)c4ccc([nH]4)c(-c4c(F)cc(S(=O)(=O)[O-])cc4F)c4nc(c(-c5c(F)cc(S(=O)(=O)[O-])cc5F)c5ccc2[nH]5)C=C4)C=C3)cc1)[C@@H](C)c1ccc(C)s1
REMARK SMILES IDX 9 1 8 2 7 3 5 4 6 5 3 7 2 8 1 9 80 10 81 11 82 12 83 13
REMARK SMILES IDX 87 14 84 15 85 16 86 17 4 18 10 20 11 21 12 22 13 24 14 25
REMARK SMILES IDX 15 26 79 27 16 28 78 29 17 30 18 31 19 32 72 33 20 34 77 35
REMARK SMILES IDX 71 36 73 37 21 38 76 39 70 40 69 41 22 43 56 44 35 45 55 46
REMARK SMILES IDX 36 47 39 48 54 49 74 50 37 51 38 52 53 54 75 55 40 56 23 57
REMARK SMILES IDX 24 58 33 59 25 60 26 61 32 62 34 63 27 64 28 65 29 66 30 67
REMARK SMILES IDX 31 68 57 69 58 70 67 71 59 72 60 73 66 74 68 75 61 76 62 77
REMARK SMILES IDX 63 78 64 79 65 80 41 81 42 82 51 83 43 84 44 85 50 86 52 87
REMARK SMILES IDX 45 88 46 89 47 90 48 91 49 92
REMARK H PARENT 7 6 4 19 11 23 73 42 39 53
REMARK Flexibility Score: inf
ROOT
ATOM      1  C   UNL A   1      38.339  23.703  26.172  1.00  0.00     0.042 C 
ENDROOT
BRANCH   1   2
ATOM      2  C   UNL A   1      37.742  22.475  25.521  1.00  0.00     0.117 C 
BRANCH   2   3
ATOM      3  N   UNL A   1      37.104  22.745  24.248  1.00  0.00    -0.354 N 
ATOM      4  C   UNL A   1      35.790  22.630  23.877  1.00  0.00     0.252 C 
ATOM      5  O   UNL A   1      35.460  23.231  22.852  1.00  0.00    -0.272 OA
ATOM      6  H   UNL A   1      37.709  23.061  23.539  1.00  0.00     0.163 HD
BRANCH   4   7
ATOM      7  C   UNL A   1      34.765  21.846  24.774  1.00  0.00     0.150 C 
BRANCH   7   8
ATOM      8  C   UNL A   1      34.714  22.629  26.129  1.00  0.00     0.043 C 
ATOM      9  C   UNL A   1      34.342  21.831  27.377  1.00  0.00     0.007 C 
ENDBRANCH   7   8
BRANCH   7  10
ATOM     10  C   UNL A   1      33.352  21.791  24.042  1.00  0.00     0.068 C 
ATOM     11  C   UNL A   1      32.745  20.364  24.092  1.00  0.00     0.017 C 
BRANCH  10  12
ATOM     12  C   UNL A   1      32.329  22.777  24.646  1.00  0.00     0.011 A 
ATOM     13  C   UNL A   1      31.270  22.532  25.509  1.00  0.00     0.016 A 
ATOM     14  S   UNL A   1      32.318  24.448  24.224  1.00  0.00    -0.145 S 
ATOM     15  C   UNL A   1      30.732  23.727  26.070  1.00  0.00     0.015 A 
ATOM     16  C   UNL A   1      31.392  24.841  25.605  1.00  0.00     0.002 A 
ATOM     17  C   UNL A   1      31.357  26.232  26.129  1.00  0.00     0.056 C 
ENDBRANCH  10  12
ENDBRANCH   7  10
BRANCH   7  18
ATOM     18  O   UNL A   1      35.194  20.485  24.923  1.00  0.00    -0.379 OA
ATOM     19  H   UNL A   1      34.419  19.914  25.045  1.00  0.00     0.212 HD
ENDBRANCH   7  18
ENDBRANCH   4   7
ENDBRANCH   2   3
ENDBRANCH   1   2
BRANCH   1  20
ATOM     20  C   UNL A   1      39.549  23.391  27.033  1.00  0.00     0.118 C 
BRANCH  20  21
ATOM     21  N   UNL A   1      40.807  23.727  26.374  1.00  0.00    -0.352 N 
ATOM     22  C   UNL A   1      41.585  24.854  26.459  1.00  0.00     0.251 C 
ATOM     23  H   UNL A   1      41.155  23.030  25.770  1.00  0.00     0.163 HD
ATOM     24  O   UNL A   1      42.499  25.017  25.657  1.00  0.00    -0.269 OA
BRANCH  22  25
ATOM     25  C   UNL A   1      41.310  25.873  27.494  1.00  0.00     0.039 A 
ATOM     26  C   UNL A   1      40.291  25.643  28.419  1.00  0.00     0.014 A 
ATOM     27  C   UNL A   1      42.050  27.055  27.552  1.00  0.00     0.014 A 
ATOM     28  C   UNL A   1      40.066  26.569  29.440  1.00  0.00     0.010 A 
ATOM     29  C   UNL A   1      41.909  27.912  28.635  1.00  0.00     0.010 A 
ATOM     30  C   UNL A   1      40.901  27.689  29.582  1.00  0.00    -0.014 A 
BRANCH  30  31
ATOM     31  C   UNL A   1      40.722  28.647  30.700  1.00  0.00     0.031 A 
ATOM     32  C   UNL A   1      41.562  28.524  31.944  1.00  0.00     0.074 A 
ATOM     33  C   UNL A   1      39.768  29.596  30.613  1.00  0.00     0.049 A 
ATOM     34  N   UNL A   1      41.533  29.247  33.034  1.00  0.00    -0.248 NA
ATOM     35  C   UNL A   1      42.544  27.427  31.984  1.00  0.00     0.031 C 
ATOM     36  C   UNL A   1      38.844  29.767  29.490  1.00  0.00     0.029 A 
ATOM     37  N   UNL A   1      39.416  30.595  31.485  1.00  0.00    -0.354 N 
ATOM     38  C   UNL A   1      42.482  28.691  33.883  1.00  0.00     0.074 A 
ATOM     39  C   UNL A   1      43.015  27.524  33.218  1.00  0.00     0.031 C 
ATOM     40  C   UNL A   1      38.056  30.828  29.724  1.00  0.00     0.029 A 
ATOM     41  C   UNL A   1      38.389  31.389  31.028  1.00  0.00     0.049 A 
ATOM     42  H   UNL A   1      39.856  30.731  32.354  1.00  0.00     0.167 HD
ATOM     43  C   UNL A   1      42.900  29.133  35.093  1.00  0.00     0.037 A 
ATOM     44  C   UNL A   1      37.783  32.447  31.599  1.00  0.00     0.037 A 
ATOM     45  C   UNL A   1      42.376  30.308  35.741  1.00  0.00     0.049 A 
ATOM     46  C   UNL A   1      38.269  32.925  32.942  1.00  0.00     0.074 A 
ATOM     47  C   UNL A   1      42.760  30.870  36.945  1.00  0.00     0.029 A 
ATOM     48  N   UNL A   1      41.355  31.100  35.236  1.00  0.00    -0.354 N 
ATOM     49  N   UNL A   1      39.217  32.428  33.699  1.00  0.00    -0.248 NA
ATOM     50  C   UNL A   1      37.612  34.113  33.500  1.00  0.00     0.031 C 
ATOM     51  C   UNL A   1      41.938  31.975  37.192  1.00  0.00     0.029 A 
ATOM     52  C   UNL A   1      41.082  32.137  36.114  1.00  0.00     0.049 A 
ATOM     53  H   UNL A   1      40.891  30.949  34.380  1.00  0.00     0.167 HD
ATOM     54  C   UNL A   1      39.287  33.256  34.813  1.00  0.00     0.074 A 
ATOM     55  C   UNL A   1      38.300  34.299  34.617  1.00  0.00     0.031 C 
ATOM     56  C   UNL A   1      40.094  33.164  35.900  1.00  0.00     0.037 A 
BRANCH  43  57
ATOM     57  C   UNL A   1      43.985  28.352  35.785  1.00  0.00     0.058 A 
ATOM     58  C   UNL A   1      43.685  27.320  36.692  1.00  0.00     0.135 A 
ATOM     59  C   UNL A   1      45.339  28.613  35.520  1.00  0.00     0.135 A 
ATOM     60  F   UNL A   1      42.408  27.038  36.998  1.00  0.00    -0.206 F 
ATOM     61  C   UNL A   1      44.687  26.598  37.331  1.00  0.00     0.059 A 
ATOM     62  C   UNL A   1      46.357  27.880  36.123  1.00  0.00     0.059 A 
ATOM     63  F   UNL A   1      45.685  29.588  34.666  1.00  0.00    -0.206 F 
ATOM     64  C   UNL A   1      46.021  26.884  37.039  1.00  0.00     0.060 A 
BRANCH  64  65
ATOM     65  S   UNL A   1      47.306  25.927  37.869  1.00  0.00     0.124 S 
ATOM     66  O   UNL A   1      47.861  26.919  38.786  1.00  0.00    -0.237 OA
ATOM     67  O   UNL A   1      46.541  24.851  38.490  1.00  0.00    -0.237 OA
ATOM     68  O   UNL A   1      48.186  25.519  36.780  1.00  0.00    -0.744 OA
ENDBRANCH  64  65
ENDBRANCH  43  57
BRANCH  44  69
ATOM     69  C   UNL A   1      36.671  33.139  30.892  1.00  0.00     0.058 A 
ATOM     70  C   UNL A   1      35.340  32.986  31.307  1.00  0.00     0.135 A 
ATOM     71  C   UNL A   1      36.920  33.978  29.795  1.00  0.00     0.135 A 
ATOM     72  F   UNL A   1      35.048  32.193  32.349  1.00  0.00    -0.206 F 
ATOM     73  C   UNL A   1      34.293  33.622  30.648  1.00  0.00     0.059 A 
ATOM     74  C   UNL A   1      35.894  34.649  29.138  1.00  0.00     0.059 A 
ATOM     75  F   UNL A   1      38.178  34.176  29.370  1.00  0.00    -0.206 F 
ATOM     76  C   UNL A   1      34.581  34.455  29.564  1.00  0.00     0.060 A 
BRANCH  76  77
ATOM     77  S   UNL A   1      33.219  35.310  28.742  1.00  0.00     0.124 S 
ATOM     78  O   UNL A   1      32.452  35.803  29.880  1.00  0.00    -0.237 OA
ATOM     79  O   UNL A   1      33.922  36.320  27.957  1.00  0.00    -0.237 OA
ATOM     80  O   UNL A   1      32.583  34.253  27.962  1.00  0.00    -0.744 OA
ENDBRANCH  76  77
ENDBRANCH  44  69
BRANCH  56  81
ATOM     81  C   UNL A   1      39.962  34.238  36.947  1.00  0.00     0.058 A 
ATOM     82  C   UNL A   1      40.699  35.431  36.881  1.00  0.00     0.135 A 
ATOM     83  C   UNL A   1      39.063  34.082  38.015  1.00  0.00     0.135 A 
ATOM     84  F   UNL A   1      41.576  35.629  35.884  1.00  0.00    -0.206 F 
ATOM     85  C   UNL A   1      40.577  36.415  37.856  1.00  0.00     0.059 A 
ATOM     86  C   UNL A   1      38.900  35.067  38.982  1.00  0.00     0.059 A 
ATOM     87  F   UNL A   1      38.323  32.966  38.119  1.00  0.00    -0.206 F 
ATOM     88  C   UNL A   1      39.675  36.224  38.904  1.00  0.00     0.060 A 
BRANCH  88  89
ATOM     89  S   UNL A   1      39.517  37.513  40.156  1.00  0.00     0.124 S 
ATOM     90  O   UNL A   1      40.843  38.121  40.120  1.00  0.00    -0.237 OA
ATOM     91  O   UNL A   1      38.431  38.331  39.626  1.00  0.00    -0.237 OA
ATOM     92  O   UNL A   1      39.200  36.771  41.372  1.00  0.00    -0.744 OA
ENDBRANCH  88  89
ENDBRANCH  56  81
ENDBRANCH  30  31
ENDBRANCH  22  25
ENDBRANCH  20  21
ENDBRANCH   1  20
TORSDOF 17
ENDMDL
