MODEL 1
REMARK VINA RESULT:     -10.5      0.000      0.000
REMARK SMILES C[C@H](c1ccc(C(=O)NCCCNC(=O)c2ccc(-c3c4nc(c(-c5c(F)cc(S(=O)(=O)[O-])cc5F)c5ccc([nH]5)c(-c5c(F)cc(S(=O)(=O)[O-])cc5F)c5nc(c(-c6c(F)cc(S(=O)(=O)[O-])cc6F)c6ccc3[nH]6)C=C5)C=C4)cc2)o1)[NH+]1Cc2ccccc2C1
REMARK SMILES IDX 11 1 10 2 9 3 7 4 8 5 6 7 3 8 4 9 82 10 5 11 2 12 1 13 83 14
REMARK SMILES IDX 84 15 91 16 85 18 90 19 86 20 89 21 87 22 88 23 12 24 13 25
REMARK SMILES IDX 14 26 15 28 16 29 17 30 81 31 18 32 80 33 19 34 20 35 21 36
REMARK SMILES IDX 74 37 22 38 79 39 73 40 75 41 23 42 78 43 72 44 71 45 24 47
REMARK SMILES IDX 58 48 37 49 57 50 38 51 41 52 56 53 76 54 39 55 40 56 55 58
REMARK SMILES IDX 77 59 42 60 25 61 26 62 35 63 27 64 28 65 34 66 36 67 29 68
REMARK SMILES IDX 30 69 31 70 32 71 33 72 59 73 60 74 69 75 61 76 62 77 68 78
REMARK SMILES IDX 70 79 63 80 64 81 65 82 66 83 67 84 43 85 44 86 53 87 45 88
REMARK SMILES IDX 46 89 52 90 54 91 47 92 48 93 49 94 50 95 51 96
REMARK H PARENT 9 6 83 17 13 27 75 46 41 57
REMARK Flexibility Score: inf
ROOT
ATOM      1  C   UNL A   1      33.631  33.829  28.173  1.00  0.00     0.042 C 
ENDROOT
BRANCH   1   2
ATOM      2  C   UNL A   1      34.292  35.099  28.707  1.00  0.00     0.118 C 
BRANCH   2   3
ATOM      3  N   UNL A   1      33.754  35.508  29.989  1.00  0.00    -0.349 N 
ATOM      4  C   UNL A   1      34.080  35.092  31.261  1.00  0.00     0.287 C 
ATOM      5  O   UNL A   1      33.606  35.759  32.183  1.00  0.00    -0.266 OA
ATOM      6  H   UNL A   1      33.047  36.191  29.942  1.00  0.00     0.163 HD
BRANCH   4   7
ATOM      7  C   UNL A   1      34.924  33.931  31.474  1.00  0.00     0.191 A 
ATOM      8  C   UNL A   1      36.854  32.967  31.985  1.00  0.00     0.162 A 
ATOM      9  C   UNL A   1      35.918  31.957  31.909  1.00  0.00     0.053 A 
ATOM     10  O   UNL A   1      36.257  34.163  31.716  1.00  0.00    -0.450 OA
ATOM     11  C   UNL A   1      34.692  32.570  31.572  1.00  0.00     0.057 A 
BRANCH   8  12
ATOM     12  C   UNL A   1      38.279  33.016  32.480  1.00  0.00     0.248 C 
ATOM     13  C   UNL A   1      38.796  34.441  32.160  1.00  0.00     0.084 C 
BRANCH  12  14
ATOM     14  N   UNL A   1      38.554  32.420  33.832  1.00  0.00    -0.319 N 
ATOM     15  C   UNL A   1      39.964  32.004  34.080  1.00  0.00     0.300 C 
ATOM     16  C   UNL A   1      37.806  31.149  34.062  1.00  0.00     0.300 C 
ATOM     17  H   UNL A   1      38.279  33.192  34.440  1.00  0.00     0.349 HD
ATOM     18  C   UNL A   1      40.032  30.591  33.593  1.00  0.00     0.015 A 
ATOM     19  C   UNL A   1      38.732  30.080  33.566  1.00  0.00     0.015 A 
ATOM     20  C   UNL A   1      41.114  29.837  33.182  1.00  0.00     0.010 A 
ATOM     21  C   UNL A   1      38.470  28.810  33.091  1.00  0.00     0.010 A 
ATOM     22  C   UNL A   1      40.862  28.557  32.688  1.00  0.00     0.001 A 
ATOM     23  C   UNL A   1      39.551  28.050  32.635  1.00  0.00     0.001 A 
ENDBRANCH  12  14
ENDBRANCH   8  12
ENDBRANCH   4   7
ENDBRANCH   2   3
ENDBRANCH   1   2
BRANCH   1  24
ATOM     24  C   UNL A   1      34.593  32.657  28.000  1.00  0.00     0.118 C 
BRANCH  24  25
ATOM     25  N   UNL A   1      33.896  31.380  27.946  1.00  0.00    -0.352 N 
ATOM     26  C   UNL A   1      34.386  30.099  27.887  1.00  0.00     0.251 C 
ATOM     27  H   UNL A   1      32.915  31.446  27.951  1.00  0.00     0.163 HD
ATOM     28  O   UNL A   1      33.615  29.183  27.611  1.00  0.00    -0.269 OA
BRANCH  26  29
ATOM     29  C   UNL A   1      35.814  29.810  28.145  1.00  0.00     0.039 A 
ATOM     30  C   UNL A   1      36.203  29.458  29.442  1.00  0.00     0.014 A 
ATOM     31  C   UNL A   1      36.780  29.947  27.145  1.00  0.00     0.014 A 
ATOM     32  C   UNL A   1      37.548  29.200  29.724  1.00  0.00     0.010 A 
ATOM     33  C   UNL A   1      38.111  29.628  27.410  1.00  0.00     0.010 A 
ATOM     34  C   UNL A   1      38.509  29.260  28.704  1.00  0.00    -0.014 A 
BRANCH  34  35
ATOM     35  C   UNL A   1      39.936  28.948  28.972  1.00  0.00     0.031 A 
ATOM     36  C   UNL A   1      40.852  30.007  29.523  1.00  0.00     0.074 A 
ATOM     37  C   UNL A   1      40.421  27.731  28.656  1.00  0.00     0.049 A 
ATOM     38  N   UNL A   1      42.142  29.952  29.742  1.00  0.00    -0.248 NA
ATOM     39  C   UNL A   1      40.245  31.308  29.846  1.00  0.00     0.031 C 
ATOM     40  C   UNL A   1      39.642  26.638  28.070  1.00  0.00     0.029 A 
ATOM     41  N   UNL A   1      41.687  27.215  28.765  1.00  0.00    -0.354 N 
ATOM     42  C   UNL A   1      42.503  31.211  30.204  1.00  0.00     0.074 A 
ATOM     43  C   UNL A   1      41.304  32.022  30.197  1.00  0.00     0.031 C 
ATOM     44  C   UNL A   1      40.445  25.579  27.882  1.00  0.00     0.029 A 
ATOM     45  C   UNL A   1      41.798  25.925  28.303  1.00  0.00     0.049 A 
ATOM     46  H   UNL A   1      42.444  27.721  29.139  1.00  0.00     0.167 HD
ATOM     47  C   UNL A   1      43.719  31.647  30.612  1.00  0.00     0.037 A 
ATOM     48  C   UNL A   1      42.872  25.117  28.219  1.00  0.00     0.037 A 
ATOM     49  C   UNL A   1      44.900  30.826  30.649  1.00  0.00     0.049 A 
ATOM     50  C   UNL A   1      44.205  25.611  28.706  1.00  0.00     0.074 A 
ATOM     51  C   UNL A   1      46.164  31.154  31.109  1.00  0.00     0.029 A 
ATOM     52  N   UNL A   1      44.964  29.510  30.212  1.00  0.00    -0.354 N 
ATOM     53  N   UNL A   1      44.516  26.788  29.194  1.00  0.00    -0.248 NA
ATOM     54  C   UNL A   1      45.331  24.669  28.638  1.00  0.00     0.031 C 
ATOM     55  C   UNL A   1      46.999  30.045  30.921  1.00  0.00     0.029 A 
ATOM     56  C   UNL A   1      46.246  29.016  30.378  1.00  0.00     0.049 A 
ATOM     57  H   UNL A   1      44.207  29.003  29.839  1.00  0.00     0.167 HD
ATOM     58  C   UNL A   1      45.868  26.722  29.510  1.00  0.00     0.074 A 
ATOM     59  C   UNL A   1      46.313  25.386  29.170  1.00  0.00     0.031 C 
ATOM     60  C   UNL A   1      46.669  27.681  30.037  1.00  0.00     0.037 A 
BRANCH  47  61
ATOM     61  C   UNL A   1      43.830  33.079  31.057  1.00  0.00     0.058 A 
ATOM     62  C   UNL A   1      44.121  34.112  30.152  1.00  0.00     0.135 A 
ATOM     63  C   UNL A   1      43.620  33.428  32.401  1.00  0.00     0.135 A 
ATOM     64  F   UNL A   1      44.346  33.832  28.858  1.00  0.00    -0.206 F 
ATOM     65  C   UNL A   1      44.233  35.435  30.568  1.00  0.00     0.059 A 
ATOM     66  C   UNL A   1      43.701  34.748  32.835  1.00  0.00     0.059 A 
ATOM     67  F   UNL A   1      43.337  32.481  33.309  1.00  0.00    -0.206 F 
ATOM     68  C   UNL A   1      44.025  35.743  31.913  1.00  0.00     0.060 A 
BRANCH  68  69
ATOM     69  S   UNL A   1      44.178  37.463  32.440  1.00  0.00     0.124 S 
ATOM     70  O   UNL A   1      45.545  37.489  32.952  1.00  0.00    -0.237 OA
ATOM     71  O   UNL A   1      43.954  38.194  31.197  1.00  0.00    -0.237 OA
ATOM     72  O   UNL A   1      43.129  37.604  33.444  1.00  0.00    -0.744 OA
ENDBRANCH  68  69
ENDBRANCH  47  61
BRANCH  48  73
ATOM     73  C   UNL A   1      42.719  23.743  27.670  1.00  0.00     0.058 A 
ATOM     74  C   UNL A   1      42.511  22.649  28.520  1.00  0.00     0.135 A 
ATOM     75  C   UNL A   1      42.746  23.505  26.287  1.00  0.00     0.135 A 
ATOM     76  F   UNL A   1      42.482  22.828  29.849  1.00  0.00    -0.206 F 
ATOM     77  C   UNL A   1      42.343  21.361  28.021  1.00  0.00     0.059 A 
ATOM     78  C   UNL A   1      42.560  22.231  25.763  1.00  0.00     0.059 A 
ATOM     79  F   UNL A   1      42.924  24.525  25.432  1.00  0.00    -0.206 F 
ATOM     80  C   UNL A   1      42.366  21.163  26.639  1.00  0.00     0.060 A 
BRANCH  80  81
ATOM     81  S   UNL A   1      42.083  19.499  25.995  1.00  0.00     0.124 S 
ATOM     82  O   UNL A   1      40.643  19.514  25.768  1.00  0.00    -0.237 OA
ATOM     83  O   UNL A   1      42.920  19.483  24.800  1.00  0.00    -0.237 OA
ATOM     84  O   UNL A   1      42.543  18.639  27.082  1.00  0.00    -0.744 OA
ENDBRANCH  80  81
ENDBRANCH  48  73
BRANCH  60  85
ATOM     85  C   UNL A   1      48.102  27.313  30.299  1.00  0.00     0.058 A 
ATOM     86  C   UNL A   1      49.098  27.509  29.331  1.00  0.00     0.135 A 
ATOM     87  C   UNL A   1      48.487  26.805  31.549  1.00  0.00     0.135 A 
ATOM     88  F   UNL A   1      48.778  27.986  28.118  1.00  0.00    -0.206 F 
ATOM     89  C   UNL A   1      50.429  27.194  29.587  1.00  0.00     0.059 A 
ATOM     90  C   UNL A   1      49.815  26.504  31.834  1.00  0.00     0.059 A 
ATOM     91  F   UNL A   1      47.573  26.608  32.511  1.00  0.00    -0.206 F 
ATOM     92  C   UNL A   1      50.778  26.692  30.841  1.00  0.00     0.060 A 
BRANCH  92  93
ATOM     93  S   UNL A   1      52.512  26.318  31.176  1.00  0.00     0.124 S 
ATOM     94  O   UNL A   1      52.412  25.010  31.814  1.00  0.00    -0.237 OA
ATOM     95  O   UNL A   1      53.100  26.328  29.840  1.00  0.00    -0.237 OA
ATOM     96  O   UNL A   1      52.932  27.413  32.047  1.00  0.00    -0.744 OA
ENDBRANCH  92  93
ENDBRANCH  60  85
ENDBRANCH  34  35
ENDBRANCH  26  29
ENDBRANCH  24  25
ENDBRANCH   1  24
TORSDOF 15
ENDMDL
MODEL 2
REMARK VINA RESULT:     -10.3      3.134     11.055
REMARK SMILES C[C@H](c1ccc(C(=O)NCCCNC(=O)c2ccc(-c3c4nc(c(-c5c(F)cc(S(=O)(=O)[O-])cc5F)c5ccc([nH]5)c(-c5c(F)cc(S(=O)(=O)[O-])cc5F)c5nc(c(-c6c(F)cc(S(=O)(=O)[O-])cc6F)c6ccc3[nH]6)C=C5)C=C4)cc2)o1)[NH+]1Cc2ccccc2C1
REMARK SMILES IDX 11 1 10 2 9 3 7 4 8 5 6 7 3 8 4 9 82 10 5 11 2 12 1 13 83 14
REMARK SMILES IDX 84 15 91 16 85 18 90 19 86 20 89 21 87 22 88 23 12 24 13 25
REMARK SMILES IDX 14 26 15 28 16 29 17 30 81 31 18 32 80 33 19 34 20 35 21 36
REMARK SMILES IDX 74 37 22 38 79 39 73 40 75 41 23 42 78 43 72 44 71 45 24 47
REMARK SMILES IDX 58 48 37 49 57 50 38 51 41 52 56 53 76 54 39 55 40 56 55 58
REMARK SMILES IDX 77 59 42 60 25 61 26 62 35 63 27 64 28 65 34 66 36 67 29 68
REMARK SMILES IDX 30 69 31 70 32 71 33 72 59 73 60 74 69 75 61 76 62 77 68 78
REMARK SMILES IDX 70 79 63 80 64 81 65 82 66 83 67 84 43 85 44 86 53 87 45 88
REMARK SMILES IDX 46 89 52 90 54 91 47 92 48 93 49 94 50 95 51 96
REMARK H PARENT 9 6 83 17 13 27 75 46 41 57
REMARK Flexibility Score: inf
ROOT
ATOM      1  C   UNL A   1      40.863  20.099  26.410  1.00  0.00     0.042 C 
ENDROOT
BRANCH   1   2
ATOM      2  C   UNL A   1      42.190  19.726  27.070  1.00  0.00     0.118 C 
BRANCH   2   3
ATOM      3  N   UNL A   1      43.253  19.527  26.105  1.00  0.00    -0.349 N 
ATOM      4  C   UNL A   1      44.070  20.446  25.484  1.00  0.00     0.287 C 
ATOM      5  O   UNL A   1      45.028  19.981  24.863  1.00  0.00    -0.266 OA
ATOM      6  H   UNL A   1      43.417  18.589  25.856  1.00  0.00     0.163 HD
BRANCH   4   7
ATOM      7  C   UNL A   1      43.792  21.868  25.565  1.00  0.00     0.191 A 
ATOM      8  C   UNL A   1      44.146  23.900  26.380  1.00  0.00     0.162 A 
ATOM      9  C   UNL A   1      43.260  24.045  25.333  1.00  0.00     0.053 A 
ATOM     10  O   UNL A   1      44.465  22.583  26.528  1.00  0.00    -0.450 OA
ATOM     11  C   UNL A   1      43.026  22.749  24.822  1.00  0.00     0.057 A 
BRANCH   8  12
ATOM     12  C   UNL A   1      44.934  24.886  27.207  1.00  0.00     0.248 C 
ATOM     13  C   UNL A   1      45.653  24.054  28.297  1.00  0.00     0.084 C 
BRANCH  12  14
ATOM     14  N   UNL A   1      45.700  25.943  26.462  1.00  0.00    -0.319 N 
ATOM     15  C   UNL A   1      46.087  27.142  27.259  1.00  0.00     0.300 C 
ATOM     16  C   UNL A   1      44.911  26.548  25.348  1.00  0.00     0.300 C 
ATOM     17  H   UNL A   1      46.518  25.412  26.165  1.00  0.00     0.349 HD
ATOM     18  C   UNL A   1      44.927  28.078  27.122  1.00  0.00     0.015 A 
ATOM     19  C   UNL A   1      44.208  27.710  25.981  1.00  0.00     0.015 A 
ATOM     20  C   UNL A   1      44.519  29.122  27.928  1.00  0.00     0.010 A 
ATOM     21  C   UNL A   1      43.038  28.354  25.632  1.00  0.00     0.010 A 
ATOM     22  C   UNL A   1      43.330  29.773  27.594  1.00  0.00     0.001 A 
ATOM     23  C   UNL A   1      42.592  29.387  26.461  1.00  0.00     0.001 A 
ENDBRANCH  12  14
ENDBRANCH   8  12
ENDBRANCH   4   7
ENDBRANCH   2   3
ENDBRANCH   1   2
BRANCH   1  24
ATOM     24  C   UNL A   1      40.331  21.468  26.824  1.00  0.00     0.118 C 
BRANCH  24  25
ATOM     25  N   UNL A   1      39.370  21.995  25.865  1.00  0.00    -0.352 N 
ATOM     26  C   UNL A   1      38.734  23.210  25.816  1.00  0.00     0.251 C 
ATOM     27  H   UNL A   1      39.139  21.379  25.133  1.00  0.00     0.163 HD
ATOM     28  O   UNL A   1      37.787  23.352  25.047  1.00  0.00    -0.269 OA
BRANCH  26  29
ATOM     29  C   UNL A   1      39.167  24.339  26.669  1.00  0.00     0.039 A 
ATOM     30  C   UNL A   1      40.008  25.311  26.119  1.00  0.00     0.014 A 
ATOM     31  C   UNL A   1      38.812  24.413  28.019  1.00  0.00     0.014 A 
ATOM     32  C   UNL A   1      40.453  26.379  26.905  1.00  0.00     0.010 A 
ATOM     33  C   UNL A   1      39.203  25.510  28.786  1.00  0.00     0.010 A 
ATOM     34  C   UNL A   1      40.034  26.499  28.239  1.00  0.00    -0.014 A 
BRANCH  34  35
ATOM     35  C   UNL A   1      40.460  27.647  29.079  1.00  0.00     0.031 A 
ATOM     36  C   UNL A   1      41.761  27.593  29.832  1.00  0.00     0.074 A 
ATOM     37  C   UNL A   1      39.642  28.709  29.215  1.00  0.00     0.049 A 
ATOM     38  N   UNL A   1      42.262  28.455  30.680  1.00  0.00    -0.248 NA
ATOM     39  C   UNL A   1      42.598  26.399  29.626  1.00  0.00     0.031 C 
ATOM     40  C   UNL A   1      38.334  28.856  28.575  1.00  0.00     0.029 A 
ATOM     41  N   UNL A   1      39.782  29.858  29.951  1.00  0.00    -0.354 N 
ATOM     42  C   UNL A   1      43.456  27.901  31.125  1.00  0.00     0.074 A 
ATOM     43  C   UNL A   1      43.587  26.611  30.483  1.00  0.00     0.031 C 
ATOM     44  C   UNL A   1      37.797  30.031  28.937  1.00  0.00     0.029 A 
ATOM     45  C   UNL A   1      38.705  30.707  29.858  1.00  0.00     0.049 A 
ATOM     46  H   UNL A   1      40.578  30.056  30.495  1.00  0.00     0.167 HD
ATOM     47  C   UNL A   1      44.368  28.427  31.978  1.00  0.00     0.037 A 
ATOM     48  C   UNL A   1      38.471  31.892  30.455  1.00  0.00     0.037 A 
ATOM     49  C   UNL A   1      44.249  29.726  32.586  1.00  0.00     0.049 A 
ATOM     50  C   UNL A   1      39.510  32.470  31.373  1.00  0.00     0.074 A 
ATOM     51  C   UNL A   1      45.150  30.377  33.410  1.00  0.00     0.029 A 
ATOM     52  N   UNL A   1      43.162  30.575  32.433  1.00  0.00    -0.354 N 
ATOM     53  N   UNL A   1      40.661  31.958  31.737  1.00  0.00    -0.248 NA
ATOM     54  C   UNL A   1      39.225  33.788  31.956  1.00  0.00     0.031 C 
ATOM     55  C   UNL A   1      44.593  31.608  33.781  1.00  0.00     0.029 A 
ATOM     56  C   UNL A   1      43.363  31.738  33.158  1.00  0.00     0.049 A 
ATOM     57  H   UNL A   1      42.365  30.379  31.889  1.00  0.00     0.167 HD
ATOM     58  C   UNL A   1      41.247  32.898  32.576  1.00  0.00     0.074 A 
ATOM     59  C   UNL A   1      40.329  34.017  32.656  1.00  0.00     0.031 C 
ATOM     60  C   UNL A   1      42.438  32.842  33.222  1.00  0.00     0.037 A 
BRANCH  47  61
ATOM     61  C   UNL A   1      45.580  27.596  32.298  1.00  0.00     0.058 A 
ATOM     62  C   UNL A   1      45.584  26.678  33.360  1.00  0.00     0.135 A 
ATOM     63  C   UNL A   1      46.744  27.701  31.519  1.00  0.00     0.135 A 
ATOM     64  F   UNL A   1      44.502  26.549  34.145  1.00  0.00    -0.206 F 
ATOM     65  C   UNL A   1      46.709  25.917  33.660  1.00  0.00     0.059 A 
ATOM     66  C   UNL A   1      47.872  26.931  31.787  1.00  0.00     0.059 A 
ATOM     67  F   UNL A   1      46.794  28.562  30.491  1.00  0.00    -0.206 F 
ATOM     68  C   UNL A   1      47.851  26.054  32.870  1.00  0.00     0.060 A 
BRANCH  68  69
ATOM     69  S   UNL A   1      49.306  25.064  33.274  1.00  0.00     0.124 S 
ATOM     70  O   UNL A   1      48.702  23.936  33.978  1.00  0.00    -0.237 OA
ATOM     71  O   UNL A   1      49.859  24.766  31.958  1.00  0.00    -0.237 OA
ATOM     72  O   UNL A   1      50.107  25.962  34.099  1.00  0.00    -0.744 OA
ENDBRANCH  68  69
ENDBRANCH  47  61
BRANCH  48  73
ATOM     73  C   UNL A   1      37.203  32.618  30.179  1.00  0.00     0.058 A 
ATOM     74  C   UNL A   1      36.076  32.430  30.990  1.00  0.00     0.135 A 
ATOM     75  C   UNL A   1      37.106  33.534  29.120  1.00  0.00     0.135 A 
ATOM     76  F   UNL A   1      36.122  31.561  32.011  1.00  0.00    -0.206 F 
ATOM     77  C   UNL A   1      34.890  33.119  30.758  1.00  0.00     0.059 A 
ATOM     78  C   UNL A   1      35.938  34.250  28.880  1.00  0.00     0.059 A 
ATOM     79  F   UNL A   1      38.165  33.761  28.327  1.00  0.00    -0.206 F 
ATOM     80  C   UNL A   1      34.832  34.030  29.701  1.00  0.00     0.060 A 
BRANCH  80  81
ATOM     81  S   UNL A   1      33.309  34.968  29.447  1.00  0.00     0.124 S 
ATOM     82  O   UNL A   1      32.638  34.169  28.430  1.00  0.00    -0.237 OA
ATOM     83  O   UNL A   1      32.708  34.949  30.777  1.00  0.00    -0.237 OA
ATOM     84  O   UNL A   1      33.793  36.275  29.008  1.00  0.00    -0.744 OA
ENDBRANCH  80  81
ENDBRANCH  48  73
BRANCH  60  85
ATOM     85  C   UNL A   1      42.829  34.033  34.051  1.00  0.00     0.058 A 
ATOM     86  C   UNL A   1      42.561  34.088  35.427  1.00  0.00     0.135 A 
ATOM     87  C   UNL A   1      43.520  35.107  33.470  1.00  0.00     0.135 A 
ATOM     88  F   UNL A   1      41.895  33.088  36.026  1.00  0.00    -0.206 F 
ATOM     89  C   UNL A   1      42.948  35.179  36.197  1.00  0.00     0.059 A 
ATOM     90  C   UNL A   1      43.938  36.198  34.226  1.00  0.00     0.059 A 
ATOM     91  F   UNL A   1      43.809  35.097  32.159  1.00  0.00    -0.206 F 
ATOM     92  C   UNL A   1      43.636  36.229  35.588  1.00  0.00     0.060 A 
BRANCH  92  93
ATOM     93  S   UNL A   1      44.166  37.626  36.603  1.00  0.00     0.124 S 
ATOM     94  O   UNL A   1      45.479  37.178  37.054  1.00  0.00    -0.237 OA
ATOM     95  O   UNL A   1      44.166  38.728  35.647  1.00  0.00    -0.237 OA
ATOM     96  O   UNL A   1      43.138  37.701  37.637  1.00  0.00    -0.744 OA
ENDBRANCH  92  93
ENDBRANCH  60  85
ENDBRANCH  34  35
ENDBRANCH  26  29
ENDBRANCH  24  25
ENDBRANCH   1  24
TORSDOF 15
ENDMDL
MODEL 3
REMARK VINA RESULT:     -10.2      4.869     12.230
REMARK SMILES C[C@H](c1ccc(C(=O)NCCCNC(=O)c2ccc(-c3c4nc(c(-c5c(F)cc(S(=O)(=O)[O-])cc5F)c5ccc([nH]5)c(-c5c(F)cc(S(=O)(=O)[O-])cc5F)c5nc(c(-c6c(F)cc(S(=O)(=O)[O-])cc6F)c6ccc3[nH]6)C=C5)C=C4)cc2)o1)[NH+]1Cc2ccccc2C1
REMARK SMILES IDX 11 1 10 2 9 3 7 4 8 5 6 7 3 8 4 9 82 10 5 11 2 12 1 13 83 14
REMARK SMILES IDX 84 15 91 16 85 18 90 19 86 20 89 21 87 22 88 23 12 24 13 25
REMARK SMILES IDX 14 26 15 28 16 29 17 30 81 31 18 32 80 33 19 34 20 35 21 36
REMARK SMILES IDX 74 37 22 38 79 39 73 40 75 41 23 42 78 43 72 44 71 45 24 47
REMARK SMILES IDX 58 48 37 49 57 50 38 51 41 52 56 53 76 54 39 55 40 56 55 58
REMARK SMILES IDX 77 59 42 60 25 61 26 62 35 63 27 64 28 65 34 66 36 67 29 68
REMARK SMILES IDX 30 69 31 70 32 71 33 72 59 73 60 74 69 75 61 76 62 77 68 78
REMARK SMILES IDX 70 79 63 80 64 81 65 82 66 83 67 84 43 85 44 86 53 87 45 88
REMARK SMILES IDX 46 89 52 90 54 91 47 92 48 93 49 94 50 95 51 96
REMARK H PARENT 9 6 83 17 13 27 75 46 41 57
REMARK Flexibility Score: inf
ROOT
ATOM      1  C   UNL A   1      44.777  22.801  26.698  1.00  0.00     0.042 C 
ENDROOT
BRANCH   1   2
ATOM      2  C   UNL A   1      44.144  22.064  25.519  1.00  0.00     0.118 C 
BRANCH   2   3
ATOM      3  N   UNL A   1      43.622  20.765  25.891  1.00  0.00    -0.349 N 
ATOM      4  C   UNL A   1      42.367  20.405  26.331  1.00  0.00     0.287 C 
ATOM      5  O   UNL A   1      42.139  19.195  26.378  1.00  0.00    -0.266 OA
ATOM      6  H   UNL A   1      44.265  20.023  25.816  1.00  0.00     0.163 HD
BRANCH   4   7
ATOM      7  C   UNL A   1      41.395  21.411  26.718  1.00  0.00     0.191 A 
ATOM      8  C   UNL A   1      39.433  22.427  26.530  1.00  0.00     0.162 A 
ATOM      9  C   UNL A   1      40.038  22.944  27.657  1.00  0.00     0.053 A 
ATOM     10  O   UNL A   1      40.255  21.505  25.954  1.00  0.00    -0.450 OA
ATOM     11  C   UNL A   1      41.292  22.305  27.769  1.00  0.00     0.057 A 
BRANCH   8  12
ATOM     12  C   UNL A   1      38.037  22.538  25.968  1.00  0.00     0.248 C 
ATOM     13  C   UNL A   1      37.629  24.024  26.121  1.00  0.00     0.084 C 
BRANCH  12  14
ATOM     14  N   UNL A   1      37.765  21.830  24.670  1.00  0.00    -0.319 N 
ATOM     15  C   UNL A   1      36.963  22.595  23.673  1.00  0.00     0.300 C 
ATOM     16  C   UNL A   1      36.947  20.595  24.850  1.00  0.00     0.300 C 
ATOM     17  H   UNL A   1      38.717  21.666  24.339  1.00  0.00     0.349 HD
ATOM     18  C   UNL A   1      35.541  22.263  23.996  1.00  0.00     0.015 A 
ATOM     19  C   UNL A   1      35.530  21.067  24.719  1.00  0.00     0.015 A 
ATOM     20  C   UNL A   1      34.376  22.950  23.718  1.00  0.00     0.010 A 
ATOM     21  C   UNL A   1      34.356  20.542  25.219  1.00  0.00     0.010 A 
ATOM     22  C   UNL A   1      33.183  22.437  24.228  1.00  0.00     0.001 A 
ATOM     23  C   UNL A   1      33.174  21.247  24.979  1.00  0.00     0.001 A 
ENDBRANCH  12  14
ENDBRANCH   8  12
ENDBRANCH   4   7
ENDBRANCH   2   3
ENDBRANCH   1   2
BRANCH   1  24
ATOM     24  C   UNL A   1      44.202  24.194  26.938  1.00  0.00     0.118 C 
BRANCH  24  25
ATOM     25  N   UNL A   1      43.301  24.605  25.870  1.00  0.00    -0.352 N 
ATOM     26  C   UNL A   1      42.232  25.465  25.888  1.00  0.00     0.251 C 
ATOM     27  H   UNL A   1      43.490  24.201  24.993  1.00  0.00     0.163 HD
ATOM     28  O   UNL A   1      41.471  25.484  24.924  1.00  0.00    -0.269 OA
BRANCH  26  29
ATOM     29  C   UNL A   1      41.984  26.359  27.042  1.00  0.00     0.039 A 
ATOM     30  C   UNL A   1      41.010  25.993  27.976  1.00  0.00     0.014 A 
ATOM     31  C   UNL A   1      42.648  27.581  27.175  1.00  0.00     0.014 A 
ATOM     32  C   UNL A   1      40.736  26.827  29.065  1.00  0.00     0.010 A 
ATOM     33  C   UNL A   1      42.421  28.383  28.293  1.00  0.00     0.010 A 
ATOM     34  C   UNL A   1      41.457  28.017  29.244  1.00  0.00    -0.014 A 
BRANCH  34  35
ATOM     35  C   UNL A   1      41.213  28.896  30.417  1.00  0.00     0.031 A 
ATOM     36  C   UNL A   1      42.038  28.739  31.665  1.00  0.00     0.074 A 
ATOM     37  C   UNL A   1      40.205  29.788  30.380  1.00  0.00     0.049 A 
ATOM     38  N   UNL A   1      41.921  29.350  32.816  1.00  0.00    -0.248 NA
ATOM     39  C   UNL A   1      43.124  27.744  31.622  1.00  0.00     0.031 C 
ATOM     40  C   UNL A   1      39.304  29.998  29.245  1.00  0.00     0.029 A 
ATOM     41  N   UNL A   1      39.756  30.672  31.328  1.00  0.00    -0.354 N 
ATOM     42  C   UNL A   1      42.896  28.801  33.640  1.00  0.00     0.074 A 
ATOM     43  C   UNL A   1      43.572  27.780  32.869  1.00  0.00     0.031 C 
ATOM     44  C   UNL A   1      38.418  30.957  29.559  1.00  0.00     0.029 A 
ATOM     45  C   UNL A   1      38.666  31.407  30.925  1.00  0.00     0.049 A 
ATOM     46  H   UNL A   1      40.174  30.770  32.213  1.00  0.00     0.167 HD
ATOM     47  C   UNL A   1      43.210  29.130  34.916  1.00  0.00     0.037 A 
ATOM     48  C   UNL A   1      37.942  32.331  31.585  1.00  0.00     0.037 A 
ATOM     49  C   UNL A   1      42.557  30.171  35.665  1.00  0.00     0.049 A 
ATOM     50  C   UNL A   1      38.328  32.702  32.989  1.00  0.00     0.074 A 
ATOM     51  C   UNL A   1      42.846  30.626  36.940  1.00  0.00     0.029 A 
ATOM     52  N   UNL A   1      41.484  30.922  35.207  1.00  0.00    -0.354 N 
ATOM     53  N   UNL A   1      39.291  32.212  33.733  1.00  0.00    -0.248 NA
ATOM     54  C   UNL A   1      37.536  33.753  33.643  1.00  0.00     0.031 C 
ATOM     55  C   UNL A   1      41.927  31.632  37.264  1.00  0.00     0.029 A 
ATOM     56  C   UNL A   1      41.090  31.828  36.177  1.00  0.00     0.049 A 
ATOM     57  H   UNL A   1      41.065  30.825  34.322  1.00  0.00     0.167 HD
ATOM     58  C   UNL A   1      39.234  32.909  34.934  1.00  0.00     0.074 A 
ATOM     59  C   UNL A   1      38.150  33.863  34.814  1.00  0.00     0.031 C 
ATOM     60  C   UNL A   1      40.010  32.773  36.037  1.00  0.00     0.037 A 
BRANCH  47  61
ATOM     61  C   UNL A   1      44.315  28.357  35.581  1.00  0.00     0.058 A 
ATOM     62  C   UNL A   1      44.057  27.198  36.329  1.00  0.00     0.135 A 
ATOM     63  C   UNL A   1      45.653  28.765  35.448  1.00  0.00     0.135 A 
ATOM     64  F   UNL A   1      42.795  26.771  36.500  1.00  0.00    -0.206 F 
ATOM     65  C   UNL A   1      45.080  26.489  36.950  1.00  0.00     0.059 A 
ATOM     66  C   UNL A   1      46.695  28.057  36.040  1.00  0.00     0.059 A 
ATOM     67  F   UNL A   1      45.957  29.866  34.742  1.00  0.00    -0.206 F 
ATOM     68  C   UNL A   1      46.396  26.929  36.804  1.00  0.00     0.060 A 
BRANCH  68  69
ATOM     69  S   UNL A   1      47.714  26.004  37.620  1.00  0.00     0.124 S 
ATOM     70  O   UNL A   1      48.818  26.183  36.682  1.00  0.00    -0.237 OA
ATOM     71  O   UNL A   1      47.846  26.702  38.895  1.00  0.00    -0.237 OA
ATOM     72  O   UNL A   1      47.175  24.650  37.704  1.00  0.00    -0.744 OA
ENDBRANCH  68  69
ENDBRANCH  47  61
BRANCH  48  73
ATOM     73  C   UNL A   1      36.792  32.987  30.908  1.00  0.00     0.058 A 
ATOM     74  C   UNL A   1      35.475  32.605  31.198  1.00  0.00     0.135 A 
ATOM     75  C   UNL A   1      36.987  34.026  29.985  1.00  0.00     0.135 A 
ATOM     76  F   UNL A   1      35.241  31.613  32.070  1.00  0.00    -0.206 F 
ATOM     77  C   UNL A   1      34.387  33.223  30.590  1.00  0.00     0.059 A 
ATOM     78  C   UNL A   1      35.915  34.673  29.379  1.00  0.00     0.059 A 
ATOM     79  F   UNL A   1      38.230  34.439  29.689  1.00  0.00    -0.206 F 
ATOM     80  C   UNL A   1      34.619  34.260  29.683  1.00  0.00     0.060 A 
BRANCH  80  81
ATOM     81  S   UNL A   1      33.200  35.102  28.947  1.00  0.00     0.124 S 
ATOM     82  O   UNL A   1      33.839  36.237  28.293  1.00  0.00    -0.237 OA
ATOM     83  O   UNL A   1      32.655  34.076  28.063  1.00  0.00    -0.237 OA
ATOM     84  O   UNL A   1      32.368  35.425  30.103  1.00  0.00    -0.744 OA
ENDBRANCH  80  81
ENDBRANCH  48  73
BRANCH  60  85
ATOM     85  C   UNL A   1      39.731  33.691  37.193  1.00  0.00     0.058 A 
ATOM     86  C   UNL A   1      38.811  33.350  38.195  1.00  0.00     0.135 A 
ATOM     87  C   UNL A   1      40.429  34.902  37.322  1.00  0.00     0.135 A 
ATOM     88  F   UNL A   1      38.114  32.206  38.112  1.00  0.00    -0.206 F 
ATOM     89  C   UNL A   1      38.575  34.190  39.279  1.00  0.00     0.059 A 
ATOM     90  C   UNL A   1      40.226  35.746  38.409  1.00  0.00     0.059 A 
ATOM     91  F   UNL A   1      41.327  35.269  36.395  1.00  0.00    -0.206 F 
ATOM     92  C   UNL A   1      39.288  35.386  39.377  1.00  0.00     0.060 A 
BRANCH  92  93
ATOM     93  S   UNL A   1      39.001  36.453  40.805  1.00  0.00     0.124 S 
ATOM     94  O   UNL A   1      37.966  35.713  41.520  1.00  0.00    -0.237 OA
ATOM     95  O   UNL A   1      40.313  36.486  41.443  1.00  0.00    -0.237 OA
ATOM     96  O   UNL A   1      38.571  37.713  40.205  1.00  0.00    -0.744 OA
ENDBRANCH  92  93
ENDBRANCH  60  85
ENDBRANCH  34  35
ENDBRANCH  26  29
ENDBRANCH  24  25
ENDBRANCH   1  24
TORSDOF 15
ENDMDL
