MODEL 1
REMARK VINA RESULT:     -12.6      0.000      0.000
REMARK SMILES O=C(NCCCNC(=O)c1cccc(Oc2ncc([N+](=O)[O-])cc2Br)c1)c1ccc(-c2c3nc(c(-c4c(F)cc(S(=O)(=O)[O-])cc4F)c4ccc([nH]4)c(-c4c(F)cc(S(=O)(=O)[O-])cc4F)c4nc(c(-c5c(F)cc(S(=O)(=O)[O-])cc5F)c5ccc2[nH]5)C=C4)C=C3)cc1
REMARK SMILES IDX 5 1 4 2 3 3 1 4 2 5 27 7 28 8 92 9 29 10 91 11 30 12 31 13
REMARK SMILES IDX 32 14 85 15 33 16 90 17 84 18 86 19 34 20 89 21 83 22 82 23
REMARK SMILES IDX 35 25 69 26 48 27 68 28 49 29 52 30 67 31 87 32 50 33 51 34
REMARK SMILES IDX 66 36 88 37 53 38 36 39 37 40 46 41 38 42 39 43 45 44 47 45
REMARK SMILES IDX 40 46 41 47 42 48 43 49 44 50 70 51 71 52 80 53 72 54 73 55
REMARK SMILES IDX 79 56 81 57 74 58 75 59 76 60 77 61 78 62 54 63 55 64 64 65
REMARK SMILES IDX 56 66 57 67 63 68 65 69 58 70 59 71 60 72 61 73 62 74 6 75
REMARK SMILES IDX 7 76 8 77 9 79 10 80 11 81 26 82 12 83 14 84 13 85 15 86
REMARK SMILES IDX 16 87 17 88 24 89 18 90 23 91 25 92 19 93 20 94 21 95 22 96
REMARK H PARENT 3 6 86 24 52 35 7 78
REMARK Flexibility Score: inf
ROOT
ATOM      1  C   UNL A   1      34.200  31.503  27.597  1.00  0.00     0.042 C 
ENDROOT
BRANCH   1   2
ATOM      2  C   UNL A   1      35.555  31.282  28.250  1.00  0.00     0.118 C 
BRANCH   2   3
ATOM      3  N   UNL A   1      35.460  31.074  29.690  1.00  0.00    -0.352 N 
ATOM      4  O   UNL A   1      35.951  30.193  31.699  1.00  0.00    -0.269 OA
ATOM      5  C   UNL A   1      36.315  30.426  30.550  1.00  0.00     0.251 C 
ATOM      6  H   UNL A   1      34.658  31.456  30.112  1.00  0.00     0.163 HD
BRANCH   5   7
ATOM      7  C   UNL A   1      37.652  29.992  30.089  1.00  0.00     0.039 A 
ATOM      8  C   UNL A   1      38.594  29.499  30.995  1.00  0.00     0.014 A 
ATOM      9  C   UNL A   1      37.965  30.060  28.728  1.00  0.00     0.014 A 
ATOM     10  C   UNL A   1      39.894  29.249  30.575  1.00  0.00     0.010 A 
ATOM     11  C   UNL A   1      39.245  29.704  28.291  1.00  0.00     0.010 A 
ATOM     12  C   UNL A   1      40.232  29.330  29.216  1.00  0.00    -0.014 A 
BRANCH  12  13
ATOM     13  C   UNL A   1      41.606  28.965  28.786  1.00  0.00     0.031 A 
ATOM     14  C   UNL A   1      42.719  29.976  28.796  1.00  0.00     0.074 A 
ATOM     15  C   UNL A   1      41.847  27.694  28.406  1.00  0.00     0.049 A 
ATOM     16  N   UNL A   1      43.970  29.825  28.444  1.00  0.00    -0.248 NA
ATOM     17  C   UNL A   1      42.387  31.334  29.252  1.00  0.00     0.031 C 
ATOM     18  C   UNL A   1      40.843  26.628  28.350  1.00  0.00     0.029 A 
ATOM     19  N   UNL A   1      43.006  27.078  28.012  1.00  0.00    -0.354 N 
ATOM     20  C   UNL A   1      44.569  31.068  28.611  1.00  0.00     0.074 A 
ATOM     21  C   UNL A   1      43.537  31.971  29.076  1.00  0.00     0.031 C 
ATOM     22  C   UNL A   1      41.437  25.482  27.988  1.00  0.00     0.029 A 
ATOM     23  C   UNL A   1      42.845  25.744  27.721  1.00  0.00     0.049 A 
ATOM     24  H   UNL A   1      43.870  27.544  27.946  1.00  0.00     0.167 HD
ATOM     25  C   UNL A   1      45.861  31.420  28.400  1.00  0.00     0.037 A 
ATOM     26  C   UNL A   1      43.726  24.833  27.267  1.00  0.00     0.037 A 
ATOM     27  C   UNL A   1      46.884  30.509  27.953  1.00  0.00     0.049 A 
ATOM     28  C   UNL A   1      45.146  25.252  27.027  1.00  0.00     0.074 A 
ATOM     29  C   UNL A   1      48.229  30.760  27.738  1.00  0.00     0.029 A 
ATOM     30  N   UNL A   1      46.677  29.170  27.649  1.00  0.00    -0.354 N 
ATOM     31  N   UNL A   1      45.698  26.428  27.208  1.00  0.00    -0.248 NA
ATOM     32  C   UNL A   1      46.063  24.225  26.518  1.00  0.00     0.031 C 
ATOM     33  C   UNL A   1      48.825  29.585  27.267  1.00  0.00     0.029 A 
ATOM     34  C   UNL A   1      47.864  28.588  27.232  1.00  0.00     0.049 A 
ATOM     35  H   UNL A   1      45.813  28.702  27.721  1.00  0.00     0.167 HD
ATOM     36  C   UNL A   1      47.031  26.281  26.847  1.00  0.00     0.074 A 
ATOM     37  C   UNL A   1      47.206  24.896  26.454  1.00  0.00     0.031 C 
ATOM     38  C   UNL A   1      48.020  27.208  26.843  1.00  0.00     0.037 A 
BRANCH  25  39
ATOM     39  C   UNL A   1      46.239  32.859  28.628  1.00  0.00     0.058 A 
ATOM     40  C   UNL A   1      46.697  33.316  29.874  1.00  0.00     0.135 A 
ATOM     41  C   UNL A   1      46.171  33.788  27.577  1.00  0.00     0.135 A 
ATOM     42  F   UNL A   1      46.769  32.475  30.919  1.00  0.00    -0.206 F 
ATOM     43  C   UNL A   1      47.044  34.649  30.078  1.00  0.00     0.059 A 
ATOM     44  C   UNL A   1      46.536  35.120  27.752  1.00  0.00     0.059 A 
ATOM     45  F   UNL A   1      45.742  33.405  26.363  1.00  0.00    -0.206 F 
ATOM     46  C   UNL A   1      46.955  35.545  29.011  1.00  0.00     0.060 A 
BRANCH  46  47
ATOM     47  S   UNL A   1      47.396  37.272  29.293  1.00  0.00     0.124 S 
ATOM     48  O   UNL A   1      47.543  37.762  27.926  1.00  0.00    -0.237 OA
ATOM     49  O   UNL A   1      46.236  37.777  30.023  1.00  0.00    -0.237 OA
ATOM     50  O   UNL A   1      48.630  37.188  30.067  1.00  0.00    -0.744 OA
ENDBRANCH  46  47
ENDBRANCH  25  39
BRANCH  26  51
ATOM     51  C   UNL A   1      43.272  23.443  27.008  1.00  0.00     0.058 A 
ATOM     52  C   UNL A   1      43.097  22.970  25.700  1.00  0.00     0.135 A 
ATOM     53  C   UNL A   1      43.055  22.544  28.066  1.00  0.00     0.135 A 
ATOM     54  F   UNL A   1      43.290  23.793  24.659  1.00  0.00    -0.206 F 
ATOM     55  C   UNL A   1      42.722  21.655  25.448  1.00  0.00     0.059 A 
ATOM     56  C   UNL A   1      42.704  21.218  27.837  1.00  0.00     0.059 A 
ATOM     57  F   UNL A   1      43.229  22.945  29.335  1.00  0.00    -0.206 F 
ATOM     58  C   UNL A   1      42.534  20.785  26.523  1.00  0.00     0.060 A 
BRANCH  58  59
ATOM     59  S   UNL A   1      42.117  19.061  26.183  1.00  0.00     0.124 S 
ATOM     60  O   UNL A   1      42.399  18.434  27.469  1.00  0.00    -0.237 OA
ATOM     61  O   UNL A   1      40.709  19.152  25.810  1.00  0.00    -0.237 OA
ATOM     62  O   UNL A   1      43.024  18.706  25.095  1.00  0.00    -0.744 OA
ENDBRANCH  58  59
ENDBRANCH  26  51
BRANCH  38  63
ATOM     63  C   UNL A   1      49.387  26.748  26.424  1.00  0.00     0.058 A 
ATOM     64  C   UNL A   1      50.265  26.134  27.328  1.00  0.00     0.135 A 
ATOM     65  C   UNL A   1      49.804  26.885  25.090  1.00  0.00     0.135 A 
ATOM     66  F   UNL A   1      49.917  25.988  28.616  1.00  0.00    -0.206 F 
ATOM     67  C   UNL A   1      51.522  25.689  26.930  1.00  0.00     0.059 A 
ATOM     68  C   UNL A   1      51.046  26.427  24.665  1.00  0.00     0.059 A 
ATOM     69  F   UNL A   1      48.996  27.459  24.185  1.00  0.00    -0.206 F 
ATOM     70  C   UNL A   1      51.903  25.839  25.596  1.00  0.00     0.060 A 
BRANCH  70  71
ATOM     71  S   UNL A   1      53.521  25.228  25.081  1.00  0.00     0.124 S 
ATOM     72  O   UNL A   1      53.388  23.796  25.333  1.00  0.00    -0.237 OA
ATOM     73  O   UNL A   1      53.573  25.622  23.677  1.00  0.00    -0.237 OA
ATOM     74  O   UNL A   1      54.447  25.936  25.960  1.00  0.00    -0.744 OA
ENDBRANCH  70  71
ENDBRANCH  38  63
ENDBRANCH  12  13
ENDBRANCH   5   7
ENDBRANCH   2   3
ENDBRANCH   1   2
BRANCH   1  75
ATOM     75  C   UNL A   1      33.667  30.285  26.862  1.00  0.00     0.118 C 
BRANCH  75  76
ATOM     76  N   UNL A   1      32.845  29.438  27.721  1.00  0.00    -0.352 N 
ATOM     77  C   UNL A   1      32.172  28.281  27.423  1.00  0.00     0.251 C 
ATOM     78  H   UNL A   1      32.761  29.743  28.653  1.00  0.00     0.163 HD
ATOM     79  O   UNL A   1      31.353  27.820  28.215  1.00  0.00    -0.269 OA
BRANCH  77  80
ATOM     80  C   UNL A   1      32.455  27.564  26.164  1.00  0.00     0.043 A 
ATOM     81  C   UNL A   1      33.679  26.921  25.986  1.00  0.00     0.014 A 
ATOM     82  C   UNL A   1      31.516  27.591  25.129  1.00  0.00     0.061 A 
ATOM     83  C   UNL A   1      33.932  26.249  24.790  1.00  0.00     0.005 A 
ATOM     84  C   UNL A   1      31.751  26.899  23.943  1.00  0.00     0.130 A 
ATOM     85  C   UNL A   1      32.966  26.230  23.777  1.00  0.00     0.047 A 
BRANCH  84  86
ATOM     86  O   UNL A   1      30.873  26.857  22.877  1.00  0.00    -0.438 OA
BRANCH  86  87
ATOM     87  C   UNL A   1      30.101  27.982  22.663  1.00  0.00     0.234 A 
ATOM     88  N   UNL A   1      30.718  29.009  22.023  1.00  0.00    -0.214 NA
ATOM     89  C   UNL A   1      28.770  28.025  23.081  1.00  0.00     0.087 A 
ATOM     90  C   UNL A   1      29.973  30.115  21.764  1.00  0.00     0.200 A 
ATOM     91  C   UNL A   1      28.013  29.154  22.773  1.00  0.00     0.108 A 
ATOM     92  Br  UNL A   1      27.941  26.592  23.998  1.00  0.00    -0.045 Br
ATOM     93  C   UNL A   1      28.632  30.214  22.104  1.00  0.00     0.288 A 
BRANCH  93  94
ATOM     94  N   UNL A   1      27.885  31.417  21.768  1.00  0.00     0.064 N 
ATOM     95  O   UNL A   1      27.588  31.595  20.580  1.00  0.00    -0.258 OA
ATOM     96  O   UNL A   1      27.607  32.190  22.694  1.00  0.00    -0.258 OA
ENDBRANCH  93  94
ENDBRANCH  86  87
ENDBRANCH  84  86
ENDBRANCH  77  80
ENDBRANCH  75  76
ENDBRANCH   1  75
TORSDOF 16
ENDMDL
MODEL 2
REMARK VINA RESULT:     -12.2      4.197      9.844
REMARK SMILES O=C(NCCCNC(=O)c1cccc(Oc2ncc([N+](=O)[O-])cc2Br)c1)c1ccc(-c2c3nc(c(-c4c(F)cc(S(=O)(=O)[O-])cc4F)c4ccc([nH]4)c(-c4c(F)cc(S(=O)(=O)[O-])cc4F)c4nc(c(-c5c(F)cc(S(=O)(=O)[O-])cc5F)c5ccc2[nH]5)C=C4)C=C3)cc1
REMARK SMILES IDX 5 1 4 2 3 3 1 4 2 5 27 7 28 8 92 9 29 10 91 11 30 12 31 13
REMARK SMILES IDX 32 14 85 15 33 16 90 17 84 18 86 19 34 20 89 21 83 22 82 23
REMARK SMILES IDX 35 25 69 26 48 27 68 28 49 29 52 30 67 31 87 32 50 33 51 34
REMARK SMILES IDX 66 36 88 37 53 38 36 39 37 40 46 41 38 42 39 43 45 44 47 45
REMARK SMILES IDX 40 46 41 47 42 48 43 49 44 50 70 51 71 52 80 53 72 54 73 55
REMARK SMILES IDX 79 56 81 57 74 58 75 59 76 60 77 61 78 62 54 63 55 64 64 65
REMARK SMILES IDX 56 66 57 67 63 68 65 69 58 70 59 71 60 72 61 73 62 74 6 75
REMARK SMILES IDX 7 76 8 77 9 79 10 80 11 81 26 82 12 83 14 84 13 85 15 86
REMARK SMILES IDX 16 87 17 88 24 89 18 90 23 91 25 92 19 93 20 94 21 95 22 96
REMARK H PARENT 3 6 86 24 52 35 7 78
REMARK Flexibility Score: inf
ROOT
ATOM      1  C   UNL A   1      38.208  19.749  25.132  1.00  0.00     0.042 C 
ENDROOT
BRANCH   1   2
ATOM      2  C   UNL A   1      39.457  20.331  25.774  1.00  0.00     0.118 C 
BRANCH   2   3
ATOM      3  N   UNL A   1      40.462  19.318  26.071  1.00  0.00    -0.352 N 
ATOM      4  O   UNL A   1      42.515  18.455  26.378  1.00  0.00    -0.269 OA
ATOM      5  C   UNL A   1      41.802  19.454  26.348  1.00  0.00     0.251 C 
ATOM      6  H   UNL A   1      40.130  18.392  26.076  1.00  0.00     0.163 HD
BRANCH   5   7
ATOM      7  C   UNL A   1      42.386  20.794  26.581  1.00  0.00     0.039 A 
ATOM      8  C   UNL A   1      42.584  21.270  27.878  1.00  0.00     0.014 A 
ATOM      9  C   UNL A   1      42.759  21.580  25.486  1.00  0.00     0.014 A 
ATOM     10  C   UNL A   1      42.979  22.586  28.080  1.00  0.00     0.010 A 
ATOM     11  C   UNL A   1      43.260  22.869  25.695  1.00  0.00     0.010 A 
ATOM     12  C   UNL A   1      43.340  23.397  26.993  1.00  0.00    -0.014 A 
BRANCH  12  13
ATOM     13  C   UNL A   1      43.849  24.769  27.247  1.00  0.00     0.031 A 
ATOM     14  C   UNL A   1      45.291  25.121  27.004  1.00  0.00     0.074 A 
ATOM     15  C   UNL A   1      42.985  25.708  27.679  1.00  0.00     0.049 A 
ATOM     16  N   UNL A   1      45.899  26.266  27.183  1.00  0.00    -0.248 NA
ATOM     17  C   UNL A   1      46.167  24.051  26.503  1.00  0.00     0.031 C 
ATOM     18  C   UNL A   1      41.563  25.480  27.957  1.00  0.00     0.029 A 
ATOM     19  N   UNL A   1      43.163  27.040  27.947  1.00  0.00    -0.354 N 
ATOM     20  C   UNL A   1      47.229  26.051  26.842  1.00  0.00     0.074 A 
ATOM     21  C   UNL A   1      47.346  24.659  26.466  1.00  0.00     0.031 C 
ATOM     22  C   UNL A   1      40.992  26.640  28.312  1.00  0.00     0.029 A 
ATOM     23  C   UNL A   1      42.015  27.676  28.354  1.00  0.00     0.049 A 
ATOM     24  H   UNL A   1      44.030  27.498  27.855  1.00  0.00     0.167 HD
ATOM     25  C   UNL A   1      48.255  26.937  26.840  1.00  0.00     0.037 A 
ATOM     26  C   UNL A   1      41.808  28.949  28.742  1.00  0.00     0.037 A 
ATOM     27  C   UNL A   1      48.123  28.326  27.200  1.00  0.00     0.049 A 
ATOM     28  C   UNL A   1      42.963  29.906  28.746  1.00  0.00     0.074 A 
ATOM     29  C   UNL A   1      49.096  29.312  27.202  1.00  0.00     0.029 A 
ATOM     30  N   UNL A   1      46.948  28.928  27.627  1.00  0.00    -0.354 N 
ATOM     31  N   UNL A   1      44.211  29.688  28.403  1.00  0.00    -0.248 NA
ATOM     32  C   UNL A   1      42.687  31.276  29.191  1.00  0.00     0.031 C 
ATOM     33  C   UNL A   1      48.517  30.499  27.667  1.00  0.00     0.029 A 
ATOM     34  C   UNL A   1      47.174  30.266  27.911  1.00  0.00     0.049 A 
ATOM     35  H   UNL A   1      46.079  28.472  27.714  1.00  0.00     0.167 HD
ATOM     36  C   UNL A   1      44.867  30.899  28.578  1.00  0.00     0.074 A 
ATOM     37  C   UNL A   1      43.875  31.849  29.042  1.00  0.00     0.031 C 
ATOM     38  C   UNL A   1      46.174  31.197  28.373  1.00  0.00     0.037 A 
BRANCH  25  39
ATOM     39  C   UNL A   1      49.617  26.426  26.456  1.00  0.00     0.058 A 
ATOM     40  C   UNL A   1      50.438  25.746  27.370  1.00  0.00     0.135 A 
ATOM     41  C   UNL A   1      50.098  26.593  25.147  1.00  0.00     0.135 A 
ATOM     42  F   UNL A   1      50.036  25.570  28.639  1.00  0.00    -0.206 F 
ATOM     43  C   UNL A   1      51.698  25.278  27.008  1.00  0.00     0.059 A 
ATOM     44  C   UNL A   1      51.344  26.111  24.756  1.00  0.00     0.059 A 
ATOM     45  F   UNL A   1      49.353  27.234  24.230  1.00  0.00    -0.206 F 
ATOM     46  C   UNL A   1      52.144  25.469  25.699  1.00  0.00     0.060 A 
BRANCH  46  47
ATOM     47  S   UNL A   1      53.786  24.868  25.249  1.00  0.00     0.124 S 
ATOM     48  O   UNL A   1      54.056  25.640  24.039  1.00  0.00    -0.237 OA
ATOM     49  O   UNL A   1      54.583  25.226  26.418  1.00  0.00    -0.237 OA
ATOM     50  O   UNL A   1      53.582  23.437  25.048  1.00  0.00    -0.744 OA
ENDBRANCH  46  47
ENDBRANCH  25  39
BRANCH  26  51
ATOM     51  C   UNL A   1      40.448  29.371  29.164  1.00  0.00     0.058 A 
ATOM     52  C   UNL A   1      40.144  29.593  30.514  1.00  0.00     0.135 A 
ATOM     53  C   UNL A   1      39.440  29.615  28.217  1.00  0.00     0.135 A 
ATOM     54  F   UNL A   1      41.075  29.371  31.455  1.00  0.00    -0.206 F 
ATOM     55  C   UNL A   1      38.889  30.039  30.913  1.00  0.00     0.059 A 
ATOM     56  C   UNL A   1      38.186  30.085  28.589  1.00  0.00     0.059 A 
ATOM     57  F   UNL A   1      39.689  29.436  26.909  1.00  0.00    -0.206 F 
ATOM     58  C   UNL A   1      37.918  30.287  29.942  1.00  0.00     0.060 A 
BRANCH  58  59
ATOM     59  S   UNL A   1      36.315  30.934  30.463  1.00  0.00     0.124 S 
ATOM     60  O   UNL A   1      36.673  32.275  30.911  1.00  0.00    -0.237 OA
ATOM     61  O   UNL A   1      35.536  30.859  29.230  1.00  0.00    -0.237 OA
ATOM     62  O   UNL A   1      35.903  30.006  31.512  1.00  0.00    -0.744 OA
ENDBRANCH  58  59
ENDBRANCH  26  51
BRANCH  38  63
ATOM     63  C   UNL A   1      46.600  32.615  28.625  1.00  0.00     0.058 A 
ATOM     64  C   UNL A   1      47.089  33.026  29.874  1.00  0.00     0.135 A 
ATOM     65  C   UNL A   1      46.558  33.563  27.590  1.00  0.00     0.135 A 
ATOM     66  F   UNL A   1      47.140  32.160  30.898  1.00  0.00    -0.206 F 
ATOM     67  C   UNL A   1      47.504  34.335  30.095  1.00  0.00     0.059 A 
ATOM     68  C   UNL A   1      46.989  34.871  27.782  1.00  0.00     0.059 A 
ATOM     69  F   UNL A   1      46.105  33.217  26.374  1.00  0.00    -0.206 F 
ATOM     70  C   UNL A   1      47.451  35.250  29.043  1.00  0.00     0.060 A 
BRANCH  70  71
ATOM     71  S   UNL A   1      48.023  36.938  29.330  1.00  0.00     0.124 S 
ATOM     72  O   UNL A   1      49.153  37.026  28.411  1.00  0.00    -0.237 OA
ATOM     73  O   UNL A   1      46.852  37.731  28.973  1.00  0.00    -0.237 OA
ATOM     74  O   UNL A   1      48.367  36.942  30.750  1.00  0.00    -0.744 OA
ENDBRANCH  70  71
ENDBRANCH  38  63
ENDBRANCH  12  13
ENDBRANCH   5   7
ENDBRANCH   2   3
ENDBRANCH   1   2
BRANCH   1  75
ATOM     75  C   UNL A   1      37.005  20.676  25.177  1.00  0.00     0.118 C 
BRANCH  75  76
ATOM     76  N   UNL A   1      37.142  21.803  24.261  1.00  0.00    -0.352 N 
ATOM     77  C   UNL A   1      36.175  22.601  23.705  1.00  0.00     0.251 C 
ATOM     78  H   UNL A   1      38.066  22.023  24.003  1.00  0.00     0.163 HD
ATOM     79  O   UNL A   1      36.458  23.365  22.784  1.00  0.00    -0.269 OA
BRANCH  77  80
ATOM     80  C   UNL A   1      34.798  22.572  24.233  1.00  0.00     0.043 A 
ATOM     81  C   UNL A   1      34.316  23.641  24.986  1.00  0.00     0.014 A 
ATOM     82  C   UNL A   1      34.006  21.439  24.031  1.00  0.00     0.061 A 
ATOM     83  C   UNL A   1      33.012  23.599  25.481  1.00  0.00     0.005 A 
ATOM     84  C   UNL A   1      32.693  21.401  24.499  1.00  0.00     0.130 A 
ATOM     85  C   UNL A   1      32.201  22.485  25.228  1.00  0.00     0.047 A 
BRANCH  84  86
ATOM     86  O   UNL A   1      31.835  20.331  24.329  1.00  0.00    -0.438 OA
BRANCH  86  87
ATOM     87  C   UNL A   1      32.374  19.070  24.487  1.00  0.00     0.234 A 
ATOM     88  N   UNL A   1      32.647  18.700  25.766  1.00  0.00    -0.214 NA
ATOM     89  C   UNL A   1      32.604  18.248  23.383  1.00  0.00     0.087 A 
ATOM     90  C   UNL A   1      33.143  17.451  25.957  1.00  0.00     0.200 A 
ATOM     91  C   UNL A   1      33.078  16.955  23.605  1.00  0.00     0.108 A 
ATOM     92  Br  UNL A   1      32.243  18.796  21.609  1.00  0.00    -0.045 Br
ATOM     93  C   UNL A   1      33.352  16.558  24.917  1.00  0.00     0.288 A 
BRANCH  93  94
ATOM     94  N   UNL A   1      33.857  15.221  25.196  1.00  0.00     0.064 N 
ATOM     95  O   UNL A   1      33.029  14.311  25.329  1.00  0.00    -0.258 OA
ATOM     96  O   UNL A   1      35.083  15.088  25.297  1.00  0.00    -0.258 OA
ENDBRANCH  93  94
ENDBRANCH  86  87
ENDBRANCH  84  86
ENDBRANCH  77  80
ENDBRANCH  75  76
ENDBRANCH   1  75
TORSDOF 16
ENDMDL
MODEL 3
REMARK VINA RESULT:     -12.2      6.065      8.110
REMARK SMILES O=C(NCCCNC(=O)c1cccc(Oc2ncc([N+](=O)[O-])cc2Br)c1)c1ccc(-c2c3nc(c(-c4c(F)cc(S(=O)(=O)[O-])cc4F)c4ccc([nH]4)c(-c4c(F)cc(S(=O)(=O)[O-])cc4F)c4nc(c(-c5c(F)cc(S(=O)(=O)[O-])cc5F)c5ccc2[nH]5)C=C4)C=C3)cc1
REMARK SMILES IDX 5 1 4 2 3 3 1 4 2 5 27 7 28 8 92 9 29 10 91 11 30 12 31 13
REMARK SMILES IDX 32 14 85 15 33 16 90 17 84 18 86 19 34 20 89 21 83 22 82 23
REMARK SMILES IDX 35 25 69 26 48 27 68 28 49 29 52 30 67 31 87 32 50 33 51 34
REMARK SMILES IDX 66 36 88 37 53 38 36 39 37 40 46 41 38 42 39 43 45 44 47 45
REMARK SMILES IDX 40 46 41 47 42 48 43 49 44 50 70 51 71 52 80 53 72 54 73 55
REMARK SMILES IDX 79 56 81 57 74 58 75 59 76 60 77 61 78 62 54 63 55 64 64 65
REMARK SMILES IDX 56 66 57 67 63 68 65 69 58 70 59 71 60 72 61 73 62 74 6 75
REMARK SMILES IDX 7 76 8 77 9 79 10 80 11 81 26 82 12 83 14 84 13 85 15 86
REMARK SMILES IDX 16 87 17 88 24 89 18 90 23 91 25 92 19 93 20 94 21 95 22 96
REMARK H PARENT 3 6 86 24 52 35 7 78
REMARK Flexibility Score: inf
ROOT
ATOM      1  C   UNL A   1      31.542  32.229  26.852  1.00  0.00     0.042 C 
ENDROOT
BRANCH   1   2
ATOM      2  C   UNL A   1      32.857  32.891  27.230  1.00  0.00     0.118 C 
BRANCH   2   3
ATOM      3  N   UNL A   1      32.675  34.218  27.806  1.00  0.00    -0.352 N 
ATOM      4  O   UNL A   1      32.845  35.864  29.328  1.00  0.00    -0.269 OA
ATOM      5  C   UNL A   1      33.285  34.804  28.889  1.00  0.00     0.251 C 
ATOM      6  H   UNL A   1      32.012  34.782  27.347  1.00  0.00     0.163 HD
BRANCH   5   7
ATOM      7  C   UNL A   1      34.444  34.154  29.539  1.00  0.00     0.039 A 
ATOM      8  C   UNL A   1      34.260  33.232  30.571  1.00  0.00     0.014 A 
ATOM      9  C   UNL A   1      35.736  34.456  29.099  1.00  0.00     0.014 A 
ATOM     10  C   UNL A   1      35.356  32.755  31.278  1.00  0.00     0.010 A 
ATOM     11  C   UNL A   1      36.841  33.889  29.743  1.00  0.00     0.010 A 
ATOM     12  C   UNL A   1      36.661  33.062  30.862  1.00  0.00    -0.014 A 
BRANCH  12  13
ATOM     13  C   UNL A   1      37.813  32.460  31.581  1.00  0.00     0.031 A 
ATOM     14  C   UNL A   1      38.239  32.967  32.931  1.00  0.00     0.074 A 
ATOM     15  C   UNL A   1      38.461  31.426  31.009  1.00  0.00     0.049 A 
ATOM     16  N   UNL A   1      39.226  32.560  33.688  1.00  0.00    -0.248 NA
ATOM     17  C   UNL A   1      37.464  34.077  33.505  1.00  0.00     0.031 C 
ATOM     18  C   UNL A   1      38.141  30.853  29.698  1.00  0.00     0.029 A 
ATOM     19  N   UNL A   1      39.508  30.663  31.455  1.00  0.00    -0.354 N 
ATOM     20  C   UNL A   1      39.208  33.377  34.813  1.00  0.00     0.074 A 
ATOM     21  C   UNL A   1      38.125  34.318  34.630  1.00  0.00     0.031 C 
ATOM     22  C   UNL A   1      38.943  29.805  29.467  1.00  0.00     0.029 A 
ATOM     23  C   UNL A   1      39.878  29.672  30.577  1.00  0.00     0.049 A 
ATOM     24  H   UNL A   1      39.952  30.809  32.322  1.00  0.00     0.167 HD
ATOM     25  C   UNL A   1      40.019  33.339  35.898  1.00  0.00     0.037 A 
ATOM     26  C   UNL A   1      40.873  28.768  30.643  1.00  0.00     0.037 A 
ATOM     27  C   UNL A   1      41.085  32.385  36.077  1.00  0.00     0.049 A 
ATOM     28  C   UNL A   1      41.767  28.757  31.848  1.00  0.00     0.074 A 
ATOM     29  C   UNL A   1      41.944  32.244  37.154  1.00  0.00     0.029 A 
ATOM     30  N   UNL A   1      41.441  31.410  35.155  1.00  0.00    -0.354 N 
ATOM     31  N   UNL A   1      41.724  29.526  32.910  1.00  0.00    -0.248 NA
ATOM     32  C   UNL A   1      42.845  27.762  31.864  1.00  0.00     0.031 C 
ATOM     33  C   UNL A   1      42.844  31.211  36.866  1.00  0.00     0.029 A 
ATOM     34  C   UNL A   1      42.518  30.677  35.631  1.00  0.00     0.049 A 
ATOM     35  H   UNL A   1      40.994  31.260  34.291  1.00  0.00     0.167 HD
ATOM     36  C   UNL A   1      42.761  29.099  33.729  1.00  0.00     0.074 A 
ATOM     37  C   UNL A   1      43.404  27.993  33.045  1.00  0.00     0.031 C 
ATOM     38  C   UNL A   1      43.146  29.580  34.937  1.00  0.00     0.037 A 
BRANCH  25  39
ATOM     39  C   UNL A   1      39.802  34.373  36.969  1.00  0.00     0.058 A 
ATOM     40  C   UNL A   1      39.039  34.103  38.116  1.00  0.00     0.135 A 
ATOM     41  C   UNL A   1      40.390  35.644  36.861  1.00  0.00     0.135 A 
ATOM     42  F   UNL A   1      38.441  32.909  38.266  1.00  0.00    -0.206 F 
ATOM     43  C   UNL A   1      38.841  35.065  39.102  1.00  0.00     0.059 A 
ATOM     44  C   UNL A   1      40.226  36.614  37.847  1.00  0.00     0.059 A 
ATOM     45  F   UNL A   1      41.132  35.956  35.787  1.00  0.00    -0.206 F 
ATOM     46  C   UNL A   1      39.435  36.320  38.956  1.00  0.00     0.060 A 
BRANCH  46  47
ATOM     47  S   UNL A   1      39.158  37.562  40.236  1.00  0.00     0.124 S 
ATOM     48  O   UNL A   1      38.623  36.746  41.322  1.00  0.00    -0.237 OA
ATOM     49  O   UNL A   1      40.500  38.097  40.450  1.00  0.00    -0.237 OA
ATOM     50  O   UNL A   1      38.211  38.484  39.618  1.00  0.00    -0.744 OA
ENDBRANCH  46  47
ENDBRANCH  25  39
BRANCH  26  51
ATOM     51  C   UNL A   1      41.068  27.813  29.523  1.00  0.00     0.058 A 
ATOM     52  C   UNL A   1      42.139  27.952  28.630  1.00  0.00     0.135 A 
ATOM     53  C   UNL A   1      40.215  26.708  29.358  1.00  0.00     0.135 A 
ATOM     54  F   UNL A   1      42.977  28.993  28.746  1.00  0.00    -0.206 F 
ATOM     55  C   UNL A   1      42.359  27.033  27.609  1.00  0.00     0.059 A 
ATOM     56  C   UNL A   1      40.429  25.763  28.362  1.00  0.00     0.059 A 
ATOM     57  F   UNL A   1      39.187  26.521  30.201  1.00  0.00    -0.206 F 
ATOM     58  C   UNL A   1      41.501  25.938  27.487  1.00  0.00     0.060 A 
BRANCH  58  59
ATOM     59  S   UNL A   1      41.836  24.711  26.206  1.00  0.00     0.124 S 
ATOM     60  O   UNL A   1      41.977  25.555  25.024  1.00  0.00    -0.237 OA
ATOM     61  O   UNL A   1      43.060  24.083  26.693  1.00  0.00    -0.237 OA
ATOM     62  O   UNL A   1      40.649  23.861  26.236  1.00  0.00    -0.744 OA
ENDBRANCH  58  59
ENDBRANCH  26  51
BRANCH  38  63
ATOM     63  C   UNL A   1      44.300  28.894  35.609  1.00  0.00     0.058 A 
ATOM     64  C   UNL A   1      45.623  29.318  35.413  1.00  0.00     0.135 A 
ATOM     65  C   UNL A   1      44.075  27.828  36.494  1.00  0.00     0.135 A 
ATOM     66  F   UNL A   1      45.892  30.327  34.569  1.00  0.00    -0.206 F 
ATOM     67  C   UNL A   1      46.687  28.694  36.056  1.00  0.00     0.059 A 
ATOM     68  C   UNL A   1      45.122  27.205  37.166  1.00  0.00     0.059 A 
ATOM     69  F   UNL A   1      42.826  27.391  36.722  1.00  0.00    -0.206 F 
ATOM     70  C   UNL A   1      46.426  27.639  36.931  1.00  0.00     0.060 A 
BRANCH  70  71
ATOM     71  S   UNL A   1      47.811  26.859  37.787  1.00  0.00     0.124 S 
ATOM     72  O   UNL A   1      47.126  25.865  38.608  1.00  0.00    -0.237 OA
ATOM     73  O   UNL A   1      48.604  26.330  36.682  1.00  0.00    -0.237 OA
ATOM     74  O   UNL A   1      48.424  27.963  38.519  1.00  0.00    -0.744 OA
ENDBRANCH  70  71
ENDBRANCH  38  63
ENDBRANCH  12  13
ENDBRANCH   5   7
ENDBRANCH   2   3
ENDBRANCH   1   2
BRANCH   1  75
ATOM     75  C   UNL A   1      31.702  30.840  26.258  1.00  0.00     0.118 C 
BRANCH  75  76
ATOM     76  N   UNL A   1      31.787  29.807  27.285  1.00  0.00    -0.352 N 
ATOM     77  C   UNL A   1      31.687  28.444  27.166  1.00  0.00     0.251 C 
ATOM     78  H   UNL A   1      31.938  30.137  28.200  1.00  0.00     0.163 HD
ATOM     79  O   UNL A   1      31.565  27.743  28.169  1.00  0.00    -0.269 OA
BRANCH  77  80
ATOM     80  C   UNL A   1      31.760  27.811  25.835  1.00  0.00     0.043 A 
ATOM     81  C   UNL A   1      32.902  27.107  25.458  1.00  0.00     0.014 A 
ATOM     82  C   UNL A   1      30.705  27.978  24.933  1.00  0.00     0.061 A 
ATOM     83  C   UNL A   1      32.958  26.515  24.196  1.00  0.00     0.005 A 
ATOM     84  C   UNL A   1      30.742  27.366  23.681  1.00  0.00     0.130 A 
ATOM     85  C   UNL A   1      31.875  26.636  23.316  1.00  0.00     0.047 A 
BRANCH  84  86
ATOM     86  O   UNL A   1      29.739  27.463  22.736  1.00  0.00    -0.438 OA
BRANCH  86  87
ATOM     87  C   UNL A   1      29.277  28.731  22.448  1.00  0.00     0.234 A 
ATOM     88  N   UNL A   1      30.151  29.548  21.804  1.00  0.00    -0.214 NA
ATOM     89  C   UNL A   1      27.982  29.117  22.800  1.00  0.00     0.087 A 
ATOM     90  C   UNL A   1      29.712  30.789  21.474  1.00  0.00     0.200 A 
ATOM     91  C   UNL A   1      27.539  30.382  22.418  1.00  0.00     0.108 A 
ATOM     92  Br  UNL A   1      26.791  27.972  23.723  1.00  0.00    -0.045 Br
ATOM     93  C   UNL A   1      28.425  31.228  21.745  1.00  0.00     0.288 A 
BRANCH  93  94
ATOM     94  N   UNL A   1      28.010  32.561  21.334  1.00  0.00     0.064 N 
ATOM     95  O   UNL A   1      27.661  32.716  20.157  1.00  0.00    -0.258 OA
ATOM     96  O   UNL A   1      28.047  33.456  22.189  1.00  0.00    -0.258 OA
ENDBRANCH  93  94
ENDBRANCH  86  87
ENDBRANCH  84  86
ENDBRANCH  77  80
ENDBRANCH  75  76
ENDBRANCH   1  75
TORSDOF 16
ENDMDL
