MODEL 1
REMARK VINA RESULT:     -11.9      0.000      0.000
REMARK SMILES Cc1cc2c(cc1S(=O)(=O)N(C)CC(=O)NCCCNC(=O)c1ccc(-c3c4nc(c(-c5c(F)cc(S(=O)(=O)[O-])cc5F)c5ccc([nH]5)c(-c5c(F)cc(S(=O)(=O)[O-])cc5F)c5nc(c(-c6c(F)cc(S(=O)(=O)[O-])cc6F)c6ccc3[nH]6)C=C5)C=C4)cc1)OCC(=O)N2
REMARK SMILES IDX 18 1 17 2 16 3 14 4 15 5 13 7 11 8 12 9 8 10 9 11 10 12 7 13
REMARK SMILES IDX 1 14 2 15 3 16 4 17 6 18 5 19 93 20 89 21 91 22 90 24 92 25
REMARK SMILES IDX 19 26 20 27 21 28 22 30 23 31 24 32 88 33 25 34 87 35 26 36
REMARK SMILES IDX 27 37 28 38 81 39 29 40 86 41 80 42 82 43 30 44 85 45 79 46
REMARK SMILES IDX 78 47 31 49 65 50 44 51 64 52 45 53 48 54 63 55 83 56 46 57
REMARK SMILES IDX 47 58 62 60 84 61 49 62 32 63 33 64 42 65 34 66 35 67 41 68
REMARK SMILES IDX 43 69 36 70 37 71 38 72 39 73 40 74 66 75 67 76 76 77 68 78
REMARK SMILES IDX 69 79 75 80 77 81 70 82 71 83 72 84 73 85 74 86 50 87 51 88
REMARK SMILES IDX 60 89 52 90 53 91 59 92 61 93 54 94 55 95 56 96 57 97 58 98
REMARK H PARENT 16 6 93 23 20 29 82 48 48 59
REMARK Flexibility Score: inf
ROOT
ATOM      1  C   UNL A   1      34.043  27.562  25.698  1.00  0.00     0.042 C 
ENDROOT
BRANCH   1   2
ATOM      2  C   UNL A   1      33.133  27.899  24.512  1.00  0.00     0.117 C 
BRANCH   2   3
ATOM      3  N   UNL A   1      33.604  27.409  23.224  1.00  0.00    -0.355 N 
ATOM      4  C   UNL A   1      33.192  26.356  22.451  1.00  0.00     0.235 C 
ATOM      5  O   UNL A   1      33.561  26.350  21.275  1.00  0.00    -0.274 OA
ATOM      6  H   UNL A   1      34.349  27.926  22.840  1.00  0.00     0.163 HD
BRANCH   4   7
ATOM      7  C   UNL A   1      32.302  25.254  23.018  1.00  0.00     0.202 C 
BRANCH   7   8
ATOM      8  N   UNL A   1      32.965  23.943  23.310  1.00  0.00    -0.192 NA
ATOM      9  C   UNL A   1      32.888  23.012  22.179  1.00  0.00     0.125 C 
BRANCH   8  10
ATOM     10  S   UNL A   1      32.521  23.287  24.824  1.00  0.00     0.243 S 
ATOM     11  O   UNL A   1      31.097  23.018  24.744  1.00  0.00    -0.207 OA
ATOM     12  O   UNL A   1      33.078  24.123  25.860  1.00  0.00    -0.207 OA
BRANCH  10  13
ATOM     13  C   UNL A   1      33.338  21.696  24.921  1.00  0.00     0.089 A 
ATOM     14  C   UNL A   1      35.736  22.645  24.843  1.00  0.00     0.046 C 
ATOM     15  C   UNL A   1      34.736  21.523  24.866  1.00  0.00    -0.029 A 
ATOM     16  C   UNL A   1      35.238  20.207  24.780  1.00  0.00     0.035 A 
ATOM     17  C   UNL A   1      34.381  19.103  24.830  1.00  0.00     0.084 A 
ATOM     18  C   UNL A   1      32.488  20.578  24.983  1.00  0.00     0.070 A 
ATOM     19  C   UNL A   1      33.007  19.289  24.950  1.00  0.00     0.144 A 
ATOM     20  N   UNL A   1      34.915  17.816  24.812  1.00  0.00    -0.320 N 
ATOM     21  O   UNL A   1      32.101  18.275  25.071  1.00  0.00    -0.482 OA
ATOM     22  C   UNL A   1      34.119  16.709  24.898  1.00  0.00     0.262 C 
ATOM     23  H   UNL A   1      35.889  17.702  24.735  1.00  0.00     0.170 HD
ATOM     24  C   UNL A   1      32.616  16.974  24.827  1.00  0.00     0.329 C 
ATOM     25  O   UNL A   1      34.594  15.580  24.995  1.00  0.00    -0.271 OA
ENDBRANCH  10  13
ENDBRANCH   8  10
ENDBRANCH   7   8
ENDBRANCH   4   7
ENDBRANCH   2   3
ENDBRANCH   1   2
BRANCH   1  26
ATOM     26  C   UNL A   1      33.463  27.899  27.068  1.00  0.00     0.118 C 
BRANCH  26  27
ATOM     27  N   UNL A   1      33.331  29.336  27.243  1.00  0.00    -0.352 N 
ATOM     28  C   UNL A   1      34.189  30.246  27.814  1.00  0.00     0.251 C 
ATOM     29  H   UNL A   1      32.492  29.719  26.896  1.00  0.00     0.163 HD
ATOM     30  O   UNL A   1      33.752  31.352  28.123  1.00  0.00    -0.269 OA
BRANCH  28  31
ATOM     31  C   UNL A   1      35.614  29.917  28.077  1.00  0.00     0.039 A 
ATOM     32  C   UNL A   1      36.599  30.072  27.101  1.00  0.00     0.014 A 
ATOM     33  C   UNL A   1      35.988  29.531  29.371  1.00  0.00     0.014 A 
ATOM     34  C   UNL A   1      37.924  29.724  27.377  1.00  0.00     0.010 A 
ATOM     35  C   UNL A   1      37.330  29.257  29.669  1.00  0.00     0.010 A 
ATOM     36  C   UNL A   1      38.310  29.326  28.667  1.00  0.00    -0.014 A 
BRANCH  36  37
ATOM     37  C   UNL A   1      39.739  29.013  28.955  1.00  0.00     0.031 A 
ATOM     38  C   UNL A   1      40.613  30.002  29.685  1.00  0.00     0.074 A 
ATOM     39  C   UNL A   1      40.245  27.815  28.597  1.00  0.00     0.049 A 
ATOM     40  N   UNL A   1      41.879  29.904  30.005  1.00  0.00    -0.248 NA
ATOM     41  C   UNL A   1      39.984  31.262  30.111  1.00  0.00     0.031 C 
ATOM     42  C   UNL A   1      39.505  26.760  27.899  1.00  0.00     0.029 A 
ATOM     43  N   UNL A   1      41.491  27.269  28.790  1.00  0.00    -0.354 N 
ATOM     44  C   UNL A   1      42.200  31.087  30.663  1.00  0.00     0.074 A 
ATOM     45  C   UNL A   1      41.005  31.902  30.667  1.00  0.00     0.031 C 
ATOM     46  C   UNL A   1      40.289  25.677  27.778  1.00  0.00     0.029 A 
ATOM     47  C   UNL A   1      41.606  25.978  28.330  1.00  0.00     0.049 A 
ATOM     48  H   UNL A   1      42.232  27.756  29.219  1.00  0.00     0.167 HD
ATOM     49  C   UNL A   1      43.377  31.452  31.227  1.00  0.00     0.037 A 
ATOM     50  C   UNL A   1      42.655  25.131  28.339  1.00  0.00     0.037 A 
ATOM     51  C   UNL A   1      44.566  30.638  31.234  1.00  0.00     0.049 A 
ATOM     52  C   UNL A   1      43.966  25.587  28.917  1.00  0.00     0.074 A 
ATOM     53  C   UNL A   1      45.811  30.938  31.761  1.00  0.00     0.029 A 
ATOM     54  N   UNL A   1      44.656  29.360  30.704  1.00  0.00    -0.354 N 
ATOM     55  N   UNL A   1      44.258  26.724  29.499  1.00  0.00    -0.248 NA
ATOM     56  C   UNL A   1      45.094  24.650  28.825  1.00  0.00     0.031 C 
ATOM     57  C   UNL A   1      46.661  29.852  31.527  1.00  0.00     0.029 A 
ATOM     58  C   UNL A   1      45.935  28.861  30.887  1.00  0.00     0.049 A 
ATOM     59  H   UNL A   1      43.919  28.879  30.262  1.00  0.00     0.167 HD
ATOM     60  C   UNL A   1      45.598  26.634  29.856  1.00  0.00     0.074 A 
ATOM     61  C   UNL A   1      46.056  25.325  29.439  1.00  0.00     0.031 C 
ATOM     62  C   UNL A   1      46.378  27.554  30.473  1.00  0.00     0.037 A 
BRANCH  49  63
ATOM     63  C   UNL A   1      43.445  32.796  31.898  1.00  0.00     0.058 A 
ATOM     64  C   UNL A   1      43.710  33.963  31.165  1.00  0.00     0.135 A 
ATOM     65  C   UNL A   1      43.176  32.929  33.269  1.00  0.00     0.135 A 
ATOM     66  F   UNL A   1      43.997  33.891  29.855  1.00  0.00    -0.206 F 
ATOM     67  C   UNL A   1      43.718  35.215  31.771  1.00  0.00     0.059 A 
ATOM     68  C   UNL A   1      43.159  34.174  33.893  1.00  0.00     0.059 A 
ATOM     69  F   UNL A   1      42.918  31.844  34.016  1.00  0.00    -0.206 F 
ATOM     70  C   UNL A   1      43.440  35.311  33.136  1.00  0.00     0.060 A 
BRANCH  70  71
ATOM     71  S   UNL A   1      43.455  36.946  33.901  1.00  0.00     0.124 S 
ATOM     72  O   UNL A   1      43.560  37.811  32.729  1.00  0.00    -0.237 OA
ATOM     73  O   UNL A   1      42.173  36.977  34.595  1.00  0.00    -0.237 OA
ATOM     74  O   UNL A   1      44.634  36.910  34.760  1.00  0.00    -0.744 OA
ENDBRANCH  70  71
ENDBRANCH  49  63
BRANCH  50  75
ATOM     75  C   UNL A   1      42.511  23.759  27.782  1.00  0.00     0.058 A 
ATOM     76  C   UNL A   1      42.540  23.541  26.397  1.00  0.00     0.135 A 
ATOM     77  C   UNL A   1      42.346  22.646  28.619  1.00  0.00     0.135 A 
ATOM     78  F   UNL A   1      42.685  24.577  25.557  1.00  0.00    -0.206 F 
ATOM     79  C   UNL A   1      42.397  22.266  25.858  1.00  0.00     0.059 A 
ATOM     80  C   UNL A   1      42.226  21.358  28.105  1.00  0.00     0.059 A 
ATOM     81  F   UNL A   1      42.324  22.801  29.952  1.00  0.00    -0.206 F 
ATOM     82  C   UNL A   1      42.241  21.180  26.722  1.00  0.00     0.060 A 
BRANCH  82  83
ATOM     83  S   UNL A   1      42.101  19.523  26.016  1.00  0.00     0.124 S 
ATOM     84  O   UNL A   1      42.618  18.698  27.102  1.00  0.00    -0.237 OA
ATOM     85  O   UNL A   1      40.669  19.418  25.759  1.00  0.00    -0.237 OA
ATOM     86  O   UNL A   1      42.941  19.597  24.823  1.00  0.00    -0.744 OA
ENDBRANCH  82  83
ENDBRANCH  50  75
BRANCH  62  87
ATOM     87  C   UNL A   1      47.804  27.175  30.756  1.00  0.00     0.058 A 
ATOM     88  C   UNL A   1      48.163  26.500  31.931  1.00  0.00     0.135 A 
ATOM     89  C   UNL A   1      48.811  27.444  29.815  1.00  0.00     0.135 A 
ATOM     90  F   UNL A   1      47.237  26.227  32.863  1.00  0.00    -0.206 F 
ATOM     91  C   UNL A   1      49.477  26.116  32.173  1.00  0.00     0.059 A 
ATOM     92  C   UNL A   1      50.129  27.050  30.027  1.00  0.00     0.059 A 
ATOM     93  F   UNL A   1      48.516  28.082  28.672  1.00  0.00    -0.206 F 
ATOM     94  C   UNL A   1      50.454  26.392  31.213  1.00  0.00     0.060 A 
BRANCH  94  95
ATOM     95  S   UNL A   1      52.149  25.852  31.523  1.00  0.00     0.124 S 
ATOM     96  O   UNL A   1      52.745  25.982  30.198  1.00  0.00    -0.237 OA
ATOM     97  O   UNL A   1      52.605  26.814  32.521  1.00  0.00    -0.237 OA
ATOM     98  O   UNL A   1      51.985  24.484  32.008  1.00  0.00    -0.744 OA
ENDBRANCH  94  95
ENDBRANCH  62  87
ENDBRANCH  36  37
ENDBRANCH  28  31
ENDBRANCH  26  27
ENDBRANCH   1  26
TORSDOF 16
ENDMDL
MODEL 2
REMARK VINA RESULT:     -11.7      4.642     10.767
REMARK SMILES Cc1cc2c(cc1S(=O)(=O)N(C)CC(=O)NCCCNC(=O)c1ccc(-c3c4nc(c(-c5c(F)cc(S(=O)(=O)[O-])cc5F)c5ccc([nH]5)c(-c5c(F)cc(S(=O)(=O)[O-])cc5F)c5nc(c(-c6c(F)cc(S(=O)(=O)[O-])cc6F)c6ccc3[nH]6)C=C5)C=C4)cc1)OCC(=O)N2
REMARK SMILES IDX 18 1 17 2 16 3 14 4 15 5 13 7 11 8 12 9 8 10 9 11 10 12 7 13
REMARK SMILES IDX 1 14 2 15 3 16 4 17 6 18 5 19 93 20 89 21 91 22 90 24 92 25
REMARK SMILES IDX 19 26 20 27 21 28 22 30 23 31 24 32 88 33 25 34 87 35 26 36
REMARK SMILES IDX 27 37 28 38 81 39 29 40 86 41 80 42 82 43 30 44 85 45 79 46
REMARK SMILES IDX 78 47 31 49 65 50 44 51 64 52 45 53 48 54 63 55 83 56 46 57
REMARK SMILES IDX 47 58 62 60 84 61 49 62 32 63 33 64 42 65 34 66 35 67 41 68
REMARK SMILES IDX 43 69 36 70 37 71 38 72 39 73 40 74 66 75 67 76 76 77 68 78
REMARK SMILES IDX 69 79 75 80 77 81 70 82 71 83 72 84 73 85 74 86 50 87 51 88
REMARK SMILES IDX 60 89 52 90 53 91 59 92 61 93 54 94 55 95 56 96 57 97 58 98
REMARK H PARENT 16 6 93 23 20 29 82 48 48 59
REMARK Flexibility Score: inf
ROOT
ATOM      1  C   UNL A   1      37.244  23.048  25.563  1.00  0.00     0.042 C 
ENDROOT
BRANCH   1   2
ATOM      2  C   UNL A   1      35.808  23.486  25.258  1.00  0.00     0.117 C 
BRANCH   2   3
ATOM      3  N   UNL A   1      34.892  23.404  26.387  1.00  0.00    -0.355 N 
ATOM      4  C   UNL A   1      33.528  23.288  26.438  1.00  0.00     0.235 C 
ATOM      5  O   UNL A   1      33.039  22.939  27.514  1.00  0.00    -0.274 OA
ATOM      6  H   UNL A   1      35.329  23.437  27.268  1.00  0.00     0.163 HD
BRANCH   4   7
ATOM      7  C   UNL A   1      32.660  23.561  25.213  1.00  0.00     0.202 C 
BRANCH   7   8
ATOM      8  N   UNL A   1      32.082  24.938  25.096  1.00  0.00    -0.192 NA
ATOM      9  C   UNL A   1      30.723  25.023  25.643  1.00  0.00     0.125 C 
BRANCH   8  10
ATOM     10  S   UNL A   1      32.286  25.625  23.545  1.00  0.00     0.243 S 
ATOM     11  O   UNL A   1      31.412  24.880  22.658  1.00  0.00    -0.207 OA
ATOM     12  O   UNL A   1      33.700  25.749  23.288  1.00  0.00    -0.207 OA
BRANCH  10  13
ATOM     13  C   UNL A   1      31.612  27.281  23.656  1.00  0.00     0.089 A 
ATOM     14  C   UNL A   1      33.284  28.107  25.439  1.00  0.00     0.046 C 
ATOM     15  C   UNL A   1      32.083  28.265  24.549  1.00  0.00    -0.029 A 
ATOM     16  C   UNL A   1      31.353  29.468  24.653  1.00  0.00     0.035 A 
ATOM     17  C   UNL A   1      30.244  29.712  23.838  1.00  0.00     0.084 A 
ATOM     18  C   UNL A   1      30.503  27.542  22.833  1.00  0.00     0.070 A 
ATOM     19  C   UNL A   1      29.830  28.756  22.915  1.00  0.00     0.144 A 
ATOM     20  N   UNL A   1      29.587  30.938  23.919  1.00  0.00    -0.320 N 
ATOM     21  O   UNL A   1      28.801  28.931  22.035  1.00  0.00    -0.482 OA
ATOM     22  C   UNL A   1      28.522  31.235  23.114  1.00  0.00     0.262 C 
ATOM     23  H   UNL A   1      29.896  31.606  24.571  1.00  0.00     0.170 HD
ATOM     24  C   UNL A   1      27.996  30.077  22.268  1.00  0.00     0.329 C 
ATOM     25  O   UNL A   1      28.015  32.354  23.106  1.00  0.00    -0.271 OA
ENDBRANCH  10  13
ENDBRANCH   8  10
ENDBRANCH   7   8
ENDBRANCH   4   7
ENDBRANCH   2   3
ENDBRANCH   1   2
BRANCH   1  26
ATOM     26  C   UNL A   1      38.077  24.068  26.333  1.00  0.00     0.118 C 
BRANCH  26  27
ATOM     27  N   UNL A   1      39.498  23.853  26.120  1.00  0.00    -0.352 N 
ATOM     28  C   UNL A   1      40.583  24.576  26.557  1.00  0.00     0.251 C 
ATOM     29  H   UNL A   1      39.720  23.062  25.576  1.00  0.00     0.163 HD
ATOM     30  O   UNL A   1      41.670  24.389  26.015  1.00  0.00    -0.269 OA
BRANCH  28  31
ATOM     31  C   UNL A   1      40.466  25.580  27.645  1.00  0.00     0.039 A 
ATOM     32  C   UNL A   1      39.448  25.520  28.598  1.00  0.00     0.014 A 
ATOM     33  C   UNL A   1      41.461  26.559  27.769  1.00  0.00     0.014 A 
ATOM     34  C   UNL A   1      39.353  26.499  29.589  1.00  0.00     0.010 A 
ATOM     35  C   UNL A   1      41.409  27.495  28.811  1.00  0.00     0.010 A 
ATOM     36  C   UNL A   1      40.338  27.491  29.718  1.00  0.00    -0.014 A 
BRANCH  36  37
ATOM     37  C   UNL A   1      40.249  28.494  30.818  1.00  0.00     0.031 A 
ATOM     38  C   UNL A   1      41.211  28.454  31.978  1.00  0.00     0.074 A 
ATOM     39  C   UNL A   1      39.325  29.475  30.753  1.00  0.00     0.049 A 
ATOM     40  N   UNL A   1      41.269  29.234  33.029  1.00  0.00    -0.248 NA
ATOM     41  C   UNL A   1      42.241  27.403  31.958  1.00  0.00     0.031 C 
ATOM     42  C   UNL A   1      38.342  29.640  29.678  1.00  0.00     0.029 A 
ATOM     43  N   UNL A   1      39.073  30.533  31.592  1.00  0.00    -0.354 N 
ATOM     44  C   UNL A   1      42.332  28.769  33.794  1.00  0.00     0.074 A 
ATOM     45  C   UNL A   1      42.872  27.616  33.105  1.00  0.00     0.031 C 
ATOM     46  C   UNL A   1      37.639  30.763  29.891  1.00  0.00     0.029 A 
ATOM     47  C   UNL A   1      38.072  31.366  31.147  1.00  0.00     0.049 A 
ATOM     48  H   UNL A   1      39.563  30.682  32.433  1.00  0.00     0.167 HD
ATOM     49  C   UNL A   1      42.825  29.265  34.954  1.00  0.00     0.037 A 
ATOM     50  C   UNL A   1      37.552  32.484  31.691  1.00  0.00     0.037 A 
ATOM     51  C   UNL A   1      42.298  30.419  35.637  1.00  0.00     0.049 A 
ATOM     52  C   UNL A   1      38.079  32.977  33.010  1.00  0.00     0.074 A 
ATOM     53  C   UNL A   1      42.719  30.980  36.832  1.00  0.00     0.029 A 
ATOM     54  N   UNL A   1      41.245  31.198  35.183  1.00  0.00    -0.354 N 
ATOM     55  N   UNL A   1      39.060  32.497  33.736  1.00  0.00    -0.248 NA
ATOM     56  C   UNL A   1      37.417  34.152  33.592  1.00  0.00     0.031 C 
ATOM     57  C   UNL A   1      41.906  32.082  37.112  1.00  0.00     0.029 A 
ATOM     58  C   UNL A   1      41.000  32.230  36.074  1.00  0.00     0.049 A 
ATOM     59  H   UNL A   1      40.745  31.041  34.349  1.00  0.00     0.167 HD
ATOM     60  C   UNL A   1      39.143  33.322  34.851  1.00  0.00     0.074 A 
ATOM     61  C   UNL A   1      38.123  34.340  34.699  1.00  0.00     0.031 C 
ATOM     62  C   UNL A   1      39.988  33.241  35.908  1.00  0.00     0.037 A 
BRANCH  49  63
ATOM     63  C   UNL A   1      44.009  28.569  35.567  1.00  0.00     0.058 A 
ATOM     64  C   UNL A   1      43.842  27.514  36.477  1.00  0.00     0.135 A 
ATOM     65  C   UNL A   1      45.317  28.912  35.193  1.00  0.00     0.135 A 
ATOM     66  F   UNL A   1      42.614  27.160  36.887  1.00  0.00    -0.206 F 
ATOM     67  C   UNL A   1      44.933  26.830  37.003  1.00  0.00     0.059 A 
ATOM     68  C   UNL A   1      46.423  28.229  35.692  1.00  0.00     0.059 A 
ATOM     69  F   UNL A   1      45.532  29.916  34.327  1.00  0.00    -0.206 F 
ATOM     70  C   UNL A   1      46.220  27.194  36.603  1.00  0.00     0.060 A 
BRANCH  70  71
ATOM     71  S   UNL A   1      47.621  26.291  37.300  1.00  0.00     0.124 S 
ATOM     72  O   UNL A   1      47.329  24.928  36.866  1.00  0.00    -0.237 OA
ATOM     73  O   UNL A   1      48.758  26.931  36.648  1.00  0.00    -0.237 OA
ATOM     74  O   UNL A   1      47.503  26.532  38.734  1.00  0.00    -0.744 OA
ENDBRANCH  70  71
ENDBRANCH  49  63
BRANCH  50  75
ATOM     75  C   UNL A   1      36.468  33.221  30.988  1.00  0.00     0.058 A 
ATOM     76  C   UNL A   1      36.746  33.993  29.852  1.00  0.00     0.135 A 
ATOM     77  C   UNL A   1      35.139  33.166  31.435  1.00  0.00     0.135 A 
ATOM     78  F   UNL A   1      38.004  34.083  29.393  1.00  0.00    -0.206 F 
ATOM     79  C   UNL A   1      35.747  34.698  29.187  1.00  0.00     0.059 A 
ATOM     80  C   UNL A   1      34.119  33.842  30.773  1.00  0.00     0.059 A 
ATOM     81  F   UNL A   1      34.820  32.432  32.512  1.00  0.00    -0.206 F 
ATOM     82  C   UNL A   1      34.435  34.614  29.656  1.00  0.00     0.060 A 
BRANCH  82  83
ATOM     83  S   UNL A   1      33.136  35.495  28.762  1.00  0.00     0.124 S 
ATOM     84  O   UNL A   1      33.915  36.452  27.984  1.00  0.00    -0.237 OA
ATOM     85  O   UNL A   1      32.501  34.422  28.004  1.00  0.00    -0.237 OA
ATOM     86  O   UNL A   1      32.321  36.064  29.832  1.00  0.00    -0.744 OA
ENDBRANCH  82  83
ENDBRANCH  50  75
BRANCH  62  87
ATOM     87  C   UNL A   1      39.864  34.291  36.975  1.00  0.00     0.058 A 
ATOM     88  C   UNL A   1      40.514  35.528  36.864  1.00  0.00     0.135 A 
ATOM     89  C   UNL A   1      39.042  34.076  38.093  1.00  0.00     0.135 A 
ATOM     90  F   UNL A   1      41.317  35.778  35.818  1.00  0.00    -0.206 F 
ATOM     91  C   UNL A   1      40.368  36.513  37.835  1.00  0.00     0.059 A 
ATOM     92  C   UNL A   1      38.864  35.055  39.065  1.00  0.00     0.059 A 
ATOM     93  F   UNL A   1      38.393  32.910  38.240  1.00  0.00    -0.206 F 
ATOM     94  C   UNL A   1      39.537  36.269  38.931  1.00  0.00     0.060 A 
BRANCH  94  95
ATOM     95  S   UNL A   1      39.325  37.573  40.162  1.00  0.00     0.124 S 
ATOM     96  O   UNL A   1      38.993  36.800  41.354  1.00  0.00    -0.237 OA
ATOM     97  O   UNL A   1      40.635  38.214  40.166  1.00  0.00    -0.237 OA
ATOM     98  O   UNL A   1      38.239  38.382  39.615  1.00  0.00    -0.744 OA
ENDBRANCH  94  95
ENDBRANCH  62  87
ENDBRANCH  36  37
ENDBRANCH  28  31
ENDBRANCH  26  27
ENDBRANCH   1  26
TORSDOF 16
ENDMDL
MODEL 3
REMARK VINA RESULT:     -11.7      2.826      3.515
REMARK SMILES Cc1cc2c(cc1S(=O)(=O)N(C)CC(=O)NCCCNC(=O)c1ccc(-c3c4nc(c(-c5c(F)cc(S(=O)(=O)[O-])cc5F)c5ccc([nH]5)c(-c5c(F)cc(S(=O)(=O)[O-])cc5F)c5nc(c(-c6c(F)cc(S(=O)(=O)[O-])cc6F)c6ccc3[nH]6)C=C5)C=C4)cc1)OCC(=O)N2
REMARK SMILES IDX 18 1 17 2 16 3 14 4 15 5 13 7 11 8 12 9 8 10 9 11 10 12 7 13
REMARK SMILES IDX 1 14 2 15 3 16 4 17 6 18 5 19 93 20 89 21 91 22 90 24 92 25
REMARK SMILES IDX 19 26 20 27 21 28 22 30 23 31 24 32 88 33 25 34 87 35 26 36
REMARK SMILES IDX 27 37 28 38 81 39 29 40 86 41 80 42 82 43 30 44 85 45 79 46
REMARK SMILES IDX 78 47 31 49 65 50 44 51 64 52 45 53 48 54 63 55 83 56 46 57
REMARK SMILES IDX 47 58 62 60 84 61 49 62 32 63 33 64 42 65 34 66 35 67 41 68
REMARK SMILES IDX 43 69 36 70 37 71 38 72 39 73 40 74 66 75 67 76 76 77 68 78
REMARK SMILES IDX 69 79 75 80 77 81 70 82 71 83 72 84 73 85 74 86 50 87 51 88
REMARK SMILES IDX 60 89 52 90 53 91 59 92 61 93 54 94 55 95 56 96 57 97 58 98
REMARK H PARENT 16 6 93 23 20 29 82 48 48 59
REMARK Flexibility Score: inf
ROOT
ATOM      1  C   UNL A   1      33.618  29.468  26.896  1.00  0.00     0.042 C 
ENDROOT
BRANCH   1   2
ATOM      2  C   UNL A   1      33.037  28.201  26.259  1.00  0.00     0.117 C 
BRANCH   2   3
ATOM      3  N   UNL A   1      33.607  27.852  24.965  1.00  0.00    -0.355 N 
ATOM      4  C   UNL A   1      33.220  26.935  24.025  1.00  0.00     0.235 C 
ATOM      5  O   UNL A   1      33.703  27.056  22.897  1.00  0.00    -0.274 OA
ATOM      6  H   UNL A   1      34.411  28.366  24.724  1.00  0.00     0.163 HD
BRANCH   4   7
ATOM      7  C   UNL A   1      32.224  25.828  24.355  1.00  0.00     0.202 C 
BRANCH   7   8
ATOM      8  N   UNL A   1      32.730  24.421  24.262  1.00  0.00    -0.192 NA
ATOM      9  C   UNL A   1      32.478  23.821  22.948  1.00  0.00     0.125 C 
BRANCH   8  10
ATOM     10  S   UNL A   1      32.288  23.456  25.601  1.00  0.00     0.243 S 
ATOM     11  O   UNL A   1      30.880  23.148  25.426  1.00  0.00    -0.207 OA
ATOM     12  O   UNL A   1      32.782  24.090  26.798  1.00  0.00    -0.207 OA
BRANCH  10  13
ATOM     13  C   UNL A   1      33.177  21.914  25.401  1.00  0.00     0.089 A 
ATOM     14  C   UNL A   1      35.527  22.979  25.448  1.00  0.00     0.046 C 
ATOM     15  C   UNL A   1      34.580  21.822  25.292  1.00  0.00    -0.029 A 
ATOM     16  C   UNL A   1      35.138  20.567  24.967  1.00  0.00     0.035 A 
ATOM     17  C   UNL A   1      34.333  19.432  24.838  1.00  0.00     0.084 A 
ATOM     18  C   UNL A   1      32.380  20.763  25.281  1.00  0.00     0.070 A 
ATOM     19  C   UNL A   1      32.955  19.526  25.012  1.00  0.00     0.144 A 
ATOM     20  N   UNL A   1      34.923  18.195  24.584  1.00  0.00    -0.320 N 
ATOM     21  O   UNL A   1      32.100  18.463  24.970  1.00  0.00    -0.482 OA
ATOM     22  C   UNL A   1      34.180  17.052  24.488  1.00  0.00     0.262 C 
ATOM     23  H   UNL A   1      35.899  18.143  24.470  1.00  0.00     0.170 HD
ATOM     24  C   UNL A   1      32.665  17.252  24.492  1.00  0.00     0.329 C 
ATOM     25  O   UNL A   1      34.708  15.949  24.377  1.00  0.00    -0.271 OA
ENDBRANCH  10  13
ENDBRANCH   8  10
ENDBRANCH   7   8
ENDBRANCH   4   7
ENDBRANCH   2   3
ENDBRANCH   1   2
BRANCH   1  26
ATOM     26  C   UNL A   1      34.986  29.290  27.546  1.00  0.00     0.118 C 
BRANCH  26  27
ATOM     27  N   UNL A   1      35.095  30.076  28.764  1.00  0.00    -0.352 N 
ATOM     28  C   UNL A   1      36.150  30.233  29.631  1.00  0.00     0.251 C 
ATOM     29  H   UNL A   1      34.282  30.576  29.007  1.00  0.00     0.163 HD
ATOM     30  O   UNL A   1      35.929  30.699  30.746  1.00  0.00    -0.269 OA
BRANCH  28  31
ATOM     31  C   UNL A   1      37.533  29.839  29.258  1.00  0.00     0.039 A 
ATOM     32  C   UNL A   1      37.993  29.918  27.942  1.00  0.00     0.014 A 
ATOM     33  C   UNL A   1      38.425  29.468  30.272  1.00  0.00     0.014 A 
ATOM     34  C   UNL A   1      39.291  29.511  27.624  1.00  0.00     0.010 A 
ATOM     35  C   UNL A   1      39.751  29.135  29.963  1.00  0.00     0.010 A 
ATOM     36  C   UNL A   1      40.191  29.127  28.631  1.00  0.00    -0.014 A 
BRANCH  36  37
ATOM     37  C   UNL A   1      41.590  28.749  28.278  1.00  0.00     0.031 A 
ATOM     38  C   UNL A   1      42.706  29.760  28.362  1.00  0.00     0.074 A 
ATOM     39  C   UNL A   1      41.868  27.479  27.920  1.00  0.00     0.049 A 
ATOM     40  N   UNL A   1      43.976  29.611  28.077  1.00  0.00    -0.248 NA
ATOM     41  C   UNL A   1      42.352  31.111  28.826  1.00  0.00     0.031 C 
ATOM     42  C   UNL A   1      40.884  26.397  27.813  1.00  0.00     0.029 A 
ATOM     43  N   UNL A   1      43.058  26.872  27.603  1.00  0.00    -0.354 N 
ATOM     44  C   UNL A   1      44.570  30.845  28.320  1.00  0.00     0.074 A 
ATOM     45  C   UNL A   1      43.517  31.741  28.745  1.00  0.00     0.031 C 
ATOM     46  C   UNL A   1      41.519  25.252  27.516  1.00  0.00     0.029 A 
ATOM     47  C   UNL A   1      42.942  25.524  27.349  1.00  0.00     0.049 A 
ATOM     48  H   UNL A   1      43.915  27.355  27.563  1.00  0.00     0.167 HD
ATOM     49  C   UNL A   1      45.875  31.194  28.218  1.00  0.00     0.037 A 
ATOM     50  C   UNL A   1      43.872  24.610  27.009  1.00  0.00     0.037 A 
ATOM     51  C   UNL A   1      46.928  30.301  27.806  1.00  0.00     0.049 A 
ATOM     52  C   UNL A   1      45.303  25.040  26.843  1.00  0.00     0.074 A 
ATOM     53  C   UNL A   1      48.277  30.575  27.651  1.00  0.00     0.029 A 
ATOM     54  N   UNL A   1      46.758  28.959  27.500  1.00  0.00    -0.354 N 
ATOM     55  N   UNL A   1      45.836  26.221  27.041  1.00  0.00    -0.248 NA
ATOM     56  C   UNL A   1      46.256  24.017  26.391  1.00  0.00     0.031 C 
ATOM     57  C   UNL A   1      48.918  29.406  27.226  1.00  0.00     0.029 A 
ATOM     58  C   UNL A   1      47.974  28.394  27.152  1.00  0.00     0.049 A 
ATOM     59  H   UNL A   1      45.898  28.479  27.527  1.00  0.00     0.167 HD
ATOM     60  C   UNL A   1      47.188  26.079  26.754  1.00  0.00     0.074 A 
ATOM     61  C   UNL A   1      47.396  24.694  26.383  1.00  0.00     0.031 C 
ATOM     62  C   UNL A   1      48.169  27.014  26.792  1.00  0.00     0.037 A 
BRANCH  49  63
ATOM     63  C   UNL A   1      46.252  32.608  28.564  1.00  0.00     0.058 A 
ATOM     64  C   UNL A   1      46.652  32.958  29.862  1.00  0.00     0.135 A 
ATOM     65  C   UNL A   1      46.279  33.606  27.577  1.00  0.00     0.135 A 
ATOM     66  F   UNL A   1      46.622  32.048  30.849  1.00  0.00    -0.206 F 
ATOM     67  C   UNL A   1      47.056  34.252  30.174  1.00  0.00     0.059 A 
ATOM     68  C   UNL A   1      46.698  34.903  27.861  1.00  0.00     0.059 A 
ATOM     69  F   UNL A   1      45.904  33.324  26.319  1.00  0.00    -0.206 F 
ATOM     70  C   UNL A   1      47.077  35.218  29.166  1.00  0.00     0.060 A 
BRANCH  70  71
ATOM     71  S   UNL A   1      47.605  36.891  29.593  1.00  0.00     0.124 S 
ATOM     72  O   UNL A   1      46.320  37.562  29.769  1.00  0.00    -0.237 OA
ATOM     73  O   UNL A   1      48.375  36.672  30.812  1.00  0.00    -0.237 OA
ATOM     74  O   UNL A   1      48.378  37.313  28.430  1.00  0.00    -0.744 OA
ENDBRANCH  70  71
ENDBRANCH  49  63
BRANCH  50  75
ATOM     75  C   UNL A   1      43.482  23.190  26.802  1.00  0.00     0.058 A 
ATOM     76  C   UNL A   1      43.459  22.633  25.515  1.00  0.00     0.135 A 
ATOM     77  C   UNL A   1      43.128  22.365  27.880  1.00  0.00     0.135 A 
ATOM     78  F   UNL A   1      43.781  23.386  24.452  1.00  0.00    -0.206 F 
ATOM     79  C   UNL A   1      43.087  21.309  25.301  1.00  0.00     0.059 A 
ATOM     80  C   UNL A   1      42.776  21.032  27.694  1.00  0.00     0.059 A 
ATOM     81  F   UNL A   1      43.144  22.849  29.132  1.00  0.00    -0.206 F 
ATOM     82  C   UNL A   1      42.748  20.517  26.399  1.00  0.00     0.060 A 
BRANCH  82  83
ATOM     83  S   UNL A   1      42.309  18.787  26.118  1.00  0.00     0.124 S 
ATOM     84  O   UNL A   1      43.221  18.426  25.038  1.00  0.00    -0.237 OA
ATOM     85  O   UNL A   1      42.586  18.184  27.417  1.00  0.00    -0.237 OA
ATOM     86  O   UNL A   1      40.896  18.856  25.755  1.00  0.00    -0.744 OA
ENDBRANCH  82  83
ENDBRANCH  50  75
BRANCH  62  87
ATOM     87  C   UNL A   1      49.562  26.570  26.445  1.00  0.00     0.058 A 
ATOM     88  C   UNL A   1      50.392  25.953  27.392  1.00  0.00     0.135 A 
ATOM     89  C   UNL A   1      50.050  26.716  25.137  1.00  0.00     0.135 A 
ATOM     90  F   UNL A   1      49.972  25.799  28.658  1.00  0.00    -0.206 F 
ATOM     91  C   UNL A   1      51.666  25.509  27.059  1.00  0.00     0.059 A 
ATOM     92  C   UNL A   1      51.314  26.259  24.776  1.00  0.00     0.059 A 
ATOM     93  F   UNL A   1      49.290  27.294  24.192  1.00  0.00    -0.206 F 
ATOM     94  C   UNL A   1      52.118  25.663  25.747  1.00  0.00     0.060 A 
BRANCH  94  95
ATOM     95  S   UNL A   1      53.759  25.044  25.319  1.00  0.00     0.124 S 
ATOM     96  O   UNL A   1      53.984  25.679  24.025  1.00  0.00    -0.237 OA
ATOM     97  O   UNL A   1      54.577  25.542  26.420  1.00  0.00    -0.237 OA
ATOM     98  O   UNL A   1      53.578  23.596  25.285  1.00  0.00    -0.744 OA
ENDBRANCH  94  95
ENDBRANCH  62  87
ENDBRANCH  36  37
ENDBRANCH  28  31
ENDBRANCH  26  27
ENDBRANCH   1  26
TORSDOF 16
ENDMDL
