MODEL 1
REMARK VINA RESULT:     -13.0      0.000      0.000
REMARK SMILES O=C(NCCCNC(=O)[C@H](CC1=c2ccccc2=NC1)NC(=O)c1ccc(N2CCCCC2=O)cc1)c1ccc(-c2c3nc(c(-c4c(F)cc(S(=O)(=O)[O-])cc4F)c4ccc([nH]4)c(-c4c(F)cc(S(=O)(=O)[O-])cc4F)c4nc(c(-c5c(F)cc(S(=O)(=O)[O-])cc5F)c5ccc2[nH]5)C=C4)C=C3)cc1
REMARK SMILES IDX 5 1 4 2 3 3 1 4 2 5 37 7 38 8 102 9 39 10 101 11 40 12 41 13
REMARK SMILES IDX 42 14 95 15 43 16 100 17 94 18 96 19 44 20 99 21 93 22 92 23
REMARK SMILES IDX 45 25 79 26 58 27 78 28 59 29 62 30 77 31 97 32 60 33 61 34
REMARK SMILES IDX 76 36 98 37 63 38 46 39 47 40 56 41 48 42 49 43 55 44 57 45
REMARK SMILES IDX 50 46 51 47 52 48 53 49 54 50 80 51 81 52 90 53 82 54 83 55
REMARK SMILES IDX 89 56 91 57 84 58 85 59 86 60 87 61 88 62 64 63 65 64 74 65
REMARK SMILES IDX 66 66 67 67 73 68 75 69 68 70 69 71 70 72 71 73 72 74 6 75
REMARK SMILES IDX 7 76 8 77 9 79 10 80 21 81 22 82 23 84 24 85 25 86 36 87
REMARK SMILES IDX 26 88 35 89 27 90 28 91 29 92 33 93 30 94 32 95 34 96 31 97
REMARK SMILES IDX 11 98 12 99 13 100 20 101 14 102 18 103 19 104 15 105 17 106
REMARK SMILES IDX 16 107
REMARK H PARENT 3 6 96 24 62 35 7 78 21 83
REMARK Flexibility Score: inf
ROOT
ATOM      1  C   UNL A   1      34.631  29.197  27.501  1.00  0.00     0.042 C 
ENDROOT
BRANCH   1   2
ATOM      2  C   UNL A   1      34.999  30.659  27.705  1.00  0.00     0.118 C 
BRANCH   2   3
ATOM      3  N   UNL A   1      35.179  30.984  29.111  1.00  0.00    -0.352 N 
ATOM      4  O   UNL A   1      35.907  30.757  31.211  1.00  0.00    -0.269 OA
ATOM      5  C   UNL A   1      36.130  30.583  30.014  1.00  0.00     0.251 C 
ATOM      6  H   UNL A   1      34.502  31.597  29.477  1.00  0.00     0.163 HD
BRANCH   5   7
ATOM      7  C   UNL A   1      37.406  29.966  29.583  1.00  0.00     0.039 A 
ATOM      8  C   UNL A   1      38.181  29.297  30.537  1.00  0.00     0.014 A 
ATOM      9  C   UNL A   1      37.907  30.138  28.290  1.00  0.00     0.014 A 
ATOM     10  C   UNL A   1      39.446  28.813  30.198  1.00  0.00     0.010 A 
ATOM     11  C   UNL A   1      39.123  29.567  27.924  1.00  0.00     0.010 A 
ATOM     12  C   UNL A   1      39.929  28.950  28.888  1.00  0.00    -0.014 A 
BRANCH  12  13
ATOM     13  C   UNL A   1      41.324  28.583  28.541  1.00  0.00     0.031 A 
ATOM     14  C   UNL A   1      42.404  29.633  28.625  1.00  0.00     0.074 A 
ATOM     15  C   UNL A   1      41.623  27.335  28.138  1.00  0.00     0.049 A 
ATOM     16  N   UNL A   1      43.670  29.545  28.313  1.00  0.00    -0.248 NA
ATOM     17  C   UNL A   1      41.996  30.970  29.091  1.00  0.00     0.031 C 
ATOM     18  C   UNL A   1      40.662  26.241  27.989  1.00  0.00     0.029 A 
ATOM     19  N   UNL A   1      42.824  26.776  27.786  1.00  0.00    -0.354 N 
ATOM     20  C   UNL A   1      44.197  30.816  28.511  1.00  0.00     0.074 A 
ATOM     21  C   UNL A   1      43.105  31.671  28.919  1.00  0.00     0.031 C 
ATOM     22  C   UNL A   1      41.320  25.131  27.615  1.00  0.00     0.029 A 
ATOM     23  C   UNL A   1      42.741  25.442  27.470  1.00  0.00     0.049 A 
ATOM     24  H   UNL A   1      43.668  27.284  27.760  1.00  0.00     0.167 HD
ATOM     25  C   UNL A   1      45.480  31.230  28.399  1.00  0.00     0.037 A 
ATOM     26  C   UNL A   1      43.702  24.569  27.114  1.00  0.00     0.037 A 
ATOM     27  C   UNL A   1      46.576  30.363  28.070  1.00  0.00     0.049 A 
ATOM     28  C   UNL A   1      45.126  25.041  27.015  1.00  0.00     0.074 A 
ATOM     29  C   UNL A   1      47.926  30.660  28.018  1.00  0.00     0.029 A 
ATOM     30  N   UNL A   1      46.445  29.020  27.749  1.00  0.00    -0.354 N 
ATOM     31  N   UNL A   1      45.613  26.237  27.246  1.00  0.00    -0.248 NA
ATOM     32  C   UNL A   1      46.129  24.050  26.601  1.00  0.00     0.031 C 
ATOM     33  C   UNL A   1      48.611  29.500  27.644  1.00  0.00     0.029 A 
ATOM     34  C   UNL A   1      47.690  28.476  27.482  1.00  0.00     0.049 A 
ATOM     35  H   UNL A   1      45.595  28.527  27.716  1.00  0.00     0.167 HD
ATOM     36  C   UNL A   1      46.980  26.142  27.011  1.00  0.00     0.074 A 
ATOM     37  C   UNL A   1      47.245  24.770  26.631  1.00  0.00     0.031 C 
ATOM     38  C   UNL A   1      47.927  27.107  27.100  1.00  0.00     0.037 A 
BRANCH  25  39
ATOM     39  C   UNL A   1      45.757  32.683  28.659  1.00  0.00     0.058 A 
ATOM     40  C   UNL A   1      46.000  33.162  29.956  1.00  0.00     0.135 A 
ATOM     41  C   UNL A   1      45.761  33.610  27.605  1.00  0.00     0.135 A 
ATOM     42  F   UNL A   1      45.989  32.319  31.001  1.00  0.00    -0.206 F 
ATOM     43  C   UNL A   1      46.191  34.517  30.206  1.00  0.00     0.059 A 
ATOM     44  C   UNL A   1      45.973  34.967  27.830  1.00  0.00     0.059 A 
ATOM     45  F   UNL A   1      45.532  33.204  26.346  1.00  0.00    -0.206 F 
ATOM     46  C   UNL A   1      46.164  35.413  29.137  1.00  0.00     0.060 A 
BRANCH  46  47
ATOM     47  S   UNL A   1      46.375  37.174  29.478  1.00  0.00     0.124 S 
ATOM     48  O   UNL A   1      46.758  37.677  28.163  1.00  0.00    -0.237 OA
ATOM     49  O   UNL A   1      45.048  37.568  29.943  1.00  0.00    -0.237 OA
ATOM     50  O   UNL A   1      47.423  37.200  30.492  1.00  0.00    -0.744 OA
ENDBRANCH  46  47
ENDBRANCH  25  39
BRANCH  26  51
ATOM     51  C   UNL A   1      43.343  23.150  26.874  1.00  0.00     0.058 A 
ATOM     52  C   UNL A   1      43.348  22.625  25.574  1.00  0.00     0.135 A 
ATOM     53  C   UNL A   1      43.058  22.277  27.935  1.00  0.00     0.135 A 
ATOM     54  F   UNL A   1      43.611  23.425  24.530  1.00  0.00    -0.206 F 
ATOM     55  C   UNL A   1      43.090  21.280  25.332  1.00  0.00     0.059 A 
ATOM     56  C   UNL A   1      42.810  20.925  27.718  1.00  0.00     0.059 A 
ATOM     57  F   UNL A   1      43.056  22.732  29.196  1.00  0.00    -0.206 F 
ATOM     58  C   UNL A   1      42.830  20.436  26.412  1.00  0.00     0.060 A 
BRANCH  58  59
ATOM     59  S   UNL A   1      42.588  18.674  26.092  1.00  0.00     0.124 S 
ATOM     60  O   UNL A   1      43.515  18.445  24.989  1.00  0.00    -0.237 OA
ATOM     61  O   UNL A   1      42.958  18.076  27.372  1.00  0.00    -0.237 OA
ATOM     62  O   UNL A   1      41.170  18.586  25.755  1.00  0.00    -0.744 OA
ENDBRANCH  58  59
ENDBRANCH  26  51
BRANCH  38  63
ATOM     63  C   UNL A   1      49.339  26.728  26.768  1.00  0.00     0.058 A 
ATOM     64  C   UNL A   1      50.259  26.420  27.781  1.00  0.00     0.135 A 
ATOM     65  C   UNL A   1      49.741  26.559  25.434  1.00  0.00     0.135 A 
ATOM     66  F   UNL A   1      49.921  26.573  29.071  1.00  0.00    -0.206 F 
ATOM     67  C   UNL A   1      51.531  25.947  27.481  1.00  0.00     0.059 A 
ATOM     68  C   UNL A   1      51.003  26.073  25.112  1.00  0.00     0.059 A 
ATOM     69  F   UNL A   1      48.890  26.835  24.432  1.00  0.00    -0.206 F 
ATOM     70  C   UNL A   1      51.890  25.766  26.144  1.00  0.00     0.060 A 
BRANCH  70  71
ATOM     71  S   UNL A   1      53.514  25.068  25.773  1.00  0.00     0.124 S 
ATOM     72  O   UNL A   1      53.162  23.723  25.331  1.00  0.00    -0.237 OA
ATOM     73  O   UNL A   1      54.012  25.967  24.736  1.00  0.00    -0.237 OA
ATOM     74  O   UNL A   1      54.217  25.146  27.050  1.00  0.00    -0.744 OA
ENDBRANCH  70  71
ENDBRANCH  38  63
ENDBRANCH  12  13
ENDBRANCH   5   7
ENDBRANCH   2   3
ENDBRANCH   1   2
BRANCH   1  75
ATOM     75  C   UNL A   1      33.145  28.912  27.669  1.00  0.00     0.117 C 
BRANCH  75  76
ATOM     76  N   UNL A   1      32.309  29.946  27.087  1.00  0.00    -0.354 N 
ATOM     77  C   UNL A   1      31.670  30.011  25.885  1.00  0.00     0.242 C 
ATOM     78  H   UNL A   1      32.182  30.736  27.658  1.00  0.00     0.163 HD
ATOM     79  O   UNL A   1      31.030  31.037  25.633  1.00  0.00    -0.273 OA
BRANCH  77  80
ATOM     80  C   UNL A   1      31.758  28.872  24.857  1.00  0.00     0.175 C 
BRANCH  80  81
ATOM     81  N   UNL A   1      30.517  28.852  24.069  1.00  0.00    -0.340 N 
ATOM     82  C   UNL A   1      29.701  27.796  23.754  1.00  0.00     0.251 C 
ATOM     83  H   UNL A   1      30.229  29.724  23.717  1.00  0.00     0.164 HD
ATOM     84  O   UNL A   1      28.699  27.969  23.066  1.00  0.00    -0.269 OA
BRANCH  82  85
ATOM     85  C   UNL A   1      30.083  26.436  24.164  1.00  0.00     0.039 A 
ATOM     86  C   UNL A   1      30.402  26.137  25.487  1.00  0.00     0.016 A 
ATOM     87  C   UNL A   1      30.192  25.460  23.179  1.00  0.00     0.016 A 
ATOM     88  C   UNL A   1      30.955  24.889  25.796  1.00  0.00     0.027 A 
ATOM     89  C   UNL A   1      30.747  24.220  23.496  1.00  0.00     0.027 A 
ATOM     90  C   UNL A   1      31.183  23.925  24.797  1.00  0.00     0.044 A 
BRANCH  90  91
ATOM     91  N   UNL A   1      31.889  22.705  25.095  1.00  0.00    -0.312 N 
ATOM     92  C   UNL A   1      32.147  22.406  26.510  1.00  0.00     0.125 C 
ATOM     93  C   UNL A   1      32.145  21.757  24.090  1.00  0.00     0.226 C 
ATOM     94  C   UNL A   1      33.292  21.436  26.748  1.00  0.00     0.022 C 
ATOM     95  C   UNL A   1      33.080  20.613  24.442  1.00  0.00     0.101 C 
ATOM     96  O   UNL A   1      31.789  21.846  22.913  1.00  0.00    -0.275 OA
ATOM     97  C   UNL A   1      33.076  20.205  25.897  1.00  0.00     0.012 C 
ENDBRANCH  90  91
ENDBRANCH  82  85
ENDBRANCH  80  81
BRANCH  80  98
ATOM     98  C   UNL A   1      33.024  28.935  23.986  1.00  0.00     0.068 C 
BRANCH  98  99
ATOM     99  C   UNL A   1      33.385  27.614  23.389  1.00  0.00    -0.037 C 
ATOM    100  C   UNL A   1      33.872  26.544  24.007  1.00  0.00     0.001 A 
ATOM    101  C   UNL A   1      33.195  27.343  21.928  1.00  0.00     0.174 C 
ATOM    102  C   UNL A   1      34.237  26.234  25.350  1.00  0.00     0.010 A 
ATOM    103  C   UNL A   1      34.015  25.573  22.911  1.00  0.00     0.065 A 
ATOM    104  N   UNL A   1      33.640  25.944  21.723  1.00  0.00    -0.280 NA
ATOM    105  C   UNL A   1      34.736  25.015  25.613  1.00  0.00     0.001 A 
ATOM    106  C   UNL A   1      34.570  24.254  23.280  1.00  0.00     0.028 A 
ATOM    107  C   UNL A   1      34.902  24.023  24.563  1.00  0.00     0.002 A 
ENDBRANCH  98  99
ENDBRANCH  80  98
ENDBRANCH  77  80
ENDBRANCH  75  76
ENDBRANCH   1  75
TORSDOF 18
ENDMDL
MODEL 2
REMARK VINA RESULT:     -12.8      0.744      7.857
REMARK SMILES O=C(NCCCNC(=O)[C@H](CC1=c2ccccc2=NC1)NC(=O)c1ccc(N2CCCCC2=O)cc1)c1ccc(-c2c3nc(c(-c4c(F)cc(S(=O)(=O)[O-])cc4F)c4ccc([nH]4)c(-c4c(F)cc(S(=O)(=O)[O-])cc4F)c4nc(c(-c5c(F)cc(S(=O)(=O)[O-])cc5F)c5ccc2[nH]5)C=C4)C=C3)cc1
REMARK SMILES IDX 5 1 4 2 3 3 1 4 2 5 37 7 38 8 102 9 39 10 101 11 40 12 41 13
REMARK SMILES IDX 42 14 95 15 43 16 100 17 94 18 96 19 44 20 99 21 93 22 92 23
REMARK SMILES IDX 45 25 79 26 58 27 78 28 59 29 62 30 77 31 97 32 60 33 61 34
REMARK SMILES IDX 76 36 98 37 63 38 46 39 47 40 56 41 48 42 49 43 55 44 57 45
REMARK SMILES IDX 50 46 51 47 52 48 53 49 54 50 80 51 81 52 90 53 82 54 83 55
REMARK SMILES IDX 89 56 91 57 84 58 85 59 86 60 87 61 88 62 64 63 65 64 74 65
REMARK SMILES IDX 66 66 67 67 73 68 75 69 68 70 69 71 70 72 71 73 72 74 6 75
REMARK SMILES IDX 7 76 8 77 9 79 10 80 21 81 22 82 23 84 24 85 25 86 36 87
REMARK SMILES IDX 26 88 35 89 27 90 28 91 29 92 33 93 30 94 32 95 34 96 31 97
REMARK SMILES IDX 11 98 12 99 13 100 20 101 14 102 18 103 19 104 15 105 17 106
REMARK SMILES IDX 16 107
REMARK H PARENT 3 6 96 24 62 35 7 78 21 83
REMARK Flexibility Score: inf
ROOT
ATOM      1  C   UNL A   1      34.784  28.954  27.295  1.00  0.00     0.042 C 
ENDROOT
BRANCH   1   2
ATOM      2  C   UNL A   1      35.196  30.370  27.670  1.00  0.00     0.118 C 
BRANCH   2   3
ATOM      3  N   UNL A   1      35.313  30.540  29.110  1.00  0.00    -0.352 N 
ATOM      4  O   UNL A   1      35.990  30.115  31.195  1.00  0.00    -0.269 OA
ATOM      5  C   UNL A   1      36.259  30.094  29.996  1.00  0.00     0.251 C 
ATOM      6  H   UNL A   1      34.588  31.066  29.517  1.00  0.00     0.163 HD
BRANCH   5   7
ATOM      7  C   UNL A   1      37.584  29.606  29.545  1.00  0.00     0.039 A 
ATOM      8  C   UNL A   1      38.405  28.951  30.470  1.00  0.00     0.014 A 
ATOM      9  C   UNL A   1      38.076  29.889  28.269  1.00  0.00     0.014 A 
ATOM     10  C   UNL A   1      39.707  28.590  30.118  1.00  0.00     0.010 A 
ATOM     11  C   UNL A   1      39.337  29.439  27.885  1.00  0.00     0.010 A 
ATOM     12  C   UNL A   1      40.185  28.837  28.823  1.00  0.00    -0.014 A 
BRANCH  12  13
ATOM     13  C   UNL A   1      41.607  28.603  28.470  1.00  0.00     0.031 A 
ATOM     14  C   UNL A   1      42.036  27.231  28.014  1.00  0.00     0.074 A 
ATOM     15  C   UNL A   1      42.509  29.596  28.573  1.00  0.00     0.049 A 
ATOM     16  N   UNL A   1      43.232  26.794  27.715  1.00  0.00    -0.248 NA
ATOM     17  C   UNL A   1      40.984  26.205  27.912  1.00  0.00     0.031 C 
ATOM     18  C   UNL A   1      42.222  30.956  29.030  1.00  0.00     0.029 A 
ATOM     19  N   UNL A   1      43.851  29.612  28.294  1.00  0.00    -0.354 N 
ATOM     20  C   UNL A   1      43.079  25.443  27.426  1.00  0.00     0.074 A 
ATOM     21  C   UNL A   1      41.686  25.118  27.636  1.00  0.00     0.031 C 
ATOM     22  C   UNL A   1      43.348  31.686  28.960  1.00  0.00     0.029 A 
ATOM     23  C   UNL A   1      44.438  30.840  28.482  1.00  0.00     0.049 A 
ATOM     24  H   UNL A   1      44.348  28.819  27.988  1.00  0.00     0.167 HD
ATOM     25  C   UNL A   1      44.005  24.558  26.991  1.00  0.00     0.037 A 
ATOM     26  C   UNL A   1      45.710  31.237  28.284  1.00  0.00     0.037 A 
ATOM     27  C   UNL A   1      45.370  24.900  26.708  1.00  0.00     0.049 A 
ATOM     28  C   UNL A   1      46.721  30.246  27.779  1.00  0.00     0.074 A 
ATOM     29  C   UNL A   1      46.368  24.103  26.179  1.00  0.00     0.029 A 
ATOM     30  N   UNL A   1      45.926  26.154  26.922  1.00  0.00    -0.354 N 
ATOM     31  N   UNL A   1      46.550  28.982  27.472  1.00  0.00    -0.248 NA
ATOM     32  C   UNL A   1      48.097  30.730  27.602  1.00  0.00     0.031 C 
ATOM     33  C   UNL A   1      47.535  24.869  26.091  1.00  0.00     0.029 A 
ATOM     34  C   UNL A   1      47.258  26.148  26.548  1.00  0.00     0.049 A 
ATOM     35  H   UNL A   1      45.444  26.931  27.285  1.00  0.00     0.167 HD
ATOM     36  C   UNL A   1      47.795  28.520  27.059  1.00  0.00     0.074 A 
ATOM     37  C   UNL A   1      48.707  29.642  27.145  1.00  0.00     0.031 C 
ATOM     38  C   UNL A   1      48.148  27.278  26.649  1.00  0.00     0.037 A 
BRANCH  25  39
ATOM     39  C   UNL A   1      43.552  23.142  26.777  1.00  0.00     0.058 A 
ATOM     40  C   UNL A   1      43.277  22.290  27.857  1.00  0.00     0.135 A 
ATOM     41  C   UNL A   1      43.411  22.625  25.479  1.00  0.00     0.135 A 
ATOM     42  F   UNL A   1      43.414  22.731  29.118  1.00  0.00    -0.206 F 
ATOM     43  C   UNL A   1      42.921  20.959  27.661  1.00  0.00     0.059 A 
ATOM     44  C   UNL A   1      43.034  21.303  25.259  1.00  0.00     0.059 A 
ATOM     45  F   UNL A   1      43.664  23.399  24.411  1.00  0.00    -0.206 F 
ATOM     46  C   UNL A   1      42.814  20.472  26.358  1.00  0.00     0.060 A 
BRANCH  46  47
ATOM     47  S   UNL A   1      42.390  18.734  26.115  1.00  0.00     0.124 S 
ATOM     48  O   UNL A   1      40.990  18.833  25.713  1.00  0.00    -0.237 OA
ATOM     49  O   UNL A   1      43.320  18.325  25.067  1.00  0.00    -0.237 OA
ATOM     50  O   UNL A   1      42.628  18.141  27.426  1.00  0.00    -0.744 OA
ENDBRANCH  46  47
ENDBRANCH  25  39
BRANCH  26  51
ATOM     51  C   UNL A   1      46.074  32.655  28.520  1.00  0.00     0.058 A 
ATOM     52  C   UNL A   1      45.949  33.602  27.493  1.00  0.00     0.135 A 
ATOM     53  C   UNL A   1      46.487  33.106  29.783  1.00  0.00     0.135 A 
ATOM     54  F   UNL A   1      45.561  33.214  26.269  1.00  0.00    -0.206 F 
ATOM     55  C   UNL A   1      46.211  34.950  27.711  1.00  0.00     0.059 A 
ATOM     56  C   UNL A   1      46.742  34.451  30.028  1.00  0.00     0.059 A 
ATOM     57  F   UNL A   1      46.608  32.238  30.798  1.00  0.00    -0.206 F 
ATOM     58  C   UNL A   1      46.599  35.367  28.985  1.00  0.00     0.060 A 
BRANCH  58  59
ATOM     59  S   UNL A   1      46.848  37.132  29.277  1.00  0.00     0.124 S 
ATOM     60  O   UNL A   1      45.688  37.460  30.099  1.00  0.00    -0.237 OA
ATOM     61  O   UNL A   1      48.139  37.152  29.958  1.00  0.00    -0.237 OA
ATOM     62  O   UNL A   1      46.849  37.699  27.931  1.00  0.00    -0.744 OA
ENDBRANCH  58  59
ENDBRANCH  26  51
BRANCH  38  63
ATOM     63  C   UNL A   1      49.581  27.049  26.274  1.00  0.00     0.058 A 
ATOM     64  C   UNL A   1      50.022  27.249  24.959  1.00  0.00     0.135 A 
ATOM     65  C   UNL A   1      50.538  26.745  27.255  1.00  0.00     0.135 A 
ATOM     66  F   UNL A   1      49.142  27.536  23.987  1.00  0.00    -0.206 F 
ATOM     67  C   UNL A   1      51.370  27.164  24.628  1.00  0.00     0.059 A 
ATOM     68  C   UNL A   1      51.893  26.669  26.949  1.00  0.00     0.059 A 
ATOM     69  F   UNL A   1      50.161  26.553  28.530  1.00  0.00    -0.206 F 
ATOM     70  C   UNL A   1      52.298  26.883  25.632  1.00  0.00     0.060 A 
BRANCH  70  71
ATOM     71  S   UNL A   1      54.053  26.862  25.204  1.00  0.00     0.124 S 
ATOM     72  O   UNL A   1      54.197  28.125  24.488  1.00  0.00    -0.237 OA
ATOM     73  O   UNL A   1      54.694  26.799  26.514  1.00  0.00    -0.237 OA
ATOM     74  O   UNL A   1      54.188  25.658  24.389  1.00  0.00    -0.744 OA
ENDBRANCH  70  71
ENDBRANCH  38  63
ENDBRANCH  12  13
ENDBRANCH   5   7
ENDBRANCH   2   3
ENDBRANCH   1   2
BRANCH   1  75
ATOM     75  C   UNL A   1      33.299  28.678  27.486  1.00  0.00     0.117 C 
BRANCH  75  76
ATOM     76  N   UNL A   1      32.461  29.725  26.929  1.00  0.00    -0.354 N 
ATOM     77  C   UNL A   1      31.765  29.789  25.759  1.00  0.00     0.242 C 
ATOM     78  H   UNL A   1      32.383  30.527  27.493  1.00  0.00     0.163 HD
ATOM     79  O   UNL A   1      31.140  30.826  25.522  1.00  0.00    -0.273 OA
BRANCH  77  80
ATOM     80  C   UNL A   1      31.772  28.631  24.748  1.00  0.00     0.175 C 
BRANCH  80  81
ATOM     81  N   UNL A   1      30.471  28.597  24.063  1.00  0.00    -0.340 N 
ATOM     82  C   UNL A   1      29.617  27.543  23.865  1.00  0.00     0.251 C 
ATOM     83  H   UNL A   1      30.170  29.457  23.692  1.00  0.00     0.164 HD
ATOM     84  O   UNL A   1      28.566  27.702  23.251  1.00  0.00    -0.269 OA
BRANCH  82  85
ATOM     85  C   UNL A   1      30.011  26.197  24.310  1.00  0.00     0.039 A 
ATOM     86  C   UNL A   1      30.255  25.916  25.653  1.00  0.00     0.016 A 
ATOM     87  C   UNL A   1      30.207  25.218  23.342  1.00  0.00     0.016 A 
ATOM     88  C   UNL A   1      30.821  24.686  26.006  1.00  0.00     0.027 A 
ATOM     89  C   UNL A   1      30.775  23.995  23.704  1.00  0.00     0.027 A 
ATOM     90  C   UNL A   1      31.137  23.722  25.031  1.00  0.00     0.044 A 
BRANCH  90  91
ATOM     91  N   UNL A   1      31.857  22.525  25.383  1.00  0.00    -0.312 N 
ATOM     92  C   UNL A   1      32.125  21.561  24.307  1.00  0.00     0.125 C 
ATOM     93  C   UNL A   1      32.439  22.381  26.653  1.00  0.00     0.226 C 
ATOM     94  C   UNL A   1      32.403  20.146  24.786  1.00  0.00     0.022 C 
ATOM     95  C   UNL A   1      32.983  21.009  27.013  1.00  0.00     0.101 C 
ATOM     96  O   UNL A   1      32.424  23.228  27.549  1.00  0.00    -0.275 OA
ATOM     97  C   UNL A   1      33.481  20.190  25.845  1.00  0.00     0.012 C 
ENDBRANCH  90  91
ENDBRANCH  82  85
ENDBRANCH  80  81
BRANCH  80  98
ATOM     98  C   UNL A   1      32.964  28.679  23.777  1.00  0.00     0.068 C 
BRANCH  98  99
ATOM     99  C   UNL A   1      33.319  27.337  23.226  1.00  0.00    -0.037 C 
ATOM    100  C   UNL A   1      33.837  26.300  23.872  1.00  0.00     0.001 A 
ATOM    101  C   UNL A   1      33.083  27.000  21.785  1.00  0.00     0.174 C 
ATOM    102  C   UNL A   1      34.250  26.051  25.215  1.00  0.00     0.010 A 
ATOM    103  C   UNL A   1      33.954  25.283  22.816  1.00  0.00     0.065 A 
ATOM    104  N   UNL A   1      33.536  25.598  21.626  1.00  0.00    -0.280 NA
ATOM    105  C   UNL A   1      34.770  24.849  25.514  1.00  0.00     0.001 A 
ATOM    106  C   UNL A   1      34.535  23.986  23.222  1.00  0.00     0.028 A 
ATOM    107  C   UNL A   1      34.912  23.815  24.502  1.00  0.00     0.002 A 
ENDBRANCH  98  99
ENDBRANCH  80  98
ENDBRANCH  77  80
ENDBRANCH  75  76
ENDBRANCH   1  75
TORSDOF 18
ENDMDL
MODEL 3
REMARK VINA RESULT:     -12.7      2.108      3.250
REMARK SMILES O=C(NCCCNC(=O)[C@H](CC1=c2ccccc2=NC1)NC(=O)c1ccc(N2CCCCC2=O)cc1)c1ccc(-c2c3nc(c(-c4c(F)cc(S(=O)(=O)[O-])cc4F)c4ccc([nH]4)c(-c4c(F)cc(S(=O)(=O)[O-])cc4F)c4nc(c(-c5c(F)cc(S(=O)(=O)[O-])cc5F)c5ccc2[nH]5)C=C4)C=C3)cc1
REMARK SMILES IDX 5 1 4 2 3 3 1 4 2 5 37 7 38 8 102 9 39 10 101 11 40 12 41 13
REMARK SMILES IDX 42 14 95 15 43 16 100 17 94 18 96 19 44 20 99 21 93 22 92 23
REMARK SMILES IDX 45 25 79 26 58 27 78 28 59 29 62 30 77 31 97 32 60 33 61 34
REMARK SMILES IDX 76 36 98 37 63 38 46 39 47 40 56 41 48 42 49 43 55 44 57 45
REMARK SMILES IDX 50 46 51 47 52 48 53 49 54 50 80 51 81 52 90 53 82 54 83 55
REMARK SMILES IDX 89 56 91 57 84 58 85 59 86 60 87 61 88 62 64 63 65 64 74 65
REMARK SMILES IDX 66 66 67 67 73 68 75 69 68 70 69 71 70 72 71 73 72 74 6 75
REMARK SMILES IDX 7 76 8 77 9 79 10 80 21 81 22 82 23 84 24 85 25 86 36 87
REMARK SMILES IDX 26 88 35 89 27 90 28 91 29 92 33 93 30 94 32 95 34 96 31 97
REMARK SMILES IDX 11 98 12 99 13 100 20 101 14 102 18 103 19 104 15 105 17 106
REMARK SMILES IDX 16 107
REMARK H PARENT 3 6 96 24 62 35 7 78 21 83
REMARK Flexibility Score: inf
ROOT
ATOM      1  C   UNL A   1      32.180  29.187  26.467  1.00  0.00     0.042 C 
ENDROOT
BRANCH   1   2
ATOM      2  C   UNL A   1      33.481  29.258  27.254  1.00  0.00     0.118 C 
BRANCH   2   3
ATOM      3  N   UNL A   1      33.643  30.540  27.922  1.00  0.00    -0.352 N 
ATOM      4  O   UNL A   1      34.444  32.022  29.388  1.00  0.00    -0.269 OA
ATOM      5  C   UNL A   1      34.663  31.029  28.697  1.00  0.00     0.251 C 
ATOM      6  H   UNL A   1      32.892  31.163  27.795  1.00  0.00     0.163 HD
BRANCH   5   7
ATOM      7  C   UNL A   1      36.006  30.402  28.709  1.00  0.00     0.039 A 
ATOM      8  C   UNL A   1      36.459  29.815  29.895  1.00  0.00     0.014 A 
ATOM      9  C   UNL A   1      36.868  30.490  27.612  1.00  0.00     0.014 A 
ATOM     10  C   UNL A   1      37.765  29.328  29.981  1.00  0.00     0.010 A 
ATOM     11  C   UNL A   1      38.134  29.913  27.664  1.00  0.00     0.010 A 
ATOM     12  C   UNL A   1      38.615  29.379  28.866  1.00  0.00    -0.014 A 
BRANCH  12  13
ATOM     13  C   UNL A   1      40.048  29.010  28.975  1.00  0.00     0.031 A 
ATOM     14  C   UNL A   1      41.028  30.018  29.522  1.00  0.00     0.074 A 
ATOM     15  C   UNL A   1      40.475  27.798  28.573  1.00  0.00     0.049 A 
ATOM     16  N   UNL A   1      42.326  29.926  29.648  1.00  0.00    -0.248 NA
ATOM     17  C   UNL A   1      40.476  31.314  29.955  1.00  0.00     0.031 C 
ATOM     18  C   UNL A   1      39.629  26.751  28.001  1.00  0.00     0.029 A 
ATOM     19  N   UNL A   1      41.728  27.245  28.592  1.00  0.00    -0.354 N 
ATOM     20  C   UNL A   1      42.745  31.158  30.138  1.00  0.00     0.074 A 
ATOM     21  C   UNL A   1      41.573  31.998  30.238  1.00  0.00     0.031 C 
ATOM     22  C   UNL A   1      40.383  25.665  27.761  1.00  0.00     0.029 A 
ATOM     23  C   UNL A   1      41.766  25.950  28.135  1.00  0.00     0.049 A 
ATOM     24  H   UNL A   1      42.527  27.729  28.904  1.00  0.00     0.167 HD
ATOM     25  C   UNL A   1      43.988  31.546  30.508  1.00  0.00     0.037 A 
ATOM     26  C   UNL A   1      42.798  25.090  28.038  1.00  0.00     0.037 A 
ATOM     27  C   UNL A   1      45.137  30.686  30.482  1.00  0.00     0.049 A 
ATOM     28  C   UNL A   1      44.168  25.530  28.473  1.00  0.00     0.074 A 
ATOM     29  C   UNL A   1      46.422  30.950  30.917  1.00  0.00     0.029 A 
ATOM     30  N   UNL A   1      45.132  29.383  30.002  1.00  0.00    -0.354 N 
ATOM     31  N   UNL A   1      44.539  26.685  28.973  1.00  0.00    -0.248 NA
ATOM     32  C   UNL A   1      45.259  24.558  28.324  1.00  0.00     0.031 C 
ATOM     33  C   UNL A   1      47.202  29.813  30.682  1.00  0.00     0.029 A 
ATOM     34  C   UNL A   1      46.397  28.834  30.118  1.00  0.00     0.049 A 
ATOM     35  H   UNL A   1      44.346  28.919  29.636  1.00  0.00     0.167 HD
ATOM     36  C   UNL A   1      45.906  26.577  29.204  1.00  0.00     0.074 A 
ATOM     37  C   UNL A   1      46.294  25.241  28.800  1.00  0.00     0.031 C 
ATOM     38  C   UNL A   1      46.760  27.503  29.703  1.00  0.00     0.037 A 
BRANCH  25  39
ATOM     39  C   UNL A   1      44.149  32.959  30.990  1.00  0.00     0.058 A 
ATOM     40  C   UNL A   1      44.395  34.014  30.097  1.00  0.00     0.135 A 
ATOM     41  C   UNL A   1      44.078  33.259  32.360  1.00  0.00     0.135 A 
ATOM     42  F   UNL A   1      44.490  33.775  28.779  1.00  0.00    -0.206 F 
ATOM     43  C   UNL A   1      44.609  35.312  30.548  1.00  0.00     0.059 A 
ATOM     44  C   UNL A   1      44.267  34.555  32.831  1.00  0.00     0.059 A 
ATOM     45  F   UNL A   1      43.848  32.286  33.255  1.00  0.00    -0.206 F 
ATOM     46  C   UNL A   1      44.556  35.570  31.918  1.00  0.00     0.060 A 
BRANCH  46  47
ATOM     47  S   UNL A   1      44.875  37.251  32.496  1.00  0.00     0.124 S 
ATOM     48  O   UNL A   1      46.324  37.339  32.339  1.00  0.00    -0.237 OA
ATOM     49  O   UNL A   1      44.089  38.059  31.569  1.00  0.00    -0.237 OA
ATOM     50  O   UNL A   1      44.392  37.234  33.872  1.00  0.00    -0.744 OA
ENDBRANCH  46  47
ENDBRANCH  25  39
BRANCH  26  51
ATOM     51  C   UNL A   1      42.552  23.711  27.551  1.00  0.00     0.058 A 
ATOM     52  C   UNL A   1      42.562  23.429  26.177  1.00  0.00     0.135 A 
ATOM     53  C   UNL A   1      42.371  22.640  28.440  1.00  0.00     0.135 A 
ATOM     54  F   UNL A   1      42.727  24.423  25.291  1.00  0.00    -0.206 F 
ATOM     55  C   UNL A   1      42.411  22.133  25.700  1.00  0.00     0.059 A 
ATOM     56  C   UNL A   1      42.231  21.333  27.986  1.00  0.00     0.059 A 
ATOM     57  F   UNL A   1      42.368  22.861  29.763  1.00  0.00    -0.206 F 
ATOM     58  C   UNL A   1      42.254  21.089  26.613  1.00  0.00     0.060 A 
BRANCH  58  59
ATOM     59  S   UNL A   1      42.150  19.399  25.983  1.00  0.00     0.124 S 
ATOM     60  O   UNL A   1      40.723  19.275  25.707  1.00  0.00    -0.237 OA
ATOM     61  O   UNL A   1      43.025  19.451  24.816  1.00  0.00    -0.237 OA
ATOM     62  O   UNL A   1      42.651  18.595  27.096  1.00  0.00    -0.744 OA
ENDBRANCH  58  59
ENDBRANCH  26  51
BRANCH  38  63
ATOM     63  C   UNL A   1      48.204  27.120  29.831  1.00  0.00     0.058 A 
ATOM     64  C   UNL A   1      49.132  27.473  28.841  1.00  0.00     0.135 A 
ATOM     65  C   UNL A   1      48.682  26.504  30.998  1.00  0.00     0.135 A 
ATOM     66  F   UNL A   1      48.720  28.059  27.705  1.00  0.00    -0.206 F 
ATOM     67  C   UNL A   1      50.492  27.236  29.008  1.00  0.00     0.059 A 
ATOM     68  C   UNL A   1      50.039  26.270  31.192  1.00  0.00     0.059 A 
ATOM     69  F   UNL A   1      47.829  26.156  31.975  1.00  0.00    -0.206 F 
ATOM     70  C   UNL A   1      50.936  26.643  30.191  1.00  0.00     0.060 A 
BRANCH  70  71
ATOM     71  S   UNL A   1      52.712  26.422  30.432  1.00  0.00     0.124 S 
ATOM     72  O   UNL A   1      53.150  26.067  29.087  1.00  0.00    -0.237 OA
ATOM     73  O   UNL A   1      53.130  27.736  30.910  1.00  0.00    -0.237 OA
ATOM     74  O   UNL A   1      52.789  25.350  31.421  1.00  0.00    -0.744 OA
ENDBRANCH  70  71
ENDBRANCH  38  63
ENDBRANCH  12  13
ENDBRANCH   5   7
ENDBRANCH   2   3
ENDBRANCH   1   2
BRANCH   1  75
ATOM     75  C   UNL A   1      32.356  29.408  24.972  1.00  0.00     0.117 C 
BRANCH  75  76
ATOM     76  N   UNL A   1      31.136  29.162  24.223  1.00  0.00    -0.354 N 
ATOM     77  C   UNL A   1      30.685  28.044  23.588  1.00  0.00     0.242 C 
ATOM     78  H   UNL A   1      30.532  29.935  24.164  1.00  0.00     0.163 HD
ATOM     79  O   UNL A   1      29.602  28.119  23.001  1.00  0.00    -0.273 OA
BRANCH  77  80
ATOM     80  C   UNL A   1      31.496  26.739  23.568  1.00  0.00     0.175 C 
BRANCH  80  81
ATOM     81  N   UNL A   1      32.125  26.596  22.246  1.00  0.00    -0.340 N 
ATOM     82  C   UNL A   1      32.644  25.479  21.643  1.00  0.00     0.251 C 
ATOM     83  H   UNL A   1      32.183  27.423  21.718  1.00  0.00     0.164 HD
ATOM     84  O   UNL A   1      33.147  25.554  20.527  1.00  0.00    -0.269 OA
BRANCH  82  85
ATOM     85  C   UNL A   1      32.680  24.206  22.381  1.00  0.00     0.039 A 
ATOM     86  C   UNL A   1      33.878  23.537  22.620  1.00  0.00     0.016 A 
ATOM     87  C   UNL A   1      31.471  23.644  22.776  1.00  0.00     0.016 A 
ATOM     88  C   UNL A   1      33.848  22.239  23.141  1.00  0.00     0.027 A 
ATOM     89  C   UNL A   1      31.451  22.347  23.293  1.00  0.00     0.027 A 
ATOM     90  C   UNL A   1      32.630  21.602  23.442  1.00  0.00     0.044 A 
BRANCH  90  91
ATOM     91  N   UNL A   1      32.599  20.216  23.834  1.00  0.00    -0.312 N 
ATOM     92  C   UNL A   1      32.593  19.924  25.275  1.00  0.00     0.125 C 
ATOM     93  C   UNL A   1      32.389  19.203  22.884  1.00  0.00     0.226 C 
ATOM     94  C   UNL A   1      33.069  18.527  25.634  1.00  0.00     0.022 C 
ATOM     95  C   UNL A   1      32.590  17.770  23.346  1.00  0.00     0.101 C 
ATOM     96  O   UNL A   1      32.191  19.379  21.680  1.00  0.00    -0.275 OA
ATOM     97  C   UNL A   1      32.302  17.520  24.809  1.00  0.00     0.012 C 
ENDBRANCH  90  91
ENDBRANCH  82  85
ENDBRANCH  80  81
BRANCH  80  98
ATOM     98  C   UNL A   1      32.499  26.628  24.729  1.00  0.00     0.068 C 
BRANCH  98  99
ATOM     99  C   UNL A   1      32.201  25.489  25.647  1.00  0.00    -0.037 C 
ATOM    100  C   UNL A   1      33.045  24.579  26.121  1.00  0.00     0.001 A 
ATOM    101  C   UNL A   1      30.821  25.261  26.182  1.00  0.00     0.174 C 
ATOM    102  C   UNL A   1      34.437  24.315  25.961  1.00  0.00     0.010 A 
ATOM    103  C   UNL A   1      32.179  23.739  26.962  1.00  0.00     0.065 A 
ATOM    104  N   UNL A   1      30.926  24.069  27.057  1.00  0.00    -0.280 NA
ATOM    105  C   UNL A   1      34.966  23.256  26.596  1.00  0.00     0.001 A 
ATOM    106  C   UNL A   1      32.833  22.593  27.628  1.00  0.00     0.028 A 
ATOM    107  C   UNL A   1      34.148  22.392  27.433  1.00  0.00     0.002 A 
ENDBRANCH  98  99
ENDBRANCH  80  98
ENDBRANCH  77  80
ENDBRANCH  75  76
ENDBRANCH   1  75
TORSDOF 18
ENDMDL
