MODEL 1
REMARK VINA RESULT:     -10.3      0.000      0.000
REMARK SMILES CC1(C)[C@H](C(=O)NCCCNC(=O)c2ccc(-c3c4nc(c(-c5c(F)cc(S(=O)(=O)[O-])cc5F)c5ccc([nH]5)c(-c5c(F)cc(S(=O)(=O)[O-])cc5F)c5nc(c(-c6c(F)cc(S(=O)(=O)[O-])cc6F)c6ccc3[nH]6)C=C5)C=C4)cc2)[C@@H]1C(=O)Nc1ccc(Cl)c(Br)c1
REMARK SMILES IDX 9 1 8 2 7 3 5 4 6 5 4 7 1 8 2 9 3 10 80 11 81 12 82 13 83 14
REMARK SMILES IDX 84 16 85 17 91 18 86 19 89 20 87 21 90 22 88 23 10 24 11 25
REMARK SMILES IDX 12 26 13 28 14 29 15 30 79 31 16 32 78 33 17 34 18 35 19 36
REMARK SMILES IDX 72 37 20 38 77 39 71 40 73 41 21 42 76 43 70 44 69 45 22 47
REMARK SMILES IDX 56 48 35 49 55 50 36 51 39 52 54 53 74 54 37 55 38 56 53 58
REMARK SMILES IDX 75 59 40 60 23 61 24 62 33 63 25 64 26 65 32 66 34 67 27 68
REMARK SMILES IDX 28 69 29 70 30 71 31 72 57 73 58 74 67 75 59 76 60 77 66 78
REMARK SMILES IDX 68 79 61 80 62 81 63 82 64 83 65 84 41 85 42 86 51 87 43 88
REMARK SMILES IDX 44 89 50 90 52 91 45 92 46 93 47 94 48 95 49 96
REMARK H PARENT 7 6 83 15 11 27 73 46 39 57
REMARK Flexibility Score: inf
ROOT
ATOM      1  C   UNL A   1      41.732  21.759  26.076  1.00  0.00     0.042 C 
ENDROOT
BRANCH   1   2
ATOM      2  C   UNL A   1      42.781  20.825  26.650  1.00  0.00     0.117 C 
BRANCH   2   3
ATOM      3  N   UNL A   1      44.098  21.093  26.115  1.00  0.00    -0.356 N 
ATOM      4  C   UNL A   1      44.999  22.108  26.223  1.00  0.00     0.224 C 
ATOM      5  O   UNL A   1      46.048  21.948  25.595  1.00  0.00    -0.275 OA
ATOM      6  H   UNL A   1      44.420  20.368  25.532  1.00  0.00     0.163 HD
BRANCH   4   7
ATOM      7  C   UNL A   1      44.896  23.350  27.030  1.00  0.00     0.098 C 
ATOM      8  C   UNL A   1      46.279  24.958  28.459  1.00  0.00     0.013 C 
ATOM      9  C   UNL A   1      45.865  24.516  27.070  1.00  0.00    -0.011 C 
ATOM     10  C   UNL A   1      47.010  24.598  26.092  1.00  0.00     0.013 C 
ATOM     11  C   UNL A   1      44.381  24.713  26.675  1.00  0.00     0.098 C 
BRANCH  11  12
ATOM     12  C   UNL A   1      43.893  25.148  25.347  1.00  0.00     0.228 C 
ATOM     13  O   UNL A   1      43.541  24.303  24.528  1.00  0.00    -0.274 OA
ATOM     14  N   UNL A   1      43.817  26.485  25.013  1.00  0.00    -0.326 N 
ATOM     15  H   UNL A   1      43.435  26.669  24.124  1.00  0.00     0.169 HD
BRANCH  14  16
ATOM     16  C   UNL A   1      44.200  27.624  25.740  1.00  0.00     0.042 A 
ATOM     17  C   UNL A   1      43.180  28.418  26.273  1.00  0.00     0.028 A 
ATOM     18  C   UNL A   1      45.528  27.961  25.988  1.00  0.00     0.043 A 
ATOM     19  C   UNL A   1      43.486  29.451  27.162  1.00  0.00     0.024 A 
ATOM     20  C   UNL A   1      45.840  29.013  26.859  1.00  0.00     0.038 A 
ATOM     21  C   UNL A   1      44.817  29.740  27.473  1.00  0.00     0.055 A 
ATOM     22  Br  UNL A   1      47.681  29.371  27.162  1.00  0.00    -0.049 Br
ATOM     23  Cl  UNL A   1      45.118  31.002  28.611  1.00  0.00    -0.083 Cl
ENDBRANCH  14  16
ENDBRANCH  11  12
ENDBRANCH   4   7
ENDBRANCH   2   3
ENDBRANCH   1   2
BRANCH   1  24
ATOM     24  C   UNL A   1      40.361  21.544  26.694  1.00  0.00     0.118 C 
BRANCH  24  25
ATOM     25  N   UNL A   1      39.284  22.047  25.847  1.00  0.00    -0.352 N 
ATOM     26  C   UNL A   1      38.664  23.275  25.865  1.00  0.00     0.251 C 
ATOM     27  H   UNL A   1      38.954  21.419  25.165  1.00  0.00     0.163 HD
ATOM     28  O   UNL A   1      37.635  23.452  25.222  1.00  0.00    -0.269 OA
BRANCH  26  29
ATOM     29  C   UNL A   1      39.241  24.361  26.683  1.00  0.00     0.039 A 
ATOM     30  C   UNL A   1      40.100  25.289  26.091  1.00  0.00     0.014 A 
ATOM     31  C   UNL A   1      38.893  24.479  28.029  1.00  0.00     0.014 A 
ATOM     32  C   UNL A   1      40.544  26.385  26.836  1.00  0.00     0.010 A 
ATOM     33  C   UNL A   1      39.248  25.621  28.733  1.00  0.00     0.010 A 
ATOM     34  C   UNL A   1      40.087  26.582  28.149  1.00  0.00    -0.014 A 
BRANCH  34  35
ATOM     35  C   UNL A   1      40.488  27.761  28.956  1.00  0.00     0.031 A 
ATOM     36  C   UNL A   1      41.810  27.744  29.678  1.00  0.00     0.074 A 
ATOM     37  C   UNL A   1      39.639  28.796  29.112  1.00  0.00     0.049 A 
ATOM     38  N   UNL A   1      42.286  28.592  30.552  1.00  0.00    -0.248 NA
ATOM     39  C   UNL A   1      42.697  26.598  29.412  1.00  0.00     0.031 C 
ATOM     40  C   UNL A   1      38.310  28.906  28.503  1.00  0.00     0.029 A 
ATOM     41  N   UNL A   1      39.761  29.950  29.843  1.00  0.00    -0.354 N 
ATOM     42  C   UNL A   1      43.510  28.071  30.955  1.00  0.00     0.074 A 
ATOM     43  C   UNL A   1      43.677  26.804  30.279  1.00  0.00     0.031 C 
ATOM     44  C   UNL A   1      37.752  30.072  28.868  1.00  0.00     0.029 A 
ATOM     45  C   UNL A   1      38.661  30.773  29.768  1.00  0.00     0.049 A 
ATOM     46  H   UNL A   1      40.560  30.168  30.375  1.00  0.00     0.167 HD
ATOM     47  C   UNL A   1      44.428  28.614  31.789  1.00  0.00     0.037 A 
ATOM     48  C   UNL A   1      38.415  31.956  30.365  1.00  0.00     0.037 A 
ATOM     49  C   UNL A   1      44.278  29.898  32.417  1.00  0.00     0.049 A 
ATOM     50  C   UNL A   1      39.459  32.546  31.274  1.00  0.00     0.074 A 
ATOM     51  C   UNL A   1      45.168  30.561  33.245  1.00  0.00     0.029 A 
ATOM     52  N   UNL A   1      43.172  30.722  32.275  1.00  0.00    -0.354 N 
ATOM     53  N   UNL A   1      40.627  32.056  31.615  1.00  0.00    -0.248 NA
ATOM     54  C   UNL A   1      39.156  33.852  31.877  1.00  0.00     0.031 C 
ATOM     55  C   UNL A   1      44.589  31.777  33.621  1.00  0.00     0.029 A 
ATOM     56  C   UNL A   1      43.355  31.887  32.999  1.00  0.00     0.049 A 
ATOM     57  H   UNL A   1      42.374  30.509  31.740  1.00  0.00     0.167 HD
ATOM     58  C   UNL A   1      41.211  33.008  32.442  1.00  0.00     0.074 A 
ATOM     59  C   UNL A   1      40.272  34.105  32.546  1.00  0.00     0.031 C 
ATOM     60  C   UNL A   1      42.417  32.978  33.062  1.00  0.00     0.037 A 
BRANCH  47  61
ATOM     61  C   UNL A   1      45.688  27.833  32.043  1.00  0.00     0.058 A 
ATOM     62  C   UNL A   1      45.724  26.787  32.980  1.00  0.00     0.135 A 
ATOM     63  C   UNL A   1      46.859  28.105  31.320  1.00  0.00     0.135 A 
ATOM     64  F   UNL A   1      44.637  26.499  33.714  1.00  0.00    -0.206 F 
ATOM     65  C   UNL A   1      46.882  26.054  33.206  1.00  0.00     0.059 A 
ATOM     66  C   UNL A   1      48.023  27.366  31.511  1.00  0.00     0.059 A 
ATOM     67  F   UNL A   1      46.880  29.098  30.415  1.00  0.00    -0.206 F 
ATOM     68  C   UNL A   1      48.027  26.350  32.465  1.00  0.00     0.060 A 
BRANCH  68  69
ATOM     69  S   UNL A   1      49.517  25.373  32.759  1.00  0.00     0.124 S 
ATOM     70  O   UNL A   1      50.426  26.384  33.289  1.00  0.00    -0.237 OA
ATOM     71  O   UNL A   1      49.053  24.373  33.715  1.00  0.00    -0.237 OA
ATOM     72  O   UNL A   1      49.853  24.861  31.433  1.00  0.00    -0.744 OA
ENDBRANCH  68  69
ENDBRANCH  47  61
BRANCH  48  73
ATOM     73  C   UNL A   1      37.138  32.678  30.108  1.00  0.00     0.058 A 
ATOM     74  C   UNL A   1      37.059  33.662  29.111  1.00  0.00     0.135 A 
ATOM     75  C   UNL A   1      35.983  32.414  30.858  1.00  0.00     0.135 A 
ATOM     76  F   UNL A   1      38.139  33.953  28.369  1.00  0.00    -0.206 F 
ATOM     77  C   UNL A   1      35.891  34.384  28.889  1.00  0.00     0.059 A 
ATOM     78  C   UNL A   1      34.794  33.104  30.637  1.00  0.00     0.059 A 
ATOM     79  F   UNL A   1      35.999  31.467  31.810  1.00  0.00    -0.206 F 
ATOM     80  C   UNL A   1      34.764  34.100  29.662  1.00  0.00     0.060 A 
BRANCH  80  81
ATOM     81  S   UNL A   1      33.245  35.029  29.356  1.00  0.00     0.124 S 
ATOM     82  O   UNL A   1      32.645  35.052  30.685  1.00  0.00    -0.237 OA
ATOM     83  O   UNL A   1      33.758  36.305  28.864  1.00  0.00    -0.237 OA
ATOM     84  O   UNL A   1      32.551  34.216  28.362  1.00  0.00    -0.744 OA
ENDBRANCH  80  81
ENDBRANCH  48  73
BRANCH  60  85
ATOM     85  C   UNL A   1      42.816  34.186  33.860  1.00  0.00     0.058 A 
ATOM     86  C   UNL A   1      42.586  34.265  35.241  1.00  0.00     0.135 A 
ATOM     87  C   UNL A   1      43.502  35.245  33.243  1.00  0.00     0.135 A 
ATOM     88  F   UNL A   1      41.928  33.280  35.875  1.00  0.00    -0.206 F 
ATOM     89  C   UNL A   1      43.007  35.363  35.983  1.00  0.00     0.059 A 
ATOM     90  C   UNL A   1      43.955  36.340  33.970  1.00  0.00     0.059 A 
ATOM     91  F   UNL A   1      43.756  35.208  31.925  1.00  0.00    -0.206 F 
ATOM     92  C   UNL A   1      43.695  36.394  35.338  1.00  0.00     0.060 A 
BRANCH  92  93
ATOM     93  S   UNL A   1      44.281  37.790  36.320  1.00  0.00     0.124 S 
ATOM     94  O   UNL A   1      45.671  37.418  36.559  1.00  0.00    -0.237 OA
ATOM     95  O   UNL A   1      44.072  38.919  35.418  1.00  0.00    -0.237 OA
ATOM     96  O   UNL A   1      43.413  37.767  37.494  1.00  0.00    -0.744 OA
ENDBRANCH  92  93
ENDBRANCH  60  85
ENDBRANCH  34  35
ENDBRANCH  26  29
ENDBRANCH  24  25
ENDBRANCH   1  24
TORSDOF 15
ENDMDL
MODEL 2
REMARK VINA RESULT:     -10.1      3.350     10.894
REMARK SMILES CC1(C)[C@H](C(=O)NCCCNC(=O)c2ccc(-c3c4nc(c(-c5c(F)cc(S(=O)(=O)[O-])cc5F)c5ccc([nH]5)c(-c5c(F)cc(S(=O)(=O)[O-])cc5F)c5nc(c(-c6c(F)cc(S(=O)(=O)[O-])cc6F)c6ccc3[nH]6)C=C5)C=C4)cc2)[C@@H]1C(=O)Nc1ccc(Cl)c(Br)c1
REMARK SMILES IDX 9 1 8 2 7 3 5 4 6 5 4 7 1 8 2 9 3 10 80 11 81 12 82 13 83 14
REMARK SMILES IDX 84 16 85 17 91 18 86 19 89 20 87 21 90 22 88 23 10 24 11 25
REMARK SMILES IDX 12 26 13 28 14 29 15 30 79 31 16 32 78 33 17 34 18 35 19 36
REMARK SMILES IDX 72 37 20 38 77 39 71 40 73 41 21 42 76 43 70 44 69 45 22 47
REMARK SMILES IDX 56 48 35 49 55 50 36 51 39 52 54 53 74 54 37 55 38 56 53 58
REMARK SMILES IDX 75 59 40 60 23 61 24 62 33 63 25 64 26 65 32 66 34 67 27 68
REMARK SMILES IDX 28 69 29 70 30 71 31 72 57 73 58 74 67 75 59 76 60 77 66 78
REMARK SMILES IDX 68 79 61 80 62 81 63 82 64 83 65 84 41 85 42 86 51 87 43 88
REMARK SMILES IDX 44 89 50 90 52 91 45 92 46 93 47 94 48 95 49 96
REMARK H PARENT 7 6 83 15 11 27 73 46 39 57
REMARK Flexibility Score: inf
ROOT
ATOM      1  C   UNL A   1      34.020  33.598  28.018  1.00  0.00     0.042 C 
ENDROOT
BRANCH   1   2
ATOM      2  C   UNL A   1      34.740  34.822  28.552  1.00  0.00     0.117 C 
BRANCH   2   3
ATOM      3  N   UNL A   1      34.605  34.946  29.988  1.00  0.00    -0.356 N 
ATOM      4  C   UNL A   1      35.351  34.578  31.066  1.00  0.00     0.224 C 
ATOM      5  O   UNL A   1      34.877  34.887  32.161  1.00  0.00    -0.275 OA
ATOM      6  H   UNL A   1      33.775  35.408  30.247  1.00  0.00     0.163 HD
BRANCH   4   7
ATOM      7  C   UNL A   1      36.671  33.900  31.085  1.00  0.00     0.098 C 
ATOM      8  C   UNL A   1      39.093  34.200  31.852  1.00  0.00     0.013 C 
ATOM      9  C   UNL A   1      37.669  33.839  32.226  1.00  0.00    -0.011 C 
ATOM     10  C   UNL A   1      37.303  34.353  33.595  1.00  0.00     0.013 C 
ATOM     11  C   UNL A   1      37.075  32.552  31.604  1.00  0.00     0.098 C 
BRANCH  11  12
ATOM     12  C   UNL A   1      36.202  31.582  32.301  1.00  0.00     0.228 C 
ATOM     13  O   UNL A   1      34.982  31.691  32.204  1.00  0.00    -0.274 OA
ATOM     14  N   UNL A   1      36.729  30.551  33.051  1.00  0.00    -0.326 N 
ATOM     15  H   UNL A   1      36.064  29.934  33.434  1.00  0.00     0.169 HD
BRANCH  14  16
ATOM     16  C   UNL A   1      38.065  30.243  33.356  1.00  0.00     0.042 A 
ATOM     17  C   UNL A   1      38.609  29.095  32.772  1.00  0.00     0.028 A 
ATOM     18  C   UNL A   1      38.869  31.046  34.162  1.00  0.00     0.043 A 
ATOM     19  C   UNL A   1      39.978  28.835  32.876  1.00  0.00     0.024 A 
ATOM     20  C   UNL A   1      40.237  30.773  34.291  1.00  0.00     0.038 A 
ATOM     21  C   UNL A   1      40.800  29.684  33.622  1.00  0.00     0.055 A 
ATOM     22  Br  UNL A   1      41.256  31.948  35.383  1.00  0.00    -0.049 Br
ATOM     23  Cl  UNL A   1      42.487  29.324  33.671  1.00  0.00    -0.083 Cl
ENDBRANCH  14  16
ENDBRANCH  11  12
ENDBRANCH   4   7
ENDBRANCH   2   3
ENDBRANCH   1   2
BRANCH   1  24
ATOM     24  C   UNL A   1      34.366  32.337  28.792  1.00  0.00     0.118 C 
BRANCH  24  25
ATOM     25  N   UNL A   1      33.827  31.134  28.164  1.00  0.00    -0.352 N 
ATOM     26  C   UNL A   1      34.487  30.003  27.743  1.00  0.00     0.251 C 
ATOM     27  H   UNL A   1      32.853  31.132  28.021  1.00  0.00     0.163 HD
ATOM     28  O   UNL A   1      33.906  29.179  27.044  1.00  0.00    -0.269 OA
BRANCH  26  29
ATOM     29  C   UNL A   1      35.900  29.807  28.126  1.00  0.00     0.039 A 
ATOM     30  C   UNL A   1      36.210  29.311  29.393  1.00  0.00     0.014 A 
ATOM     31  C   UNL A   1      36.914  30.081  27.207  1.00  0.00     0.014 A 
ATOM     32  C   UNL A   1      37.539  29.012  29.706  1.00  0.00     0.010 A 
ATOM     33  C   UNL A   1      38.215  29.684  27.481  1.00  0.00     0.010 A 
ATOM     34  C   UNL A   1      38.545  29.155  28.738  1.00  0.00    -0.014 A 
BRANCH  34  35
ATOM     35  C   UNL A   1      39.959  28.795  29.009  1.00  0.00     0.031 A 
ATOM     36  C   UNL A   1      40.882  29.829  29.599  1.00  0.00     0.074 A 
ATOM     37  C   UNL A   1      40.431  27.585  28.648  1.00  0.00     0.049 A 
ATOM     38  N   UNL A   1      42.177  29.779  29.773  1.00  0.00    -0.248 NA
ATOM     39  C   UNL A   1      40.272  31.106  30.010  1.00  0.00     0.031 C 
ATOM     40  C   UNL A   1      39.646  26.516  28.023  1.00  0.00     0.029 A 
ATOM     41  N   UNL A   1      41.692  27.053  28.742  1.00  0.00    -0.354 N 
ATOM     42  C   UNL A   1      42.537  31.019  30.287  1.00  0.00     0.074 A 
ATOM     43  C   UNL A   1      41.336  31.822  30.339  1.00  0.00     0.031 C 
ATOM     44  C   UNL A   1      40.438  25.452  27.812  1.00  0.00     0.029 A 
ATOM     45  C   UNL A   1      41.793  25.774  28.246  1.00  0.00     0.049 A 
ATOM     46  H   UNL A   1      42.455  27.543  29.127  1.00  0.00     0.167 HD
ATOM     47  C   UNL A   1      43.752  31.441  30.707  1.00  0.00     0.037 A 
ATOM     48  C   UNL A   1      42.861  24.959  28.147  1.00  0.00     0.037 A 
ATOM     49  C   UNL A   1      44.931  30.619  30.700  1.00  0.00     0.049 A 
ATOM     50  C   UNL A   1      44.199  25.445  28.638  1.00  0.00     0.074 A 
ATOM     51  C   UNL A   1      46.203  30.933  31.146  1.00  0.00     0.029 A 
ATOM     52  N   UNL A   1      44.979  29.313  30.236  1.00  0.00    -0.354 N 
ATOM     53  N   UNL A   1      44.512  26.609  29.156  1.00  0.00    -0.248 NA
ATOM     54  C   UNL A   1      45.327  24.509  28.537  1.00  0.00     0.031 C 
ATOM     55  C   UNL A   1      47.027  29.824  30.930  1.00  0.00     0.029 A 
ATOM     56  C   UNL A   1      46.259  28.806  30.385  1.00  0.00     0.049 A 
ATOM     57  H   UNL A   1      44.217  28.819  29.857  1.00  0.00     0.167 HD
ATOM     58  C   UNL A   1      45.864  26.531  29.474  1.00  0.00     0.074 A 
ATOM     59  C   UNL A   1      46.306  25.206  29.096  1.00  0.00     0.031 C 
ATOM     60  C   UNL A   1      46.668  27.472  30.029  1.00  0.00     0.037 A 
BRANCH  47  61
ATOM     61  C   UNL A   1      43.858  32.843  31.240  1.00  0.00     0.058 A 
ATOM     62  C   UNL A   1      43.888  33.952  30.379  1.00  0.00     0.135 A 
ATOM     63  C   UNL A   1      43.893  33.086  32.622  1.00  0.00     0.135 A 
ATOM     64  F   UNL A   1      43.879  33.776  29.048  1.00  0.00    -0.206 F 
ATOM     65  C   UNL A   1      43.971  35.250  30.869  1.00  0.00     0.059 A 
ATOM     66  C   UNL A   1      43.949  34.378  33.135  1.00  0.00     0.059 A 
ATOM     67  F   UNL A   1      43.871  32.060  33.489  1.00  0.00    -0.206 F 
ATOM     68  C   UNL A   1      43.999  35.453  32.249  1.00  0.00     0.060 A 
BRANCH  68  69
ATOM     69  S   UNL A   1      44.087  37.147  32.867  1.00  0.00     0.124 S 
ATOM     70  O   UNL A   1      42.950  37.182  33.781  1.00  0.00    -0.237 OA
ATOM     71  O   UNL A   1      45.405  37.185  33.491  1.00  0.00    -0.237 OA
ATOM     72  O   UNL A   1      43.945  37.956  31.659  1.00  0.00    -0.744 OA
ENDBRANCH  68  69
ENDBRANCH  47  61
BRANCH  48  73
ATOM     73  C   UNL A   1      42.714  23.590  27.583  1.00  0.00     0.058 A 
ATOM     74  C   UNL A   1      42.415  22.500  28.415  1.00  0.00     0.135 A 
ATOM     75  C   UNL A   1      42.885  23.338  26.214  1.00  0.00     0.135 A 
ATOM     76  F   UNL A   1      42.246  22.689  29.733  1.00  0.00    -0.206 F 
ATOM     77  C   UNL A   1      42.323  21.204  27.916  1.00  0.00     0.059 A 
ATOM     78  C   UNL A   1      42.773  22.055  25.686  1.00  0.00     0.059 A 
ATOM     79  F   UNL A   1      43.152  24.349  25.372  1.00  0.00    -0.206 F 
ATOM     80  C   UNL A   1      42.508  20.992  26.549  1.00  0.00     0.060 A 
BRANCH  80  81
ATOM     81  S   UNL A   1      42.370  19.310  25.906  1.00  0.00     0.124 S 
ATOM     82  O   UNL A   1      42.950  18.533  26.995  1.00  0.00    -0.237 OA
ATOM     83  O   UNL A   1      40.930  19.168  25.717  1.00  0.00    -0.237 OA
ATOM     84  O   UNL A   1      43.155  19.357  24.676  1.00  0.00    -0.744 OA
ENDBRANCH  80  81
ENDBRANCH  48  73
BRANCH  60  85
ATOM     85  C   UNL A   1      48.091  27.087  30.314  1.00  0.00     0.058 A 
ATOM     86  C   UNL A   1      49.110  27.286  29.372  1.00  0.00     0.135 A 
ATOM     87  C   UNL A   1      48.445  26.578  31.573  1.00  0.00     0.135 A 
ATOM     88  F   UNL A   1      48.819  27.764  28.151  1.00  0.00    -0.206 F 
ATOM     89  C   UNL A   1      50.435  26.978  29.663  1.00  0.00     0.059 A 
ATOM     90  C   UNL A   1      49.766  26.287  31.895  1.00  0.00     0.059 A 
ATOM     91  F   UNL A   1      47.506  26.381  32.512  1.00  0.00    -0.206 F 
ATOM     92  C   UNL A   1      50.753  26.482  30.929  1.00  0.00     0.060 A 
BRANCH  92  93
ATOM     93  S   UNL A   1      52.481  26.133  31.312  1.00  0.00     0.124 S 
ATOM     94  O   UNL A   1      52.804  27.219  32.231  1.00  0.00    -0.237 OA
ATOM     95  O   UNL A   1      52.409  24.801  31.906  1.00  0.00    -0.237 OA
ATOM     96  O   UNL A   1      53.138  26.195  30.010  1.00  0.00    -0.744 OA
ENDBRANCH  92  93
ENDBRANCH  60  85
ENDBRANCH  34  35
ENDBRANCH  26  29
ENDBRANCH  24  25
ENDBRANCH   1  24
TORSDOF 15
ENDMDL
MODEL 3
REMARK VINA RESULT:      -9.9      5.053     11.309
REMARK SMILES CC1(C)[C@H](C(=O)NCCCNC(=O)c2ccc(-c3c4nc(c(-c5c(F)cc(S(=O)(=O)[O-])cc5F)c5ccc([nH]5)c(-c5c(F)cc(S(=O)(=O)[O-])cc5F)c5nc(c(-c6c(F)cc(S(=O)(=O)[O-])cc6F)c6ccc3[nH]6)C=C5)C=C4)cc2)[C@@H]1C(=O)Nc1ccc(Cl)c(Br)c1
REMARK SMILES IDX 9 1 8 2 7 3 5 4 6 5 4 7 1 8 2 9 3 10 80 11 81 12 82 13 83 14
REMARK SMILES IDX 84 16 85 17 91 18 86 19 89 20 87 21 90 22 88 23 10 24 11 25
REMARK SMILES IDX 12 26 13 28 14 29 15 30 79 31 16 32 78 33 17 34 18 35 19 36
REMARK SMILES IDX 72 37 20 38 77 39 71 40 73 41 21 42 76 43 70 44 69 45 22 47
REMARK SMILES IDX 56 48 35 49 55 50 36 51 39 52 54 53 74 54 37 55 38 56 53 58
REMARK SMILES IDX 75 59 40 60 23 61 24 62 33 63 25 64 26 65 32 66 34 67 27 68
REMARK SMILES IDX 28 69 29 70 30 71 31 72 57 73 58 74 67 75 59 76 60 77 66 78
REMARK SMILES IDX 68 79 61 80 62 81 63 82 64 83 65 84 41 85 42 86 51 87 43 88
REMARK SMILES IDX 44 89 50 90 52 91 45 92 46 93 47 94 48 95 49 96
REMARK H PARENT 7 6 83 15 11 27 73 46 39 57
REMARK Flexibility Score: inf
ROOT
ATOM      1  C   UNL A   1      33.642  28.378  25.715  1.00  0.00     0.042 C 
ENDROOT
BRANCH   1   2
ATOM      2  C   UNL A   1      33.306  29.665  24.984  1.00  0.00     0.117 C 
BRANCH   2   3
ATOM      3  N   UNL A   1      31.990  29.619  24.384  1.00  0.00    -0.356 N 
ATOM      4  C   UNL A   1      31.034  28.664  24.218  1.00  0.00     0.224 C 
ATOM      5  O   UNL A   1      30.011  29.041  23.642  1.00  0.00    -0.275 OA
ATOM      6  H   UNL A   1      31.721  30.487  24.005  1.00  0.00     0.163 HD
BRANCH   4   7
ATOM      7  C   UNL A   1      31.051  27.253  24.678  1.00  0.00     0.098 C 
ATOM      8  C   UNL A   1      29.635  25.498  25.886  1.00  0.00     0.013 C 
ATOM      9  C   UNL A   1      29.931  26.234  24.594  1.00  0.00    -0.011 C 
ATOM     10  C   UNL A   1      28.672  26.538  23.822  1.00  0.00     0.013 C 
ATOM     11  C   UNL A   1      31.305  25.979  23.930  1.00  0.00     0.098 C 
BRANCH  11  12
ATOM     12  C   UNL A   1      31.549  25.848  22.476  1.00  0.00     0.228 C 
ATOM     13  O   UNL A   1      30.989  26.617  21.699  1.00  0.00    -0.274 OA
ATOM     14  N   UNL A   1      32.401  24.885  21.975  1.00  0.00    -0.326 N 
ATOM     15  H   UNL A   1      32.530  24.913  20.999  1.00  0.00     0.169 HD
BRANCH  14  16
ATOM     16  C   UNL A   1      33.110  23.869  22.636  1.00  0.00     0.042 A 
ATOM     17  C   UNL A   1      34.393  24.180  23.100  1.00  0.00     0.028 A 
ATOM     18  C   UNL A   1      32.580  22.606  22.888  1.00  0.00     0.043 A 
ATOM     19  C   UNL A   1      35.076  23.286  23.929  1.00  0.00     0.024 A 
ATOM     20  C   UNL A   1      33.273  21.697  23.697  1.00  0.00     0.038 A 
ATOM     21  C   UNL A   1      34.509  22.048  24.245  1.00  0.00     0.055 A 
ATOM     22  Br  UNL A   1      32.450  20.013  24.011  1.00  0.00    -0.049 Br
ATOM     23  Cl  UNL A   1      35.391  21.013  25.309  1.00  0.00    -0.083 Cl
ENDBRANCH  14  16
ENDBRANCH  11  12
ENDBRANCH   4   7
ENDBRANCH   2   3
ENDBRANCH   1   2
BRANCH   1  24
ATOM     24  C   UNL A   1      33.566  28.530  27.225  1.00  0.00     0.118 C 
BRANCH  24  25
ATOM     25  N   UNL A   1      33.517  29.929  27.640  1.00  0.00    -0.352 N 
ATOM     26  C   UNL A   1      34.471  30.677  28.289  1.00  0.00     0.251 C 
ATOM     27  H   UNL A   1      32.683  30.405  27.425  1.00  0.00     0.163 HD
ATOM     28  O   UNL A   1      34.180  31.777  28.749  1.00  0.00    -0.269 OA
BRANCH  26  29
ATOM     29  C   UNL A   1      35.835  30.132  28.441  1.00  0.00     0.039 A 
ATOM     30  C   UNL A   1      36.708  30.139  27.352  1.00  0.00     0.014 A 
ATOM     31  C   UNL A   1      36.258  29.650  29.681  1.00  0.00     0.014 A 
ATOM     32  C   UNL A   1      38.034  29.737  27.532  1.00  0.00     0.010 A 
ATOM     33  C   UNL A   1      37.599  29.353  29.883  1.00  0.00     0.010 A 
ATOM     34  C   UNL A   1      38.500  29.383  28.808  1.00  0.00    -0.014 A 
BRANCH  34  35
ATOM     35  C   UNL A   1      39.914  29.004  29.055  1.00  0.00     0.031 A 
ATOM     36  C   UNL A   1      40.865  30.031  29.612  1.00  0.00     0.074 A 
ATOM     37  C   UNL A   1      40.360  27.783  28.700  1.00  0.00     0.049 A 
ATOM     38  N   UNL A   1      42.162  29.963  29.759  1.00  0.00    -0.248 NA
ATOM     39  C   UNL A   1      40.284  31.323  30.018  1.00  0.00     0.031 C 
ATOM     40  C   UNL A   1      39.546  26.719  28.105  1.00  0.00     0.029 A 
ATOM     41  N   UNL A   1      41.614  27.232  28.774  1.00  0.00    -0.354 N 
ATOM     42  C   UNL A   1      42.552  31.204  30.249  1.00  0.00     0.074 A 
ATOM     43  C   UNL A   1      41.365  32.027  30.317  1.00  0.00     0.031 C 
ATOM     44  C   UNL A   1      40.317  25.640  27.892  1.00  0.00     0.029 A 
ATOM     45  C   UNL A   1      41.685  25.946  28.293  1.00  0.00     0.049 A 
ATOM     46  H   UNL A   1      42.392  27.715  29.137  1.00  0.00     0.167 HD
ATOM     47  C   UNL A   1      43.782  31.612  30.639  1.00  0.00     0.037 A 
ATOM     48  C   UNL A   1      42.739  25.113  28.183  1.00  0.00     0.037 A 
ATOM     49  C   UNL A   1      44.948  30.772  30.618  1.00  0.00     0.049 A 
ATOM     50  C   UNL A   1      44.093  25.584  28.640  1.00  0.00     0.074 A 
ATOM     51  C   UNL A   1      46.234  31.071  31.033  1.00  0.00     0.029 A 
ATOM     52  N   UNL A   1      44.967  29.459  30.171  1.00  0.00    -0.354 N 
ATOM     53  N   UNL A   1      44.436  26.750  29.136  1.00  0.00    -0.248 NA
ATOM     54  C   UNL A   1      45.204  24.630  28.527  1.00  0.00     0.031 C 
ATOM     55  C   UNL A   1      47.035  29.947  30.815  1.00  0.00     0.029 A 
ATOM     56  C   UNL A   1      46.241  28.935  30.299  1.00  0.00     0.049 A 
ATOM     57  H   UNL A   1      44.189  28.972  29.814  1.00  0.00     0.167 HD
ATOM     58  C   UNL A   1      45.792  26.655  29.426  1.00  0.00     0.074 A 
ATOM     59  C   UNL A   1      46.206  25.318  29.057  1.00  0.00     0.031 C 
ATOM     60  C   UNL A   1      46.622  27.590  29.952  1.00  0.00     0.037 A 
BRANCH  47  61
ATOM     61  C   UNL A   1      43.921  33.019  31.152  1.00  0.00     0.058 A 
ATOM     62  C   UNL A   1      44.175  34.092  30.282  1.00  0.00     0.135 A 
ATOM     63  C   UNL A   1      43.762  33.305  32.517  1.00  0.00     0.135 A 
ATOM     64  F   UNL A   1      44.356  33.871  28.970  1.00  0.00    -0.206 F 
ATOM     65  C   UNL A   1      44.289  35.395  30.750  1.00  0.00     0.059 A 
ATOM     66  C   UNL A   1      43.846  34.606  33.003  1.00  0.00     0.059 A 
ATOM     67  F   UNL A   1      43.523  32.315  33.391  1.00  0.00    -0.206 F 
ATOM     68  C   UNL A   1      44.121  35.643  32.113  1.00  0.00     0.060 A 
BRANCH  68  69
ATOM     69  S   UNL A   1      44.253  37.345  32.700  1.00  0.00     0.124 S 
ATOM     70  O   UNL A   1      45.570  37.335  33.327  1.00  0.00    -0.237 OA
ATOM     71  O   UNL A   1      44.145  38.112  31.462  1.00  0.00    -0.237 OA
ATOM     72  O   UNL A   1      43.123  37.477  33.615  1.00  0.00    -0.744 OA
ENDBRANCH  68  69
ENDBRANCH  47  61
BRANCH  48  73
ATOM     73  C   UNL A   1      42.558  23.739  27.640  1.00  0.00     0.058 A 
ATOM     74  C   UNL A   1      42.393  22.643  28.501  1.00  0.00     0.135 A 
ATOM     75  C   UNL A   1      42.565  23.489  26.260  1.00  0.00     0.135 A 
ATOM     76  F   UNL A   1      42.384  22.831  29.830  1.00  0.00    -0.206 F 
ATOM     77  C   UNL A   1      42.274  21.345  28.016  1.00  0.00     0.059 A 
ATOM     78  C   UNL A   1      42.422  22.202  25.749  1.00  0.00     0.059 A 
ATOM     79  F   UNL A   1      42.699  24.505  25.392  1.00  0.00    -0.206 F 
ATOM     80  C   UNL A   1      42.294  21.135  26.636  1.00  0.00     0.060 A 
BRANCH  80  81
ATOM     81  S   UNL A   1      42.122  19.448  26.013  1.00  0.00     0.124 S 
ATOM     82  O   UNL A   1      42.978  19.484  24.833  1.00  0.00    -0.237 OA
ATOM     83  O   UNL A   1      42.614  18.653  27.134  1.00  0.00    -0.237 OA
ATOM     84  O   UNL A   1      40.690  19.333  25.753  1.00  0.00    -0.744 OA
ENDBRANCH  80  81
ENDBRANCH  48  73
BRANCH  60  85
ATOM     85  C   UNL A   1      48.044  27.186  30.213  1.00  0.00     0.058 A 
ATOM     86  C   UNL A   1      49.056  27.402  29.266  1.00  0.00     0.135 A 
ATOM     87  C   UNL A   1      48.407  26.642  31.455  1.00  0.00     0.135 A 
ATOM     88  F   UNL A   1      48.757  27.914  28.061  1.00  0.00    -0.206 F 
ATOM     89  C   UNL A   1      50.380  27.075  29.535  1.00  0.00     0.059 A 
ATOM     90  C   UNL A   1      49.729  26.332  31.755  1.00  0.00     0.059 A 
ATOM     91  F   UNL A   1      47.476  26.428  32.397  1.00  0.00    -0.206 F 
ATOM     92  C   UNL A   1      50.707  26.544  30.785  1.00  0.00     0.060 A 
BRANCH  92  93
ATOM     93  S   UNL A   1      52.437  26.171  31.141  1.00  0.00     0.124 S 
ATOM     94  O   UNL A   1      53.019  26.169  29.803  1.00  0.00    -0.237 OA
ATOM     95  O   UNL A   1      52.827  27.285  32.001  1.00  0.00    -0.237 OA
ATOM     96  O   UNL A   1      52.375  24.871  31.802  1.00  0.00    -0.744 OA
ENDBRANCH  92  93
ENDBRANCH  60  85
ENDBRANCH  34  35
ENDBRANCH  26  29
ENDBRANCH  24  25
ENDBRANCH   1  24
TORSDOF 15
ENDMDL
