MODEL 1
REMARK VINA RESULT:     -12.3      0.000      0.000
REMARK SMILES O=C(NCCCNC(=O)[C@H](NC(=O)[C@H]1CC(=O)N(CC2CC2)C1)c1ccccc1C(F)(F)F)c1ccc(-c2c3nc(c(-c4c(F)cc(S(=O)(=O)[O-])cc4F)c4ccc([nH]4)c(-c4c(F)cc(S(=O)(=O)[O-])cc4F)c4nc(c(-c5c(F)cc(S(=O)(=O)[O-])cc5F)c5ccc2[nH]5)C=C4)C=C3)cc1
REMARK SMILES IDX 5 1 4 2 3 3 1 4 2 5 34 7 35 8 99 9 36 10 98 11 37 12 38 13
REMARK SMILES IDX 39 14 92 15 40 16 97 17 91 18 93 19 41 20 96 21 90 22 89 23
REMARK SMILES IDX 42 25 76 26 55 27 75 28 56 29 59 30 74 31 94 32 57 33 58 34
REMARK SMILES IDX 73 36 95 37 60 38 43 39 44 40 53 41 45 42 46 43 52 44 54 45
REMARK SMILES IDX 47 46 48 47 49 48 50 49 51 50 77 51 78 52 87 53 79 54 80 55
REMARK SMILES IDX 86 56 88 57 81 58 82 59 83 60 84 61 85 62 61 63 62 64 71 65
REMARK SMILES IDX 63 66 64 67 70 68 72 69 65 70 66 71 67 72 68 73 69 74 6 75
REMARK SMILES IDX 7 76 8 77 9 79 10 80 24 81 25 82 29 83 26 84 28 85 27 86
REMARK SMILES IDX 30 87 31 88 32 89 33 90 11 91 12 92 13 94 14 95 15 96 23 97
REMARK SMILES IDX 16 98 18 99 17 100 19 101 20 102 21 103 22 104
REMARK H PARENT 3 6 93 24 59 35 7 78 11 93
REMARK Flexibility Score: inf
ROOT
ATOM      1  C   UNL A   1      32.718  27.757  26.835  1.00  0.00     0.042 C 
ENDROOT
BRANCH   1   2
ATOM      2  C   UNL A   1      34.013  28.490  27.128  1.00  0.00     0.118 C 
BRANCH   2   3
ATOM      3  N   UNL A   1      33.772  29.853  27.593  1.00  0.00    -0.352 N 
ATOM      4  O   UNL A   1      34.155  31.719  28.796  1.00  0.00    -0.269 OA
ATOM      5  C   UNL A   1      34.593  30.677  28.319  1.00  0.00     0.251 C 
ATOM      6  H   UNL A   1      32.896  30.233  27.351  1.00  0.00     0.163 HD
BRANCH   5   7
ATOM      7  C   UNL A   1      36.000  30.287  28.524  1.00  0.00     0.039 A 
ATOM      8  C   UNL A   1      36.930  30.481  27.500  1.00  0.00     0.014 A 
ATOM      9  C   UNL A   1      36.387  29.716  29.738  1.00  0.00     0.014 A 
ATOM     10  C   UNL A   1      38.209  29.968  27.629  1.00  0.00     0.010 A 
ATOM     11  C   UNL A   1      37.711  29.309  29.910  1.00  0.00     0.010 A 
ATOM     12  C   UNL A   1      38.625  29.420  28.851  1.00  0.00    -0.014 A 
BRANCH  12  13
ATOM     13  C   UNL A   1      40.059  29.090  29.028  1.00  0.00     0.031 A 
ATOM     14  C   UNL A   1      40.607  27.754  28.625  1.00  0.00     0.074 A 
ATOM     15  C   UNL A   1      40.856  30.037  29.563  1.00  0.00     0.049 A 
ATOM     16  N   UNL A   1      41.826  27.301  28.751  1.00  0.00    -0.248 NA
ATOM     17  C   UNL A   1      39.671  26.799  28.010  1.00  0.00     0.031 C 
ATOM     18  C   UNL A   1      40.410  31.366  29.997  1.00  0.00     0.029 A 
ATOM     19  N   UNL A   1      42.200  30.040  29.829  1.00  0.00    -0.354 N 
ATOM     20  C   UNL A   1      41.803  26.002  28.261  1.00  0.00     0.074 A 
ATOM     21  C   UNL A   1      40.443  25.732  27.845  1.00  0.00     0.031 C 
ATOM     22  C   UNL A   1      41.464  32.067  30.435  1.00  0.00     0.029 A 
ATOM     23  C   UNL A   1      42.639  31.210  30.401  1.00  0.00     0.049 A 
ATOM     24  H   UNL A   1      42.792  29.279  29.630  1.00  0.00     0.167 HD
ATOM     25  C   UNL A   1      42.830  25.123  28.172  1.00  0.00     0.037 A 
ATOM     26  C   UNL A   1      43.847  31.544  30.889  1.00  0.00     0.037 A 
ATOM     27  C   UNL A   1      44.179  25.424  28.582  1.00  0.00     0.049 A 
ATOM     28  C   UNL A   1      44.953  30.535  30.810  1.00  0.00     0.074 A 
ATOM     29  C   UNL A   1      45.305  24.624  28.484  1.00  0.00     0.029 A 
ATOM     30  N   UNL A   1      44.584  26.611  29.178  1.00  0.00    -0.354 N 
ATOM     31  N   UNL A   1      44.928  29.327  30.297  1.00  0.00    -0.248 NA
ATOM     32  C   UNL A   1      46.248  30.924  31.379  1.00  0.00     0.031 C 
ATOM     33  C   UNL A   1      46.373  25.300  29.080  1.00  0.00     0.029 A 
ATOM     34  C   UNL A   1      45.932  26.548  29.490  1.00  0.00     0.049 A 
ATOM     35  H   UNL A   1      43.999  27.382  29.354  1.00  0.00     0.167 HD
ATOM     36  C   UNL A   1      46.207  28.817  30.469  1.00  0.00     0.074 A 
ATOM     37  C   UNL A   1      46.987  29.855  31.112  1.00  0.00     0.031 C 
ATOM     38  C   UNL A   1      46.691  27.597  30.128  1.00  0.00     0.037 A 
BRANCH  25  39
ATOM     39  C   UNL A   1      42.542  23.742  27.644  1.00  0.00     0.058 A 
ATOM     40  C   UNL A   1      42.441  23.473  26.271  1.00  0.00     0.135 A 
ATOM     41  C   UNL A   1      42.431  22.656  28.530  1.00  0.00     0.135 A 
ATOM     42  F   UNL A   1      42.525  24.473  25.378  1.00  0.00    -0.206 F 
ATOM     43  C   UNL A   1      42.227  22.182  25.794  1.00  0.00     0.059 A 
ATOM     44  C   UNL A   1      42.245  21.353  28.076  1.00  0.00     0.059 A 
ATOM     45  F   UNL A   1      42.517  22.854  29.856  1.00  0.00    -0.206 F 
ATOM     46  C   UNL A   1      42.135  21.128  26.706  1.00  0.00     0.060 A 
BRANCH  46  47
ATOM     47  S   UNL A   1      41.882  19.457  26.070  1.00  0.00     0.124 S 
ATOM     48  O   UNL A   1      42.770  19.449  24.911  1.00  0.00    -0.237 OA
ATOM     49  O   UNL A   1      42.301  18.629  27.195  1.00  0.00    -0.237 OA
ATOM     50  O   UNL A   1      40.455  19.420  25.764  1.00  0.00    -0.744 OA
ENDBRANCH  46  47
ENDBRANCH  25  39
BRANCH  26  51
ATOM     51  C   UNL A   1      44.046  32.872  31.527  1.00  0.00     0.058 A 
ATOM     52  C   UNL A   1      43.808  33.064  32.895  1.00  0.00     0.135 A 
ATOM     53  C   UNL A   1      44.502  33.972  30.782  1.00  0.00     0.135 A 
ATOM     54  F   UNL A   1      43.373  32.045  33.650  1.00  0.00    -0.206 F 
ATOM     55  C   UNL A   1      43.993  34.304  33.497  1.00  0.00     0.059 A 
ATOM     56  C   UNL A   1      44.728  35.211  31.368  1.00  0.00     0.059 A 
ATOM     57  F   UNL A   1      44.768  33.836  29.473  1.00  0.00    -0.206 F 
ATOM     58  C   UNL A   1      44.455  35.372  32.725  1.00  0.00     0.060 A 
BRANCH  58  59
ATOM     59  S   UNL A   1      44.718  36.969  33.523  1.00  0.00     0.124 S 
ATOM     60  O   UNL A   1      45.085  36.562  34.874  1.00  0.00    -0.237 OA
ATOM     61  O   UNL A   1      45.789  37.541  32.713  1.00  0.00    -0.237 OA
ATOM     62  O   UNL A   1      43.422  37.629  33.391  1.00  0.00    -0.744 OA
ENDBRANCH  58  59
ENDBRANCH  26  51
BRANCH  38  63
ATOM     63  C   UNL A   1      48.140  27.328  30.422  1.00  0.00     0.058 A 
ATOM     64  C   UNL A   1      48.542  26.638  31.576  1.00  0.00     0.135 A 
ATOM     65  C   UNL A   1      49.132  27.717  29.508  1.00  0.00     0.135 A 
ATOM     66  F   UNL A   1      47.635  26.258  32.488  1.00  0.00    -0.206 F 
ATOM     67  C   UNL A   1      49.882  26.354  31.819  1.00  0.00     0.059 A 
ATOM     68  C   UNL A   1      50.473  27.415  29.715  1.00  0.00     0.059 A 
ATOM     69  F   UNL A   1      48.798  28.377  28.387  1.00  0.00    -0.206 F 
ATOM     70  C   UNL A   1      50.838  26.738  30.879  1.00  0.00     0.060 A 
BRANCH  70  71
ATOM     71  S   UNL A   1      52.565  26.312  31.182  1.00  0.00     0.124 S 
ATOM     72  O   UNL A   1      53.090  26.223  29.824  1.00  0.00    -0.237 OA
ATOM     73  O   UNL A   1      53.031  27.449  31.969  1.00  0.00    -0.237 OA
ATOM     74  O   UNL A   1      52.482  25.048  31.907  1.00  0.00    -0.744 OA
ENDBRANCH  70  71
ENDBRANCH  38  63
ENDBRANCH  12  13
ENDBRANCH   5   7
ENDBRANCH   2   3
ENDBRANCH   1   2
BRANCH   1  75
ATOM     75  C   UNL A   1      31.922  28.453  25.741  1.00  0.00     0.117 C 
BRANCH  75  76
ATOM     76  N   UNL A   1      32.789  28.929  24.692  1.00  0.00    -0.354 N 
ATOM     77  C   UNL A   1      32.800  28.557  23.376  1.00  0.00     0.247 C 
ATOM     78  H   UNL A   1      33.453  29.607  24.954  1.00  0.00     0.163 HD
ATOM     79  O   UNL A   1      33.614  29.131  22.650  1.00  0.00    -0.272 OA
BRANCH  77  80
ATOM     80  C   UNL A   1      31.698  27.572  22.834  1.00  0.00     0.202 C 
BRANCH  80  81
ATOM     81  C   UNL A   1      30.338  28.279  22.728  1.00  0.00    -0.004 A 
ATOM     82  C   UNL A   1      30.343  29.483  21.979  1.00  0.00     0.007 A 
ATOM     83  C   UNL A   1      29.099  27.838  23.249  1.00  0.00     0.061 A 
ATOM     84  C   UNL A   1      29.202  30.262  21.805  1.00  0.00     0.000 A 
ATOM     85  C   UNL A   1      27.959  28.664  23.089  1.00  0.00     0.013 A 
ATOM     86  C   UNL A   1      28.009  29.862  22.381  1.00  0.00     0.001 A 
BRANCH  83  87
ATOM     87  C   UNL A   1      28.886  26.530  23.984  1.00  0.00     0.416 C 
ATOM     88  F   UNL A   1      27.582  26.348  24.330  1.00  0.00    -0.166 F 
ATOM     89  F   UNL A   1      29.221  25.438  23.236  1.00  0.00    -0.166 F 
ATOM     90  F   UNL A   1      29.622  26.417  25.124  1.00  0.00    -0.166 F 
ENDBRANCH  83  87
ENDBRANCH  80  81
BRANCH  80  91
ATOM     91  N   UNL A   1      32.135  26.883  21.622  1.00  0.00    -0.340 N 
ATOM     92  C   UNL A   1      32.711  25.698  21.322  1.00  0.00     0.226 C 
ATOM     93  H   UNL A   1      31.967  27.420  20.815  1.00  0.00     0.164 HD
ATOM     94  O   UNL A   1      33.067  25.582  20.142  1.00  0.00    -0.275 OA
BRANCH  92  95
ATOM     95  C   UNL A   1      33.027  24.543  22.267  1.00  0.00     0.107 C 
ATOM     96  C   UNL A   1      34.014  24.915  23.373  1.00  0.00     0.115 C 
ATOM     97  C   UNL A   1      31.912  23.760  22.925  1.00  0.00     0.133 C 
ATOM     98  C   UNL A   1      33.371  24.450  24.651  1.00  0.00     0.223 C 
ATOM     99  N   UNL A   1      32.190  23.798  24.342  1.00  0.00    -0.342 N 
ATOM    100  O   UNL A   1      33.856  24.587  25.758  1.00  0.00    -0.275 OA
BRANCH  99 101
ATOM    101  C   UNL A   1      31.495  22.961  25.311  1.00  0.00     0.123 C 
BRANCH 101 102
ATOM    102  C   UNL A   1      31.857  21.507  25.311  1.00  0.00     0.008 C 
ATOM    103  C   UNL A   1      32.624  20.830  24.208  1.00  0.00     0.006 C 
ATOM    104  C   UNL A   1      33.265  21.037  25.556  1.00  0.00     0.006 C 
ENDBRANCH 101 102
ENDBRANCH  99 101
ENDBRANCH  92  95
ENDBRANCH  80  91
ENDBRANCH  77  80
ENDBRANCH  75  76
ENDBRANCH   1  75
TORSDOF 19
ENDMDL
MODEL 2
REMARK VINA RESULT:     -12.2      0.578      8.028
REMARK SMILES O=C(NCCCNC(=O)[C@H](NC(=O)[C@H]1CC(=O)N(CC2CC2)C1)c1ccccc1C(F)(F)F)c1ccc(-c2c3nc(c(-c4c(F)cc(S(=O)(=O)[O-])cc4F)c4ccc([nH]4)c(-c4c(F)cc(S(=O)(=O)[O-])cc4F)c4nc(c(-c5c(F)cc(S(=O)(=O)[O-])cc5F)c5ccc2[nH]5)C=C4)C=C3)cc1
REMARK SMILES IDX 5 1 4 2 3 3 1 4 2 5 34 7 35 8 99 9 36 10 98 11 37 12 38 13
REMARK SMILES IDX 39 14 92 15 40 16 97 17 91 18 93 19 41 20 96 21 90 22 89 23
REMARK SMILES IDX 42 25 76 26 55 27 75 28 56 29 59 30 74 31 94 32 57 33 58 34
REMARK SMILES IDX 73 36 95 37 60 38 43 39 44 40 53 41 45 42 46 43 52 44 54 45
REMARK SMILES IDX 47 46 48 47 49 48 50 49 51 50 77 51 78 52 87 53 79 54 80 55
REMARK SMILES IDX 86 56 88 57 81 58 82 59 83 60 84 61 85 62 61 63 62 64 71 65
REMARK SMILES IDX 63 66 64 67 70 68 72 69 65 70 66 71 67 72 68 73 69 74 6 75
REMARK SMILES IDX 7 76 8 77 9 79 10 80 24 81 25 82 29 83 26 84 28 85 27 86
REMARK SMILES IDX 30 87 31 88 32 89 33 90 11 91 12 92 13 94 14 95 15 96 23 97
REMARK SMILES IDX 16 98 18 99 17 100 19 101 20 102 21 103 22 104
REMARK H PARENT 3 6 93 24 59 35 7 78 11 93
REMARK Flexibility Score: inf
ROOT
ATOM      1  C   UNL A   1      32.756  27.664  26.718  1.00  0.00     0.042 C 
ENDROOT
BRANCH   1   2
ATOM      2  C   UNL A   1      34.017  28.415  27.103  1.00  0.00     0.118 C 
BRANCH   2   3
ATOM      3  N   UNL A   1      33.719  29.756  27.598  1.00  0.00    -0.352 N 
ATOM      4  O   UNL A   1      34.021  31.607  28.847  1.00  0.00    -0.269 OA
ATOM      5  C   UNL A   1      34.503  30.595  28.349  1.00  0.00     0.251 C 
ATOM      6  H   UNL A   1      32.830  30.108  27.359  1.00  0.00     0.163 HD
BRANCH   5   7
ATOM      7  C   UNL A   1      35.922  30.254  28.556  1.00  0.00     0.039 A 
ATOM      8  C   UNL A   1      36.842  30.460  27.525  1.00  0.00     0.014 A 
ATOM      9  C   UNL A   1      36.332  29.718  29.778  1.00  0.00     0.014 A 
ATOM     10  C   UNL A   1      38.137  29.992  27.657  1.00  0.00     0.010 A 
ATOM     11  C   UNL A   1      37.670  29.359  29.952  1.00  0.00     0.010 A 
ATOM     12  C   UNL A   1      38.576  29.480  28.887  1.00  0.00    -0.014 A 
BRANCH  12  13
ATOM     13  C   UNL A   1      40.020  29.201  29.065  1.00  0.00     0.031 A 
ATOM     14  C   UNL A   1      40.965  30.259  29.549  1.00  0.00     0.074 A 
ATOM     15  C   UNL A   1      40.456  27.957  28.779  1.00  0.00     0.049 A 
ATOM     16  N   UNL A   1      42.259  30.181  29.719  1.00  0.00    -0.248 NA
ATOM     17  C   UNL A   1      40.394  31.575  29.877  1.00  0.00     0.031 C 
ATOM     18  C   UNL A   1      39.610  26.861  28.291  1.00  0.00     0.029 A 
ATOM     19  N   UNL A   1      41.702  27.397  28.860  1.00  0.00    -0.354 N 
ATOM     20  C   UNL A   1      42.664  31.440  30.145  1.00  0.00     0.074 A 
ATOM     21  C   UNL A   1      41.479  32.270  30.196  1.00  0.00     0.031 C 
ATOM     22  C   UNL A   1      40.352  25.755  28.155  1.00  0.00     0.029 A 
ATOM     23  C   UNL A   1      41.737  26.083  28.455  1.00  0.00     0.049 A 
ATOM     24  H   UNL A   1      42.496  27.887  29.176  1.00  0.00     0.167 HD
ATOM     25  C   UNL A   1      43.914  31.854  30.460  1.00  0.00     0.037 A 
ATOM     26  C   UNL A   1      42.777  25.245  28.298  1.00  0.00     0.037 A 
ATOM     27  C   UNL A   1      45.076  31.001  30.414  1.00  0.00     0.049 A 
ATOM     28  C   UNL A   1      44.153  25.746  28.620  1.00  0.00     0.074 A 
ATOM     29  C   UNL A   1      46.380  31.306  30.765  1.00  0.00     0.029 A 
ATOM     30  N   UNL A   1      45.078  29.682  29.977  1.00  0.00    -0.354 N 
ATOM     31  N   UNL A   1      44.514  26.924  29.070  1.00  0.00    -0.248 NA
ATOM     32  C   UNL A   1      45.265  24.812  28.408  1.00  0.00     0.031 C 
ATOM     33  C   UNL A   1      47.179  30.195  30.480  1.00  0.00     0.029 A 
ATOM     34  C   UNL A   1      46.366  29.174  30.013  1.00  0.00     0.049 A 
ATOM     35  H   UNL A   1      44.282  29.183  29.686  1.00  0.00     0.167 HD
ATOM     36  C   UNL A   1      45.893  26.870  29.209  1.00  0.00     0.074 A 
ATOM     37  C   UNL A   1      46.299  25.535  28.817  1.00  0.00     0.031 C 
ATOM     38  C   UNL A   1      46.748  27.839  29.620  1.00  0.00     0.037 A 
BRANCH  25  39
ATOM     39  C   UNL A   1      44.110  33.295  30.853  1.00  0.00     0.058 A 
ATOM     40  C   UNL A   1      44.124  33.708  32.194  1.00  0.00     0.135 A 
ATOM     41  C   UNL A   1      44.354  34.268  29.869  1.00  0.00     0.135 A 
ATOM     42  F   UNL A   1      43.882  32.825  33.176  1.00  0.00    -0.206 F 
ATOM     43  C   UNL A   1      44.359  35.035  32.545  1.00  0.00     0.059 A 
ATOM     44  C   UNL A   1      44.619  35.595  30.197  1.00  0.00     0.059 A 
ATOM     45  F   UNL A   1      44.351  33.930  28.569  1.00  0.00    -0.206 F 
ATOM     46  C   UNL A   1      44.610  35.970  31.539  1.00  0.00     0.060 A 
BRANCH  46  47
ATOM     47  S   UNL A   1      44.936  37.681  32.014  1.00  0.00     0.124 S 
ATOM     48  O   UNL A   1      43.618  38.116  32.465  1.00  0.00    -0.237 OA
ATOM     49  O   UNL A   1      45.944  37.528  33.057  1.00  0.00    -0.237 OA
ATOM     50  O   UNL A   1      45.407  38.296  30.776  1.00  0.00    -0.744 OA
ENDBRANCH  46  47
ENDBRANCH  25  39
BRANCH  26  51
ATOM     51  C   UNL A   1      42.548  23.873  27.774  1.00  0.00     0.058 A 
ATOM     52  C   UNL A   1      42.432  23.629  26.399  1.00  0.00     0.135 A 
ATOM     53  C   UNL A   1      42.463  22.771  28.643  1.00  0.00     0.135 A 
ATOM     54  F   UNL A   1      42.508  24.647  25.529  1.00  0.00    -0.206 F 
ATOM     55  C   UNL A   1      42.219  22.347  25.904  1.00  0.00     0.059 A 
ATOM     56  C   UNL A   1      42.286  21.477  28.170  1.00  0.00     0.059 A 
ATOM     57  F   UNL A   1      42.591  22.946  29.968  1.00  0.00    -0.206 F 
ATOM     58  C   UNL A   1      42.148  21.277  26.798  1.00  0.00     0.060 A 
BRANCH  58  59
ATOM     59  S   UNL A   1      41.899  19.614  26.141  1.00  0.00     0.124 S 
ATOM     60  O   UNL A   1      42.288  18.791  27.280  1.00  0.00    -0.237 OA
ATOM     61  O   UNL A   1      40.476  19.625  25.816  1.00  0.00    -0.237 OA
ATOM     62  O   UNL A   1      42.797  19.568  24.992  1.00  0.00    -0.744 OA
ENDBRANCH  58  59
ENDBRANCH  26  51
BRANCH  38  63
ATOM     63  C   UNL A   1      48.206  27.482  29.692  1.00  0.00     0.058 A 
ATOM     64  C   UNL A   1      49.095  27.802  28.654  1.00  0.00     0.135 A 
ATOM     65  C   UNL A   1      48.728  26.862  30.839  1.00  0.00     0.135 A 
ATOM     66  F   UNL A   1      48.643  28.381  27.531  1.00  0.00    -0.206 F 
ATOM     67  C   UNL A   1      50.451  27.509  28.746  1.00  0.00     0.059 A 
ATOM     68  C   UNL A   1      50.085  26.589  30.965  1.00  0.00     0.059 A 
ATOM     69  F   UNL A   1      47.919  26.539  31.860  1.00  0.00    -0.206 F 
ATOM     70  C   UNL A   1      50.938  26.910  29.910  1.00  0.00     0.060 A 
BRANCH  70  71
ATOM     71  S   UNL A   1      52.708  26.588  30.037  1.00  0.00     0.124 S 
ATOM     72  O   UNL A   1      53.005  26.043  28.717  1.00  0.00    -0.237 OA
ATOM     73  O   UNL A   1      53.247  27.916  30.310  1.00  0.00    -0.237 OA
ATOM     74  O   UNL A   1      52.803  25.640  31.143  1.00  0.00    -0.744 OA
ENDBRANCH  70  71
ENDBRANCH  38  63
ENDBRANCH  12  13
ENDBRANCH   5   7
ENDBRANCH   2   3
ENDBRANCH   1   2
BRANCH   1  75
ATOM     75  C   UNL A   1      31.942  28.436  25.692  1.00  0.00     0.117 C 
BRANCH  75  76
ATOM     76  N   UNL A   1      32.778  28.912  24.617  1.00  0.00    -0.354 N 
ATOM     77  C   UNL A   1      32.747  28.543  23.301  1.00  0.00     0.247 C 
ATOM     78  H   UNL A   1      33.452  29.586  24.861  1.00  0.00     0.163 HD
ATOM     79  O   UNL A   1      33.541  29.116  22.552  1.00  0.00    -0.272 OA
BRANCH  77  80
ATOM     80  C   UNL A   1      31.626  27.563  22.790  1.00  0.00     0.202 C 
BRANCH  80  81
ATOM     81  C   UNL A   1      30.268  28.278  22.718  1.00  0.00    -0.004 A 
ATOM     82  C   UNL A   1      30.272  29.508  22.012  1.00  0.00     0.007 A 
ATOM     83  C   UNL A   1      29.030  27.823  23.231  1.00  0.00     0.061 A 
ATOM     84  C   UNL A   1      29.133  30.297  21.874  1.00  0.00     0.000 A 
ATOM     85  C   UNL A   1      27.892  28.658  23.107  1.00  0.00     0.013 A 
ATOM     86  C   UNL A   1      27.943  29.881  22.442  1.00  0.00     0.001 A 
BRANCH  83  87
ATOM     87  C   UNL A   1      28.817  26.491  23.920  1.00  0.00     0.416 C 
ATOM     88  F   UNL A   1      27.523  26.318  24.305  1.00  0.00    -0.166 F 
ATOM     89  F   UNL A   1      29.103  25.423  23.117  1.00  0.00    -0.166 F 
ATOM     90  F   UNL A   1      29.591  26.317  25.027  1.00  0.00    -0.166 F 
ENDBRANCH  83  87
ENDBRANCH  80  81
BRANCH  80  91
ATOM     91  N   UNL A   1      32.028  26.869  21.569  1.00  0.00    -0.340 N 
ATOM     92  C   UNL A   1      32.607  25.689  21.258  1.00  0.00     0.226 C 
ATOM     93  H   UNL A   1      31.823  27.397  20.764  1.00  0.00     0.164 HD
ATOM     94  O   UNL A   1      32.922  25.568  20.067  1.00  0.00    -0.275 OA
BRANCH  92  95
ATOM     95  C   UNL A   1      32.973  24.547  22.200  1.00  0.00     0.107 C 
ATOM     96  C   UNL A   1      34.028  24.929  23.237  1.00  0.00     0.115 C 
ATOM     97  C   UNL A   1      31.895  23.783  22.937  1.00  0.00     0.133 C 
ATOM     98  C   UNL A   1      33.462  24.488  24.559  1.00  0.00     0.223 C 
ATOM     99  N   UNL A   1      32.260  23.841  24.335  1.00  0.00    -0.342 N 
ATOM    100  O   UNL A   1      34.015  24.639  25.632  1.00  0.00    -0.275 OA
BRANCH  99 101
ATOM    101  C   UNL A   1      31.620  23.025  25.357  1.00  0.00     0.123 C 
BRANCH 101 102
ATOM    102  C   UNL A   1      31.981  21.570  25.366  1.00  0.00     0.008 C 
ATOM    103  C   UNL A   1      33.063  20.966  24.513  1.00  0.00     0.006 C 
ATOM    104  C   UNL A   1      33.245  21.067  26.006  1.00  0.00     0.006 C 
ENDBRANCH 101 102
ENDBRANCH  99 101
ENDBRANCH  92  95
ENDBRANCH  80  91
ENDBRANCH  77  80
ENDBRANCH  75  76
ENDBRANCH   1  75
TORSDOF 19
ENDMDL
MODEL 3
REMARK VINA RESULT:     -11.9      3.197      9.345
REMARK SMILES O=C(NCCCNC(=O)[C@H](NC(=O)[C@H]1CC(=O)N(CC2CC2)C1)c1ccccc1C(F)(F)F)c1ccc(-c2c3nc(c(-c4c(F)cc(S(=O)(=O)[O-])cc4F)c4ccc([nH]4)c(-c4c(F)cc(S(=O)(=O)[O-])cc4F)c4nc(c(-c5c(F)cc(S(=O)(=O)[O-])cc5F)c5ccc2[nH]5)C=C4)C=C3)cc1
REMARK SMILES IDX 5 1 4 2 3 3 1 4 2 5 34 7 35 8 99 9 36 10 98 11 37 12 38 13
REMARK SMILES IDX 39 14 92 15 40 16 97 17 91 18 93 19 41 20 96 21 90 22 89 23
REMARK SMILES IDX 42 25 76 26 55 27 75 28 56 29 59 30 74 31 94 32 57 33 58 34
REMARK SMILES IDX 73 36 95 37 60 38 43 39 44 40 53 41 45 42 46 43 52 44 54 45
REMARK SMILES IDX 47 46 48 47 49 48 50 49 51 50 77 51 78 52 87 53 79 54 80 55
REMARK SMILES IDX 86 56 88 57 81 58 82 59 83 60 84 61 85 62 61 63 62 64 71 65
REMARK SMILES IDX 63 66 64 67 70 68 72 69 65 70 66 71 67 72 68 73 69 74 6 75
REMARK SMILES IDX 7 76 8 77 9 79 10 80 24 81 25 82 29 83 26 84 28 85 27 86
REMARK SMILES IDX 30 87 31 88 32 89 33 90 11 91 12 92 13 94 14 95 15 96 23 97
REMARK SMILES IDX 16 98 18 99 17 100 19 101 20 102 21 103 22 104
REMARK H PARENT 3 6 93 24 59 35 7 78 11 93
REMARK Flexibility Score: inf
ROOT
ATOM      1  C   UNL A   1      35.844  23.567  24.925  1.00  0.00     0.042 C 
ENDROOT
BRANCH   1   2
ATOM      2  C   UNL A   1      37.073  24.100  25.637  1.00  0.00     0.118 C 
BRANCH   2   3
ATOM      3  N   UNL A   1      38.154  23.118  25.661  1.00  0.00    -0.352 N 
ATOM      4  O   UNL A   1      40.271  22.389  25.910  1.00  0.00    -0.269 OA
ATOM      5  C   UNL A   1      39.428  23.247  26.151  1.00  0.00     0.251 C 
ATOM      6  H   UNL A   1      37.936  22.240  25.272  1.00  0.00     0.163 HD
BRANCH   5   7
ATOM      7  C   UNL A   1      39.770  24.435  26.955  1.00  0.00     0.039 A 
ATOM      8  C   UNL A   1      39.348  24.516  28.285  1.00  0.00     0.014 A 
ATOM      9  C   UNL A   1      40.503  25.473  26.378  1.00  0.00     0.014 A 
ATOM     10  C   UNL A   1      39.524  25.693  28.990  1.00  0.00     0.010 A 
ATOM     11  C   UNL A   1      40.786  26.612  27.133  1.00  0.00     0.010 A 
ATOM     12  C   UNL A   1      40.285  26.734  28.438  1.00  0.00    -0.014 A 
BRANCH  12  13
ATOM     13  C   UNL A   1      40.647  27.884  29.300  1.00  0.00     0.031 A 
ATOM     14  C   UNL A   1      39.709  29.037  29.495  1.00  0.00     0.074 A 
ATOM     15  C   UNL A   1      41.850  27.854  29.909  1.00  0.00     0.049 A 
ATOM     16  N   UNL A   1      39.895  30.132  30.185  1.00  0.00    -0.248 NA
ATOM     17  C   UNL A   1      38.401  28.964  28.825  1.00  0.00     0.031 C 
ATOM     18  C   UNL A   1      42.836  26.776  29.771  1.00  0.00     0.029 A 
ATOM     19  N   UNL A   1      42.449  28.739  30.765  1.00  0.00    -0.354 N 
ATOM     20  C   UNL A   1      38.745  30.891  30.013  1.00  0.00     0.074 A 
ATOM     21  C   UNL A   1      37.869  30.137  29.141  1.00  0.00     0.031 C 
ATOM     22  C   UNL A   1      43.896  27.043  30.545  1.00  0.00     0.029 A 
ATOM     23  C   UNL A   1      43.707  28.348  31.159  1.00  0.00     0.049 A 
ATOM     24  H   UNL A   1      42.022  29.572  31.068  1.00  0.00     0.167 HD
ATOM     25  C   UNL A   1      38.457  32.105  30.539  1.00  0.00     0.037 A 
ATOM     26  C   UNL A   1      44.630  28.990  31.897  1.00  0.00     0.037 A 
ATOM     27  C   UNL A   1      39.345  32.827  31.418  1.00  0.00     0.049 A 
ATOM     28  C   UNL A   1      44.296  30.350  32.434  1.00  0.00     0.074 A 
ATOM     29  C   UNL A   1      39.128  34.040  32.049  1.00  0.00     0.029 A 
ATOM     30  N   UNL A   1      40.620  32.412  31.777  1.00  0.00    -0.354 N 
ATOM     31  N   UNL A   1      43.183  31.033  32.304  1.00  0.00    -0.248 NA
ATOM     32  C   UNL A   1      45.338  31.032  33.209  1.00  0.00     0.031 C 
ATOM     33  C   UNL A   1      40.294  34.389  32.736  1.00  0.00     0.029 A 
ATOM     34  C   UNL A   1      41.216  33.364  32.588  1.00  0.00     0.049 A 
ATOM     35  H   UNL A   1      41.039  31.568  31.496  1.00  0.00     0.167 HD
ATOM     36  C   UNL A   1      43.385  32.220  32.994  1.00  0.00     0.074 A 
ATOM     37  C   UNL A   1      44.719  32.151  33.558  1.00  0.00     0.031 C 
ATOM     38  C   UNL A   1      42.545  33.274  33.143  1.00  0.00     0.037 A 
BRANCH  25  39
ATOM     39  C   UNL A   1      37.151  32.754  30.163  1.00  0.00     0.058 A 
ATOM     40  C   UNL A   1      35.981  32.568  30.915  1.00  0.00     0.135 A 
ATOM     41  C   UNL A   1      37.089  33.632  29.067  1.00  0.00     0.135 A 
ATOM     42  F   UNL A   1      35.978  31.730  31.964  1.00  0.00    -0.206 F 
ATOM     43  C   UNL A   1      34.793  33.216  30.586  1.00  0.00     0.059 A 
ATOM     44  C   UNL A   1      35.920  34.312  28.736  1.00  0.00     0.059 A 
ATOM     45  F   UNL A   1      38.178  33.847  28.310  1.00  0.00    -0.206 F 
ATOM     46  C   UNL A   1      34.774  34.090  29.497  1.00  0.00     0.060 A 
BRANCH  46  47
ATOM     47  S   UNL A   1      33.232  34.941  29.100  1.00  0.00     0.124 S 
ATOM     48  O   UNL A   1      33.724  36.229  28.623  1.00  0.00    -0.237 OA
ATOM     49  O   UNL A   1      32.649  34.070  28.085  1.00  0.00    -0.237 OA
ATOM     50  O   UNL A   1      32.522  34.976  30.375  1.00  0.00    -0.744 OA
ENDBRANCH  46  47
ENDBRANCH  25  39
BRANCH  26  51
ATOM     51  C   UNL A   1      45.959  28.366  32.125  1.00  0.00     0.058 A 
ATOM     52  C   UNL A   1      46.200  27.555  33.243  1.00  0.00     0.135 A 
ATOM     53  C   UNL A   1      47.013  28.551  31.213  1.00  0.00     0.135 A 
ATOM     54  F   UNL A   1      45.226  27.346  34.141  1.00  0.00    -0.206 F 
ATOM     55  C   UNL A   1      47.441  26.967  33.460  1.00  0.00     0.059 A 
ATOM     56  C   UNL A   1      48.251  27.946  31.391  1.00  0.00     0.059 A 
ATOM     57  F   UNL A   1      46.829  29.300  30.114  1.00  0.00    -0.206 F 
ATOM     58  C   UNL A   1      48.460  27.168  32.528  1.00  0.00     0.060 A 
BRANCH  58  59
ATOM     59  S   UNL A   1      50.060  26.378  32.807  1.00  0.00     0.124 S 
ATOM     60  O   UNL A   1      50.963  27.520  32.743  1.00  0.00    -0.237 OA
ATOM     61  O   UNL A   1      49.877  25.780  34.126  1.00  0.00    -0.237 OA
ATOM     62  O   UNL A   1      50.162  25.428  31.704  1.00  0.00    -0.744 OA
ENDBRANCH  58  59
ENDBRANCH  26  51
BRANCH  38  63
ATOM     63  C   UNL A   1      43.035  34.428  33.971  1.00  0.00     0.058 A 
ATOM     64  C   UNL A   1      43.638  35.552  33.386  1.00  0.00     0.135 A 
ATOM     65  C   UNL A   1      42.845  34.433  35.363  1.00  0.00     0.135 A 
ATOM     66  F   UNL A   1      43.856  35.590  32.062  1.00  0.00    -0.206 F 
ATOM     67  C   UNL A   1      44.048  36.636  34.154  1.00  0.00     0.059 A 
ATOM     68  C   UNL A   1      43.217  35.519  36.145  1.00  0.00     0.059 A 
ATOM     69  F   UNL A   1      42.269  33.383  35.970  1.00  0.00    -0.206 F 
ATOM     70  C   UNL A   1      43.824  36.615  35.531  1.00  0.00     0.060 A 
BRANCH  70  71
ATOM     71  S   UNL A   1      44.311  38.053  36.506  1.00  0.00     0.124 S 
ATOM     72  O   UNL A   1      45.693  37.729  36.842  1.00  0.00    -0.237 OA
ATOM     73  O   UNL A   1      44.128  39.146  35.557  1.00  0.00    -0.237 OA
ATOM     74  O   UNL A   1      43.373  38.038  37.625  1.00  0.00    -0.744 OA
ENDBRANCH  70  71
ENDBRANCH  38  63
ENDBRANCH  12  13
ENDBRANCH   5   7
ENDBRANCH   2   3
ENDBRANCH   1   2
BRANCH   1  75
ATOM     75  C   UNL A   1      35.720  22.059  25.085  1.00  0.00     0.117 C 
BRANCH  75  76
ATOM     76  N   UNL A   1      35.241  21.714  26.400  1.00  0.00    -0.354 N 
ATOM     77  C   UNL A   1      33.945  21.597  26.819  1.00  0.00     0.247 C 
ATOM     78  H   UNL A   1      35.931  21.539  27.079  1.00  0.00     0.163 HD
ATOM     79  O   UNL A   1      33.775  21.253  27.990  1.00  0.00    -0.272 OA
BRANCH  77  80
ATOM     80  C   UNL A   1      32.771  21.738  25.778  1.00  0.00     0.202 C 
BRANCH  80  81
ATOM     81  C   UNL A   1      32.638  20.463  24.932  1.00  0.00    -0.004 A 
ATOM     82  C   UNL A   1      32.695  19.248  25.661  1.00  0.00     0.007 A 
ATOM     83  C   UNL A   1      32.419  20.378  23.536  1.00  0.00     0.061 A 
ATOM     84  C   UNL A   1      32.616  18.001  25.046  1.00  0.00     0.000 A 
ATOM     85  C   UNL A   1      32.375  19.099  22.929  1.00  0.00     0.013 A 
ATOM     86  C   UNL A   1      32.477  17.925  23.672  1.00  0.00     0.001 A 
BRANCH  83  87
ATOM     87  C   UNL A   1      32.229  21.568  22.617  1.00  0.00     0.416 C 
ATOM     88  F   UNL A   1      31.955  21.185  21.340  1.00  0.00    -0.166 F 
ATOM     89  F   UNL A   1      31.187  22.368  22.989  1.00  0.00    -0.166 F 
ATOM     90  F   UNL A   1      33.309  22.396  22.563  1.00  0.00    -0.166 F 
ENDBRANCH  83  87
ENDBRANCH  80  81
BRANCH  80  91
ATOM     91  N   UNL A   1      31.537  22.196  26.411  1.00  0.00    -0.340 N 
ATOM     92  C   UNL A   1      30.784  23.317  26.393  1.00  0.00     0.226 C 
ATOM     93  H   UNL A   1      31.153  21.509  27.003  1.00  0.00     0.164 HD
ATOM     94  O   UNL A   1      29.873  23.340  27.231  1.00  0.00    -0.275 OA
BRANCH  92  95
ATOM     95  C   UNL A   1      30.971  24.558  25.527  1.00  0.00     0.107 C 
ATOM     96  C   UNL A   1      30.363  25.822  26.136  1.00  0.00     0.115 C 
ATOM     97  C   UNL A   1      32.342  24.940  25.014  1.00  0.00     0.133 C 
ATOM     98  C   UNL A   1      31.454  26.856  26.073  1.00  0.00     0.223 C 
ATOM     99  N   UNL A   1      32.548  26.310  25.426  1.00  0.00    -0.342 N 
ATOM    100  O   UNL A   1      31.349  27.996  26.483  1.00  0.00    -0.275 OA
BRANCH  99 101
ATOM    101  C   UNL A   1      33.639  27.134  24.925  1.00  0.00     0.123 C 
BRANCH 101 102
ATOM    102  C   UNL A   1      33.596  27.476  23.466  1.00  0.00     0.008 C 
ATOM    103  C   UNL A   1      32.394  28.060  22.773  1.00  0.00     0.006 C 
ATOM    104  C   UNL A   1      33.629  28.899  22.979  1.00  0.00     0.006 C 
ENDBRANCH 101 102
ENDBRANCH  99 101
ENDBRANCH  92  95
ENDBRANCH  80  91
ENDBRANCH  77  80
ENDBRANCH  75  76
ENDBRANCH   1  75
TORSDOF 19
ENDMDL
