MODEL 1
REMARK VINA RESULT:     -14.2      0.000      0.000
REMARK SMILES C[C@@H](NC(=O)CCCN1C(=O)/C(=C/c2c3ccccc3cc3ccccc23)SC1=S)C(=O)NCCCNC(=O)c1ccc(-c2c3nc(c(-c4c(F)cc(S(=O)(=O)[O-])cc4F)c4ccc([nH]4)c(-c4c(F)cc(S(=O)(=O)[O-])cc4F)c4nc(c(-c5c(F)cc(S(=O)(=O)[O-])cc5F)c5ccc2[nH]5)C=C4)C=C3)cc1
REMARK SMILES IDX 31 1 32 2 33 3 2 5 1 6 3 7 4 8 5 10 6 11 7 12 8 13 9 14
REMARK SMILES IDX 10 15 29 16 11 17 12 18 28 19 30 20 13 21 14 22 15 23 27 24
REMARK SMILES IDX 16 25 20 26 22 27 26 28 17 29 19 30 21 31 23 32 25 33 18 34
REMARK SMILES IDX 24 35 34 36 35 37 36 38 37 39 38 40 39 42 40 43 41 44 105 45
REMARK SMILES IDX 42 46 104 47 43 48 44 49 45 50 98 51 46 52 103 53 97 54
REMARK SMILES IDX 99 55 47 56 102 57 96 58 95 59 48 61 82 62 61 63 81 64 62 65
REMARK SMILES IDX 65 66 80 67 100 68 63 69 64 70 79 72 101 73 66 74 49 75
REMARK SMILES IDX 50 76 59 77 51 78 52 79 58 80 60 81 53 82 54 83 55 84 56 85
REMARK SMILES IDX 57 86 83 87 84 88 93 89 85 90 86 91 92 92 94 93 87 94 88 95
REMARK SMILES IDX 89 96 90 97 91 98 67 99 68 100 77 101 69 102 70 103 76 104
REMARK SMILES IDX 78 105 71 106 72 107 73 108 74 109 75 110
REMARK H PARENT 33 4 3 9 37 41 99 60 65 71
REMARK Flexibility Score: inf
ROOT
ATOM      1  C   UNL A   1      32.807  29.807  27.159  1.00  0.00     0.242 C 
ATOM      2  O   UNL A   1      32.521  28.663  27.588  1.00  0.00    -0.273 OA
ATOM      3  N   UNL A   1      33.951  30.265  27.811  1.00  0.00    -0.354 N 
ATOM      4  H   UNL A   1      33.880  29.983  28.752  1.00  0.00     0.163 HD
ENDROOT
BRANCH   1   5
ATOM      5  C   UNL A   1      31.686  30.353  25.942  1.00  0.00     0.168 C 
ATOM      6  C   UNL A   1      30.737  31.589  25.673  1.00  0.00     0.041 C 
BRANCH   5   7
ATOM      7  N   UNL A   1      32.196  30.101  24.631  1.00  0.00    -0.345 N 
ATOM      8  C   UNL A   1      31.847  28.904  24.077  1.00  0.00     0.220 C 
ATOM      9  H   UNL A   1      32.765  30.750  24.158  1.00  0.00     0.164 HD
ATOM     10  O   UNL A   1      32.485  28.415  23.161  1.00  0.00    -0.275 OA
BRANCH   8  11
ATOM     11  C   UNL A   1      30.543  28.347  24.630  1.00  0.00     0.102 C 
BRANCH  11  12
ATOM     12  C   UNL A   1      29.706  27.130  23.917  1.00  0.00     0.032 C 
BRANCH  12  13
ATOM     13  C   UNL A   1      29.984  25.499  23.306  1.00  0.00     0.128 C 
BRANCH  13  14
ATOM     14  N   UNL A   1      31.246  24.530  23.311  1.00  0.00    -0.293 N 
ATOM     15  C   UNL A   1      31.832  23.916  24.411  1.00  0.00     0.266 C 
ATOM     16  C   UNL A   1      32.226  24.504  22.318  1.00  0.00     0.148 C 
ATOM     17  O   UNL A   1      31.870  24.337  25.560  1.00  0.00    -0.268 OA
ATOM     18  C   UNL A   1      32.701  22.744  24.039  1.00  0.00     0.081 C 
ATOM     19  S   UNL A   1      33.284  23.061  22.474  1.00  0.00    -0.054 SA
ATOM     20  S   UNL A   1      32.602  25.655  21.168  1.00  0.00    -0.052 S 
ATOM     21  C   UNL A   1      32.993  21.776  24.935  1.00  0.00     0.030 C 
BRANCH  21  22
ATOM     22  C   UNL A   1      34.140  20.807  25.009  1.00  0.00    -0.009 A 
ATOM     23  C   UNL A   1      33.871  19.458  24.597  1.00  0.00    -0.010 A 
ATOM     24  C   UNL A   1      35.505  21.227  25.213  1.00  0.00    -0.010 A 
ATOM     25  C   UNL A   1      32.595  18.989  24.193  1.00  0.00     0.009 A 
ATOM     26  C   UNL A   1      34.934  18.529  24.510  1.00  0.00    -0.017 A 
ATOM     27  C   UNL A   1      36.547  20.268  25.064  1.00  0.00    -0.017 A 
ATOM     28  C   UNL A   1      35.924  22.549  25.513  1.00  0.00     0.009 A 
ATOM     29  C   UNL A   1      32.369  17.674  23.791  1.00  0.00     0.001 A 
ATOM     30  C   UNL A   1      34.694  17.198  24.122  1.00  0.00     0.009 A 
ATOM     31  C   UNL A   1      36.244  18.941  24.755  1.00  0.00     0.017 A 
ATOM     32  C   UNL A   1      37.903  20.629  25.182  1.00  0.00     0.009 A 
ATOM     33  C   UNL A   1      37.282  22.898  25.621  1.00  0.00     0.001 A 
ATOM     34  C   UNL A   1      33.418  16.772  23.771  1.00  0.00     0.001 A 
ATOM     35  C   UNL A   1      38.272  21.940  25.449  1.00  0.00     0.001 A 
ENDBRANCH  21  22
ENDBRANCH  13  14
ENDBRANCH  12  13
ENDBRANCH  11  12
ENDBRANCH   8  11
ENDBRANCH   5   7
ENDBRANCH   1   5
BRANCH   3  36
ATOM     36  C   UNL A   1      35.275  31.030  27.662  1.00  0.00     0.117 C 
BRANCH  36  37
ATOM     37  C   UNL A   1      35.444  32.472  28.192  1.00  0.00     0.042 C 
BRANCH  37  38
ATOM     38  C   UNL A   1      36.452  32.688  29.313  1.00  0.00     0.118 C 
BRANCH  38  39
ATOM     39  N   UNL A   1      36.146  31.858  30.474  1.00  0.00    -0.352 N 
ATOM     40  C   UNL A   1      36.705  30.674  30.905  1.00  0.00     0.251 C 
ATOM     41  H   UNL A   1      35.421  32.201  31.044  1.00  0.00     0.163 HD
ATOM     42  O   UNL A   1      36.046  29.935  31.627  1.00  0.00    -0.269 OA
BRANCH  40  43
ATOM     43  C   UNL A   1      38.085  30.299  30.515  1.00  0.00     0.039 A 
ATOM     44  C   UNL A   1      38.984  29.808  31.468  1.00  0.00     0.014 A 
ATOM     45  C   UNL A   1      38.509  30.486  29.203  1.00  0.00     0.014 A 
ATOM     46  C   UNL A   1      40.278  29.436  31.081  1.00  0.00     0.010 A 
ATOM     47  C   UNL A   1      39.736  29.988  28.793  1.00  0.00     0.010 A 
ATOM     48  C   UNL A   1      40.649  29.480  29.728  1.00  0.00    -0.014 A 
BRANCH  48  49
ATOM     49  C   UNL A   1      41.986  29.051  29.237  1.00  0.00     0.031 A 
ATOM     50  C   UNL A   1      43.085  30.077  29.101  1.00  0.00     0.074 A 
ATOM     51  C   UNL A   1      42.167  27.791  28.793  1.00  0.00     0.049 A 
ATOM     52  N   UNL A   1      44.246  29.975  28.510  1.00  0.00    -0.248 NA
ATOM     53  C   UNL A   1      42.811  31.420  29.646  1.00  0.00     0.031 C 
ATOM     54  C   UNL A   1      41.158  26.729  28.808  1.00  0.00     0.029 A 
ATOM     55  N   UNL A   1      43.262  27.192  28.220  1.00  0.00    -0.354 N 
ATOM     56  C   UNL A   1      44.815  31.244  28.575  1.00  0.00     0.074 A 
ATOM     57  C   UNL A   1      43.839  32.116  29.186  1.00  0.00     0.031 C 
ATOM     58  C   UNL A   1      41.687  25.606  28.299  1.00  0.00     0.029 A 
ATOM     59  C   UNL A   1      43.056  25.877  27.874  1.00  0.00     0.049 A 
ATOM     60  H   UNL A   1      44.115  27.661  28.070  1.00  0.00     0.167 HD
ATOM     61  C   UNL A   1      46.053  31.639  28.198  1.00  0.00     0.037 A 
ATOM     62  C   UNL A   1      43.877  24.994  27.272  1.00  0.00     0.037 A 
ATOM     63  C   UNL A   1      47.034  30.743  27.651  1.00  0.00     0.049 A 
ATOM     64  C   UNL A   1      45.260  25.445  26.888  1.00  0.00     0.074 A 
ATOM     65  C   UNL A   1      48.349  31.005  27.315  1.00  0.00     0.029 A 
ATOM     66  N   UNL A   1      46.805  29.403  27.368  1.00  0.00    -0.354 N 
ATOM     67  N   UNL A   1      45.809  26.630  27.027  1.00  0.00    -0.248 NA
ATOM     68  C   UNL A   1      46.139  24.444  26.270  1.00  0.00     0.031 C 
ATOM     69  C   UNL A   1      48.902  29.835  26.784  1.00  0.00     0.029 A 
ATOM     70  C   UNL A   1      47.948  28.831  26.841  1.00  0.00     0.049 A 
ATOM     71  H   UNL A   1      45.955  28.931  27.521  1.00  0.00     0.167 HD
ATOM     72  C   UNL A   1      47.103  26.510  26.535  1.00  0.00     0.074 A 
ATOM     73  C   UNL A   1      47.261  25.133  26.114  1.00  0.00     0.031 C 
ATOM     74  C   UNL A   1      48.075  27.451  26.437  1.00  0.00     0.037 A 
BRANCH  61  75
ATOM     75  C   UNL A   1      46.418  33.088  28.390  1.00  0.00     0.058 A 
ATOM     76  C   UNL A   1      46.283  34.028  27.354  1.00  0.00     0.135 A 
ATOM     77  C   UNL A   1      46.888  33.551  29.629  1.00  0.00     0.135 A 
ATOM     78  F   UNL A   1      45.854  33.642  26.141  1.00  0.00    -0.206 F 
ATOM     79  C   UNL A   1      46.636  35.361  27.527  1.00  0.00     0.059 A 
ATOM     80  C   UNL A   1      47.214  34.889  29.836  1.00  0.00     0.059 A 
ATOM     81  F   UNL A   1      47.040  32.700  30.656  1.00  0.00    -0.206 F 
ATOM     82  C   UNL A   1      47.100  35.784  28.773  1.00  0.00     0.060 A 
BRANCH  82  83
ATOM     83  S   UNL A   1      47.540  37.522  28.981  1.00  0.00     0.124 S 
ATOM     84  O   UNL A   1      48.969  37.429  29.266  1.00  0.00    -0.237 OA
ATOM     85  O   UNL A   1      47.190  38.089  27.683  1.00  0.00    -0.237 OA
ATOM     86  O   UNL A   1      46.705  37.953  30.098  1.00  0.00    -0.744 OA
ENDBRANCH  82  83
ENDBRANCH  61  75
BRANCH  62  87
ATOM     87  C   UNL A   1      43.424  23.597  27.027  1.00  0.00     0.058 A 
ATOM     88  C   UNL A   1      43.136  23.153  25.726  1.00  0.00     0.135 A 
ATOM     89  C   UNL A   1      43.291  22.672  28.073  1.00  0.00     0.135 A 
ATOM     90  F   UNL A   1      43.245  23.998  24.690  1.00  0.00    -0.206 F 
ATOM     91  C   UNL A   1      42.713  21.852  25.475  1.00  0.00     0.059 A 
ATOM     92  C   UNL A   1      42.897  21.356  27.844  1.00  0.00     0.059 A 
ATOM     93  F   UNL A   1      43.575  23.037  29.333  1.00  0.00    -0.206 F 
ATOM     94  C   UNL A   1      42.599  20.958  26.541  1.00  0.00     0.060 A 
BRANCH  94  95
ATOM     95  S   UNL A   1      42.095  19.258  26.197  1.00  0.00     0.124 S 
ATOM     96  O   UNL A   1      40.643  19.387  26.151  1.00  0.00    -0.237 OA
ATOM     97  O   UNL A   1      42.755  18.997  24.921  1.00  0.00    -0.237 OA
ATOM     98  O   UNL A   1      42.627  18.513  27.333  1.00  0.00    -0.744 OA
ENDBRANCH  94  95
ENDBRANCH  62  87
BRANCH  74  99
ATOM     99  C   UNL A   1      49.400  27.019  25.876  1.00  0.00     0.058 A 
ATOM    100  C   UNL A   1      49.674  27.089  24.502  1.00  0.00     0.135 A 
ATOM    101  C   UNL A   1      50.429  26.598  26.733  1.00  0.00     0.135 A 
ATOM    102  F   UNL A   1      48.722  27.480  23.641  1.00  0.00    -0.206 F 
ATOM    103  C   UNL A   1      50.918  26.737  23.994  1.00  0.00     0.059 A 
ATOM    104  C   UNL A   1      51.691  26.273  26.251  1.00  0.00     0.059 A 
ATOM    105  F   UNL A   1      50.220  26.527  28.058  1.00  0.00    -0.206 F 
ATOM    106  C   UNL A   1      51.923  26.335  24.878  1.00  0.00     0.060 A 
BRANCH 106 107
ATOM    107  S   UNL A   1      53.547  25.925  24.208  1.00  0.00     0.124 S 
ATOM    108  O   UNL A   1      53.300  26.001  22.772  1.00  0.00    -0.237 OA
ATOM    109  O   UNL A   1      54.388  26.981  24.763  1.00  0.00    -0.237 OA
ATOM    110  O   UNL A   1      53.804  24.587  24.731  1.00  0.00    -0.744 OA
ENDBRANCH 106 107
ENDBRANCH  74  99
ENDBRANCH  48  49
ENDBRANCH  40  43
ENDBRANCH  38  39
ENDBRANCH  37  38
ENDBRANCH  36  37
ENDBRANCH   3  36
TORSDOF 19
ENDMDL
MODEL 2
REMARK VINA RESULT:     -14.2      0.678      7.999
REMARK SMILES C[C@@H](NC(=O)CCCN1C(=O)/C(=C/c2c3ccccc3cc3ccccc23)SC1=S)C(=O)NCCCNC(=O)c1ccc(-c2c3nc(c(-c4c(F)cc(S(=O)(=O)[O-])cc4F)c4ccc([nH]4)c(-c4c(F)cc(S(=O)(=O)[O-])cc4F)c4nc(c(-c5c(F)cc(S(=O)(=O)[O-])cc5F)c5ccc2[nH]5)C=C4)C=C3)cc1
REMARK SMILES IDX 31 1 32 2 33 3 2 5 1 6 3 7 4 8 5 10 6 11 7 12 8 13 9 14
REMARK SMILES IDX 10 15 29 16 11 17 12 18 28 19 30 20 13 21 14 22 15 23 27 24
REMARK SMILES IDX 16 25 20 26 22 27 26 28 17 29 19 30 21 31 23 32 25 33 18 34
REMARK SMILES IDX 24 35 34 36 35 37 36 38 37 39 38 40 39 42 40 43 41 44 105 45
REMARK SMILES IDX 42 46 104 47 43 48 44 49 45 50 98 51 46 52 103 53 97 54
REMARK SMILES IDX 99 55 47 56 102 57 96 58 95 59 48 61 82 62 61 63 81 64 62 65
REMARK SMILES IDX 65 66 80 67 100 68 63 69 64 70 79 72 101 73 66 74 49 75
REMARK SMILES IDX 50 76 59 77 51 78 52 79 58 80 60 81 53 82 54 83 55 84 56 85
REMARK SMILES IDX 57 86 83 87 84 88 93 89 85 90 86 91 92 92 94 93 87 94 88 95
REMARK SMILES IDX 89 96 90 97 91 98 67 99 68 100 77 101 69 102 70 103 76 104
REMARK SMILES IDX 78 105 71 106 72 107 73 108 74 109 75 110
REMARK H PARENT 33 4 3 9 37 41 99 60 65 71
REMARK Flexibility Score: inf
ROOT
ATOM      1  C   UNL A   1      34.176  30.448  27.360  1.00  0.00     0.242 C 
ATOM      2  O   UNL A   1      34.660  29.299  27.506  1.00  0.00    -0.273 OA
ATOM      3  N   UNL A   1      34.975  31.367  28.037  1.00  0.00    -0.354 N 
ATOM      4  H   UNL A   1      35.256  30.942  28.880  1.00  0.00     0.163 HD
ENDROOT
BRANCH   1   5
ATOM      5  C   UNL A   1      32.730  30.435  26.388  1.00  0.00     0.168 C 
ATOM      6  C   UNL A   1      31.420  31.299  26.199  1.00  0.00     0.041 C 
BRANCH   5   7
ATOM      7  N   UNL A   1      33.031  30.084  25.036  1.00  0.00    -0.345 N 
ATOM      8  C   UNL A   1      32.640  28.837  24.643  1.00  0.00     0.220 C 
ATOM      9  H   UNL A   1      33.493  30.703  24.425  1.00  0.00     0.164 HD
ATOM     10  O   UNL A   1      33.139  28.287  23.677  1.00  0.00    -0.275 OA
BRANCH   8  11
ATOM     11  C   UNL A   1      31.463  28.300  25.445  1.00  0.00     0.102 C 
BRANCH  11  12
ATOM     12  C   UNL A   1      30.391  27.208  24.855  1.00  0.00     0.032 C 
BRANCH  12  13
ATOM     13  C   UNL A   1      30.391  25.665  23.999  1.00  0.00     0.128 C 
BRANCH  13  14
ATOM     14  N   UNL A   1      31.513  24.573  23.715  1.00  0.00    -0.293 N 
ATOM     15  C   UNL A   1      32.244  23.853  24.652  1.00  0.00     0.266 C 
ATOM     16  C   UNL A   1      32.256  24.493  22.538  1.00  0.00     0.148 C 
ATOM     17  O   UNL A   1      32.566  24.216  25.777  1.00  0.00    -0.268 OA
ATOM     18  C   UNL A   1      32.884  22.617  24.079  1.00  0.00     0.081 C 
ATOM     19  S   UNL A   1      33.160  22.943  22.434  1.00  0.00    -0.054 SA
ATOM     20  S   UNL A   1      32.509  25.649  21.360  1.00  0.00    -0.052 S 
ATOM     21  C   UNL A   1      33.248  21.585  24.871  1.00  0.00     0.030 C 
BRANCH  21  22
ATOM     22  C   UNL A   1      34.272  20.501  24.679  1.00  0.00    -0.009 A 
ATOM     23  C   UNL A   1      35.642  20.859  24.926  1.00  0.00    -0.010 A 
ATOM     24  C   UNL A   1      33.919  19.111  24.526  1.00  0.00    -0.010 A 
ATOM     25  C   UNL A   1      36.072  22.165  25.272  1.00  0.00     0.009 A 
ATOM     26  C   UNL A   1      36.641  19.858  24.899  1.00  0.00    -0.017 A 
ATOM     27  C   UNL A   1      34.954  18.133  24.557  1.00  0.00    -0.017 A 
ATOM     28  C   UNL A   1      32.601  18.607  24.388  1.00  0.00     0.009 A 
ATOM     29  C   UNL A   1      37.410  22.477  25.512  1.00  0.00     0.001 A 
ATOM     30  C   UNL A   1      37.990  20.185  25.123  1.00  0.00     0.009 A 
ATOM     31  C   UNL A   1      36.287  18.523  24.704  1.00  0.00     0.017 A 
ATOM     32  C   UNL A   1      34.670  16.757  24.482  1.00  0.00     0.009 A 
ATOM     33  C   UNL A   1      32.329  17.229  24.321  1.00  0.00     0.001 A 
ATOM     34  C   UNL A   1      38.373  21.488  25.422  1.00  0.00     0.001 A 
ATOM     35  C   UNL A   1      33.362  16.303  24.375  1.00  0.00     0.001 A 
ENDBRANCH  21  22
ENDBRANCH  13  14
ENDBRANCH  12  13
ENDBRANCH  11  12
ENDBRANCH   8  11
ENDBRANCH   5   7
ENDBRANCH   1   5
BRANCH   3  36
ATOM     36  C   UNL A   1      35.597  32.772  28.007  1.00  0.00     0.117 C 
BRANCH  36  37
ATOM     37  C   UNL A   1      35.851  33.576  29.302  1.00  0.00     0.042 C 
BRANCH  37  38
ATOM     38  C   UNL A   1      36.979  33.100  30.207  1.00  0.00     0.118 C 
BRANCH  38  39
ATOM     39  N   UNL A   1      36.570  31.953  31.011  1.00  0.00    -0.352 N 
ATOM     40  C   UNL A   1      36.932  30.625  30.932  1.00  0.00     0.251 C 
ATOM     41  H   UNL A   1      35.931  32.162  31.730  1.00  0.00     0.163 HD
ATOM     42  O   UNL A   1      36.178  29.776  31.394  1.00  0.00    -0.269 OA
BRANCH  40  43
ATOM     43  C   UNL A   1      38.216  30.223  30.310  1.00  0.00     0.039 A 
ATOM     44  C   UNL A   1      38.337  30.149  28.917  1.00  0.00     0.014 A 
ATOM     45  C   UNL A   1      39.294  29.864  31.113  1.00  0.00     0.014 A 
ATOM     46  C   UNL A   1      39.562  29.790  28.341  1.00  0.00     0.010 A 
ATOM     47  C   UNL A   1      40.540  29.648  30.545  1.00  0.00     0.010 A 
ATOM     48  C   UNL A   1      40.689  29.582  29.153  1.00  0.00    -0.014 A 
BRANCH  48  49
ATOM     49  C   UNL A   1      42.033  29.251  28.610  1.00  0.00     0.031 A 
ATOM     50  C   UNL A   1      42.325  27.833  28.180  1.00  0.00     0.074 A 
ATOM     51  C   UNL A   1      43.014  30.175  28.630  1.00  0.00     0.049 A 
ATOM     52  N   UNL A   1      43.468  27.277  27.875  1.00  0.00    -0.248 NA
ATOM     53  C   UNL A   1      41.184  26.899  28.154  1.00  0.00     0.031 C 
ATOM     54  C   UNL A   1      42.870  31.559  29.089  1.00  0.00     0.029 A 
ATOM     55  N   UNL A   1      44.338  30.085  28.275  1.00  0.00    -0.354 N 
ATOM     56  C   UNL A   1      43.188  25.930  27.668  1.00  0.00     0.074 A 
ATOM     57  C   UNL A   1      41.788  25.736  27.963  1.00  0.00     0.031 C 
ATOM     58  C   UNL A   1      44.046  32.194  28.961  1.00  0.00     0.029 A 
ATOM     59  C   UNL A   1      45.040  31.253  28.458  1.00  0.00     0.049 A 
ATOM     60  H   UNL A   1      44.745  29.261  27.923  1.00  0.00     0.167 HD
ATOM     61  C   UNL A   1      44.013  24.950  27.232  1.00  0.00     0.037 A 
ATOM     62  C   UNL A   1      46.344  31.528  28.254  1.00  0.00     0.037 A 
ATOM     63  C   UNL A   1      45.389  25.175  26.882  1.00  0.00     0.049 A 
ATOM     64  C   UNL A   1      47.237  30.432  27.740  1.00  0.00     0.074 A 
ATOM     65  C   UNL A   1      46.299  24.283  26.345  1.00  0.00     0.029 A 
ATOM     66  N   UNL A   1      46.050  26.387  27.028  1.00  0.00    -0.354 N 
ATOM     67  N   UNL A   1      46.939  29.181  27.476  1.00  0.00    -0.248 NA
ATOM     68  C   UNL A   1      48.642  30.781  27.492  1.00  0.00     0.031 C 
ATOM     69  C   UNL A   1      47.524  24.944  26.210  1.00  0.00     0.029 A 
ATOM     70  C   UNL A   1      47.363  26.261  26.612  1.00  0.00     0.049 A 
ATOM     71  H   UNL A   1      45.644  27.213  27.376  1.00  0.00     0.167 HD
ATOM     72  C   UNL A   1      48.112  28.600  27.009  1.00  0.00     0.074 A 
ATOM     73  C   UNL A   1      49.119  29.642  27.008  1.00  0.00     0.031 C 
ATOM     74  C   UNL A   1      48.341  27.322  26.617  1.00  0.00     0.037 A 
BRANCH  61  75
ATOM     75  C   UNL A   1      43.443  23.563  27.086  1.00  0.00     0.058 A 
ATOM     76  C   UNL A   1      43.084  23.038  25.833  1.00  0.00     0.135 A 
ATOM     77  C   UNL A   1      43.271  22.738  28.210  1.00  0.00     0.135 A 
ATOM     78  F   UNL A   1      43.210  23.786  24.725  1.00  0.00    -0.206 F 
ATOM     79  C   UNL A   1      42.542  21.764  25.703  1.00  0.00     0.059 A 
ATOM     80  C   UNL A   1      42.763  21.445  28.099  1.00  0.00     0.059 A 
ATOM     81  F   UNL A   1      43.594  23.184  29.433  1.00  0.00    -0.206 F 
ATOM     82  C   UNL A   1      42.387  20.974  26.842  1.00  0.00     0.060 A 
BRANCH  82  83
ATOM     83  S   UNL A   1      41.693  19.319  26.650  1.00  0.00     0.124 S 
ATOM     84  O   UNL A   1      40.566  19.365  27.576  1.00  0.00    -0.237 OA
ATOM     85  O   UNL A   1      41.347  19.289  25.233  1.00  0.00    -0.237 OA
ATOM     86  O   UNL A   1      42.792  18.442  27.043  1.00  0.00    -0.744 OA
ENDBRANCH  82  83
ENDBRANCH  61  75
BRANCH  62  87
ATOM     87  C   UNL A   1      46.868  32.899  28.503  1.00  0.00     0.058 A 
ATOM     88  C   UNL A   1      47.379  33.255  29.762  1.00  0.00     0.135 A 
ATOM     89  C   UNL A   1      46.892  33.873  27.494  1.00  0.00     0.135 A 
ATOM     90  F   UNL A   1      47.377  32.361  30.762  1.00  0.00    -0.206 F 
ATOM     91  C   UNL A   1      47.875  34.529  30.016  1.00  0.00     0.059 A 
ATOM     92  C   UNL A   1      47.409  35.147  27.715  1.00  0.00     0.059 A 
ATOM     93  F   UNL A   1      46.436  33.581  26.266  1.00  0.00    -0.206 F 
ATOM     94  C   UNL A   1      47.889  35.469  28.985  1.00  0.00     0.060 A 
BRANCH  94  95
ATOM     95  S   UNL A   1      48.578  37.106  29.314  1.00  0.00     0.124 S 
ATOM     96  O   UNL A   1      47.914  37.458  30.563  1.00  0.00    -0.237 OA
ATOM     97  O   UNL A   1      50.007  36.822  29.407  1.00  0.00    -0.237 OA
ATOM     98  O   UNL A   1      48.177  37.881  28.144  1.00  0.00    -0.744 OA
ENDBRANCH  94  95
ENDBRANCH  62  87
BRANCH  74  99
ATOM     99  C   UNL A   1      49.722  26.985  26.134  1.00  0.00     0.058 A 
ATOM    100  C   UNL A   1      50.706  26.493  27.005  1.00  0.00     0.135 A 
ATOM    101  C   UNL A   1      50.041  27.088  24.770  1.00  0.00     0.135 A 
ATOM    102  F   UNL A   1      50.452  26.380  28.318  1.00  0.00    -0.206 F 
ATOM    103  C   UNL A   1      51.967  26.134  26.543  1.00  0.00     0.059 A 
ATOM    104  C   UNL A   1      51.284  26.705  24.282  1.00  0.00     0.059 A 
ATOM    105  F   UNL A   1      49.129  27.542  23.895  1.00  0.00    -0.206 F 
ATOM    106  C   UNL A   1      52.244  26.238  25.178  1.00  0.00     0.060 A 
BRANCH 106 107
ATOM    107  S   UNL A   1      53.870  25.725  24.588  1.00  0.00     0.124 S 
ATOM    108  O   UNL A   1      53.735  24.272  24.582  1.00  0.00    -0.237 OA
ATOM    109  O   UNL A   1      53.940  26.361  23.275  1.00  0.00    -0.237 OA
ATOM    110  O   UNL A   1      54.783  26.267  25.590  1.00  0.00    -0.744 OA
ENDBRANCH 106 107
ENDBRANCH  74  99
ENDBRANCH  48  49
ENDBRANCH  40  43
ENDBRANCH  38  39
ENDBRANCH  37  38
ENDBRANCH  36  37
ENDBRANCH   3  36
TORSDOF 19
ENDMDL
MODEL 3
REMARK VINA RESULT:     -12.6      6.029     12.764
REMARK SMILES C[C@@H](NC(=O)CCCN1C(=O)/C(=C/c2c3ccccc3cc3ccccc23)SC1=S)C(=O)NCCCNC(=O)c1ccc(-c2c3nc(c(-c4c(F)cc(S(=O)(=O)[O-])cc4F)c4ccc([nH]4)c(-c4c(F)cc(S(=O)(=O)[O-])cc4F)c4nc(c(-c5c(F)cc(S(=O)(=O)[O-])cc5F)c5ccc2[nH]5)C=C4)C=C3)cc1
REMARK SMILES IDX 31 1 32 2 33 3 2 5 1 6 3 7 4 8 5 10 6 11 7 12 8 13 9 14
REMARK SMILES IDX 10 15 29 16 11 17 12 18 28 19 30 20 13 21 14 22 15 23 27 24
REMARK SMILES IDX 16 25 20 26 22 27 26 28 17 29 19 30 21 31 23 32 25 33 18 34
REMARK SMILES IDX 24 35 34 36 35 37 36 38 37 39 38 40 39 42 40 43 41 44 105 45
REMARK SMILES IDX 42 46 104 47 43 48 44 49 45 50 98 51 46 52 103 53 97 54
REMARK SMILES IDX 99 55 47 56 102 57 96 58 95 59 48 61 82 62 61 63 81 64 62 65
REMARK SMILES IDX 65 66 80 67 100 68 63 69 64 70 79 72 101 73 66 74 49 75
REMARK SMILES IDX 50 76 59 77 51 78 52 79 58 80 60 81 53 82 54 83 55 84 56 85
REMARK SMILES IDX 57 86 83 87 84 88 93 89 85 90 86 91 92 92 94 93 87 94 88 95
REMARK SMILES IDX 89 96 90 97 91 98 67 99 68 100 77 101 69 102 70 103 76 104
REMARK SMILES IDX 78 105 71 106 72 107 73 108 74 109 75 110
REMARK H PARENT 33 4 3 9 37 41 99 60 65 71
REMARK Flexibility Score: inf
ROOT
ATOM      1  C   UNL A   1      43.695  23.425  29.494  1.00  0.00     0.242 C 
ATOM      2  O   UNL A   1      43.327  22.359  28.945  1.00  0.00    -0.273 OA
ATOM      3  N   UNL A   1      43.554  23.298  30.875  1.00  0.00    -0.354 N 
ATOM      4  H   UNL A   1      42.718  22.804  31.037  1.00  0.00     0.163 HD
ENDROOT
BRANCH   1   5
ATOM      5  C   UNL A   1      44.229  24.612  28.336  1.00  0.00     0.168 C 
ATOM      6  C   UNL A   1      45.584  25.258  27.838  1.00  0.00     0.041 C 
BRANCH   5   7
ATOM      7  N   UNL A   1      43.512  24.481  27.107  1.00  0.00    -0.345 N 
ATOM      8  C   UNL A   1      42.317  25.136  27.041  1.00  0.00     0.220 C 
ATOM      9  H   UNL A   1      43.859  23.950  26.354  1.00  0.00     0.164 HD
ATOM     10  O   UNL A   1      41.462  24.823  26.231  1.00  0.00    -0.275 OA
BRANCH   8  11
ATOM     11  C   UNL A   1      42.242  26.337  27.972  1.00  0.00     0.102 C 
BRANCH  11  12
ATOM     12  C   UNL A   1      41.111  26.500  29.148  1.00  0.00     0.032 C 
BRANCH  12  13
ATOM     13  C   UNL A   1      39.648  27.431  29.473  1.00  0.00     0.128 C 
BRANCH  13  14
ATOM     14  N   UNL A   1      39.373  28.815  30.210  1.00  0.00    -0.293 N 
ATOM     15  C   UNL A   1      38.148  29.313  30.636  1.00  0.00     0.266 C 
ATOM     16  C   UNL A   1      40.210  29.928  30.136  1.00  0.00     0.148 C 
ATOM     17  O   UNL A   1      37.050  29.105  30.136  1.00  0.00    -0.268 OA
ATOM     18  C   UNL A   1      38.281  30.403  31.666  1.00  0.00     0.081 C 
ATOM     19  S   UNL A   1      39.770  31.164  31.364  1.00  0.00    -0.054 SA
ATOM     20  S   UNL A   1      41.399  30.292  29.021  1.00  0.00    -0.052 S 
ATOM     21  C   UNL A   1      37.265  30.702  32.505  1.00  0.00     0.030 C 
BRANCH  21  22
ATOM     22  C   UNL A   1      36.938  31.962  33.257  1.00  0.00    -0.009 A 
ATOM     23  C   UNL A   1      35.969  32.836  32.657  1.00  0.00    -0.010 A 
ATOM     24  C   UNL A   1      37.343  32.183  34.623  1.00  0.00    -0.010 A 
ATOM     25  C   UNL A   1      35.365  32.608  31.394  1.00  0.00     0.009 A 
ATOM     26  C   UNL A   1      35.512  33.968  33.372  1.00  0.00    -0.017 A 
ATOM     27  C   UNL A   1      36.817  33.308  35.321  1.00  0.00    -0.017 A 
ATOM     28  C   UNL A   1      38.203  31.342  35.374  1.00  0.00     0.009 A 
ATOM     29  C   UNL A   1      34.421  33.473  30.844  1.00  0.00     0.001 A 
ATOM     30  C   UNL A   1      34.574  34.846  32.801  1.00  0.00     0.009 A 
ATOM     31  C   UNL A   1      35.949  34.192  34.678  1.00  0.00     0.017 A 
ATOM     32  C   UNL A   1      37.118  33.541  36.676  1.00  0.00     0.009 A 
ATOM     33  C   UNL A   1      38.490  31.581  36.730  1.00  0.00     0.001 A 
ATOM     34  C   UNL A   1      34.036  34.604  31.542  1.00  0.00     0.001 A 
ATOM     35  C   UNL A   1      37.943  32.677  37.383  1.00  0.00     0.001 A 
ENDBRANCH  21  22
ENDBRANCH  13  14
ENDBRANCH  12  13
ENDBRANCH  11  12
ENDBRANCH   8  11
ENDBRANCH   5   7
ENDBRANCH   1   5
BRANCH   3  36
ATOM     36  C   UNL A   1      44.169  23.614  32.247  1.00  0.00     0.117 C 
BRANCH  36  37
ATOM     37  C   UNL A   1      43.820  22.784  33.504  1.00  0.00     0.042 C 
BRANCH  37  38
ATOM     38  C   UNL A   1      44.923  22.582  34.534  1.00  0.00     0.118 C 
BRANCH  38  39
ATOM     39  N   UNL A   1      44.485  22.973  35.870  1.00  0.00    -0.352 N 
ATOM     40  C   UNL A   1      44.351  24.219  36.444  1.00  0.00     0.251 C 
ATOM     41  H   UNL A   1      44.243  22.222  36.458  1.00  0.00     0.163 HD
ATOM     42  O   UNL A   1      44.388  24.317  37.666  1.00  0.00    -0.269 OA
BRANCH  40  43
ATOM     43  C   UNL A   1      44.154  25.424  35.605  1.00  0.00     0.039 A 
ATOM     44  C   UNL A   1      42.880  25.757  35.127  1.00  0.00     0.014 A 
ATOM     45  C   UNL A   1      45.248  26.204  35.242  1.00  0.00     0.014 A 
ATOM     46  C   UNL A   1      42.705  26.912  34.354  1.00  0.00     0.010 A 
ATOM     47  C   UNL A   1      45.053  27.416  34.601  1.00  0.00     0.010 A 
ATOM     48  C   UNL A   1      43.786  27.777  34.124  1.00  0.00    -0.014 A 
BRANCH  48  49
ATOM     49  C   UNL A   1      43.662  29.047  33.358  1.00  0.00     0.031 A 
ATOM     50  C   UNL A   1      44.132  29.090  31.924  1.00  0.00     0.074 A 
ATOM     51  C   UNL A   1      43.263  30.173  33.982  1.00  0.00     0.049 A 
ATOM     52  N   UNL A   1      44.310  30.121  31.140  1.00  0.00    -0.248 NA
ATOM     53  C   UNL A   1      44.516  27.805  31.312  1.00  0.00     0.031 C 
ATOM     54  C   UNL A   1      42.852  30.269  35.385  1.00  0.00     0.029 A 
ATOM     55  N   UNL A   1      43.158  31.463  33.522  1.00  0.00    -0.354 N 
ATOM     56  C   UNL A   1      44.864  29.613  29.969  1.00  0.00     0.074 A 
ATOM     57  C   UNL A   1      45.071  28.199  30.176  1.00  0.00     0.031 C 
ATOM     58  C   UNL A   1      42.512  31.538  35.662  1.00  0.00     0.029 A 
ATOM     59  C   UNL A   1      42.727  32.356  34.475  1.00  0.00     0.049 A 
ATOM     60  H   UNL A   1      43.371  31.722  32.597  1.00  0.00     0.167 HD
ATOM     61  C   UNL A   1      45.138  30.258  28.811  1.00  0.00     0.037 A 
ATOM     62  C   UNL A   1      42.540  33.689  34.399  1.00  0.00     0.037 A 
ATOM     63  C   UNL A   1      44.866  31.653  28.603  1.00  0.00     0.049 A 
ATOM     64  C   UNL A   1      42.822  34.382  33.094  1.00  0.00     0.074 A 
ATOM     65  C   UNL A   1      45.017  32.398  27.447  1.00  0.00     0.029 A 
ATOM     66  N   UNL A   1      44.376  32.514  29.575  1.00  0.00    -0.354 N 
ATOM     67  N   UNL A   1      43.274  33.872  31.971  1.00  0.00    -0.248 NA
ATOM     68  C   UNL A   1      42.567  35.827  33.039  1.00  0.00     0.031 C 
ATOM     69  C   UNL A   1      44.663  33.720  27.735  1.00  0.00     0.029 A 
ATOM     70  C   UNL A   1      44.240  33.787  29.053  1.00  0.00     0.049 A 
ATOM     71  H   UNL A   1      44.159  32.255  30.500  1.00  0.00     0.167 HD
ATOM     72  C   UNL A   1      43.335  34.929  31.071  1.00  0.00     0.074 A 
ATOM     73  C   UNL A   1      42.856  36.101  31.774  1.00  0.00     0.031 C 
ATOM     74  C   UNL A   1      43.752  34.934  29.780  1.00  0.00     0.037 A 
BRANCH  61  75
ATOM     75  C   UNL A   1      45.736  29.456  27.684  1.00  0.00     0.058 A 
ATOM     76  C   UNL A   1      44.942  28.917  26.658  1.00  0.00     0.135 A 
ATOM     77  C   UNL A   1      47.122  29.240  27.615  1.00  0.00     0.135 A 
ATOM     78  F   UNL A   1      43.608  29.076  26.679  1.00  0.00    -0.206 F 
ATOM     79  C   UNL A   1      45.493  28.163  25.628  1.00  0.00     0.059 A 
ATOM     80  C   UNL A   1      47.699  28.518  26.574  1.00  0.00     0.059 A 
ATOM     81  F   UNL A   1      47.931  29.728  28.567  1.00  0.00    -0.206 F 
ATOM     82  C   UNL A   1      46.874  27.970  25.593  1.00  0.00     0.060 A 
BRANCH  82  83
ATOM     83  S   UNL A   1      47.571  26.999  24.240  1.00  0.00     0.124 S 
ATOM     84  O   UNL A   1      48.988  26.985  24.591  1.00  0.00    -0.237 OA
ATOM     85  O   UNL A   1      46.872  25.726  24.379  1.00  0.00    -0.237 OA
ATOM     86  O   UNL A   1      47.227  27.774  23.053  1.00  0.00    -0.744 OA
ENDBRANCH  82  83
ENDBRANCH  61  75
BRANCH  62  87
ATOM     87  C   UNL A   1      42.032  34.442  35.579  1.00  0.00     0.058 A 
ATOM     88  C   UNL A   1      42.900  34.826  36.614  1.00  0.00     0.135 A 
ATOM     89  C   UNL A   1      40.684  34.813  35.692  1.00  0.00     0.135 A 
ATOM     90  F   UNL A   1      44.199  34.494  36.556  1.00  0.00    -0.206 F 
ATOM     91  C   UNL A   1      42.448  35.531  37.724  1.00  0.00     0.059 A 
ATOM     92  C   UNL A   1      40.212  35.543  36.779  1.00  0.00     0.059 A 
ATOM     93  F   UNL A   1      39.814  34.491  34.721  1.00  0.00    -0.206 F 
ATOM     94  C   UNL A   1      41.100  35.888  37.797  1.00  0.00     0.060 A 
BRANCH  94  95
ATOM     95  S   UNL A   1      40.533  36.844  39.221  1.00  0.00     0.124 S 
ATOM     96  O   UNL A   1      41.547  37.890  39.294  1.00  0.00    -0.237 OA
ATOM     97  O   UNL A   1      39.205  37.270  38.793  1.00  0.00    -0.237 OA
ATOM     98  O   UNL A   1      40.551  35.870  40.308  1.00  0.00    -0.744 OA
ENDBRANCH  94  95
ENDBRANCH  62  87
BRANCH  74  99
ATOM     99  C   UNL A   1      43.685  36.239  29.039  1.00  0.00     0.058 A 
ATOM    100  C   UNL A   1      42.540  36.619  28.324  1.00  0.00     0.135 A 
ATOM    101  C   UNL A   1      44.753  37.148  29.105  1.00  0.00     0.135 A 
ATOM    102  F   UNL A   1      41.494  35.784  28.225  1.00  0.00    -0.206 F 
ATOM    103  C   UNL A   1      42.463  37.850  27.682  1.00  0.00     0.059 A 
ATOM    104  C   UNL A   1      44.686  38.396  28.500  1.00  0.00     0.059 A 
ATOM    105  F   UNL A   1      45.866  36.835  29.788  1.00  0.00    -0.206 F 
ATOM    106  C   UNL A   1      43.540  38.734  27.781  1.00  0.00     0.060 A 
BRANCH 106 107
ATOM    107  S   UNL A   1      43.407  40.347  26.981  1.00  0.00     0.124 S 
ATOM    108  O   UNL A   1      43.944  41.230  28.011  1.00  0.00    -0.237 OA
ATOM    109  O   UNL A   1      44.241  40.175  25.795  1.00  0.00    -0.237 OA
ATOM    110  O   UNL A   1      41.977  40.480  26.721  1.00  0.00    -0.744 OA
ENDBRANCH 106 107
ENDBRANCH  74  99
ENDBRANCH  48  49
ENDBRANCH  40  43
ENDBRANCH  38  39
ENDBRANCH  37  38
ENDBRANCH  36  37
ENDBRANCH   3  36
TORSDOF 19
ENDMDL
