MODEL 1
REMARK VINA RESULT:     -13.0      0.000      0.000
REMARK SMILES CC(C)c1cc(N2CCC(C(=O)NCCCNC(=O)c3ccc(-c4c5nc(c(-c6c(F)cc(S(=O)(=O)[O-])cc6F)c6ccc([nH]6)c(-c6c(F)cc(S(=O)(=O)[O-])cc6F)c6nc(c(-c7c(F)cc(S(=O)(=O)[O-])cc7F)c7ccc4[nH]7)C=C6)C=C5)cc3)CC2)nc(-c2ccc(F)cc2)n1
REMARK SMILES IDX 15 1 14 2 13 3 11 4 12 5 10 7 7 8 8 9 87 10 9 11 86 12 6 13
REMARK SMILES IDX 4 14 5 15 97 16 89 17 88 18 2 19 1 20 3 21 90 22 91 23 96 24
REMARK SMILES IDX 92 25 95 26 93 27 94 28 16 29 17 30 18 31 19 33 20 34 21 35
REMARK SMILES IDX 85 36 22 37 84 38 23 39 24 40 25 41 78 42 26 43 83 44 77 45
REMARK SMILES IDX 79 46 27 47 82 48 76 49 75 50 28 52 62 53 41 54 61 55 42 56
REMARK SMILES IDX 45 57 60 58 80 59 43 60 44 61 59 63 81 64 46 65 29 66 30 67
REMARK SMILES IDX 39 68 31 69 32 70 38 71 40 72 33 73 34 74 35 75 36 76 37 77
REMARK SMILES IDX 63 78 64 79 73 80 65 81 66 82 72 83 74 84 67 85 68 86 69 87
REMARK SMILES IDX 70 88 71 89 47 90 48 91 57 92 49 93 50 94 56 95 58 96 51 97
REMARK SMILES IDX 52 98 53 99 54 100 55 101
REMARK H PARENT 13 6 17 32 79 51 45 62
REMARK Flexibility Score: inf
ROOT
ATOM      1  C   UNL A   1      32.224  28.037  26.397  1.00  0.00     0.042 C 
ENDROOT
BRANCH   1   2
ATOM      2  C   UNL A   1      32.509  27.272  25.109  1.00  0.00     0.117 C 
BRANCH   2   3
ATOM      3  N   UNL A   1      31.831  27.837  23.946  1.00  0.00    -0.356 N 
ATOM      4  C   UNL A   1      31.282  27.240  22.852  1.00  0.00     0.223 C 
ATOM      5  O   UNL A   1      30.720  27.959  22.021  1.00  0.00    -0.275 OA
ATOM      6  H   UNL A   1      31.759  28.819  23.954  1.00  0.00     0.163 HD
BRANCH   4   7
ATOM      7  C   UNL A   1      31.340  25.732  22.647  1.00  0.00     0.082 C 
ATOM      8  N   UNL A   1      32.788  23.509  23.568  1.00  0.00    -0.356 N 
ATOM      9  C   UNL A   1      33.030  23.875  22.183  1.00  0.00     0.119 C 
ATOM     10  C   UNL A   1      31.412  23.549  24.013  1.00  0.00     0.119 C 
ATOM     11  C   UNL A   1      32.682  25.339  22.006  1.00  0.00     0.035 C 
ATOM     12  C   UNL A   1      30.923  24.991  23.935  1.00  0.00     0.035 C 
BRANCH   8  13
ATOM     13  C   UNL A   1      33.710  22.645  24.117  1.00  0.00     0.132 A 
ATOM     14  C   UNL A   1      35.705  22.180  25.293  1.00  0.00     0.049 A 
ATOM     15  C   UNL A   1      34.900  23.100  24.647  1.00  0.00     0.071 A 
ATOM     16  N   UNL A   1      35.371  20.879  25.374  1.00  0.00    -0.233 NA
ATOM     17  C   UNL A   1      34.212  20.514  24.798  1.00  0.00     0.161 A 
ATOM     18  N   UNL A   1      33.364  21.349  24.175  1.00  0.00    -0.211 NA
BRANCH  14  19
ATOM     19  C   UNL A   1      37.002  22.584  25.962  1.00  0.00     0.032 C 
ATOM     20  C   UNL A   1      38.169  21.733  25.464  1.00  0.00     0.014 C 
ATOM     21  C   UNL A   1      37.291  24.078  25.789  1.00  0.00     0.014 C 
ENDBRANCH  14  19
BRANCH  17  22
ATOM     22  C   UNL A   1      33.877  19.087  24.805  1.00  0.00     0.019 A 
ATOM     23  C   UNL A   1      32.662  18.623  25.345  1.00  0.00     0.015 A 
ATOM     24  C   UNL A   1      34.778  18.137  24.286  1.00  0.00     0.015 A 
ATOM     25  C   UNL A   1      32.357  17.258  25.365  1.00  0.00     0.040 A 
ATOM     26  C   UNL A   1      34.483  16.771  24.323  1.00  0.00     0.040 A 
ATOM     27  C   UNL A   1      33.274  16.346  24.859  1.00  0.00     0.123 A 
ATOM     28  F   UNL A   1      32.996  15.036  24.890  1.00  0.00    -0.207 F 
ENDBRANCH  17  22
ENDBRANCH   8  13
ENDBRANCH   4   7
ENDBRANCH   2   3
ENDBRANCH   1   2
BRANCH   1  29
ATOM     29  C   UNL A   1      33.467  28.405  27.196  1.00  0.00     0.118 C 
BRANCH  29  30
ATOM     30  N   UNL A   1      33.521  29.821  27.540  1.00  0.00    -0.352 N 
ATOM     31  C   UNL A   1      34.521  30.552  28.133  1.00  0.00     0.251 C 
ATOM     32  H   UNL A   1      32.711  30.333  27.311  1.00  0.00     0.163 HD
ATOM     33  O   UNL A   1      34.292  31.700  28.508  1.00  0.00    -0.269 OA
BRANCH  31  34
ATOM     34  C   UNL A   1      35.859  29.958  28.347  1.00  0.00     0.039 A 
ATOM     35  C   UNL A   1      36.759  29.917  27.279  1.00  0.00     0.014 A 
ATOM     36  C   UNL A   1      36.230  29.449  29.594  1.00  0.00     0.014 A 
ATOM     37  C   UNL A   1      38.063  29.460  27.489  1.00  0.00     0.010 A 
ATOM     38  C   UNL A   1      37.550  29.070  29.821  1.00  0.00     0.010 A 
ATOM     39  C   UNL A   1      38.486  29.090  28.777  1.00  0.00    -0.014 A 
BRANCH  39  40
ATOM     40  C   UNL A   1      39.909  28.776  29.069  1.00  0.00     0.031 A 
ATOM     41  C   UNL A   1      40.833  29.841  29.592  1.00  0.00     0.074 A 
ATOM     42  C   UNL A   1      40.388  27.552  28.766  1.00  0.00     0.049 A 
ATOM     43  N   UNL A   1      42.126  29.789  29.784  1.00  0.00    -0.248 NA
ATOM     44  C   UNL A   1      40.228  31.142  29.919  1.00  0.00     0.031 C 
ATOM     45  C   UNL A   1      39.599  26.446  28.218  1.00  0.00     0.029 A 
ATOM     46  N   UNL A   1      41.658  27.037  28.854  1.00  0.00    -0.354 N 
ATOM     47  C   UNL A   1      42.492  31.048  30.243  1.00  0.00     0.074 A 
ATOM     48  C   UNL A   1      41.292  31.857  30.258  1.00  0.00     0.031 C 
ATOM     49  C   UNL A   1      40.397  25.384  28.031  1.00  0.00     0.029 A 
ATOM     50  C   UNL A   1      41.763  25.746  28.393  1.00  0.00     0.049 A 
ATOM     51  H   UNL A   1      42.421  27.544  29.216  1.00  0.00     0.167 HD
ATOM     52  C   UNL A   1      43.715  31.483  30.632  1.00  0.00     0.037 A 
ATOM     53  C   UNL A   1      42.841  24.949  28.249  1.00  0.00     0.037 A 
ATOM     54  C   UNL A   1      44.901  30.666  30.628  1.00  0.00     0.049 A 
ATOM     55  C   UNL A   1      44.195  25.469  28.648  1.00  0.00     0.074 A 
ATOM     56  C   UNL A   1      46.173  30.994  31.064  1.00  0.00     0.029 A 
ATOM     57  N   UNL A   1      44.967  29.364  30.152  1.00  0.00    -0.354 N 
ATOM     58  N   UNL A   1      44.512  26.641  29.147  1.00  0.00    -0.248 NA
ATOM     59  C   UNL A   1      45.338  24.566  28.459  1.00  0.00     0.031 C 
ATOM     60  C   UNL A   1      47.019  29.913  30.800  1.00  0.00     0.029 A 
ATOM     61  C   UNL A   1      46.265  28.889  30.248  1.00  0.00     0.049 A 
ATOM     62  H   UNL A   1      44.204  28.853  29.797  1.00  0.00     0.167 HD
ATOM     63  C   UNL A   1      45.888  26.609  29.347  1.00  0.00     0.074 A 
ATOM     64  C   UNL A   1      46.340  25.297  28.932  1.00  0.00     0.031 C 
ATOM     65  C   UNL A   1      46.703  27.581  29.828  1.00  0.00     0.037 A 
BRANCH  52  66
ATOM     66  C   UNL A   1      43.837  32.910  31.096  1.00  0.00     0.058 A 
ATOM     67  C   UNL A   1      44.070  33.962  30.196  1.00  0.00     0.135 A 
ATOM     68  C   UNL A   1      43.673  33.237  32.452  1.00  0.00     0.135 A 
ATOM     69  F   UNL A   1      44.247  33.707  28.889  1.00  0.00    -0.206 F 
ATOM     70  C   UNL A   1      44.162  35.282  30.625  1.00  0.00     0.059 A 
ATOM     71  C   UNL A   1      43.732  34.553  32.901  1.00  0.00     0.059 A 
ATOM     72  F   UNL A   1      43.447  32.272  33.358  1.00  0.00    -0.206 F 
ATOM     73  C   UNL A   1      43.991  35.567  31.981  1.00  0.00     0.060 A 
BRANCH  73  74
ATOM     74  S   UNL A   1      44.106  37.287  32.518  1.00  0.00     0.124 S 
ATOM     75  O   UNL A   1      43.012  37.365  33.482  1.00  0.00    -0.237 OA
ATOM     76  O   UNL A   1      45.451  37.349  33.081  1.00  0.00    -0.237 OA
ATOM     77  O   UNL A   1      43.909  38.043  31.285  1.00  0.00    -0.744 OA
ENDBRANCH  73  74
ENDBRANCH  52  66
BRANCH  53  78
ATOM     78  C   UNL A   1      42.680  23.579  27.690  1.00  0.00     0.058 A 
ATOM     79  C   UNL A   1      42.633  23.365  26.305  1.00  0.00     0.135 A 
ATOM     80  C   UNL A   1      42.592  22.456  28.528  1.00  0.00     0.135 A 
ATOM     81  F   UNL A   1      42.702  24.407  25.463  1.00  0.00    -0.206 F 
ATOM     82  C   UNL A   1      42.492  22.089  25.769  1.00  0.00     0.059 A 
ATOM     83  C   UNL A   1      42.478  21.168  28.016  1.00  0.00     0.059 A 
ATOM     84  F   UNL A   1      42.643  22.605  29.861  1.00  0.00    -0.206 F 
ATOM     85  C   UNL A   1      42.421  20.995  26.634  1.00  0.00     0.060 A 
BRANCH  85  86
ATOM     86  S   UNL A   1      42.294  19.337  25.929  1.00  0.00     0.124 S 
ATOM     87  O   UNL A   1      42.820  18.516  27.013  1.00  0.00    -0.237 OA
ATOM     88  O   UNL A   1      40.861  19.221  25.675  1.00  0.00    -0.237 OA
ATOM     89  O   UNL A   1      43.127  19.417  24.734  1.00  0.00    -0.744 OA
ENDBRANCH  85  86
ENDBRANCH  53  78
BRANCH  65  90
ATOM     90  C   UNL A   1      48.169  27.267  29.941  1.00  0.00     0.058 A 
ATOM     91  C   UNL A   1      49.064  27.557  28.900  1.00  0.00     0.135 A 
ATOM     92  C   UNL A   1      48.698  26.743  31.133  1.00  0.00     0.135 A 
ATOM     93  F   UNL A   1      48.609  28.047  27.736  1.00  0.00    -0.206 F 
ATOM     94  C   UNL A   1      50.430  27.333  29.033  1.00  0.00     0.059 A 
ATOM     95  C   UNL A   1      50.064  26.538  31.298  1.00  0.00     0.059 A 
ATOM     96  F   UNL A   1      47.885  26.454  32.163  1.00  0.00    -0.206 F 
ATOM     97  C   UNL A   1      50.922  26.832  30.240  1.00  0.00     0.060 A 
BRANCH  97  98
ATOM     98  S   UNL A   1      52.705  26.610  30.419  1.00  0.00     0.124 S 
ATOM     99  O   UNL A   1      52.770  25.496  31.360  1.00  0.00    -0.237 OA
ATOM    100  O   UNL A   1      53.119  26.308  29.052  1.00  0.00    -0.237 OA
ATOM    101  O   UNL A   1      53.159  27.896  30.938  1.00  0.00    -0.744 OA
ENDBRANCH  97  98
ENDBRANCH  65  90
ENDBRANCH  39  40
ENDBRANCH  31  34
ENDBRANCH  29  30
ENDBRANCH   1  29
TORSDOF 16
ENDMDL
MODEL 2
REMARK VINA RESULT:     -13.0      1.270      2.540
REMARK SMILES CC(C)c1cc(N2CCC(C(=O)NCCCNC(=O)c3ccc(-c4c5nc(c(-c6c(F)cc(S(=O)(=O)[O-])cc6F)c6ccc([nH]6)c(-c6c(F)cc(S(=O)(=O)[O-])cc6F)c6nc(c(-c7c(F)cc(S(=O)(=O)[O-])cc7F)c7ccc4[nH]7)C=C6)C=C5)cc3)CC2)nc(-c2ccc(F)cc2)n1
REMARK SMILES IDX 15 1 14 2 13 3 11 4 12 5 10 7 7 8 8 9 87 10 9 11 86 12 6 13
REMARK SMILES IDX 4 14 5 15 97 16 89 17 88 18 2 19 1 20 3 21 90 22 91 23 96 24
REMARK SMILES IDX 92 25 95 26 93 27 94 28 16 29 17 30 18 31 19 33 20 34 21 35
REMARK SMILES IDX 85 36 22 37 84 38 23 39 24 40 25 41 78 42 26 43 83 44 77 45
REMARK SMILES IDX 79 46 27 47 82 48 76 49 75 50 28 52 62 53 41 54 61 55 42 56
REMARK SMILES IDX 45 57 60 58 80 59 43 60 44 61 59 63 81 64 46 65 29 66 30 67
REMARK SMILES IDX 39 68 31 69 32 70 38 71 40 72 33 73 34 74 35 75 36 76 37 77
REMARK SMILES IDX 63 78 64 79 73 80 65 81 66 82 72 83 74 84 67 85 68 86 69 87
REMARK SMILES IDX 70 88 71 89 47 90 48 91 57 92 49 93 50 94 56 95 58 96 51 97
REMARK SMILES IDX 52 98 53 99 54 100 55 101
REMARK H PARENT 13 6 17 32 79 51 45 62
REMARK Flexibility Score: inf
ROOT
ATOM      1  C   UNL A   1      32.213  28.035  27.027  1.00  0.00     0.042 C 
ENDROOT
BRANCH   1   2
ATOM      2  C   UNL A   1      31.925  27.372  25.685  1.00  0.00     0.117 C 
BRANCH   2   3
ATOM      3  N   UNL A   1      31.344  28.288  24.707  1.00  0.00    -0.356 N 
ATOM      4  C   UNL A   1      30.895  28.075  23.438  1.00  0.00     0.223 C 
ATOM      5  O   UNL A   1      30.400  29.030  22.833  1.00  0.00    -0.275 OA
ATOM      6  H   UNL A   1      31.264  29.218  25.018  1.00  0.00     0.163 HD
BRANCH   4   7
ATOM      7  C   UNL A   1      30.982  26.707  22.774  1.00  0.00     0.082 C 
ATOM      8  N   UNL A   1      31.969  24.134  23.314  1.00  0.00    -0.356 N 
ATOM      9  C   UNL A   1      32.682  24.867  22.282  1.00  0.00     0.119 C 
ATOM     10  C   UNL A   1      30.526  24.225  23.287  1.00  0.00     0.119 C 
ATOM     11  C   UNL A   1      32.452  26.348  22.500  1.00  0.00     0.035 C 
ATOM     12  C   UNL A   1      30.130  25.675  23.541  1.00  0.00     0.035 C 
BRANCH   8  13
ATOM     13  C   UNL A   1      32.624  23.027  23.807  1.00  0.00     0.132 A 
ATOM     14  C   UNL A   1      32.809  20.705  24.202  1.00  0.00     0.049 A 
ATOM     15  C   UNL A   1      32.032  21.781  23.811  1.00  0.00     0.071 A 
ATOM     16  N   UNL A   1      34.083  20.861  24.604  1.00  0.00    -0.233 NA
ATOM     17  C   UNL A   1      34.570  22.115  24.605  1.00  0.00     0.161 A 
ATOM     18  N   UNL A   1      33.890  23.206  24.217  1.00  0.00    -0.211 NA
BRANCH  14  19
ATOM     19  C   UNL A   1      32.277  19.288  24.186  1.00  0.00     0.032 C 
ATOM     20  C   UNL A   1      32.490  18.633  22.822  1.00  0.00     0.014 C 
ATOM     21  C   UNL A   1      32.880  18.440  25.309  1.00  0.00     0.014 C 
ENDBRANCH  14  19
BRANCH  17  22
ATOM     22  C   UNL A   1      35.928  22.309  25.121  1.00  0.00     0.019 A 
ATOM     23  C   UNL A   1      36.334  23.543  25.665  1.00  0.00     0.015 A 
ATOM     24  C   UNL A   1      36.872  21.265  25.065  1.00  0.00     0.015 A 
ATOM     25  C   UNL A   1      37.638  23.727  26.138  1.00  0.00     0.040 A 
ATOM     26  C   UNL A   1      38.180  21.454  25.520  1.00  0.00     0.040 A 
ATOM     27  C   UNL A   1      38.549  22.682  26.055  1.00  0.00     0.123 A 
ATOM     28  F   UNL A   1      39.803  22.855  26.491  1.00  0.00    -0.207 F 
ENDBRANCH  17  22
ENDBRANCH   8  13
ENDBRANCH   4   7
ENDBRANCH   2   3
ENDBRANCH   1   2
BRANCH   1  29
ATOM     29  C   UNL A   1      33.621  28.597  27.162  1.00  0.00     0.118 C 
BRANCH  29  30
ATOM     30  N   UNL A   1      33.640  29.974  27.640  1.00  0.00    -0.352 N 
ATOM     31  C   UNL A   1      34.617  30.666  28.312  1.00  0.00     0.251 C 
ATOM     32  H   UNL A   1      32.821  30.488  27.451  1.00  0.00     0.163 HD
ATOM     33  O   UNL A   1      34.357  31.768  28.792  1.00  0.00    -0.269 OA
BRANCH  31  34
ATOM     34  C   UNL A   1      35.966  30.084  28.485  1.00  0.00     0.039 A 
ATOM     35  C   UNL A   1      36.849  30.091  27.403  1.00  0.00     0.014 A 
ATOM     36  C   UNL A   1      36.363  29.538  29.709  1.00  0.00     0.014 A 
ATOM     37  C   UNL A   1      38.162  29.646  27.578  1.00  0.00     0.010 A 
ATOM     38  C   UNL A   1      37.691  29.169  29.903  1.00  0.00     0.010 A 
ATOM     39  C   UNL A   1      38.610  29.238  28.845  1.00  0.00    -0.014 A 
BRANCH  39  40
ATOM     40  C   UNL A   1      40.042  28.934  29.105  1.00  0.00     0.031 A 
ATOM     41  C   UNL A   1      40.968  30.002  29.615  1.00  0.00     0.074 A 
ATOM     42  C   UNL A   1      40.523  27.715  28.783  1.00  0.00     0.049 A 
ATOM     43  N   UNL A   1      42.265  29.960  29.780  1.00  0.00    -0.248 NA
ATOM     44  C   UNL A   1      40.360  31.296  29.964  1.00  0.00     0.031 C 
ATOM     45  C   UNL A   1      39.732  26.607  28.245  1.00  0.00     0.029 A 
ATOM     46  N   UNL A   1      41.800  27.210  28.842  1.00  0.00    -0.354 N 
ATOM     47  C   UNL A   1      42.631  31.219  30.239  1.00  0.00     0.074 A 
ATOM     48  C   UNL A   1      41.425  32.018  30.285  1.00  0.00     0.031 C 
ATOM     49  C   UNL A   1      40.534  25.552  28.034  1.00  0.00     0.029 A 
ATOM     50  C   UNL A   1      41.905  25.923  28.369  1.00  0.00     0.049 A 
ATOM     51  H   UNL A   1      42.566  27.721  29.190  1.00  0.00     0.167 HD
ATOM     52  C   UNL A   1      43.858  31.661  30.605  1.00  0.00     0.037 A 
ATOM     53  C   UNL A   1      42.986  25.136  28.197  1.00  0.00     0.037 A 
ATOM     54  C   UNL A   1      45.050  30.854  30.570  1.00  0.00     0.049 A 
ATOM     55  C   UNL A   1      44.343  25.664  28.570  1.00  0.00     0.074 A 
ATOM     56  C   UNL A   1      46.329  31.190  30.981  1.00  0.00     0.029 A 
ATOM     57  N   UNL A   1      45.116  29.555  30.084  1.00  0.00    -0.354 N 
ATOM     58  N   UNL A   1      44.662  26.835  29.071  1.00  0.00    -0.248 NA
ATOM     59  C   UNL A   1      45.490  24.772  28.351  1.00  0.00     0.031 C 
ATOM     60  C   UNL A   1      47.177  30.117  30.691  1.00  0.00     0.029 A 
ATOM     61  C   UNL A   1      46.420  29.090  30.149  1.00  0.00     0.049 A 
ATOM     62  H   UNL A   1      44.350  29.041  29.742  1.00  0.00     0.167 HD
ATOM     63  C   UNL A   1      46.042  26.813  29.241  1.00  0.00     0.074 A 
ATOM     64  C   UNL A   1      46.495  25.508  28.808  1.00  0.00     0.031 C 
ATOM     65  C   UNL A   1      46.859  27.789  29.711  1.00  0.00     0.037 A 
BRANCH  52  66
ATOM     66  C   UNL A   1      43.979  33.086  31.076  1.00  0.00     0.058 A 
ATOM     67  C   UNL A   1      43.847  33.430  32.430  1.00  0.00     0.135 A 
ATOM     68  C   UNL A   1      44.279  34.115  30.168  1.00  0.00     0.135 A 
ATOM     69  F   UNL A   1      43.547  32.489  33.342  1.00  0.00    -0.206 F 
ATOM     70  C   UNL A   1      43.980  34.744  32.865  1.00  0.00     0.059 A 
ATOM     71  C   UNL A   1      44.446  35.433  30.584  1.00  0.00     0.059 A 
ATOM     72  F   UNL A   1      44.419  33.844  28.860  1.00  0.00    -0.206 F 
ATOM     73  C   UNL A   1      44.281  35.740  31.933  1.00  0.00     0.060 A 
BRANCH  73  74
ATOM     74  S   UNL A   1      44.458  37.439  32.517  1.00  0.00     0.124 S 
ATOM     75  O   UNL A   1      43.467  37.483  33.588  1.00  0.00    -0.237 OA
ATOM     76  O   UNL A   1      45.852  37.479  32.943  1.00  0.00    -0.237 OA
ATOM     77  O   UNL A   1      44.141  38.239  31.338  1.00  0.00    -0.744 OA
ENDBRANCH  73  74
ENDBRANCH  52  66
BRANCH  53  78
ATOM     78  C   UNL A   1      42.824  23.768  27.633  1.00  0.00     0.058 A 
ATOM     79  C   UNL A   1      42.907  23.543  26.251  1.00  0.00     0.135 A 
ATOM     80  C   UNL A   1      42.605  22.659  28.464  1.00  0.00     0.135 A 
ATOM     81  F   UNL A   1      43.104  24.573  25.414  1.00  0.00    -0.206 F 
ATOM     82  C   UNL A   1      42.767  22.269  25.711  1.00  0.00     0.059 A 
ATOM     83  C   UNL A   1      42.489  21.371  27.950  1.00  0.00     0.059 A 
ATOM     84  F   UNL A   1      42.529  22.817  29.794  1.00  0.00    -0.206 F 
ATOM     85  C   UNL A   1      42.563  21.187  26.570  1.00  0.00     0.060 A 
BRANCH  85  86
ATOM     86  S   UNL A   1      42.437  19.529  25.866  1.00  0.00     0.124 S 
ATOM     87  O   UNL A   1      42.732  18.694  27.024  1.00  0.00    -0.237 OA
ATOM     88  O   UNL A   1      41.057  19.501  25.391  1.00  0.00    -0.237 OA
ATOM     89  O   UNL A   1      43.450  19.534  24.815  1.00  0.00    -0.744 OA
ENDBRANCH  85  86
ENDBRANCH  53  78
BRANCH  65  90
ATOM     90  C   UNL A   1      48.330  27.486  29.791  1.00  0.00     0.058 A 
ATOM     91  C   UNL A   1      49.219  27.897  28.785  1.00  0.00     0.135 A 
ATOM     92  C   UNL A   1      48.868  26.848  30.921  1.00  0.00     0.135 A 
ATOM     93  F   UNL A   1      48.756  28.500  27.679  1.00  0.00    -0.206 F 
ATOM     94  C   UNL A   1      50.589  27.680  28.895  1.00  0.00     0.059 A 
ATOM     95  C   UNL A   1      50.237  26.647  31.064  1.00  0.00     0.059 A 
ATOM     96  F   UNL A   1      48.062  26.440  31.915  1.00  0.00    -0.206 F 
ATOM     97  C   UNL A   1      51.089  27.063  30.042  1.00  0.00     0.060 A 
BRANCH  97  98
ATOM     98  S   UNL A   1      52.875  26.849  30.198  1.00  0.00     0.124 S 
ATOM     99  O   UNL A   1      53.204  26.185  28.940  1.00  0.00    -0.237 OA
ATOM    100  O   UNL A   1      53.343  28.226  30.327  1.00  0.00    -0.237 OA
ATOM    101  O   UNL A   1      53.018  26.027  31.395  1.00  0.00    -0.744 OA
ENDBRANCH  97  98
ENDBRANCH  65  90
ENDBRANCH  39  40
ENDBRANCH  31  34
ENDBRANCH  29  30
ENDBRANCH   1  29
TORSDOF 16
ENDMDL
MODEL 3
REMARK VINA RESULT:     -12.7      2.596      3.811
REMARK SMILES CC(C)c1cc(N2CCC(C(=O)NCCCNC(=O)c3ccc(-c4c5nc(c(-c6c(F)cc(S(=O)(=O)[O-])cc6F)c6ccc([nH]6)c(-c6c(F)cc(S(=O)(=O)[O-])cc6F)c6nc(c(-c7c(F)cc(S(=O)(=O)[O-])cc7F)c7ccc4[nH]7)C=C6)C=C5)cc3)CC2)nc(-c2ccc(F)cc2)n1
REMARK SMILES IDX 15 1 14 2 13 3 11 4 12 5 10 7 7 8 8 9 87 10 9 11 86 12 6 13
REMARK SMILES IDX 4 14 5 15 97 16 89 17 88 18 2 19 1 20 3 21 90 22 91 23 96 24
REMARK SMILES IDX 92 25 95 26 93 27 94 28 16 29 17 30 18 31 19 33 20 34 21 35
REMARK SMILES IDX 85 36 22 37 84 38 23 39 24 40 25 41 78 42 26 43 83 44 77 45
REMARK SMILES IDX 79 46 27 47 82 48 76 49 75 50 28 52 62 53 41 54 61 55 42 56
REMARK SMILES IDX 45 57 60 58 80 59 43 60 44 61 59 63 81 64 46 65 29 66 30 67
REMARK SMILES IDX 39 68 31 69 32 70 38 71 40 72 33 73 34 74 35 75 36 76 37 77
REMARK SMILES IDX 63 78 64 79 73 80 65 81 66 82 72 83 74 84 67 85 68 86 69 87
REMARK SMILES IDX 70 88 71 89 47 90 48 91 57 92 49 93 50 94 56 95 58 96 51 97
REMARK SMILES IDX 52 98 53 99 54 100 55 101
REMARK H PARENT 13 6 17 32 79 51 45 62
REMARK Flexibility Score: inf
ROOT
ATOM      1  C   UNL A   1      32.842  27.820  26.420  1.00  0.00     0.042 C 
ENDROOT
BRANCH   1   2
ATOM      2  C   UNL A   1      32.280  26.924  25.322  1.00  0.00     0.117 C 
BRANCH   2   3
ATOM      3  N   UNL A   1      31.593  27.669  24.271  1.00  0.00    -0.356 N 
ATOM      4  C   UNL A   1      31.135  27.277  23.049  1.00  0.00     0.223 C 
ATOM      5  O   UNL A   1      30.539  28.109  22.360  1.00  0.00    -0.275 OA
ATOM      6  H   UNL A   1      31.433  28.617  24.482  1.00  0.00     0.163 HD
BRANCH   4   7
ATOM      7  C   UNL A   1      31.335  25.857  22.535  1.00  0.00     0.082 C 
ATOM      8  N   UNL A   1      32.567  23.458  23.319  1.00  0.00    -0.356 N 
ATOM      9  C   UNL A   1      33.188  24.133  22.193  1.00  0.00     0.119 C 
ATOM     10  C   UNL A   1      31.121  23.416  23.326  1.00  0.00     0.119 C 
ATOM     11  C   UNL A   1      32.827  25.603  22.257  1.00  0.00     0.035 C 
ATOM     12  C   UNL A   1      30.597  24.844  23.433  1.00  0.00     0.035 C 
BRANCH   8  13
ATOM     13  C   UNL A   1      33.331  22.476  23.909  1.00  0.00     0.132 A 
ATOM     14  C   UNL A   1      33.782  20.225  24.468  1.00  0.00     0.049 A 
ATOM     15  C   UNL A   1      32.896  21.167  23.978  1.00  0.00     0.071 A 
ATOM     16  N   UNL A   1      35.009  20.565  24.903  1.00  0.00    -0.233 NA
ATOM     17  C   UNL A   1      35.337  21.867  24.836  1.00  0.00     0.161 A 
ATOM     18  N   UNL A   1      34.546  22.838  24.350  1.00  0.00    -0.211 NA
BRANCH  14  19
ATOM     19  C   UNL A   1      33.430  18.754  24.530  1.00  0.00     0.032 C 
ATOM     20  C   UNL A   1      32.352  18.400  23.506  1.00  0.00     0.014 C 
ATOM     21  C   UNL A   1      34.665  17.864  24.365  1.00  0.00     0.014 C 
ENDBRANCH  14  19
BRANCH  17  22
ATOM     22  C   UNL A   1      36.638  22.263  25.384  1.00  0.00     0.019 A 
ATOM     23  C   UNL A   1      36.859  23.563  25.878  1.00  0.00     0.015 A 
ATOM     24  C   UNL A   1      37.711  21.352  25.411  1.00  0.00     0.015 A 
ATOM     25  C   UNL A   1      38.108  23.940  26.382  1.00  0.00     0.040 A 
ATOM     26  C   UNL A   1      38.965  21.732  25.898  1.00  0.00     0.040 A 
ATOM     27  C   UNL A   1      39.150  23.021  26.381  1.00  0.00     0.123 A 
ATOM     28  F   UNL A   1      40.353  23.379  26.848  1.00  0.00    -0.207 F 
ENDBRANCH  17  22
ENDBRANCH   8  13
ENDBRANCH   4   7
ENDBRANCH   2   3
ENDBRANCH   1   2
BRANCH   1  29
ATOM     29  C   UNL A   1      33.992  28.713  25.975  1.00  0.00     0.118 C 
BRANCH  29  30
ATOM     30  N   UNL A   1      33.862  30.085  26.451  1.00  0.00    -0.352 N 
ATOM     31  C   UNL A   1      34.586  30.767  27.399  1.00  0.00     0.251 C 
ATOM     32  H   UNL A   1      33.141  30.604  26.026  1.00  0.00     0.163 HD
ATOM     33  O   UNL A   1      34.192  31.864  27.788  1.00  0.00    -0.269 OA
BRANCH  31  34
ATOM     34  C   UNL A   1      35.817  30.179  27.970  1.00  0.00     0.039 A 
ATOM     35  C   UNL A   1      37.006  30.257  27.241  1.00  0.00     0.014 A 
ATOM     36  C   UNL A   1      35.804  29.557  29.222  1.00  0.00     0.014 A 
ATOM     37  C   UNL A   1      38.200  29.806  27.810  1.00  0.00     0.010 A 
ATOM     38  C   UNL A   1      37.004  29.180  29.819  1.00  0.00     0.010 A 
ATOM     39  C   UNL A   1      38.217  29.319  29.128  1.00  0.00    -0.014 A 
BRANCH  39  40
ATOM     40  C   UNL A   1      39.491  29.003  29.825  1.00  0.00     0.031 A 
ATOM     41  C   UNL A   1      39.978  29.868  30.954  1.00  0.00     0.074 A 
ATOM     42  C   UNL A   1      40.256  27.990  29.368  1.00  0.00     0.049 A 
ATOM     43  N   UNL A   1      41.118  29.825  31.594  1.00  0.00    -0.248 NA
ATOM     44  C   UNL A   1      39.074  30.937  31.407  1.00  0.00     0.031 C 
ATOM     45  C   UNL A   1      39.910  27.102  28.256  1.00  0.00     0.029 A 
ATOM     46  N   UNL A   1      41.494  27.548  29.769  1.00  0.00    -0.354 N 
ATOM     47  C   UNL A   1      41.075  30.863  32.516  1.00  0.00     0.074 A 
ATOM     48  C   UNL A   1      39.815  31.548  32.322  1.00  0.00     0.031 C 
ATOM     49  C   UNL A   1      40.902  26.218  28.071  1.00  0.00     0.029 A 
ATOM     50  C   UNL A   1      41.979  26.507  29.012  1.00  0.00     0.049 A 
ATOM     51  H   UNL A   1      41.986  27.939  30.526  1.00  0.00     0.167 HD
ATOM     52  C   UNL A   1      41.997  31.203  33.449  1.00  0.00     0.037 A 
ATOM     53  C   UNL A   1      43.167  25.872  29.051  1.00  0.00     0.037 A 
ATOM     54  C   UNL A   1      43.242  30.506  33.644  1.00  0.00     0.049 A 
ATOM     55  C   UNL A   1      44.191  26.295  30.068  1.00  0.00     0.074 A 
ATOM     56  C   UNL A   1      44.213  30.732  34.605  1.00  0.00     0.029 A 
ATOM     57  N   UNL A   1      43.698  29.457  32.857  1.00  0.00    -0.354 N 
ATOM     58  N   UNL A   1      44.105  27.235  30.980  1.00  0.00    -0.248 NA
ATOM     59  C   UNL A   1      45.474  25.580  30.060  1.00  0.00     0.031 C 
ATOM     60  C   UNL A   1      45.278  29.860  34.364  1.00  0.00     0.029 A 
ATOM     61  C   UNL A   1      44.951  29.052  33.286  1.00  0.00     0.049 A 
ATOM     62  H   UNL A   1      43.203  29.061  32.104  1.00  0.00     0.167 HD
ATOM     63  C   UNL A   1      45.316  27.212  31.664  1.00  0.00     0.074 A 
ATOM     64  C   UNL A   1      46.110  26.154  31.073  1.00  0.00     0.031 C 
ATOM     65  C   UNL A   1      45.733  27.999  32.687  1.00  0.00     0.037 A 
BRANCH  52  66
ATOM     66  C   UNL A   1      41.697  32.383  34.334  1.00  0.00     0.058 A 
ATOM     67  C   UNL A   1      42.129  33.679  34.009  1.00  0.00     0.135 A 
ATOM     68  C   UNL A   1      40.927  32.226  35.498  1.00  0.00     0.135 A 
ATOM     69  F   UNL A   1      42.880  33.887  32.915  1.00  0.00    -0.206 F 
ATOM     70  C   UNL A   1      41.833  34.771  34.818  1.00  0.00     0.059 A 
ATOM     71  C   UNL A   1      40.594  33.308  36.308  1.00  0.00     0.059 A 
ATOM     72  F   UNL A   1      40.486  31.009  35.858  1.00  0.00    -0.206 F 
ATOM     73  C   UNL A   1      41.064  34.574  35.967  1.00  0.00     0.060 A 
BRANCH  73  74
ATOM     74  S   UNL A   1      40.683  36.004  37.001  1.00  0.00     0.124 S 
ATOM     75  O   UNL A   1      40.161  35.363  38.204  1.00  0.00    -0.237 OA
ATOM     76  O   UNL A   1      41.986  36.645  37.140  1.00  0.00    -0.237 OA
ATOM     77  O   UNL A   1      39.704  36.745  36.211  1.00  0.00    -0.744 OA
ENDBRANCH  73  74
ENDBRANCH  52  66
BRANCH  53  78
ATOM     78  C   UNL A   1      43.453  24.776  28.085  1.00  0.00     0.058 A 
ATOM     79  C   UNL A   1      43.183  23.439  28.410  1.00  0.00     0.135 A 
ATOM     80  C   UNL A   1      43.983  25.045  26.814  1.00  0.00     0.135 A 
ATOM     81  F   UNL A   1      42.687  23.129  29.618  1.00  0.00    -0.206 F 
ATOM     82  C   UNL A   1      43.437  22.405  27.514  1.00  0.00     0.059 A 
ATOM     83  C   UNL A   1      44.220  24.032  25.890  1.00  0.00     0.059 A 
ATOM     84  F   UNL A   1      44.249  26.309  26.448  1.00  0.00    -0.206 F 
ATOM     85  C   UNL A   1      43.951  22.713  26.253  1.00  0.00     0.060 A 
BRANCH  85  86
ATOM     86  S   UNL A   1      44.227  21.372  25.075  1.00  0.00     0.124 S 
ATOM     87  O   UNL A   1      43.121  20.475  25.386  1.00  0.00    -0.237 OA
ATOM     88  O   UNL A   1      44.147  22.067  23.794  1.00  0.00    -0.237 OA
ATOM     89  O   UNL A   1      45.557  20.884  25.430  1.00  0.00    -0.744 OA
ENDBRANCH  85  86
ENDBRANCH  53  78
BRANCH  65  90
ATOM     90  C   UNL A   1      47.107  27.748  33.244  1.00  0.00     0.058 A 
ATOM     91  C   UNL A   1      47.326  26.798  34.254  1.00  0.00     0.135 A 
ATOM     92  C   UNL A   1      48.227  28.406  32.709  1.00  0.00     0.135 A 
ATOM     93  F   UNL A   1      46.289  26.150  34.808  1.00  0.00    -0.206 F 
ATOM     94  C   UNL A   1      48.606  26.515  34.718  1.00  0.00     0.059 A 
ATOM     95  C   UNL A   1      49.518  28.117  33.138  1.00  0.00     0.059 A 
ATOM     96  F   UNL A   1      48.073  29.319  31.736  1.00  0.00    -0.206 F 
ATOM     97  C   UNL A   1      49.697  27.172  34.147  1.00  0.00     0.060 A 
BRANCH  97  98
ATOM     98  S   UNL A   1      51.356  26.745  34.716  1.00  0.00     0.124 S 
ATOM     99  O   UNL A   1      51.312  25.286  34.688  1.00  0.00    -0.237 OA
ATOM    100  O   UNL A   1      52.203  27.371  33.704  1.00  0.00    -0.237 OA
ATOM    101  O   UNL A   1      51.428  27.344  36.044  1.00  0.00    -0.744 OA
ENDBRANCH  97  98
ENDBRANCH  65  90
ENDBRANCH  39  40
ENDBRANCH  31  34
ENDBRANCH  29  30
ENDBRANCH   1  29
TORSDOF 16
ENDMDL
