MODEL 1
REMARK VINA RESULT:     -12.5      0.000      0.000
REMARK SMILES C[C@@H](C(=O)NCCCNC(=O)c1ccc(-c2c3nc(c(-c4c(F)cc(S(=O)(=O)[O-])cc4F)c4ccc([nH]4)c(-c4c(F)cc(S(=O)(=O)[O-])cc4F)c4nc(c(-c5c(F)cc(S(=O)(=O)[O-])cc5F)c5ccc2[nH]5)C=C4)C=C3)cc1)c1ccc(-c2cccc(OC(=O)Nc3ccccc3)c2)c(F)c1
REMARK SMILES IDX 6 1 5 2 3 3 4 4 2 6 1 7 78 8 79 9 100 10 80 11 98 12 81 13
REMARK SMILES IDX 99 14 82 15 83 16 97 17 84 18 86 19 85 20 87 21 88 22 89 23
REMARK SMILES IDX 90 24 91 26 92 27 96 28 93 29 95 30 94 31 7 32 8 33 9 34
REMARK SMILES IDX 10 35 11 37 12 38 13 39 77 40 14 41 76 42 15 43 16 44 17 45
REMARK SMILES IDX 70 46 18 47 75 48 69 49 71 50 19 51 74 52 68 53 67 54 20 56
REMARK SMILES IDX 54 57 33 58 53 59 34 60 37 61 52 62 72 63 35 64 36 65 51 67
REMARK SMILES IDX 73 68 38 69 21 70 22 71 31 72 23 73 24 74 30 75 32 76 25 77
REMARK SMILES IDX 26 78 27 79 28 80 29 81 55 82 56 83 65 84 57 85 58 86 64 87
REMARK SMILES IDX 66 88 59 89 60 90 61 91 62 92 63 93 39 94 40 95 49 96 41 97
REMARK SMILES IDX 42 98 48 99 50 100 43 101 44 102 45 103 46 104 47 105
REMARK H PARENT 5 5 90 25 9 36 71 55 37 66
REMARK Flexibility Score: inf
ROOT
ATOM      1  C   UNL A   1      44.830  22.133  26.838  1.00  0.00     0.117 C 
ENDROOT
BRANCH   1   2
ATOM      2  N   UNL A   1      44.408  21.311  25.718  1.00  0.00    -0.356 N 
ATOM      3  C   UNL A   1      43.448  20.343  25.643  1.00  0.00     0.227 C 
ATOM      4  O   UNL A   1      43.433  19.660  24.617  1.00  0.00    -0.274 OA
ATOM      5  H   UNL A   1      44.892  21.478  24.878  1.00  0.00     0.163 HD
BRANCH   3   6
ATOM      6  C   UNL A   1      42.440  20.161  26.797  1.00  0.00     0.105 C 
ATOM      7  C   UNL A   1      42.589  18.734  27.341  1.00  0.00     0.023 C 
BRANCH   6   8
ATOM      8  C   UNL A   1      40.996  20.504  26.405  1.00  0.00    -0.033 A 
ATOM      9  C   UNL A   1      40.127  19.550  25.851  1.00  0.00     0.005 A 
ATOM     10  C   UNL A   1      40.486  21.798  26.607  1.00  0.00     0.044 A 
ATOM     11  C   UNL A   1      38.844  19.899  25.415  1.00  0.00     0.012 A 
ATOM     12  C   UNL A   1      39.211  22.144  26.158  1.00  0.00     0.131 A 
ATOM     13  C   UNL A   1      38.377  21.215  25.526  1.00  0.00     0.018 A 
ATOM     14  F   UNL A   1      38.803  23.414  26.322  1.00  0.00    -0.206 F 
BRANCH  13  15
ATOM     15  C   UNL A   1      37.108  21.600  24.899  1.00  0.00    -0.012 A 
ATOM     16  C   UNL A   1      37.039  22.624  23.940  1.00  0.00     0.009 A 
ATOM     17  C   UNL A   1      35.911  20.999  25.328  1.00  0.00     0.056 A 
ATOM     18  C   UNL A   1      35.809  23.043  23.427  1.00  0.00     0.004 A 
ATOM     19  C   UNL A   1      34.686  21.438  24.837  1.00  0.00     0.133 A 
ATOM     20  C   UNL A   1      34.631  22.453  23.880  1.00  0.00     0.047 A 
BRANCH  19  21
ATOM     21  O   UNL A   1      33.430  20.944  25.262  1.00  0.00    -0.410 OA
BRANCH  21  22
ATOM     22  C   UNL A   1      32.302  20.765  24.463  1.00  0.00     0.417 C 
ATOM     23  O   UNL A   1      31.539  21.652  24.091  1.00  0.00    -0.224 OA
ATOM     24  N   UNL A   1      32.126  19.489  23.992  1.00  0.00    -0.291 N 
ATOM     25  H   UNL A   1      31.399  19.390  23.337  1.00  0.00     0.173 HD
BRANCH  24  26
ATOM     26  C   UNL A   1      32.807  18.299  24.290  1.00  0.00     0.044 A 
ATOM     27  C   UNL A   1      32.392  17.600  25.429  1.00  0.00     0.026 A 
ATOM     28  C   UNL A   1      33.873  17.798  23.539  1.00  0.00     0.026 A 
ATOM     29  C   UNL A   1      32.999  16.393  25.784  1.00  0.00     0.002 A 
ATOM     30  C   UNL A   1      34.492  16.598  23.905  1.00  0.00     0.002 A 
ATOM     31  C   UNL A   1      34.048  15.892  25.019  1.00  0.00     0.000 A 
ENDBRANCH  24  26
ENDBRANCH  21  22
ENDBRANCH  19  21
ENDBRANCH  13  15
ENDBRANCH   6   8
ENDBRANCH   3   6
ENDBRANCH   1   2
BRANCH   1  32
ATOM     32  C   UNL A   1      44.851  23.617  26.471  1.00  0.00     0.042 C 
BRANCH  32  33
ATOM     33  C   UNL A   1      43.662  24.415  26.994  1.00  0.00     0.118 C 
BRANCH  33  34
ATOM     34  N   UNL A   1      42.700  24.724  25.952  1.00  0.00    -0.352 N 
ATOM     35  C   UNL A   1      41.586  25.525  25.994  1.00  0.00     0.251 C 
ATOM     36  H   UNL A   1      42.873  24.294  25.082  1.00  0.00     0.163 HD
ATOM     37  O   UNL A   1      40.797  25.493  25.053  1.00  0.00    -0.269 OA
BRANCH  35  38
ATOM     38  C   UNL A   1      41.322  26.409  27.154  1.00  0.00     0.039 A 
ATOM     39  C   UNL A   1      42.005  27.627  27.231  1.00  0.00     0.014 A 
ATOM     40  C   UNL A   1      40.462  26.030  28.190  1.00  0.00     0.014 A 
ATOM     41  C   UNL A   1      41.806  28.472  28.326  1.00  0.00     0.010 A 
ATOM     42  C   UNL A   1      40.208  26.907  29.245  1.00  0.00     0.010 A 
ATOM     43  C   UNL A   1      40.894  28.127  29.336  1.00  0.00    -0.014 A 
BRANCH  43  44
ATOM     44  C   UNL A   1      40.691  29.010  30.515  1.00  0.00     0.031 A 
ATOM     45  C   UNL A   1      41.544  28.838  31.745  1.00  0.00     0.074 A 
ATOM     46  C   UNL A   1      39.721  29.944  30.494  1.00  0.00     0.049 A 
ATOM     47  N   UNL A   1      41.501  29.488  32.879  1.00  0.00    -0.248 NA
ATOM     48  C   UNL A   1      42.564  27.777  31.702  1.00  0.00     0.031 C 
ATOM     49  C   UNL A   1      38.792  30.174  29.384  1.00  0.00     0.029 A 
ATOM     50  N   UNL A   1      39.349  30.870  31.435  1.00  0.00    -0.354 N 
ATOM     51  C   UNL A   1      42.473  28.909  33.687  1.00  0.00     0.074 A 
ATOM     52  C   UNL A   1      43.052  27.819  32.933  1.00  0.00     0.031 C 
ATOM     53  C   UNL A   1      37.972  31.190  29.701  1.00  0.00     0.029 A 
ATOM     54  C   UNL A   1      38.298  31.666  31.042  1.00  0.00     0.049 A 
ATOM     55  H   UNL A   1      39.793  30.958  32.309  1.00  0.00     0.167 HD
ATOM     56  C   UNL A   1      42.868  29.269  34.933  1.00  0.00     0.037 A 
ATOM     57  C   UNL A   1      37.670  32.668  31.688  1.00  0.00     0.037 A 
ATOM     58  C   UNL A   1      42.311  30.373  35.668  1.00  0.00     0.049 A 
ATOM     59  C   UNL A   1      38.149  33.075  33.054  1.00  0.00     0.074 A 
ATOM     60  C   UNL A   1      42.669  30.846  36.919  1.00  0.00     0.029 A 
ATOM     61  N   UNL A   1      41.279  31.184  35.217  1.00  0.00    -0.354 N 
ATOM     62  N   UNL A   1      39.106  32.549  33.783  1.00  0.00    -0.248 NA
ATOM     63  C   UNL A   1      37.478  34.221  33.681  1.00  0.00     0.031 C 
ATOM     64  C   UNL A   1      41.836  31.925  37.235  1.00  0.00     0.029 A 
ATOM     65  C   UNL A   1      40.986  32.150  36.164  1.00  0.00     0.049 A 
ATOM     66  H   UNL A   1      40.823  31.087  34.349  1.00  0.00     0.167 HD
ATOM     67  C   UNL A   1      39.168  33.315  34.941  1.00  0.00     0.074 A 
ATOM     68  C   UNL A   1      38.160  34.348  34.810  1.00  0.00     0.031 C 
ATOM     69  C   UNL A   1      39.985  33.177  36.015  1.00  0.00     0.037 A 
BRANCH  56  70
ATOM     70  C   UNL A   1      43.966  28.462  35.569  1.00  0.00     0.058 A 
ATOM     71  C   UNL A   1      45.320  28.792  35.390  1.00  0.00     0.135 A 
ATOM     72  C   UNL A   1      43.666  27.354  36.378  1.00  0.00     0.135 A 
ATOM     73  F   UNL A   1      45.664  29.833  34.614  1.00  0.00    -0.206 F 
ATOM     74  C   UNL A   1      46.337  28.034  35.959  1.00  0.00     0.059 A 
ATOM     75  C   UNL A   1      44.667  26.596  36.981  1.00  0.00     0.059 A 
ATOM     76  F   UNL A   1      42.390  26.993  36.585  1.00  0.00    -0.206 F 
ATOM     77  C   UNL A   1      46.001  26.934  36.750  1.00  0.00     0.060 A 
BRANCH  77  78
ATOM     78  S   UNL A   1      47.332  25.953  37.475  1.00  0.00     0.124 S 
ATOM     79  O   UNL A   1      46.581  24.897  38.147  1.00  0.00    -0.237 OA
ATOM     80  O   UNL A   1      48.093  25.540  36.300  1.00  0.00    -0.237 OA
ATOM     81  O   UNL A   1      48.010  26.900  38.355  1.00  0.00    -0.744 OA
ENDBRANCH  77  78
ENDBRANCH  56  70
BRANCH  57  82
ATOM     82  C   UNL A   1      36.543  33.378  31.030  1.00  0.00     0.058 A 
ATOM     83  C   UNL A   1      36.771  34.267  29.969  1.00  0.00     0.135 A 
ATOM     84  C   UNL A   1      35.216  33.162  31.429  1.00  0.00     0.135 A 
ATOM     85  F   UNL A   1      38.024  34.510  29.554  1.00  0.00    -0.206 F 
ATOM     86  C   UNL A   1      35.724  34.928  29.335  1.00  0.00     0.059 A 
ATOM     87  C   UNL A   1      34.150  33.794  30.796  1.00  0.00     0.059 A 
ATOM     88  F   UNL A   1      34.945  32.306  32.427  1.00  0.00    -0.206 F 
ATOM     89  C   UNL A   1      34.416  34.683  29.754  1.00  0.00     0.060 A 
BRANCH  89  90
ATOM     90  S   UNL A   1      33.058  35.498  28.886  1.00  0.00     0.124 S 
ATOM     91  O   UNL A   1      33.768  36.517  28.123  1.00  0.00    -0.237 OA
ATOM     92  O   UNL A   1      32.486  34.401  28.110  1.00  0.00    -0.237 OA
ATOM     93  O   UNL A   1      32.216  35.991  29.972  1.00  0.00    -0.744 OA
ENDBRANCH  89  90
ENDBRANCH  57  82
BRANCH  69  94
ATOM     94  C   UNL A   1      39.848  34.188  37.117  1.00  0.00     0.058 A 
ATOM     95  C   UNL A   1      39.024  33.961  38.230  1.00  0.00     0.135 A 
ATOM     96  C   UNL A   1      40.580  35.386  37.076  1.00  0.00     0.135 A 
ATOM     97  F   UNL A   1      38.300  32.833  38.315  1.00  0.00    -0.206 F 
ATOM     98  C   UNL A   1      38.907  34.899  39.251  1.00  0.00     0.059 A 
ATOM     99  C   UNL A   1      40.498  36.328  38.097  1.00  0.00     0.059 A 
ATOM    100  F   UNL A   1      41.392  35.647  36.039  1.00  0.00    -0.206 F 
ATOM    101  C   UNL A   1      39.646  36.081  39.173  1.00  0.00     0.060 A 
BRANCH 101 102
ATOM    102  S   UNL A   1      39.501  37.285  40.511  1.00  0.00     0.124 S 
ATOM    103  O   UNL A   1      38.989  36.456  41.597  1.00  0.00    -0.237 OA
ATOM    104  O   UNL A   1      40.876  37.752  40.665  1.00  0.00    -0.237 OA
ATOM    105  O   UNL A   1      38.567  38.273  39.978  1.00  0.00    -0.744 OA
ENDBRANCH 101 102
ENDBRANCH  69  94
ENDBRANCH  43  44
ENDBRANCH  35  38
ENDBRANCH  33  34
ENDBRANCH  32  33
ENDBRANCH   1  32
TORSDOF 18
ENDMDL
MODEL 2
REMARK VINA RESULT:     -12.4      1.314      2.610
REMARK SMILES C[C@@H](C(=O)NCCCNC(=O)c1ccc(-c2c3nc(c(-c4c(F)cc(S(=O)(=O)[O-])cc4F)c4ccc([nH]4)c(-c4c(F)cc(S(=O)(=O)[O-])cc4F)c4nc(c(-c5c(F)cc(S(=O)(=O)[O-])cc5F)c5ccc2[nH]5)C=C4)C=C3)cc1)c1ccc(-c2cccc(OC(=O)Nc3ccccc3)c2)c(F)c1
REMARK SMILES IDX 6 1 5 2 3 3 4 4 2 6 1 7 78 8 79 9 100 10 80 11 98 12 81 13
REMARK SMILES IDX 99 14 82 15 83 16 97 17 84 18 86 19 85 20 87 21 88 22 89 23
REMARK SMILES IDX 90 24 91 26 92 27 96 28 93 29 95 30 94 31 7 32 8 33 9 34
REMARK SMILES IDX 10 35 11 37 12 38 13 39 77 40 14 41 76 42 15 43 16 44 17 45
REMARK SMILES IDX 70 46 18 47 75 48 69 49 71 50 19 51 74 52 68 53 67 54 20 56
REMARK SMILES IDX 54 57 33 58 53 59 34 60 37 61 52 62 72 63 35 64 36 65 51 67
REMARK SMILES IDX 73 68 38 69 21 70 22 71 31 72 23 73 24 74 30 75 32 76 25 77
REMARK SMILES IDX 26 78 27 79 28 80 29 81 55 82 56 83 65 84 57 85 58 86 64 87
REMARK SMILES IDX 66 88 59 89 60 90 61 91 62 92 63 93 39 94 40 95 49 96 41 97
REMARK SMILES IDX 42 98 48 99 50 100 43 101 44 102 45 103 46 104 47 105
REMARK H PARENT 5 5 90 25 9 36 71 55 37 66
REMARK Flexibility Score: inf
ROOT
ATOM      1  C   UNL A   1      44.355  22.667  27.641  1.00  0.00     0.117 C 
ENDROOT
BRANCH   1   2
ATOM      2  N   UNL A   1      44.120  22.092  26.329  1.00  0.00    -0.356 N 
ATOM      3  C   UNL A   1      43.294  21.076  25.941  1.00  0.00     0.227 C 
ATOM      4  O   UNL A   1      43.439  20.656  24.791  1.00  0.00    -0.274 OA
ATOM      5  H   UNL A   1      44.641  22.501  25.600  1.00  0.00     0.163 HD
BRANCH   3   6
ATOM      6  C   UNL A   1      42.234  20.526  26.917  1.00  0.00     0.105 C 
ATOM      7  C   UNL A   1      42.471  19.018  27.081  1.00  0.00     0.023 C 
BRANCH   6   8
ATOM      8  C   UNL A   1      40.794  20.863  26.507  1.00  0.00    -0.033 A 
ATOM      9  C   UNL A   1      39.953  19.921  25.892  1.00  0.00     0.005 A 
ATOM     10  C   UNL A   1      40.257  22.138  26.753  1.00  0.00     0.044 A 
ATOM     11  C   UNL A   1      38.675  20.268  25.442  1.00  0.00     0.012 A 
ATOM     12  C   UNL A   1      38.987  22.484  26.290  1.00  0.00     0.131 A 
ATOM     13  C   UNL A   1      38.184  21.570  25.598  1.00  0.00     0.018 A 
ATOM     14  F   UNL A   1      38.554  23.739  26.499  1.00  0.00    -0.206 F 
BRANCH  13  15
ATOM     15  C   UNL A   1      36.923  21.963  24.959  1.00  0.00    -0.012 A 
ATOM     16  C   UNL A   1      36.897  22.613  23.715  1.00  0.00     0.009 A 
ATOM     17  C   UNL A   1      35.709  21.770  25.643  1.00  0.00     0.056 A 
ATOM     18  C   UNL A   1      35.694  23.066  23.169  1.00  0.00     0.004 A 
ATOM     19  C   UNL A   1      34.516  22.248  25.110  1.00  0.00     0.133 A 
ATOM     20  C   UNL A   1      34.503  22.888  23.869  1.00  0.00     0.047 A 
BRANCH  19  21
ATOM     21  O   UNL A   1      33.260  22.165  25.757  1.00  0.00    -0.410 OA
BRANCH  21  22
ATOM     22  C   UNL A   1      32.116  21.543  25.259  1.00  0.00     0.417 C 
ATOM     23  O   UNL A   1      31.959  20.333  25.124  1.00  0.00    -0.224 OA
ATOM     24  N   UNL A   1      31.066  22.388  25.005  1.00  0.00    -0.291 N 
ATOM     25  H   UNL A   1      30.225  21.936  24.765  1.00  0.00     0.173 HD
BRANCH  24  26
ATOM     26  C   UNL A   1      30.988  23.789  25.028  1.00  0.00     0.044 A 
ATOM     27  C   UNL A   1      31.117  24.449  23.801  1.00  0.00     0.026 A 
ATOM     28  C   UNL A   1      30.818  24.545  26.189  1.00  0.00     0.026 A 
ATOM     29  C   UNL A   1      31.027  25.841  23.729  1.00  0.00     0.002 A 
ATOM     30  C   UNL A   1      30.745  25.940  26.119  1.00  0.00     0.002 A 
ATOM     31  C   UNL A   1      30.838  26.586  24.890  1.00  0.00     0.000 A 
ENDBRANCH  24  26
ENDBRANCH  21  22
ENDBRANCH  19  21
ENDBRANCH  13  15
ENDBRANCH   6   8
ENDBRANCH   3   6
ENDBRANCH   1   2
BRANCH   1  32
ATOM     32  C   UNL A   1      43.737  24.060  27.766  1.00  0.00     0.042 C 
BRANCH  32  33
ATOM     33  C   UNL A   1      44.037  24.992  26.598  1.00  0.00     0.118 C 
BRANCH  33  34
ATOM     34  N   UNL A   1      42.925  25.097  25.672  1.00  0.00    -0.352 N 
ATOM     35  C   UNL A   1      41.699  25.693  25.835  1.00  0.00     0.251 C 
ATOM     36  H   UNL A   1      43.071  24.677  24.793  1.00  0.00     0.163 HD
ATOM     37  O   UNL A   1      40.827  25.496  24.994  1.00  0.00    -0.269 OA
BRANCH  35  38
ATOM     38  C   UNL A   1      41.416  26.554  27.009  1.00  0.00     0.039 A 
ATOM     39  C   UNL A   1      42.034  27.807  27.079  1.00  0.00     0.014 A 
ATOM     40  C   UNL A   1      40.605  26.121  28.063  1.00  0.00     0.014 A 
ATOM     41  C   UNL A   1      41.817  28.632  28.186  1.00  0.00     0.010 A 
ATOM     42  C   UNL A   1      40.330  26.976  29.131  1.00  0.00     0.010 A 
ATOM     43  C   UNL A   1      40.951  28.230  29.215  1.00  0.00    -0.014 A 
BRANCH  43  44
ATOM     44  C   UNL A   1      40.730  29.093  30.406  1.00  0.00     0.031 A 
ATOM     45  C   UNL A   1      41.584  28.919  31.635  1.00  0.00     0.074 A 
ATOM     46  C   UNL A   1      39.743  30.009  30.396  1.00  0.00     0.049 A 
ATOM     47  N   UNL A   1      41.526  29.552  32.778  1.00  0.00    -0.248 NA
ATOM     48  C   UNL A   1      42.623  27.878  31.580  1.00  0.00     0.031 C 
ATOM     49  C   UNL A   1      38.812  30.239  29.288  1.00  0.00     0.029 A 
ATOM     50  N   UNL A   1      39.353  30.915  31.349  1.00  0.00    -0.354 N 
ATOM     51  C   UNL A   1      42.507  28.979  33.580  1.00  0.00     0.074 A 
ATOM     52  C   UNL A   1      43.108  27.910  32.812  1.00  0.00     0.031 C 
ATOM     53  C   UNL A   1      37.973  31.235  29.617  1.00  0.00     0.029 A 
ATOM     54  C   UNL A   1      38.288  31.698  30.966  1.00  0.00     0.049 A 
ATOM     55  H   UNL A   1      39.794  30.999  32.226  1.00  0.00     0.167 HD
ATOM     56  C   UNL A   1      42.894  29.329  34.832  1.00  0.00     0.037 A 
ATOM     57  C   UNL A   1      37.642  32.679  31.624  1.00  0.00     0.037 A 
ATOM     58  C   UNL A   1      42.315  30.412  35.581  1.00  0.00     0.049 A 
ATOM     59  C   UNL A   1      38.111  33.075  32.997  1.00  0.00     0.074 A 
ATOM     60  C   UNL A   1      42.662  30.873  36.840  1.00  0.00     0.029 A 
ATOM     61  N   UNL A   1      41.270  31.210  35.139  1.00  0.00    -0.354 N 
ATOM     62  N   UNL A   1      39.075  32.556  33.720  1.00  0.00    -0.248 NA
ATOM     63  C   UNL A   1      37.417  34.200  33.639  1.00  0.00     0.031 C 
ATOM     64  C   UNL A   1      41.810  31.933  37.169  1.00  0.00     0.029 A 
ATOM     65  C   UNL A   1      40.957  32.158  36.099  1.00  0.00     0.049 A 
ATOM     66  H   UNL A   1      40.817  31.117  34.270  1.00  0.00     0.167 HD
ATOM     67  C   UNL A   1      39.121  33.307  34.890  1.00  0.00     0.074 A 
ATOM     68  C   UNL A   1      38.095  34.323  34.771  1.00  0.00     0.031 C 
ATOM     69  C   UNL A   1      39.939  33.168  35.963  1.00  0.00     0.037 A 
BRANCH  56  70
ATOM     70  C   UNL A   1      44.005  28.532  35.459  1.00  0.00     0.058 A 
ATOM     71  C   UNL A   1      45.353  28.876  35.268  1.00  0.00     0.135 A 
ATOM     72  C   UNL A   1      43.722  27.422  36.270  1.00  0.00     0.135 A 
ATOM     73  F   UNL A   1      45.681  29.919  34.489  1.00  0.00    -0.206 F 
ATOM     74  C   UNL A   1      46.383  28.127  35.828  1.00  0.00     0.059 A 
ATOM     75  C   UNL A   1      44.736  26.674  36.865  1.00  0.00     0.059 A 
ATOM     76  F   UNL A   1      42.452  27.048  36.488  1.00  0.00    -0.206 F 
ATOM     77  C   UNL A   1      46.064  27.025  36.623  1.00  0.00     0.060 A 
BRANCH  77  78
ATOM     78  S   UNL A   1      47.411  26.057  37.336  1.00  0.00     0.124 S 
ATOM     79  O   UNL A   1      48.329  27.108  37.763  1.00  0.00    -0.237 OA
ATOM     80  O   UNL A   1      46.741  25.328  38.408  1.00  0.00    -0.237 OA
ATOM     81  O   UNL A   1      47.870  25.238  36.218  1.00  0.00    -0.744 OA
ENDBRANCH  77  78
ENDBRANCH  56  70
BRANCH  57  82
ATOM     82  C   UNL A   1      36.503  33.378  30.974  1.00  0.00     0.058 A 
ATOM     83  C   UNL A   1      35.196  33.241  31.465  1.00  0.00     0.135 A 
ATOM     84  C   UNL A   1      36.702  34.216  29.867  1.00  0.00     0.135 A 
ATOM     85  F   UNL A   1      34.956  32.447  32.520  1.00  0.00    -0.206 F 
ATOM     86  C   UNL A   1      34.123  33.900  30.874  1.00  0.00     0.059 A 
ATOM     87  C   UNL A   1      35.647  34.903  29.272  1.00  0.00     0.059 A 
ATOM     88  F   UNL A   1      37.936  34.394  29.371  1.00  0.00    -0.206 F 
ATOM     89  C   UNL A   1      34.359  34.732  29.779  1.00  0.00     0.060 A 
BRANCH  89  90
ATOM     90  S   UNL A   1      32.971  35.631  29.055  1.00  0.00     0.124 S 
ATOM     91  O   UNL A   1      32.393  34.621  28.177  1.00  0.00    -0.237 OA
ATOM     92  O   UNL A   1      32.182  35.980  30.233  1.00  0.00    -0.237 OA
ATOM     93  O   UNL A   1      33.615  36.758  28.387  1.00  0.00    -0.744 OA
ENDBRANCH  89  90
ENDBRANCH  57  82
BRANCH  69  94
ATOM     94  C   UNL A   1      39.782  34.161  37.079  1.00  0.00     0.058 A 
ATOM     95  C   UNL A   1      40.439  35.401  37.063  1.00  0.00     0.135 A 
ATOM     96  C   UNL A   1      38.934  33.880  38.164  1.00  0.00     0.135 A 
ATOM     97  F   UNL A   1      41.263  35.715  36.051  1.00  0.00    -0.206 F 
ATOM     98  C   UNL A   1      40.283  36.318  38.097  1.00  0.00     0.059 A 
ATOM     99  C   UNL A   1      38.745  34.793  39.197  1.00  0.00     0.059 A 
ATOM    100  F   UNL A   1      38.274  32.713  38.222  1.00  0.00    -0.206 F 
ATOM    101  C   UNL A   1      39.436  36.003  39.161  1.00  0.00     0.060 A 
BRANCH 101 102
ATOM    102  S   UNL A   1      39.228  37.207  40.491  1.00  0.00     0.124 S 
ATOM    103  O   UNL A   1      38.753  36.360  41.581  1.00  0.00    -0.237 OA
ATOM    104  O   UNL A   1      40.577  37.742  40.647  1.00  0.00    -0.237 OA
ATOM    105  O   UNL A   1      38.248  38.144  39.950  1.00  0.00    -0.744 OA
ENDBRANCH 101 102
ENDBRANCH  69  94
ENDBRANCH  43  44
ENDBRANCH  35  38
ENDBRANCH  33  34
ENDBRANCH  32  33
ENDBRANCH   1  32
TORSDOF 18
ENDMDL
MODEL 3
REMARK VINA RESULT:     -12.2      2.014      3.218
REMARK SMILES C[C@@H](C(=O)NCCCNC(=O)c1ccc(-c2c3nc(c(-c4c(F)cc(S(=O)(=O)[O-])cc4F)c4ccc([nH]4)c(-c4c(F)cc(S(=O)(=O)[O-])cc4F)c4nc(c(-c5c(F)cc(S(=O)(=O)[O-])cc5F)c5ccc2[nH]5)C=C4)C=C3)cc1)c1ccc(-c2cccc(OC(=O)Nc3ccccc3)c2)c(F)c1
REMARK SMILES IDX 6 1 5 2 3 3 4 4 2 6 1 7 78 8 79 9 100 10 80 11 98 12 81 13
REMARK SMILES IDX 99 14 82 15 83 16 97 17 84 18 86 19 85 20 87 21 88 22 89 23
REMARK SMILES IDX 90 24 91 26 92 27 96 28 93 29 95 30 94 31 7 32 8 33 9 34
REMARK SMILES IDX 10 35 11 37 12 38 13 39 77 40 14 41 76 42 15 43 16 44 17 45
REMARK SMILES IDX 70 46 18 47 75 48 69 49 71 50 19 51 74 52 68 53 67 54 20 56
REMARK SMILES IDX 54 57 33 58 53 59 34 60 37 61 52 62 72 63 35 64 36 65 51 67
REMARK SMILES IDX 73 68 38 69 21 70 22 71 31 72 23 73 24 74 30 75 32 76 25 77
REMARK SMILES IDX 26 78 27 79 28 80 29 81 55 82 56 83 65 84 57 85 58 86 64 87
REMARK SMILES IDX 66 88 59 89 60 90 61 91 62 92 63 93 39 94 40 95 49 96 41 97
REMARK SMILES IDX 42 98 48 99 50 100 43 101 44 102 45 103 46 104 47 105
REMARK H PARENT 5 5 90 25 9 36 71 55 37 66
REMARK Flexibility Score: inf
ROOT
ATOM      1  C   UNL A   1      44.503  22.236  25.829  1.00  0.00     0.117 C 
ENDROOT
BRANCH   1   2
ATOM      2  N   UNL A   1      43.622  21.145  26.208  1.00  0.00    -0.356 N 
ATOM      3  C   UNL A   1      42.488  21.146  26.966  1.00  0.00     0.227 C 
ATOM      4  O   UNL A   1      42.045  20.044  27.298  1.00  0.00    -0.274 OA
ATOM      5  H   UNL A   1      43.887  20.263  25.862  1.00  0.00     0.163 HD
BRANCH   3   6
ATOM      6  C   UNL A   1      41.813  22.479  27.350  1.00  0.00     0.105 C 
ATOM      7  C   UNL A   1      41.870  22.622  28.877  1.00  0.00     0.023 C 
BRANCH   6   8
ATOM      8  C   UNL A   1      40.392  22.628  26.788  1.00  0.00    -0.033 A 
ATOM      9  C   UNL A   1      39.651  23.811  26.938  1.00  0.00     0.005 A 
ATOM     10  C   UNL A   1      39.786  21.575  26.082  1.00  0.00     0.044 A 
ATOM     11  C   UNL A   1      38.326  23.901  26.501  1.00  0.00     0.012 A 
ATOM     12  C   UNL A   1      38.459  21.665  25.660  1.00  0.00     0.131 A 
ATOM     13  C   UNL A   1      37.692  22.814  25.887  1.00  0.00     0.018 A 
ATOM     14  F   UNL A   1      37.914  20.602  25.046  1.00  0.00    -0.206 F 
BRANCH  13  15
ATOM     15  C   UNL A   1      36.254  22.864  25.604  1.00  0.00    -0.012 A 
ATOM     16  C   UNL A   1      35.354  21.957  26.188  1.00  0.00     0.009 A 
ATOM     17  C   UNL A   1      35.764  23.779  24.655  1.00  0.00     0.056 A 
ATOM     18  C   UNL A   1      34.004  21.958  25.831  1.00  0.00     0.004 A 
ATOM     19  C   UNL A   1      34.425  23.759  24.281  1.00  0.00     0.133 A 
ATOM     20  C   UNL A   1      33.540  22.856  24.872  1.00  0.00     0.047 A 
BRANCH  19  21
ATOM     21  O   UNL A   1      33.860  24.591  23.285  1.00  0.00    -0.410 OA
BRANCH  21  22
ATOM     22  C   UNL A   1      33.222  24.164  22.121  1.00  0.00     0.417 C 
ATOM     23  O   UNL A   1      33.652  23.325  21.335  1.00  0.00    -0.224 OA
ATOM     24  N   UNL A   1      31.965  24.678  21.931  1.00  0.00    -0.291 N 
ATOM     25  H   UNL A   1      31.473  24.288  21.173  1.00  0.00     0.173 HD
BRANCH  24  26
ATOM     26  C   UNL A   1      31.262  25.668  22.634  1.00  0.00     0.044 A 
ATOM     27  C   UNL A   1      31.351  26.975  22.143  1.00  0.00     0.026 A 
ATOM     28  C   UNL A   1      30.514  25.427  23.788  1.00  0.00     0.026 A 
ATOM     29  C   UNL A   1      30.662  28.018  22.768  1.00  0.00     0.002 A 
ATOM     30  C   UNL A   1      29.839  26.474  24.423  1.00  0.00     0.002 A 
ATOM     31  C   UNL A   1      29.904  27.766  23.907  1.00  0.00     0.000 A 
ENDBRANCH  24  26
ENDBRANCH  21  22
ENDBRANCH  19  21
ENDBRANCH  13  15
ENDBRANCH   6   8
ENDBRANCH   3   6
ENDBRANCH   1   2
BRANCH   1  32
ATOM     32  C   UNL A   1      45.099  22.931  27.054  1.00  0.00     0.042 C 
BRANCH  32  33
ATOM     33  C   UNL A   1      44.959  24.449  27.051  1.00  0.00     0.118 C 
BRANCH  33  34
ATOM     34  N   UNL A   1      44.234  24.936  25.891  1.00  0.00    -0.352 N 
ATOM     35  C   UNL A   1      43.183  25.815  25.818  1.00  0.00     0.251 C 
ATOM     36  H   UNL A   1      44.544  24.583  25.026  1.00  0.00     0.163 HD
ATOM     37  O   UNL A   1      42.587  25.940  24.751  1.00  0.00    -0.269 OA
BRANCH  35  38
ATOM     38  C   UNL A   1      42.754  26.598  27.003  1.00  0.00     0.039 A 
ATOM     39  C   UNL A   1      43.312  27.865  27.200  1.00  0.00     0.014 A 
ATOM     40  C   UNL A   1      41.863  26.079  27.947  1.00  0.00     0.014 A 
ATOM     41  C   UNL A   1      42.958  28.618  28.322  1.00  0.00     0.010 A 
ATOM     42  C   UNL A   1      41.452  26.862  29.027  1.00  0.00     0.010 A 
ATOM     43  C   UNL A   1      42.013  28.129  29.239  1.00  0.00    -0.014 A 
BRANCH  43  44
ATOM     44  C   UNL A   1      41.644  28.915  30.446  1.00  0.00     0.031 A 
ATOM     45  C   UNL A   1      42.438  28.764  31.718  1.00  0.00     0.074 A 
ATOM     46  C   UNL A   1      40.579  29.739  30.410  1.00  0.00     0.049 A 
ATOM     47  N   UNL A   1      42.256  29.338  32.879  1.00  0.00    -0.248 NA
ATOM     48  C   UNL A   1      43.570  27.824  31.686  1.00  0.00     0.031 C 
ATOM     49  C   UNL A   1      39.697  29.932  29.257  1.00  0.00     0.029 A 
ATOM     50  N   UNL A   1      40.052  30.563  31.372  1.00  0.00    -0.354 N 
ATOM     51  C   UNL A   1      43.237  28.821  33.717  1.00  0.00     0.074 A 
ATOM     52  C   UNL A   1      43.978  27.845  32.946  1.00  0.00     0.031 C 
ATOM     53  C   UNL A   1      38.752  30.833  29.572  1.00  0.00     0.029 A 
ATOM     54  C   UNL A   1      38.944  31.262  30.955  1.00  0.00     0.049 A 
ATOM     55  H   UNL A   1      40.432  30.646  32.277  1.00  0.00     0.167 HD
ATOM     56  C   UNL A   1      43.517  29.148  35.002  1.00  0.00     0.037 A 
ATOM     57  C   UNL A   1      38.173  32.152  31.610  1.00  0.00     0.037 A 
ATOM     58  C   UNL A   1      42.798  30.140  35.757  1.00  0.00     0.049 A 
ATOM     59  C   UNL A   1      38.523  32.526  33.023  1.00  0.00     0.074 A 
ATOM     60  C   UNL A   1      43.028  30.575  37.051  1.00  0.00     0.029 A 
ATOM     61  N   UNL A   1      41.711  30.861  35.282  1.00  0.00    -0.354 N 
ATOM     62  N   UNL A   1      39.488  32.065  33.784  1.00  0.00    -0.248 NA
ATOM     63  C   UNL A   1      37.692  33.555  33.664  1.00  0.00     0.031 C 
ATOM     64  C   UNL A   1      42.063  31.538  37.368  1.00  0.00     0.029 A 
ATOM     65  C   UNL A   1      41.257  31.732  36.257  1.00  0.00     0.049 A 
ATOM     66  H   UNL A   1      41.320  30.765  34.383  1.00  0.00     0.167 HD
ATOM     67  C   UNL A   1      39.396  32.764  34.982  1.00  0.00     0.074 A 
ATOM     68  C   UNL A   1      38.289  33.689  34.840  1.00  0.00     0.031 C 
ATOM     69  C   UNL A   1      40.159  32.652  36.097  1.00  0.00     0.037 A 
BRANCH  56  70
ATOM     70  C   UNL A   1      44.659  28.428  35.666  1.00  0.00     0.058 A 
ATOM     71  C   UNL A   1      44.466  27.213  36.345  1.00  0.00     0.135 A 
ATOM     72  C   UNL A   1      45.963  28.946  35.612  1.00  0.00     0.135 A 
ATOM     73  F   UNL A   1      43.237  26.680  36.440  1.00  0.00    -0.206 F 
ATOM     74  C   UNL A   1      45.516  26.558  36.978  1.00  0.00     0.059 A 
ATOM     75  C   UNL A   1      47.035  28.292  36.215  1.00  0.00     0.059 A 
ATOM     76  F   UNL A   1      46.206  30.102  34.975  1.00  0.00    -0.206 F 
ATOM     77  C   UNL A   1      46.797  27.107  36.911  1.00  0.00     0.060 A 
BRANCH  77  78
ATOM     78  S   UNL A   1      48.149  26.249  37.745  1.00  0.00     0.124 S 
ATOM     79  O   UNL A   1      47.495  25.013  38.163  1.00  0.00    -0.237 OA
ATOM     80  O   UNL A   1      49.140  26.114  36.682  1.00  0.00    -0.237 OA
ATOM     81  O   UNL A   1      48.515  27.162  38.824  1.00  0.00    -0.744 OA
ENDBRANCH  77  78
ENDBRANCH  56  70
BRANCH  57  82
ATOM     82  C   UNL A   1      37.014  32.773  30.918  1.00  0.00     0.058 A 
ATOM     83  C   UNL A   1      37.196  33.823  30.005  1.00  0.00     0.135 A 
ATOM     84  C   UNL A   1      35.707  32.314  31.134  1.00  0.00     0.135 A 
ATOM     85  F   UNL A   1      38.428  34.300  29.768  1.00  0.00    -0.206 F 
ATOM     86  C   UNL A   1      36.122  34.405  29.341  1.00  0.00     0.059 A 
ATOM     87  C   UNL A   1      34.618  32.865  30.464  1.00  0.00     0.059 A 
ATOM     88  F   UNL A   1      35.482  31.299  31.984  1.00  0.00    -0.206 F 
ATOM     89  C   UNL A   1      34.836  33.917  29.575  1.00  0.00     0.060 A 
BRANCH  89  90
ATOM     90  S   UNL A   1      33.453  34.637  28.663  1.00  0.00     0.124 S 
ATOM     91  O   UNL A   1      32.527  34.961  29.742  1.00  0.00    -0.237 OA
ATOM     92  O   UNL A   1      34.081  35.774  27.997  1.00  0.00    -0.237 OA
ATOM     93  O   UNL A   1      33.038  33.554  27.776  1.00  0.00    -0.744 OA
ENDBRANCH  89  90
ENDBRANCH  57  82
BRANCH  69  94
ATOM     94  C   UNL A   1      39.847  33.576  37.240  1.00  0.00     0.058 A 
ATOM     95  C   UNL A   1      38.876  33.259  38.203  1.00  0.00     0.135 A 
ATOM     96  C   UNL A   1      40.553  34.781  37.392  1.00  0.00     0.135 A 
ATOM     97  F   UNL A   1      38.170  32.121  38.100  1.00  0.00    -0.206 F 
ATOM     98  C   UNL A   1      38.597  34.116  39.262  1.00  0.00     0.059 A 
ATOM     99  C   UNL A   1      40.308  35.642  38.457  1.00  0.00     0.059 A 
ATOM    100  F   UNL A   1      41.500  35.126  36.505  1.00  0.00    -0.206 F 
ATOM    101  C   UNL A   1      39.316  35.307  39.378  1.00  0.00     0.060 A 
BRANCH 101 102
ATOM    102  S   UNL A   1      38.958  36.406  40.766  1.00  0.00     0.124 S 
ATOM    103  O   UNL A   1      40.256  36.470  41.431  1.00  0.00    -0.237 OA
ATOM    104  O   UNL A   1      38.529  37.630  40.096  1.00  0.00    -0.237 OA
ATOM    105  O   UNL A   1      37.911  35.699  41.496  1.00  0.00    -0.744 OA
ENDBRANCH 101 102
ENDBRANCH  69  94
ENDBRANCH  43  44
ENDBRANCH  35  38
ENDBRANCH  33  34
ENDBRANCH  32  33
ENDBRANCH   1  32
TORSDOF 18
ENDMDL
