MODEL 1
REMARK VINA RESULT:     -14.9      0.000      0.000
REMARK SMILES Cc1ccccc1C(=O)Nc1ccc(N2CCCCC2)cc1C(=O)NCCCNC(=O)c1ccc(-c2c3nc(c(-c4c(F)cc(S(=O)(=O)[O-])cc4F)c4ccc([nH]4)c(-c4c(F)cc(S(=O)(=O)[O-])cc4F)c4nc(c(-c5c(F)cc(S(=O)(=O)[O-])cc5F)c5ccc2[nH]5)C=C4)C=C3)cc1
REMARK SMILES IDX 27 1 26 2 25 3 23 4 24 5 22 7 11 8 12 9 13 10 21 11 14 12
REMARK SMILES IDX 10 13 8 14 9 15 7 17 1 18 2 19 3 20 4 21 6 22 5 23 15 24
REMARK SMILES IDX 16 25 20 26 17 27 19 28 18 29 28 30 29 31 30 32 31 34 32 35
REMARK SMILES IDX 33 36 97 37 34 38 96 39 35 40 36 41 37 42 90 43 38 44 95 45
REMARK SMILES IDX 89 46 91 47 39 48 94 49 88 50 87 51 40 53 74 54 53 55 73 56
REMARK SMILES IDX 54 57 57 58 72 59 92 60 55 61 56 62 71 64 93 65 58 66 41 67
REMARK SMILES IDX 42 68 51 69 43 70 44 71 50 72 52 73 45 74 46 75 47 76 48 77
REMARK SMILES IDX 49 78 75 79 76 80 85 81 77 82 78 83 84 84 86 85 79 86 80 87
REMARK SMILES IDX 81 88 82 89 83 90 59 91 60 92 69 93 61 94 62 95 68 96 70 97
REMARK SMILES IDX 63 98 64 99 65 100 66 101 67 102
REMARK H PARENT 25 6 10 16 29 33 91 52 57 63
REMARK Flexibility Score: inf
ROOT
ATOM      1  C   UNL A   1      32.876  30.668  27.264  1.00  0.00     0.042 C 
ENDROOT
BRANCH   1   2
ATOM      2  C   UNL A   1      32.094  29.373  27.226  1.00  0.00     0.118 C 
BRANCH   2   3
ATOM      3  N   UNL A   1      32.854  28.260  26.657  1.00  0.00    -0.352 N 
ATOM      4  C   UNL A   1      32.524  27.298  25.723  1.00  0.00     0.253 C 
ATOM      5  O   UNL A   1      33.356  26.444  25.429  1.00  0.00    -0.269 OA
ATOM      6  H   UNL A   1      33.771  28.182  27.006  1.00  0.00     0.163 HD
BRANCH   4   7
ATOM      7  C   UNL A   1      31.197  27.291  25.052  1.00  0.00     0.065 A 
ATOM      8  C   UNL A   1      30.213  26.318  25.289  1.00  0.00     0.054 A 
ATOM      9  C   UNL A   1      29.035  26.351  24.524  1.00  0.00     0.029 A 
ATOM     10  C   UNL A   1      28.750  27.442  23.708  1.00  0.00     0.028 A 
ATOM     11  C   UNL A   1      30.957  28.253  24.051  1.00  0.00     0.042 A 
ATOM     12  C   UNL A   1      29.686  28.454  23.517  1.00  0.00     0.038 A 
BRANCH   8  13
ATOM     13  N   UNL A   1      30.225  25.280  26.230  1.00  0.00    -0.321 N 
ATOM     14  C   UNL A   1      30.818  24.046  26.291  1.00  0.00     0.255 C 
ATOM     15  O   UNL A   1      30.511  23.330  27.252  1.00  0.00    -0.269 OA
ATOM     16  H   UNL A   1      29.686  25.483  27.028  1.00  0.00     0.170 HD
BRANCH  14  17
ATOM     17  C   UNL A   1      31.911  23.572  25.399  1.00  0.00     0.043 A 
ATOM     18  C   UNL A   1      30.611  23.689  23.173  1.00  0.00     0.045 C 
ATOM     19  C   UNL A   1      31.845  23.459  23.995  1.00  0.00    -0.038 A 
ATOM     20  C   UNL A   1      33.022  23.136  23.286  1.00  0.00     0.004 A 
ATOM     21  C   UNL A   1      34.249  23.003  23.934  1.00  0.00     0.000 A 
ATOM     22  C   UNL A   1      33.163  23.447  26.034  1.00  0.00     0.014 A 
ATOM     23  C   UNL A   1      34.323  23.171  25.309  1.00  0.00     0.001 A 
ENDBRANCH  14  17
ENDBRANCH   8  13
BRANCH  12  24
ATOM     24  N   UNL A   1      29.297  29.655  22.919  1.00  0.00    -0.372 N 
ATOM     25  C   UNL A   1      28.145  29.492  22.010  1.00  0.00     0.116 C 
ATOM     26  C   UNL A   1      29.261  30.887  23.715  1.00  0.00     0.116 C 
ATOM     27  C   UNL A   1      28.078  30.667  21.042  1.00  0.00     0.021 C 
ATOM     28  C   UNL A   1      29.221  32.091  22.775  1.00  0.00     0.021 C 
ATOM     29  C   UNL A   1      28.062  32.000  21.784  1.00  0.00     0.004 C 
ENDBRANCH  12  24
ENDBRANCH   4   7
ENDBRANCH   2   3
ENDBRANCH   1   2
BRANCH   1  30
ATOM     30  C   UNL A   1      34.376  30.433  27.244  1.00  0.00     0.118 C 
BRANCH  30  31
ATOM     31  N   UNL A   1      35.097  31.493  27.952  1.00  0.00    -0.352 N 
ATOM     32  C   UNL A   1      36.309  31.406  28.621  1.00  0.00     0.251 C 
ATOM     33  H   UNL A   1      34.669  32.379  27.953  1.00  0.00     0.163 HD
ATOM     34  O   UNL A   1      36.796  32.347  29.216  1.00  0.00    -0.269 OA
BRANCH  32  35
ATOM     35  C   UNL A   1      36.988  30.098  28.559  1.00  0.00     0.039 A 
ATOM     36  C   UNL A   1      37.085  29.361  29.742  1.00  0.00     0.014 A 
ATOM     37  C   UNL A   1      37.821  29.854  27.471  1.00  0.00     0.014 A 
ATOM     38  C   UNL A   1      38.164  28.498  29.915  1.00  0.00     0.010 A 
ATOM     39  C   UNL A   1      38.939  29.067  27.685  1.00  0.00     0.010 A 
ATOM     40  C   UNL A   1      39.143  28.433  28.924  1.00  0.00    -0.014 A 
BRANCH  40  41
ATOM     41  C   UNL A   1      40.466  27.844  29.135  1.00  0.00     0.031 A 
ATOM     42  C   UNL A   1      40.753  26.458  28.683  1.00  0.00     0.074 A 
ATOM     43  C   UNL A   1      41.480  28.570  29.661  1.00  0.00     0.049 A 
ATOM     44  N   UNL A   1      41.761  25.753  29.078  1.00  0.00    -0.248 NA
ATOM     45  C   UNL A   1      39.874  25.727  27.780  1.00  0.00     0.031 C 
ATOM     46  C   UNL A   1      42.908  28.276  29.543  1.00  0.00     0.029 A 
ATOM     47  N   UNL A   1      41.425  29.615  30.580  1.00  0.00    -0.354 N 
ATOM     48  C   UNL A   1      41.829  24.623  28.294  1.00  0.00     0.074 A 
ATOM     49  C   UNL A   1      40.591  24.626  27.549  1.00  0.00     0.031 C 
ATOM     50  C   UNL A   1      43.575  28.937  30.498  1.00  0.00     0.029 A 
ATOM     51  C   UNL A   1      42.593  29.568  31.359  1.00  0.00     0.049 A 
ATOM     52  H   UNL A   1      40.695  30.270  30.669  1.00  0.00     0.167 HD
ATOM     53  C   UNL A   1      42.981  23.889  28.275  1.00  0.00     0.037 A 
ATOM     54  C   UNL A   1      42.568  29.442  32.719  1.00  0.00     0.037 A 
ATOM     55  C   UNL A   1      43.953  24.403  29.240  1.00  0.00     0.049 A 
ATOM     56  C   UNL A   1      43.290  28.227  33.252  1.00  0.00     0.074 A 
ATOM     57  C   UNL A   1      45.071  25.214  29.113  1.00  0.00     0.029 A 
ATOM     58  N   UNL A   1      43.700  24.297  30.603  1.00  0.00    -0.354 N 
ATOM     59  N   UNL A   1      43.633  27.205  32.521  1.00  0.00    -0.248 NA
ATOM     60  C   UNL A   1      43.659  28.053  34.653  1.00  0.00     0.031 C 
ATOM     61  C   UNL A   1      45.491  25.596  30.410  1.00  0.00     0.029 A 
ATOM     62  C   UNL A   1      44.629  25.020  31.327  1.00  0.00     0.049 A 
ATOM     63  H   UNL A   1      42.961  23.779  30.998  1.00  0.00     0.167 HD
ATOM     64  C   UNL A   1      44.213  26.240  33.309  1.00  0.00     0.074 A 
ATOM     65  C   UNL A   1      44.238  26.838  34.630  1.00  0.00     0.031 C 
ATOM     66  C   UNL A   1      44.598  25.035  32.784  1.00  0.00     0.037 A 
BRANCH  53  67
ATOM     67  C   UNL A   1      43.351  22.894  27.184  1.00  0.00     0.058 A 
ATOM     68  C   UNL A   1      42.661  21.666  27.059  1.00  0.00     0.135 A 
ATOM     69  C   UNL A   1      44.416  23.046  26.275  1.00  0.00     0.135 A 
ATOM     70  F   UNL A   1      41.540  21.414  27.751  1.00  0.00    -0.206 F 
ATOM     71  C   UNL A   1      43.081  20.629  26.222  1.00  0.00     0.059 A 
ATOM     72  C   UNL A   1      44.894  22.006  25.468  1.00  0.00     0.059 A 
ATOM     73  F   UNL A   1      45.004  24.230  26.076  1.00  0.00    -0.206 F 
ATOM     74  C   UNL A   1      44.231  20.790  25.464  1.00  0.00     0.060 A 
BRANCH  74  75
ATOM     75  S   UNL A   1      44.827  19.410  24.473  1.00  0.00     0.124 S 
ATOM     76  O   UNL A   1      46.259  19.421  24.759  1.00  0.00    -0.237 OA
ATOM     77  O   UNL A   1      44.077  18.288  25.028  1.00  0.00    -0.237 OA
ATOM     78  O   UNL A   1      44.467  19.790  23.109  1.00  0.00    -0.744 OA
ENDBRANCH  74  75
ENDBRANCH  53  67
BRANCH  54  79
ATOM     79  C   UNL A   1      41.396  30.093  33.354  1.00  0.00     0.058 A 
ATOM     80  C   UNL A   1      41.446  31.489  33.516  1.00  0.00     0.135 A 
ATOM     81  C   UNL A   1      40.136  29.478  33.341  1.00  0.00     0.135 A 
ATOM     82  F   UNL A   1      42.631  32.118  33.558  1.00  0.00    -0.206 F 
ATOM     83  C   UNL A   1      40.294  32.264  33.477  1.00  0.00     0.059 A 
ATOM     84  C   UNL A   1      38.967  30.237  33.307  1.00  0.00     0.059 A 
ATOM     85  F   UNL A   1      40.035  28.149  33.195  1.00  0.00    -0.206 F 
ATOM     86  C   UNL A   1      39.067  31.629  33.294  1.00  0.00     0.060 A 
BRANCH  86  87
ATOM     87  S   UNL A   1      37.662  32.656  32.806  1.00  0.00     0.124 S 
ATOM     88  O   UNL A   1      36.721  31.667  32.294  1.00  0.00    -0.237 OA
ATOM     89  O   UNL A   1      37.300  33.275  34.081  1.00  0.00    -0.237 OA
ATOM     90  O   UNL A   1      38.231  33.560  31.814  1.00  0.00    -0.744 OA
ENDBRANCH  86  87
ENDBRANCH  54  79
BRANCH  66  91
ATOM     91  C   UNL A   1      45.063  23.793  33.531  1.00  0.00     0.058 A 
ATOM     92  C   UNL A   1      46.365  23.579  34.015  1.00  0.00     0.135 A 
ATOM     93  C   UNL A   1      44.124  22.791  33.900  1.00  0.00     0.135 A 
ATOM     94  F   UNL A   1      47.334  24.487  33.851  1.00  0.00    -0.206 F 
ATOM     95  C   UNL A   1      46.724  22.440  34.746  1.00  0.00     0.059 A 
ATOM     96  C   UNL A   1      44.447  21.677  34.676  1.00  0.00     0.059 A 
ATOM     97  F   UNL A   1      42.835  22.863  33.537  1.00  0.00    -0.206 F 
ATOM     98  C   UNL A   1      45.759  21.495  35.075  1.00  0.00     0.060 A 
BRANCH  98  99
ATOM     99  S   UNL A   1      46.198  20.072  36.091  1.00  0.00     0.124 S 
ATOM    100  O   UNL A   1      45.882  20.559  37.429  1.00  0.00    -0.237 OA
ATOM    101  O   UNL A   1      45.317  19.026  35.579  1.00  0.00    -0.237 OA
ATOM    102  O   UNL A   1      47.615  19.880  35.804  1.00  0.00    -0.744 OA
ENDBRANCH  98  99
ENDBRANCH  66  91
ENDBRANCH  40  41
ENDBRANCH  32  35
ENDBRANCH  30  31
ENDBRANCH   1  30
TORSDOF 16
ENDMDL
MODEL 2
REMARK VINA RESULT:     -14.6      4.749     11.556
REMARK SMILES Cc1ccccc1C(=O)Nc1ccc(N2CCCCC2)cc1C(=O)NCCCNC(=O)c1ccc(-c2c3nc(c(-c4c(F)cc(S(=O)(=O)[O-])cc4F)c4ccc([nH]4)c(-c4c(F)cc(S(=O)(=O)[O-])cc4F)c4nc(c(-c5c(F)cc(S(=O)(=O)[O-])cc5F)c5ccc2[nH]5)C=C4)C=C3)cc1
REMARK SMILES IDX 27 1 26 2 25 3 23 4 24 5 22 7 11 8 12 9 13 10 21 11 14 12
REMARK SMILES IDX 10 13 8 14 9 15 7 17 1 18 2 19 3 20 4 21 6 22 5 23 15 24
REMARK SMILES IDX 16 25 20 26 17 27 19 28 18 29 28 30 29 31 30 32 31 34 32 35
REMARK SMILES IDX 33 36 97 37 34 38 96 39 35 40 36 41 37 42 90 43 38 44 95 45
REMARK SMILES IDX 89 46 91 47 39 48 94 49 88 50 87 51 40 53 74 54 53 55 73 56
REMARK SMILES IDX 54 57 57 58 72 59 92 60 55 61 56 62 71 64 93 65 58 66 41 67
REMARK SMILES IDX 42 68 51 69 43 70 44 71 50 72 52 73 45 74 46 75 47 76 48 77
REMARK SMILES IDX 49 78 75 79 76 80 85 81 77 82 78 83 84 84 86 85 79 86 80 87
REMARK SMILES IDX 81 88 82 89 83 90 59 91 60 92 69 93 61 94 62 95 68 96 70 97
REMARK SMILES IDX 63 98 64 99 65 100 66 101 67 102
REMARK H PARENT 25 6 10 16 29 33 91 52 57 63
REMARK Flexibility Score: inf
ROOT
ATOM      1  C   UNL A   1      38.466  21.477  25.428  1.00  0.00     0.042 C 
ENDROOT
BRANCH   1   2
ATOM      2  C   UNL A   1      36.995  21.422  25.072  1.00  0.00     0.118 C 
BRANCH   2   3
ATOM      3  N   UNL A   1      36.317  22.709  25.232  1.00  0.00    -0.352 N 
ATOM      4  C   UNL A   1      35.069  23.150  24.841  1.00  0.00     0.253 C 
ATOM      5  O   UNL A   1      34.744  24.309  25.084  1.00  0.00    -0.269 OA
ATOM      6  H   UNL A   1      36.851  23.386  25.707  1.00  0.00     0.163 HD
BRANCH   4   7
ATOM      7  C   UNL A   1      34.107  22.246  24.156  1.00  0.00     0.065 A 
ATOM      8  C   UNL A   1      33.423  22.589  22.978  1.00  0.00     0.054 A 
ATOM      9  C   UNL A   1      32.461  21.699  22.474  1.00  0.00     0.029 A 
ATOM     10  C   UNL A   1      32.340  20.415  22.997  1.00  0.00     0.028 A 
ATOM     11  C   UNL A   1      33.787  21.025  24.781  1.00  0.00     0.042 A 
ATOM     12  C   UNL A   1      33.063  20.032  24.123  1.00  0.00     0.038 A 
BRANCH   8  13
ATOM     13  N   UNL A   1      33.578  23.734  22.185  1.00  0.00    -0.321 N 
ATOM     14  C   UNL A   1      32.962  24.957  22.134  1.00  0.00     0.255 C 
ATOM     15  O   UNL A   1      33.292  25.706  21.206  1.00  0.00    -0.269 OA
ATOM     16  H   UNL A   1      34.291  23.638  21.513  1.00  0.00     0.170 HD
BRANCH  14  17
ATOM     17  C   UNL A   1      32.068  25.514  23.186  1.00  0.00     0.043 A 
ATOM     18  C   UNL A   1      33.649  27.372  24.028  1.00  0.00     0.045 C 
ATOM     19  C   UNL A   1      32.346  26.629  24.004  1.00  0.00    -0.038 A 
ATOM     20  C   UNL A   1      31.327  27.119  24.848  1.00  0.00     0.004 A 
ATOM     21  C   UNL A   1      30.044  26.573  24.833  1.00  0.00     0.000 A 
ATOM     22  C   UNL A   1      30.762  24.986  23.175  1.00  0.00     0.014 A 
ATOM     23  C   UNL A   1      29.757  25.513  23.986  1.00  0.00     0.001 A 
ENDBRANCH  14  17
ENDBRANCH   8  13
BRANCH  12  24
ATOM     24  N   UNL A   1      33.134  18.682  24.477  1.00  0.00    -0.372 N 
ATOM     25  C   UNL A   1      34.458  18.090  24.197  1.00  0.00     0.116 C 
ATOM     26  C   UNL A   1      32.528  18.224  25.732  1.00  0.00     0.116 C 
ATOM     27  C   UNL A   1      34.342  16.572  24.128  1.00  0.00     0.021 C 
ATOM     28  C   UNL A   1      32.371  16.705  25.688  1.00  0.00     0.021 C 
ATOM     29  C   UNL A   1      33.695  16.005  25.388  1.00  0.00     0.004 C 
ENDBRANCH  12  24
ENDBRANCH   4   7
ENDBRANCH   2   3
ENDBRANCH   1   2
BRANCH   1  30
ATOM     30  C   UNL A   1      38.837  22.768  26.134  1.00  0.00     0.118 C 
BRANCH  30  31
ATOM     31  N   UNL A   1      40.094  22.635  26.874  1.00  0.00    -0.352 N 
ATOM     32  C   UNL A   1      40.804  23.622  27.541  1.00  0.00     0.251 C 
ATOM     33  H   UNL A   1      40.484  21.732  26.903  1.00  0.00     0.163 HD
ATOM     34  O   UNL A   1      41.868  23.405  28.088  1.00  0.00    -0.269 OA
BRANCH  32  35
ATOM     35  C   UNL A   1      40.185  24.961  27.562  1.00  0.00     0.039 A 
ATOM     36  C   UNL A   1      40.752  25.949  26.753  1.00  0.00     0.014 A 
ATOM     37  C   UNL A   1      39.364  25.276  28.640  1.00  0.00     0.014 A 
ATOM     38  C   UNL A   1      40.657  27.282  27.146  1.00  0.00     0.010 A 
ATOM     39  C   UNL A   1      39.352  26.589  29.074  1.00  0.00     0.010 A 
ATOM     40  C   UNL A   1      40.044  27.586  28.362  1.00  0.00    -0.014 A 
BRANCH  40  41
ATOM     41  C   UNL A   1      40.185  28.877  29.035  1.00  0.00     0.031 A 
ATOM     42  C   UNL A   1      39.119  29.905  28.922  1.00  0.00     0.074 A 
ATOM     43  C   UNL A   1      41.239  29.133  29.845  1.00  0.00     0.049 A 
ATOM     44  N   UNL A   1      39.272  31.154  29.214  1.00  0.00    -0.248 NA
ATOM     45  C   UNL A   1      37.792  29.607  28.400  1.00  0.00     0.031 C 
ATOM     46  C   UNL A   1      41.306  30.163  30.882  1.00  0.00     0.029 A 
ATOM     47  N   UNL A   1      42.543  28.649  29.766  1.00  0.00    -0.354 N 
ATOM     48  C   UNL A   1      38.032  31.754  29.201  1.00  0.00     0.074 A 
ATOM     49  C   UNL A   1      37.157  30.761  28.622  1.00  0.00     0.031 C 
ATOM     50  C   UNL A   1      42.588  30.403  31.185  1.00  0.00     0.029 A 
ATOM     51  C   UNL A   1      43.405  29.644  30.257  1.00  0.00     0.049 A 
ATOM     52  H   UNL A   1      42.812  27.765  29.425  1.00  0.00     0.167 HD
ATOM     53  C   UNL A   1      37.870  32.971  29.799  1.00  0.00     0.037 A 
ATOM     54  C   UNL A   1      44.416  30.177  29.510  1.00  0.00     0.037 A 
ATOM     55  C   UNL A   1      39.148  33.504  30.273  1.00  0.00     0.049 A 
ATOM     56  C   UNL A   1      44.332  31.671  29.309  1.00  0.00     0.074 A 
ATOM     57  C   UNL A   1      39.750  33.541  31.522  1.00  0.00     0.029 A 
ATOM     58  N   UNL A   1      40.122  33.886  29.358  1.00  0.00    -0.354 N 
ATOM     59  N   UNL A   1      43.257  32.374  29.525  1.00  0.00    -0.248 NA
ATOM     60  C   UNL A   1      45.439  32.489  28.825  1.00  0.00     0.031 C 
ATOM     61  C   UNL A   1      41.095  33.950  31.353  1.00  0.00     0.029 A 
ATOM     62  C   UNL A   1      41.313  34.160  30.002  1.00  0.00     0.049 A 
ATOM     63  H   UNL A   1      39.982  33.952  28.385  1.00  0.00     0.167 HD
ATOM     64  C   UNL A   1      43.482  33.688  29.188  1.00  0.00     0.074 A 
ATOM     65  C   UNL A   1      44.877  33.711  28.791  1.00  0.00     0.031 C 
ATOM     66  C   UNL A   1      42.480  34.619  29.259  1.00  0.00     0.037 A 
BRANCH  53  67
ATOM     67  C   UNL A   1      36.528  33.551  30.226  1.00  0.00     0.058 A 
ATOM     68  C   UNL A   1      35.601  34.014  29.263  1.00  0.00     0.135 A 
ATOM     69  C   UNL A   1      36.116  33.749  31.558  1.00  0.00     0.135 A 
ATOM     70  F   UNL A   1      35.771  33.783  27.953  1.00  0.00    -0.206 F 
ATOM     71  C   UNL A   1      34.453  34.740  29.589  1.00  0.00     0.059 A 
ATOM     72  C   UNL A   1      35.003  34.521  31.913  1.00  0.00     0.059 A 
ATOM     73  F   UNL A   1      36.735  33.148  32.579  1.00  0.00    -0.206 F 
ATOM     74  C   UNL A   1      34.186  35.032  30.918  1.00  0.00     0.060 A 
BRANCH  74  75
ATOM     75  S   UNL A   1      32.765  36.062  31.321  1.00  0.00     0.124 S 
ATOM     76  O   UNL A   1      32.189  36.321  30.004  1.00  0.00    -0.237 OA
ATOM     77  O   UNL A   1      31.990  35.186  32.193  1.00  0.00    -0.237 OA
ATOM     78  O   UNL A   1      33.362  37.225  31.973  1.00  0.00    -0.744 OA
ENDBRANCH  74  75
ENDBRANCH  53  67
BRANCH  54  79
ATOM     79  C   UNL A   1      45.021  29.214  28.557  1.00  0.00     0.058 A 
ATOM     80  C   UNL A   1      45.968  28.310  29.069  1.00  0.00     0.135 A 
ATOM     81  C   UNL A   1      44.365  28.872  27.366  1.00  0.00     0.135 A 
ATOM     82  F   UNL A   1      46.638  28.606  30.194  1.00  0.00    -0.206 F 
ATOM     83  C   UNL A   1      46.122  27.039  28.531  1.00  0.00     0.059 A 
ATOM     84  C   UNL A   1      44.509  27.604  26.805  1.00  0.00     0.059 A 
ATOM     85  F   UNL A   1      43.457  29.703  26.832  1.00  0.00    -0.206 F 
ATOM     86  C   UNL A   1      45.328  26.673  27.445  1.00  0.00     0.060 A 
BRANCH  86  87
ATOM     87  S   UNL A   1      45.218  24.912  27.049  1.00  0.00     0.124 S 
ATOM     88  O   UNL A   1      45.082  24.307  28.368  1.00  0.00    -0.237 OA
ATOM     89  O   UNL A   1      44.021  24.880  26.209  1.00  0.00    -0.237 OA
ATOM     90  O   UNL A   1      46.472  24.643  26.356  1.00  0.00    -0.744 OA
ENDBRANCH  86  87
ENDBRANCH  54  79
BRANCH  66  91
ATOM     91  C   UNL A   1      42.493  36.051  28.744  1.00  0.00     0.058 A 
ATOM     92  C   UNL A   1      42.995  37.160  29.446  1.00  0.00     0.135 A 
ATOM     93  C   UNL A   1      42.087  36.331  27.410  1.00  0.00     0.135 A 
ATOM     94  F   UNL A   1      43.523  37.037  30.670  1.00  0.00    -0.206 F 
ATOM     95  C   UNL A   1      43.033  38.449  28.900  1.00  0.00     0.059 A 
ATOM     96  C   UNL A   1      42.170  37.596  26.827  1.00  0.00     0.059 A 
ATOM     97  F   UNL A   1      41.609  35.373  26.602  1.00  0.00    -0.206 F 
ATOM     98  C   UNL A   1      42.621  38.658  27.589  1.00  0.00     0.060 A 
BRANCH  98  99
ATOM     99  S   UNL A   1      42.751  40.298  26.853  1.00  0.00     0.124 S 
ATOM    100  O   UNL A   1      41.376  40.539  26.429  1.00  0.00    -0.237 OA
ATOM    101  O   UNL A   1      43.218  41.117  27.968  1.00  0.00    -0.237 OA
ATOM    102  O   UNL A   1      43.721  40.108  25.779  1.00  0.00    -0.744 OA
ENDBRANCH  98  99
ENDBRANCH  66  91
ENDBRANCH  40  41
ENDBRANCH  32  35
ENDBRANCH  30  31
ENDBRANCH   1  30
TORSDOF 16
ENDMDL
MODEL 3
REMARK VINA RESULT:     -14.5      1.112      1.932
REMARK SMILES Cc1ccccc1C(=O)Nc1ccc(N2CCCCC2)cc1C(=O)NCCCNC(=O)c1ccc(-c2c3nc(c(-c4c(F)cc(S(=O)(=O)[O-])cc4F)c4ccc([nH]4)c(-c4c(F)cc(S(=O)(=O)[O-])cc4F)c4nc(c(-c5c(F)cc(S(=O)(=O)[O-])cc5F)c5ccc2[nH]5)C=C4)C=C3)cc1
REMARK SMILES IDX 27 1 26 2 25 3 23 4 24 5 22 7 11 8 12 9 13 10 21 11 14 12
REMARK SMILES IDX 10 13 8 14 9 15 7 17 1 18 2 19 3 20 4 21 6 22 5 23 15 24
REMARK SMILES IDX 16 25 20 26 17 27 19 28 18 29 28 30 29 31 30 32 31 34 32 35
REMARK SMILES IDX 33 36 97 37 34 38 96 39 35 40 36 41 37 42 90 43 38 44 95 45
REMARK SMILES IDX 89 46 91 47 39 48 94 49 88 50 87 51 40 53 74 54 53 55 73 56
REMARK SMILES IDX 54 57 57 58 72 59 92 60 55 61 56 62 71 64 93 65 58 66 41 67
REMARK SMILES IDX 42 68 51 69 43 70 44 71 50 72 52 73 45 74 46 75 47 76 48 77
REMARK SMILES IDX 49 78 75 79 76 80 85 81 77 82 78 83 84 84 86 85 79 86 80 87
REMARK SMILES IDX 81 88 82 89 83 90 59 91 60 92 69 93 61 94 62 95 68 96 70 97
REMARK SMILES IDX 63 98 64 99 65 100 66 101 67 102
REMARK H PARENT 25 6 10 16 29 33 91 52 57 63
REMARK Flexibility Score: inf
ROOT
ATOM      1  C   UNL A   1      32.817  31.103  27.181  1.00  0.00     0.042 C 
ENDROOT
BRANCH   1   2
ATOM      2  C   UNL A   1      31.951  29.869  27.050  1.00  0.00     0.118 C 
BRANCH   2   3
ATOM      3  N   UNL A   1      32.725  28.643  26.855  1.00  0.00    -0.352 N 
ATOM      4  C   UNL A   1      32.457  27.482  26.157  1.00  0.00     0.253 C 
ATOM      5  O   UNL A   1      33.284  26.574  26.170  1.00  0.00    -0.269 OA
ATOM      6  H   UNL A   1      33.600  28.646  27.305  1.00  0.00     0.163 HD
BRANCH   4   7
ATOM      7  C   UNL A   1      31.203  27.320  25.374  1.00  0.00     0.065 A 
ATOM      8  C   UNL A   1      30.337  26.223  25.513  1.00  0.00     0.054 A 
ATOM      9  C   UNL A   1      29.233  26.122  24.650  1.00  0.00     0.029 A 
ATOM     10  C   UNL A   1      28.878  27.186  23.826  1.00  0.00     0.028 A 
ATOM     11  C   UNL A   1      30.925  28.266  24.368  1.00  0.00     0.042 A 
ATOM     12  C   UNL A   1      29.687  28.315  23.728  1.00  0.00     0.038 A 
BRANCH   8  13
ATOM     13  N   UNL A   1      30.405  25.173  26.438  1.00  0.00    -0.321 N 
ATOM     14  C   UNL A   1      30.921  23.904  26.414  1.00  0.00     0.255 C 
ATOM     15  O   UNL A   1      30.696  23.196  27.404  1.00  0.00    -0.269 OA
ATOM     16  H   UNL A   1      29.988  25.400  27.301  1.00  0.00     0.170 HD
BRANCH  14  17
ATOM     17  C   UNL A   1      31.856  23.375  25.385  1.00  0.00     0.043 A 
ATOM     18  C   UNL A   1      33.956  23.224  26.878  1.00  0.00     0.045 C 
ATOM     19  C   UNL A   1      33.205  23.018  25.596  1.00  0.00    -0.038 A 
ATOM     20  C   UNL A   1      33.910  22.391  24.547  1.00  0.00     0.004 A 
ATOM     21  C   UNL A   1      33.283  22.054  23.347  1.00  0.00     0.000 A 
ATOM     22  C   UNL A   1      31.238  23.014  24.171  1.00  0.00     0.014 A 
ATOM     23  C   UNL A   1      31.942  22.356  23.163  1.00  0.00     0.001 A 
ENDBRANCH  14  17
ENDBRANCH   8  13
BRANCH  12  24
ATOM     24  N   UNL A   1      29.197  29.470  23.114  1.00  0.00    -0.372 N 
ATOM     25  C   UNL A   1      29.556  29.550  21.684  1.00  0.00     0.116 C 
ATOM     26  C   UNL A   1      27.839  29.936  23.417  1.00  0.00     0.116 C 
ATOM     27  C   UNL A   1      29.444  30.991  21.202  1.00  0.00     0.021 C 
ATOM     28  C   UNL A   1      27.697  31.391  22.970  1.00  0.00     0.021 C 
ATOM     29  C   UNL A   1      28.064  31.571  21.498  1.00  0.00     0.004 C 
ENDBRANCH  12  24
ENDBRANCH   4   7
ENDBRANCH   2   3
ENDBRANCH   1   2
BRANCH   1  30
ATOM     30  C   UNL A   1      34.291  30.760  27.290  1.00  0.00     0.118 C 
BRANCH  30  31
ATOM     31  N   UNL A   1      35.016  31.750  28.091  1.00  0.00    -0.352 N 
ATOM     32  C   UNL A   1      36.231  31.600  28.743  1.00  0.00     0.251 C 
ATOM     33  H   UNL A   1      34.588  32.632  28.178  1.00  0.00     0.163 HD
ATOM     34  O   UNL A   1      36.722  32.481  29.421  1.00  0.00    -0.269 OA
BRANCH  32  35
ATOM     35  C   UNL A   1      36.910  30.304  28.554  1.00  0.00     0.039 A 
ATOM     36  C   UNL A   1      36.971  29.439  29.650  1.00  0.00     0.014 A 
ATOM     37  C   UNL A   1      37.775  30.179  27.471  1.00  0.00     0.014 A 
ATOM     38  C   UNL A   1      38.043  28.557  29.756  1.00  0.00     0.010 A 
ATOM     39  C   UNL A   1      38.885  29.368  27.628  1.00  0.00     0.010 A 
ATOM     40  C   UNL A   1      39.051  28.599  28.794  1.00  0.00    -0.014 A 
BRANCH  40  41
ATOM     41  C   UNL A   1      40.367  27.983  28.976  1.00  0.00     0.031 A 
ATOM     42  C   UNL A   1      40.581  26.553  28.637  1.00  0.00     0.074 A 
ATOM     43  C   UNL A   1      41.434  28.716  29.369  1.00  0.00     0.049 A 
ATOM     44  N   UNL A   1      41.590  25.850  29.032  1.00  0.00    -0.248 NA
ATOM     45  C   UNL A   1      39.623  25.776  27.861  1.00  0.00     0.031 C 
ATOM     46  C   UNL A   1      42.842  28.361  29.192  1.00  0.00     0.029 A 
ATOM     47  N   UNL A   1      41.470  29.841  30.191  1.00  0.00    -0.354 N 
ATOM     48  C   UNL A   1      41.573  24.652  28.352  1.00  0.00     0.074 A 
ATOM     49  C   UNL A   1      40.291  24.633  27.688  1.00  0.00     0.031 C 
ATOM     50  C   UNL A   1      43.589  29.081  30.039  1.00  0.00     0.029 A 
ATOM     51  C   UNL A   1      42.684  29.821  30.897  1.00  0.00     0.049 A 
ATOM     52  H   UNL A   1      40.767  30.527  30.264  1.00  0.00     0.167 HD
ATOM     53  C   UNL A   1      42.699  23.878  28.330  1.00  0.00     0.037 A 
ATOM     54  C   UNL A   1      42.743  29.819  32.261  1.00  0.00     0.037 A 
ATOM     55  C   UNL A   1      43.747  24.442  29.182  1.00  0.00     0.049 A 
ATOM     56  C   UNL A   1      43.460  28.632  32.859  1.00  0.00     0.074 A 
ATOM     57  C   UNL A   1      44.878  25.196  28.913  1.00  0.00     0.029 A 
ATOM     58  N   UNL A   1      43.579  24.467  30.562  1.00  0.00    -0.354 N 
ATOM     59  N   UNL A   1      43.725  27.537  32.205  1.00  0.00    -0.248 NA
ATOM     60  C   UNL A   1      43.914  28.571  34.244  1.00  0.00     0.031 C 
ATOM     61  C   UNL A   1      45.392  25.678  30.140  1.00  0.00     0.029 A 
ATOM     62  C   UNL A   1      44.574  25.218  31.157  1.00  0.00     0.049 A 
ATOM     63  H   UNL A   1      42.851  24.014  31.047  1.00  0.00     0.167 HD
ATOM     64  C   UNL A   1      44.324  26.625  33.041  1.00  0.00     0.074 A 
ATOM     65  C   UNL A   1      44.453  27.338  34.297  1.00  0.00     0.031 C 
ATOM     66  C   UNL A   1      44.638  25.365  32.607  1.00  0.00     0.037 A 
BRANCH  53  67
ATOM     67  C   UNL A   1      42.967  22.776  27.314  1.00  0.00     0.058 A 
ATOM     68  C   UNL A   1      42.275  21.545  27.382  1.00  0.00     0.135 A 
ATOM     69  C   UNL A   1      43.938  22.831  26.295  1.00  0.00     0.135 A 
ATOM     70  F   UNL A   1      41.228  21.369  28.201  1.00  0.00    -0.206 F 
ATOM     71  C   UNL A   1      42.618  20.427  26.617  1.00  0.00     0.059 A 
ATOM     72  C   UNL A   1      44.341  21.713  25.555  1.00  0.00     0.059 A 
ATOM     73  F   UNL A   1      44.496  23.987  25.921  1.00  0.00    -0.206 F 
ATOM     74  C   UNL A   1      43.687  20.506  25.738  1.00  0.00     0.060 A 
BRANCH  74  75
ATOM     75  S   UNL A   1      44.193  19.030  24.839  1.00  0.00     0.124 S 
ATOM     76  O   UNL A   1      43.128  18.088  25.169  1.00  0.00    -0.237 OA
ATOM     77  O   UNL A   1      44.218  19.505  23.460  1.00  0.00    -0.237 OA
ATOM     78  O   UNL A   1      45.498  18.712  25.414  1.00  0.00    -0.744 OA
ENDBRANCH  74  75
ENDBRANCH  53  67
BRANCH  54  79
ATOM     79  C   UNL A   1      41.635  30.567  32.905  1.00  0.00     0.058 A 
ATOM     80  C   UNL A   1      40.691  29.821  33.631  1.00  0.00     0.135 A 
ATOM     81  C   UNL A   1      41.768  31.930  33.207  1.00  0.00     0.135 A 
ATOM     82  F   UNL A   1      40.512  28.518  33.359  1.00  0.00    -0.206 F 
ATOM     83  C   UNL A   1      40.041  30.354  34.736  1.00  0.00     0.059 A 
ATOM     84  C   UNL A   1      41.121  32.487  34.309  1.00  0.00     0.059 A 
ATOM     85  F   UNL A   1      42.650  32.688  32.539  1.00  0.00    -0.206 F 
ATOM     86  C   UNL A   1      40.325  31.666  35.110  1.00  0.00     0.060 A 
BRANCH  86  87
ATOM     87  S   UNL A   1      39.829  32.187  36.768  1.00  0.00     0.124 S 
ATOM     88  O   UNL A   1      40.996  31.830  37.566  1.00  0.00    -0.237 OA
ATOM     89  O   UNL A   1      39.612  33.620  36.568  1.00  0.00    -0.237 OA
ATOM     90  O   UNL A   1      38.626  31.404  37.023  1.00  0.00    -0.744 OA
ENDBRANCH  86  87
ENDBRANCH  54  79
BRANCH  66  91
ATOM     91  C   UNL A   1      45.112  24.179  33.434  1.00  0.00     0.058 A 
ATOM     92  C   UNL A   1      44.337  23.046  33.742  1.00  0.00     0.135 A 
ATOM     93  C   UNL A   1      46.467  24.100  33.855  1.00  0.00     0.135 A 
ATOM     94  F   UNL A   1      43.076  22.919  33.314  1.00  0.00    -0.206 F 
ATOM     95  C   UNL A   1      44.843  21.956  34.461  1.00  0.00     0.059 A 
ATOM     96  C   UNL A   1      47.006  22.999  34.522  1.00  0.00     0.059 A 
ATOM     97  F   UNL A   1      47.340  25.089  33.614  1.00  0.00    -0.206 F 
ATOM     98  C   UNL A   1      46.179  21.939  34.846  1.00  0.00     0.060 A 
BRANCH  98  99
ATOM     99  S   UNL A   1      46.856  20.500  35.694  1.00  0.00     0.124 S 
ATOM    100  O   UNL A   1      47.418  21.106  36.896  1.00  0.00    -0.237 OA
ATOM    101  O   UNL A   1      45.678  19.664  35.904  1.00  0.00    -0.237 OA
ATOM    102  O   UNL A   1      47.824  19.972  34.738  1.00  0.00    -0.744 OA
ENDBRANCH  98  99
ENDBRANCH  66  91
ENDBRANCH  40  41
ENDBRANCH  32  35
ENDBRANCH  30  31
ENDBRANCH   1  30
TORSDOF 16
ENDMDL
