MODEL 1
REMARK VINA RESULT:     -10.2      0.000      0.000
REMARK SMILES C[C@H](O)[C@H](C)C(C)(C)C(=O)NCCCNC(=O)c1ccc(-c2c3nc(c(-c4c(F)cc(S(=O)(=O)[O-])cc4F)c4ccc([nH]4)c(-c4c(F)cc(S(=O)(=O)[O-])cc4F)c4nc(c(-c5c(F)cc(S(=O)(=O)[O-])cc5F)c5ccc2[nH]5)C=C4)C=C3)cc1
REMARK SMILES IDX 13 1 12 2 11 3 9 4 10 5 6 7 7 8 8 9 4 10 5 11 2 12 1 13 3 14
REMARK SMILES IDX 14 16 15 17 16 18 17 20 18 21 19 22 83 23 20 24 82 25 21 26
REMARK SMILES IDX 22 27 23 28 76 29 24 30 81 31 75 32 77 33 25 34 80 35 74 36
REMARK SMILES IDX 73 37 26 39 60 40 39 41 59 42 40 43 43 44 58 45 78 46 41 47
REMARK SMILES IDX 42 48 57 50 79 51 44 52 27 53 28 54 37 55 29 56 30 57 36 58
REMARK SMILES IDX 38 59 31 60 32 61 33 62 34 63 35 64 61 65 62 66 71 67 63 68
REMARK SMILES IDX 64 69 70 70 72 71 65 72 66 73 67 74 68 75 69 76 45 77 46 78
REMARK SMILES IDX 55 79 47 80 48 81 54 82 56 83 49 84 50 85 51 86 52 87 53 88
REMARK H PARENT 11 6 3 15 15 19 77 38 43 49
REMARK Flexibility Score: inf
ROOT
ATOM      1  C   UNL A   1      33.976  27.390  25.161  1.00  0.00     0.042 C 
ENDROOT
BRANCH   1   2
ATOM      2  C   UNL A   1      32.845  26.459  24.745  1.00  0.00     0.117 C 
BRANCH   2   3
ATOM      3  N   UNL A   1      32.455  26.676  23.363  1.00  0.00    -0.356 N 
ATOM      4  C   UNL A   1      31.319  27.142  22.785  1.00  0.00     0.226 C 
ATOM      5  O   UNL A   1      31.263  27.007  21.559  1.00  0.00    -0.275 OA
ATOM      6  H   UNL A   1      33.157  26.438  22.714  1.00  0.00     0.163 HD
BRANCH   4   7
ATOM      7  C   UNL A   1      30.166  27.787  23.584  1.00  0.00     0.049 C 
ATOM      8  C   UNL A   1      30.723  28.853  24.559  1.00  0.00     0.022 C 
ATOM      9  C   UNL A   1      29.407  26.718  24.402  1.00  0.00     0.022 C 
BRANCH   7  10
ATOM     10  C   UNL A   1      29.152  28.518  22.598  1.00  0.00     0.029 C 
ATOM     11  C   UNL A   1      27.697  28.517  23.124  1.00  0.00     0.011 C 
BRANCH  10  12
ATOM     12  C   UNL A   1      29.483  29.971  22.139  1.00  0.00     0.115 C 
ATOM     13  C   UNL A   1      28.311  30.589  21.376  1.00  0.00     0.038 C 
BRANCH  12  14
ATOM     14  O   UNL A   1      30.618  30.053  21.293  1.00  0.00    -0.393 OA
ATOM     15  H   UNL A   1      30.380  29.759  20.400  1.00  0.00     0.210 HD
ENDBRANCH  12  14
ENDBRANCH  10  12
ENDBRANCH   7  10
ENDBRANCH   4   7
ENDBRANCH   2   3
ENDBRANCH   1   2
BRANCH   1  16
ATOM     16  C   UNL A   1      33.978  27.721  26.648  1.00  0.00     0.118 C 
BRANCH  16  17
ATOM     17  N   UNL A   1      33.604  29.105  26.910  1.00  0.00    -0.352 N 
ATOM     18  C   UNL A   1      34.272  30.082  27.606  1.00  0.00     0.251 C 
ATOM     19  H   UNL A   1      32.739  29.383  26.532  1.00  0.00     0.163 HD
ATOM     20  O   UNL A   1      33.682  31.119  27.912  1.00  0.00    -0.269 OA
BRANCH  18  21
ATOM     21  C   UNL A   1      35.683  29.887  27.995  1.00  0.00     0.039 A 
ATOM     22  C   UNL A   1      35.980  29.477  29.297  1.00  0.00     0.014 A 
ATOM     23  C   UNL A   1      36.715  30.121  27.083  1.00  0.00     0.014 A 
ATOM     24  C   UNL A   1      37.307  29.236  29.661  1.00  0.00     0.010 A 
ATOM     25  C   UNL A   1      38.024  29.792  27.417  1.00  0.00     0.010 A 
ATOM     26  C   UNL A   1      38.336  29.352  28.712  1.00  0.00    -0.014 A 
BRANCH  26  27
ATOM     27  C   UNL A   1      39.744  29.024  29.052  1.00  0.00     0.031 A 
ATOM     28  C   UNL A   1      40.628  30.062  29.692  1.00  0.00     0.074 A 
ATOM     29  C   UNL A   1      40.245  27.817  28.721  1.00  0.00     0.049 A 
ATOM     30  N   UNL A   1      41.900  29.993  29.990  1.00  0.00    -0.248 NA
ATOM     31  C   UNL A   1      40.009  31.360  30.011  1.00  0.00     0.031 C 
ATOM     32  C   UNL A   1      39.500  26.747  28.052  1.00  0.00     0.029 A 
ATOM     33  N   UNL A   1      41.500  27.289  28.891  1.00  0.00    -0.354 N 
ATOM     34  C   UNL A   1      42.234  31.235  30.516  1.00  0.00     0.074 A 
ATOM     35  C   UNL A   1      41.048  32.059  30.443  1.00  0.00     0.031 C 
ATOM     36  C   UNL A   1      40.304  25.686  27.890  1.00  0.00     0.029 A 
ATOM     37  C   UNL A   1      41.632  26.010  28.401  1.00  0.00     0.049 A 
ATOM     38  H   UNL A   1      42.236  27.779  29.322  1.00  0.00     0.167 HD
ATOM     39  C   UNL A   1      43.416  31.644  31.035  1.00  0.00     0.037 A 
ATOM     40  C   UNL A   1      42.704  25.195  28.357  1.00  0.00     0.037 A 
ATOM     41  C   UNL A   1      44.586  30.809  31.126  1.00  0.00     0.049 A 
ATOM     42  C   UNL A   1      44.009  25.675  28.936  1.00  0.00     0.074 A 
ATOM     43  C   UNL A   1      45.814  31.107  31.689  1.00  0.00     0.029 A 
ATOM     44  N   UNL A   1      44.673  29.513  30.638  1.00  0.00    -0.354 N 
ATOM     45  N   UNL A   1      44.288  26.831  29.492  1.00  0.00    -0.248 NA
ATOM     46  C   UNL A   1      45.141  24.741  28.887  1.00  0.00     0.031 C 
ATOM     47  C   UNL A   1      46.660  30.011  31.495  1.00  0.00     0.029 A 
ATOM     48  C   UNL A   1      45.943  29.006  30.866  1.00  0.00     0.049 A 
ATOM     49  H   UNL A   1      43.943  29.024  30.196  1.00  0.00     0.167 HD
ATOM     50  C   UNL A   1      45.619  26.749  29.886  1.00  0.00     0.074 A 
ATOM     51  C   UNL A   1      46.084  25.429  29.516  1.00  0.00     0.031 C 
ATOM     52  C   UNL A   1      46.387  27.685  30.499  1.00  0.00     0.037 A 
BRANCH  39  53
ATOM     53  C   UNL A   1      43.505  33.056  31.552  1.00  0.00     0.058 A 
ATOM     54  C   UNL A   1      43.172  33.379  32.878  1.00  0.00     0.135 A 
ATOM     55  C   UNL A   1      43.971  34.091  30.726  1.00  0.00     0.135 A 
ATOM     56  F   UNL A   1      42.705  32.433  33.709  1.00  0.00    -0.206 F 
ATOM     57  C   UNL A   1      43.269  34.681  33.356  1.00  0.00     0.059 A 
ATOM     58  C   UNL A   1      44.106  35.396  31.193  1.00  0.00     0.059 A 
ATOM     59  F   UNL A   1      44.302  33.840  29.449  1.00  0.00    -0.206 F 
ATOM     60  C   UNL A   1      43.740  35.682  32.506  1.00  0.00     0.060 A 
BRANCH  60  61
ATOM     61  S   UNL A   1      43.874  37.364  33.150  1.00  0.00     0.124 S 
ATOM     62  O   UNL A   1      42.754  37.407  34.085  1.00  0.00    -0.237 OA
ATOM     63  O   UNL A   1      45.202  37.363  33.752  1.00  0.00    -0.237 OA
ATOM     64  O   UNL A   1      43.728  38.197  31.960  1.00  0.00    -0.744 OA
ENDBRANCH  60  61
ENDBRANCH  39  53
BRANCH  40  65
ATOM     65  C   UNL A   1      42.585  23.838  27.760  1.00  0.00     0.058 A 
ATOM     66  C   UNL A   1      42.469  22.699  28.572  1.00  0.00     0.135 A 
ATOM     67  C   UNL A   1      42.579  23.651  26.369  1.00  0.00     0.135 A 
ATOM     68  F   UNL A   1      42.476  22.824  29.907  1.00  0.00    -0.206 F 
ATOM     69  C   UNL A   1      42.371  21.422  28.028  1.00  0.00     0.059 A 
ATOM     70  C   UNL A   1      42.453  22.387  25.801  1.00  0.00     0.059 A 
ATOM     71  F   UNL A   1      42.669  24.708  25.547  1.00  0.00    -0.206 F 
ATOM     72  C   UNL A   1      42.362  21.276  26.640  1.00  0.00     0.060 A 
BRANCH  72  73
ATOM     73  S   UNL A   1      42.195  19.619  25.944  1.00  0.00     0.124 S 
ATOM     74  O   UNL A   1      43.196  19.642  24.885  1.00  0.00    -0.237 OA
ATOM     75  O   UNL A   1      42.501  18.773  27.094  1.00  0.00    -0.237 OA
ATOM     76  O   UNL A   1      40.804  19.580  25.499  1.00  0.00    -0.744 OA
ENDBRANCH  72  73
ENDBRANCH  40  65
BRANCH  52  77
ATOM     77  C   UNL A   1      47.800  27.302  30.848  1.00  0.00     0.058 A 
ATOM     78  C   UNL A   1      48.106  26.579  32.011  1.00  0.00     0.135 A 
ATOM     79  C   UNL A   1      48.854  27.616  29.974  1.00  0.00     0.135 A 
ATOM     80  F   UNL A   1      47.137  26.258  32.883  1.00  0.00    -0.206 F 
ATOM     81  C   UNL A   1      49.413  26.203  32.309  1.00  0.00     0.059 A 
ATOM     82  C   UNL A   1      50.163  27.223  30.236  1.00  0.00     0.059 A 
ATOM     83  F   UNL A   1      48.615  28.297  28.843  1.00  0.00    -0.206 F 
ATOM     84  C   UNL A   1      50.433  26.526  31.413  1.00  0.00     0.060 A 
BRANCH  84  85
ATOM     85  S   UNL A   1      52.117  25.999  31.794  1.00  0.00     0.124 S 
ATOM     86  O   UNL A   1      51.897  24.644  32.289  1.00  0.00    -0.237 OA
ATOM     87  O   UNL A   1      52.778  26.101  30.496  1.00  0.00    -0.237 OA
ATOM     88  O   UNL A   1      52.559  26.967  32.793  1.00  0.00    -0.744 OA
ENDBRANCH  84  85
ENDBRANCH  52  77
ENDBRANCH  26  27
ENDBRANCH  18  21
ENDBRANCH  16  17
ENDBRANCH   1  16
TORSDOF 16
ENDMDL
MODEL 2
REMARK VINA RESULT:      -9.9      2.880      5.578
REMARK SMILES C[C@H](O)[C@H](C)C(C)(C)C(=O)NCCCNC(=O)c1ccc(-c2c3nc(c(-c4c(F)cc(S(=O)(=O)[O-])cc4F)c4ccc([nH]4)c(-c4c(F)cc(S(=O)(=O)[O-])cc4F)c4nc(c(-c5c(F)cc(S(=O)(=O)[O-])cc5F)c5ccc2[nH]5)C=C4)C=C3)cc1
REMARK SMILES IDX 13 1 12 2 11 3 9 4 10 5 6 7 7 8 8 9 4 10 5 11 2 12 1 13 3 14
REMARK SMILES IDX 14 16 15 17 16 18 17 20 18 21 19 22 83 23 20 24 82 25 21 26
REMARK SMILES IDX 22 27 23 28 76 29 24 30 81 31 75 32 77 33 25 34 80 35 74 36
REMARK SMILES IDX 73 37 26 39 60 40 39 41 59 42 40 43 43 44 58 45 78 46 41 47
REMARK SMILES IDX 42 48 57 50 79 51 44 52 27 53 28 54 37 55 29 56 30 57 36 58
REMARK SMILES IDX 38 59 31 60 32 61 33 62 34 63 35 64 61 65 62 66 71 67 63 68
REMARK SMILES IDX 64 69 70 70 72 71 65 72 66 73 67 74 68 75 69 76 45 77 46 78
REMARK SMILES IDX 55 79 47 80 48 81 54 82 56 83 49 84 50 85 51 86 52 87 53 88
REMARK H PARENT 11 6 3 15 15 19 77 38 43 49
REMARK Flexibility Score: inf
ROOT
ATOM      1  C   UNL A   1      34.450  32.739  30.838  1.00  0.00     0.042 C 
ENDROOT
BRANCH   1   2
ATOM      2  C   UNL A   1      35.522  33.417  31.681  1.00  0.00     0.117 C 
BRANCH   2   3
ATOM      3  N   UNL A   1      36.694  33.748  30.891  1.00  0.00    -0.356 N 
ATOM      4  C   UNL A   1      37.976  34.047  31.219  1.00  0.00     0.226 C 
ATOM      5  O   UNL A   1      38.668  34.474  30.289  1.00  0.00    -0.275 OA
ATOM      6  H   UNL A   1      36.524  33.758  29.921  1.00  0.00     0.163 HD
BRANCH   4   7
ATOM      7  C   UNL A   1      38.546  33.881  32.645  1.00  0.00     0.049 C 
ATOM      8  C   UNL A   1      37.586  34.515  33.680  1.00  0.00     0.022 C 
ATOM      9  C   UNL A   1      39.923  34.571  32.762  1.00  0.00     0.022 C 
BRANCH   7  10
ATOM     10  C   UNL A   1      38.695  32.337  33.005  1.00  0.00     0.029 C 
ATOM     11  C   UNL A   1      40.059  32.000  33.651  1.00  0.00     0.011 C 
BRANCH  10  12
ATOM     12  C   UNL A   1      37.586  31.670  33.876  1.00  0.00     0.115 C 
ATOM     13  C   UNL A   1      38.151  31.186  35.212  1.00  0.00     0.038 C 
BRANCH  12  14
ATOM     14  O   UNL A   1      36.973  30.553  33.255  1.00  0.00    -0.393 OA
ATOM     15  H   UNL A   1      36.700  30.792  32.355  1.00  0.00     0.210 HD
ENDBRANCH  12  14
ENDBRANCH  10  12
ENDBRANCH   7  10
ENDBRANCH   4   7
ENDBRANCH   2   3
ENDBRANCH   1   2
BRANCH   1  16
ATOM     16  C   UNL A   1      34.788  32.679  29.354  1.00  0.00     0.118 C 
BRANCH  16  17
ATOM     17  N   UNL A   1      34.056  31.626  28.660  1.00  0.00    -0.352 N 
ATOM     18  C   UNL A   1      34.517  30.476  28.069  1.00  0.00     0.251 C 
ATOM     19  H   UNL A   1      33.083  31.761  28.605  1.00  0.00     0.163 HD
ATOM     20  O   UNL A   1      33.769  29.832  27.333  1.00  0.00    -0.269 OA
BRANCH  18  21
ATOM     21  C   UNL A   1      35.902  30.020  28.304  1.00  0.00     0.039 A 
ATOM     22  C   UNL A   1      36.826  30.080  27.258  1.00  0.00     0.014 A 
ATOM     23  C   UNL A   1      36.288  29.522  29.551  1.00  0.00     0.014 A 
ATOM     24  C   UNL A   1      38.152  29.703  27.483  1.00  0.00     0.010 A 
ATOM     25  C   UNL A   1      37.627  29.236  29.799  1.00  0.00     0.010 A 
ATOM     26  C   UNL A   1      38.572  29.317  28.766  1.00  0.00    -0.014 A 
BRANCH  26  27
ATOM     27  C   UNL A   1      39.993  28.990  29.051  1.00  0.00     0.031 A 
ATOM     28  C   UNL A   1      40.904  30.032  29.643  1.00  0.00     0.074 A 
ATOM     29  C   UNL A   1      40.477  27.779  28.710  1.00  0.00     0.049 A 
ATOM     30  N   UNL A   1      42.187  29.963  29.888  1.00  0.00    -0.248 NA
ATOM     31  C   UNL A   1      40.300  31.334  29.975  1.00  0.00     0.031 C 
ATOM     32  C   UNL A   1      39.704  26.704  28.083  1.00  0.00     0.029 A 
ATOM     33  N   UNL A   1      41.738  27.250  28.833  1.00  0.00    -0.354 N 
ATOM     34  C   UNL A   1      42.544  31.210  30.388  1.00  0.00     0.074 A 
ATOM     35  C   UNL A   1      41.358  32.035  30.357  1.00  0.00     0.031 C 
ATOM     36  C   UNL A   1      40.500  25.639  27.897  1.00  0.00     0.029 A 
ATOM     37  C   UNL A   1      41.848  25.966  28.349  1.00  0.00     0.049 A 
ATOM     38  H   UNL A   1      42.492  27.743  29.228  1.00  0.00     0.167 HD
ATOM     39  C   UNL A   1      43.748  31.622  30.854  1.00  0.00     0.037 A 
ATOM     40  C   UNL A   1      42.916  25.149  28.269  1.00  0.00     0.037 A 
ATOM     41  C   UNL A   1      44.919  30.786  30.904  1.00  0.00     0.049 A 
ATOM     42  C   UNL A   1      44.245  25.633  28.788  1.00  0.00     0.074 A 
ATOM     43  C   UNL A   1      46.170  31.088  31.412  1.00  0.00     0.029 A 
ATOM     44  N   UNL A   1      44.985  29.485  30.425  1.00  0.00    -0.354 N 
ATOM     45  N   UNL A   1      44.548  26.793  29.321  1.00  0.00    -0.248 NA
ATOM     46  C   UNL A   1      45.373  24.697  28.701  1.00  0.00     0.031 C 
ATOM     47  C   UNL A   1      47.006  29.988  31.193  1.00  0.00     0.029 A 
ATOM     48  C   UNL A   1      46.262  28.979  30.604  1.00  0.00     0.049 A 
ATOM     49  H   UNL A   1      44.236  28.994  30.018  1.00  0.00     0.167 HD
ATOM     50  C   UNL A   1      45.895  26.713  29.660  1.00  0.00     0.074 A 
ATOM     51  C   UNL A   1      46.342  25.389  29.283  1.00  0.00     0.031 C 
ATOM     52  C   UNL A   1      46.689  27.653  30.232  1.00  0.00     0.037 A 
BRANCH  39  53
ATOM     53  C   UNL A   1      43.860  33.039  31.353  1.00  0.00     0.058 A 
ATOM     54  C   UNL A   1      44.114  34.110  30.482  1.00  0.00     0.135 A 
ATOM     55  C   UNL A   1      43.666  33.334  32.711  1.00  0.00     0.135 A 
ATOM     56  F   UNL A   1      44.324  33.886  29.175  1.00  0.00    -0.206 F 
ATOM     57  C   UNL A   1      44.202  35.420  30.944  1.00  0.00     0.059 A 
ATOM     58  C   UNL A   1      43.718  34.640  33.191  1.00  0.00     0.059 A 
ATOM     59  F   UNL A   1      43.420  32.349  33.590  1.00  0.00    -0.206 F 
ATOM     60  C   UNL A   1      43.999  35.674  32.301  1.00  0.00     0.060 A 
BRANCH  60  61
ATOM     61  S   UNL A   1      44.102  37.382  32.879  1.00  0.00     0.124 S 
ATOM     62  O   UNL A   1      45.354  37.360  33.629  1.00  0.00    -0.237 OA
ATOM     63  O   UNL A   1      44.124  38.133  31.630  1.00  0.00    -0.237 OA
ATOM     64  O   UNL A   1      42.893  37.542  33.683  1.00  0.00    -0.744 OA
ENDBRANCH  60  61
ENDBRANCH  39  53
BRANCH  40  65
ATOM     65  C   UNL A   1      42.771  23.786  27.690  1.00  0.00     0.058 A 
ATOM     66  C   UNL A   1      42.605  22.665  28.517  1.00  0.00     0.135 A 
ATOM     67  C   UNL A   1      42.788  23.578  26.303  1.00  0.00     0.135 A 
ATOM     68  F   UNL A   1      42.588  22.810  29.850  1.00  0.00    -0.206 F 
ATOM     69  C   UNL A   1      42.483  21.383  27.990  1.00  0.00     0.059 A 
ATOM     70  C   UNL A   1      42.638  22.309  25.751  1.00  0.00     0.059 A 
ATOM     71  F   UNL A   1      42.925  24.619  25.466  1.00  0.00    -0.206 F 
ATOM     72  C   UNL A   1      42.498  21.215  26.605  1.00  0.00     0.060 A 
BRANCH  72  73
ATOM     73  S   UNL A   1      42.297  19.552  25.932  1.00  0.00     0.124 S 
ATOM     74  O   UNL A   1      43.346  19.516  24.920  1.00  0.00    -0.237 OA
ATOM     75  O   UNL A   1      42.516  18.717  27.109  1.00  0.00    -0.237 OA
ATOM     76  O   UNL A   1      40.928  19.559  25.422  1.00  0.00    -0.744 OA
ENDBRANCH  72  73
ENDBRANCH  40  65
BRANCH  52  77
ATOM     77  C   UNL A   1      48.114  27.272  30.525  1.00  0.00     0.058 A 
ATOM     78  C   UNL A   1      48.480  26.631  31.719  1.00  0.00     0.135 A 
ATOM     79  C   UNL A   1      49.119  27.500  29.570  1.00  0.00     0.135 A 
ATOM     80  F   UNL A   1      47.560  26.394  32.668  1.00  0.00    -0.206 F 
ATOM     81  C   UNL A   1      49.796  26.254  31.967  1.00  0.00     0.059 A 
ATOM     82  C   UNL A   1      50.435  27.104  29.783  1.00  0.00     0.059 A 
ATOM     83  F   UNL A   1      48.821  28.099  28.406  1.00  0.00    -0.206 F 
ATOM     84  C   UNL A   1      50.766  26.491  30.991  1.00  0.00     0.060 A 
BRANCH  84  85
ATOM     85  S   UNL A   1      52.462  25.963  31.312  1.00  0.00     0.124 S 
ATOM     86  O   UNL A   1      52.927  27.001  32.224  1.00  0.00    -0.237 OA
ATOM     87  O   UNL A   1      52.271  24.640  31.900  1.00  0.00    -0.237 OA
ATOM     88  O   UNL A   1      53.077  25.969  29.987  1.00  0.00    -0.744 OA
ENDBRANCH  84  85
ENDBRANCH  52  77
ENDBRANCH  26  27
ENDBRANCH  18  21
ENDBRANCH  16  17
ENDBRANCH   1  16
TORSDOF 16
ENDMDL
MODEL 3
REMARK VINA RESULT:      -9.9      5.179     10.802
REMARK SMILES C[C@H](O)[C@H](C)C(C)(C)C(=O)NCCCNC(=O)c1ccc(-c2c3nc(c(-c4c(F)cc(S(=O)(=O)[O-])cc4F)c4ccc([nH]4)c(-c4c(F)cc(S(=O)(=O)[O-])cc4F)c4nc(c(-c5c(F)cc(S(=O)(=O)[O-])cc5F)c5ccc2[nH]5)C=C4)C=C3)cc1
REMARK SMILES IDX 13 1 12 2 11 3 9 4 10 5 6 7 7 8 8 9 4 10 5 11 2 12 1 13 3 14
REMARK SMILES IDX 14 16 15 17 16 18 17 20 18 21 19 22 83 23 20 24 82 25 21 26
REMARK SMILES IDX 22 27 23 28 76 29 24 30 81 31 75 32 77 33 25 34 80 35 74 36
REMARK SMILES IDX 73 37 26 39 60 40 39 41 59 42 40 43 43 44 58 45 78 46 41 47
REMARK SMILES IDX 42 48 57 50 79 51 44 52 27 53 28 54 37 55 29 56 30 57 36 58
REMARK SMILES IDX 38 59 31 60 32 61 33 62 34 63 35 64 61 65 62 66 71 67 63 68
REMARK SMILES IDX 64 69 70 70 72 71 65 72 66 73 67 74 68 75 69 76 45 77 46 78
REMARK SMILES IDX 55 79 47 80 48 81 54 82 56 83 49 84 50 85 51 86 52 87 53 88
REMARK H PARENT 11 6 3 15 15 19 77 38 43 49
REMARK Flexibility Score: inf
ROOT
ATOM      1  C   UNL A   1      37.485  23.385  25.571  1.00  0.00     0.042 C 
ENDROOT
BRANCH   1   2
ATOM      2  C   UNL A   1      35.997  23.658  25.742  1.00  0.00     0.117 C 
BRANCH   2   3
ATOM      3  N   UNL A   1      35.352  22.628  26.536  1.00  0.00    -0.356 N 
ATOM      4  C   UNL A   1      34.132  22.038  26.470  1.00  0.00     0.226 C 
ATOM      5  O   UNL A   1      33.840  21.329  27.439  1.00  0.00    -0.275 OA
ATOM      6  H   UNL A   1      35.914  22.287  27.269  1.00  0.00     0.163 HD
BRANCH   4   7
ATOM      7  C   UNL A   1      33.159  22.234  25.287  1.00  0.00     0.049 C 
ATOM      8  C   UNL A   1      32.014  21.196  25.361  1.00  0.00     0.022 C 
ATOM      9  C   UNL A   1      33.898  22.058  23.942  1.00  0.00     0.022 C 
BRANCH   7  10
ATOM     10  C   UNL A   1      32.502  23.683  25.345  1.00  0.00     0.029 C 
ATOM     11  C   UNL A   1      32.384  24.345  23.952  1.00  0.00     0.011 C 
BRANCH  10  12
ATOM     12  C   UNL A   1      31.124  23.844  26.058  1.00  0.00     0.115 C 
ATOM     13  C   UNL A   1      30.423  25.130  25.621  1.00  0.00     0.038 C 
BRANCH  12  14
ATOM     14  O   UNL A   1      31.220  23.882  27.472  1.00  0.00    -0.393 OA
ATOM     15  H   UNL A   1      30.759  24.668  27.807  1.00  0.00     0.210 HD
ENDBRANCH  12  14
ENDBRANCH  10  12
ENDBRANCH   7  10
ENDBRANCH   4   7
ENDBRANCH   2   3
ENDBRANCH   1   2
BRANCH   1  16
ATOM     16  C   UNL A   1      38.366  24.177  26.528  1.00  0.00     0.118 C 
BRANCH  16  17
ATOM     17  N   UNL A   1      39.787  23.970  26.278  1.00  0.00    -0.352 N 
ATOM     18  C   UNL A   1      40.867  24.728  26.655  1.00  0.00     0.251 C 
ATOM     19  H   UNL A   1      40.006  23.164  25.757  1.00  0.00     0.163 HD
ATOM     20  O   UNL A   1      41.968  24.508  26.148  1.00  0.00    -0.269 OA
BRANCH  18  21
ATOM     21  C   UNL A   1      40.710  25.806  27.652  1.00  0.00     0.039 A 
ATOM     22  C   UNL A   1      39.663  25.735  28.574  1.00  0.00     0.014 A 
ATOM     23  C   UNL A   1      41.586  26.894  27.671  1.00  0.00     0.014 A 
ATOM     24  C   UNL A   1      39.537  26.720  29.556  1.00  0.00     0.010 A 
ATOM     25  C   UNL A   1      41.516  27.823  28.705  1.00  0.00     0.010 A 
ATOM     26  C   UNL A   1      40.487  27.750  29.654  1.00  0.00    -0.014 A 
BRANCH  26  27
ATOM     27  C   UNL A   1      40.421  28.763  30.739  1.00  0.00     0.031 A 
ATOM     28  C   UNL A   1      41.319  28.641  31.941  1.00  0.00     0.074 A 
ATOM     29  C   UNL A   1      39.505  29.749  30.673  1.00  0.00     0.049 A 
ATOM     30  N   UNL A   1      41.355  29.376  33.022  1.00  0.00    -0.248 NA
ATOM     31  C   UNL A   1      42.284  27.527  31.943  1.00  0.00     0.031 C 
ATOM     32  C   UNL A   1      38.545  29.941  29.583  1.00  0.00     0.029 A 
ATOM     33  N   UNL A   1      39.222  30.771  31.544  1.00  0.00    -0.354 N 
ATOM     34  C   UNL A   1      42.331  28.809  33.834  1.00  0.00     0.074 A 
ATOM     35  C   UNL A   1      42.822  27.635  33.149  1.00  0.00     0.031 C 
ATOM     36  C   UNL A   1      37.797  31.025  29.840  1.00  0.00     0.029 A 
ATOM     37  C   UNL A   1      38.191  31.582  31.130  1.00  0.00     0.049 A 
ATOM     38  H   UNL A   1      39.711  30.911  32.387  1.00  0.00     0.167 HD
ATOM     39  C   UNL A   1      42.792  29.243  35.032  1.00  0.00     0.037 A 
ATOM     40  C   UNL A   1      37.619  32.646  31.727  1.00  0.00     0.037 A 
ATOM     41  C   UNL A   1      42.314  30.427  35.696  1.00  0.00     0.049 A 
ATOM     42  C   UNL A   1      38.146  33.104  33.061  1.00  0.00     0.074 A 
ATOM     43  C   UNL A   1      42.757  30.986  36.882  1.00  0.00     0.029 A 
ATOM     44  N   UNL A   1      41.283  31.233  35.234  1.00  0.00    -0.354 N 
ATOM     45  N   UNL A   1      39.117  32.595  33.783  1.00  0.00    -0.248 NA
ATOM     46  C   UNL A   1      37.506  34.283  33.659  1.00  0.00     0.031 C 
ATOM     47  C   UNL A   1      41.959  32.099  37.164  1.00  0.00     0.029 A 
ATOM     48  C   UNL A   1      41.059  32.271  36.124  1.00  0.00     0.049 A 
ATOM     49  H   UNL A   1      40.785  31.090  34.398  1.00  0.00     0.167 HD
ATOM     50  C   UNL A   1      39.222  33.410  34.904  1.00  0.00     0.074 A 
ATOM     51  C   UNL A   1      38.226  34.451  34.759  1.00  0.00     0.031 C 
ATOM     52  C   UNL A   1      40.069  33.306  35.960  1.00  0.00     0.037 A 
BRANCH  39  53
ATOM     53  C   UNL A   1      43.874  28.436  35.700  1.00  0.00     0.058 A 
ATOM     54  C   UNL A   1      45.235  28.676  35.450  1.00  0.00     0.135 A 
ATOM     55  C   UNL A   1      43.549  27.442  36.636  1.00  0.00     0.135 A 
ATOM     56  F   UNL A   1      45.606  29.604  34.553  1.00  0.00    -0.206 F 
ATOM     57  C   UNL A   1      46.233  27.939  36.081  1.00  0.00     0.059 A 
ATOM     58  C   UNL A   1      44.531  26.714  37.302  1.00  0.00     0.059 A 
ATOM     59  F   UNL A   1      42.264  27.169  36.914  1.00  0.00    -0.206 F 
ATOM     60  C   UNL A   1      45.869  26.962  37.008  1.00  0.00     0.060 A 
BRANCH  60  61
ATOM     61  S   UNL A   1      47.179  26.026  37.827  1.00  0.00     0.124 S 
ATOM     62  O   UNL A   1      47.348  26.784  39.064  1.00  0.00    -0.237 OA
ATOM     63  O   UNL A   1      46.576  24.706  37.971  1.00  0.00    -0.237 OA
ATOM     64  O   UNL A   1      48.293  26.106  36.887  1.00  0.00    -0.744 OA
ENDBRANCH  60  61
ENDBRANCH  39  53
BRANCH  40  65
ATOM     65  C   UNL A   1      36.496  33.359  31.061  1.00  0.00     0.058 A 
ATOM     66  C   UNL A   1      36.715  34.146  29.920  1.00  0.00     0.135 A 
ATOM     67  C   UNL A   1      35.182  33.266  31.547  1.00  0.00     0.135 A 
ATOM     68  F   UNL A   1      37.953  34.272  29.421  1.00  0.00    -0.206 F 
ATOM     69  C   UNL A   1      35.677  34.830  29.296  1.00  0.00     0.059 A 
ATOM     70  C   UNL A   1      34.123  33.917  30.923  1.00  0.00     0.059 A 
ATOM     71  F   UNL A   1      34.915  32.512  32.625  1.00  0.00    -0.206 F 
ATOM     72  C   UNL A   1      34.383  34.708  29.804  1.00  0.00     0.060 A 
BRANCH  72  73
ATOM     73  S   UNL A   1      33.037  35.568  28.962  1.00  0.00     0.124 S 
ATOM     74  O   UNL A   1      32.439  34.489  28.186  1.00  0.00    -0.237 OA
ATOM     75  O   UNL A   1      32.244  36.065  30.081  1.00  0.00    -0.237 OA
ATOM     76  O   UNL A   1      33.728  36.596  28.187  1.00  0.00    -0.744 OA
ENDBRANCH  72  73
ENDBRANCH  40  65
BRANCH  52  77
ATOM     77  C   UNL A   1      39.985  34.367  37.023  1.00  0.00     0.058 A 
ATOM     78  C   UNL A   1      40.682  35.580  36.916  1.00  0.00     0.135 A 
ATOM     79  C   UNL A   1      39.149  34.187  38.138  1.00  0.00     0.135 A 
ATOM     80  F   UNL A   1      41.499  35.801  35.874  1.00  0.00    -0.206 F 
ATOM     81  C   UNL A   1      40.574  36.568  37.890  1.00  0.00     0.059 A 
ATOM     82  C   UNL A   1      39.002  35.174  39.108  1.00  0.00     0.059 A 
ATOM     83  F   UNL A   1      38.452  33.050  38.284  1.00  0.00    -0.206 F 
ATOM     84  C   UNL A   1      39.727  36.357  38.980  1.00  0.00     0.060 A 
BRANCH  84  85
ATOM     85  S   UNL A   1      39.568  37.662  40.216  1.00  0.00     0.124 S 
ATOM     86  O   UNL A   1      38.235  38.180  39.929  1.00  0.00    -0.237 OA
ATOM     87  O   UNL A   1      39.707  36.925  41.468  1.00  0.00    -0.237 OA
ATOM     88  O   UNL A   1      40.673  38.565  39.903  1.00  0.00    -0.744 OA
ENDBRANCH  84  85
ENDBRANCH  52  77
ENDBRANCH  26  27
ENDBRANCH  18  21
ENDBRANCH  16  17
ENDBRANCH   1  16
TORSDOF 16
ENDMDL
