MODEL 1
REMARK VINA RESULT:     -15.1      0.000      0.000
REMARK SMILES CC(=O)Nc1cnc(N2CC=C(c3ccccc3C)CC2)c(C(=O)NCCCNC(=O)c2ccc(-c3c4nc(c(-c5c(F)cc(S(=O)(=O)[O-])cc5F)c5ccc([nH]5)c(-c5c(F)cc(S(=O)(=O)[O-])cc5F)c5nc(c(-c6c(F)cc(S(=O)(=O)[O-])cc6F)c6ccc3[nH]6)C=C5)C=C4)cc2)c1
REMARK SMILES IDX 27 1 26 2 25 3 23 4 24 5 22 7 5 8 6 9 98 10 7 11 8 12 4 13
REMARK SMILES IDX 1 14 2 15 3 16 9 18 10 19 21 20 11 21 20 22 12 23 13 24
REMARK SMILES IDX 14 25 18 26 15 27 17 28 19 29 16 30 28 31 29 32 30 33 31 35
REMARK SMILES IDX 32 36 33 37 97 38 34 39 96 40 35 41 36 42 37 43 90 44 38 45
REMARK SMILES IDX 95 46 89 47 91 48 39 49 94 50 88 51 87 52 40 54 74 55 53 56
REMARK SMILES IDX 73 57 54 58 57 59 72 60 92 61 55 62 56 63 71 65 93 66 58 67
REMARK SMILES IDX 41 68 42 69 51 70 43 71 44 72 50 73 52 74 45 75 46 76 47 77
REMARK SMILES IDX 48 78 49 79 75 80 76 81 85 82 77 83 78 84 84 85 86 86 79 87
REMARK SMILES IDX 80 88 81 89 82 90 83 91 59 92 60 93 69 94 61 95 62 96 68 97
REMARK SMILES IDX 70 98 63 99 64 100 65 101 66 102 67 103
REMARK H PARENT 25 6 4 17 29 34 91 53 57 64
REMARK Flexibility Score: inf
ROOT
ATOM      1  C   UNL A   1      38.299  22.239  25.409  1.00  0.00     0.042 C 
ENDROOT
BRANCH   1   2
ATOM      2  C   UNL A   1      37.064  22.617  24.589  1.00  0.00     0.118 C 
BRANCH   2   3
ATOM      3  N   UNL A   1      35.893  22.912  25.417  1.00  0.00    -0.352 N 
ATOM      4  C   UNL A   1      34.694  22.302  25.716  1.00  0.00     0.255 C 
ATOM      5  O   UNL A   1      34.108  22.820  26.670  1.00  0.00    -0.269 OA
ATOM      6  H   UNL A   1      35.988  23.774  25.882  1.00  0.00     0.163 HD
BRANCH   4   7
ATOM      7  C   UNL A   1      34.097  21.111  25.009  1.00  0.00     0.084 A 
ATOM      8  C   UNL A   1      34.094  18.702  24.549  1.00  0.00     0.060 A 
ATOM      9  C   UNL A   1      32.963  18.911  23.787  1.00  0.00     0.139 A 
ATOM     10  C   UNL A   1      34.661  19.827  25.140  1.00  0.00     0.045 A 
ATOM     11  N   UNL A   1      32.373  20.110  23.634  1.00  0.00    -0.236 NA
ATOM     12  C   UNL A   1      32.922  21.210  24.223  1.00  0.00     0.141 A 
BRANCH   8  13
ATOM     13  N   UNL A   1      34.611  17.399  24.634  1.00  0.00    -0.325 N 
ATOM     14  C   UNL A   1      32.747  16.152  25.741  1.00  0.00     0.114 C 
ATOM     15  C   UNL A   1      34.154  16.255  25.222  1.00  0.00     0.221 C 
ATOM     16  O   UNL A   1      34.912  15.281  25.256  1.00  0.00    -0.275 OA
ATOM     17  H   UNL A   1      35.477  17.287  24.177  1.00  0.00     0.169 HD
ENDBRANCH   8  13
BRANCH  12  18
ATOM     18  N   UNL A   1      32.206  22.345  23.947  1.00  0.00    -0.352 N 
ATOM     19  C   UNL A   1      32.462  23.011  22.683  1.00  0.00     0.146 C 
ATOM     20  C   UNL A   1      31.092  22.797  24.767  1.00  0.00     0.123 C 
ATOM     21  C   UNL A   1      32.124  24.478  22.761  1.00  0.00    -0.002 C 
ATOM     22  C   UNL A   1      31.268  24.292  25.083  1.00  0.00     0.057 C 
ATOM     23  C   UNL A   1      31.594  25.086  23.839  1.00  0.00    -0.041 C 
BRANCH  23  24
ATOM     24  C   UNL A   1      31.276  26.528  23.810  1.00  0.00    -0.020 A 
ATOM     25  C   UNL A   1      29.978  26.906  23.422  1.00  0.00     0.008 A 
ATOM     26  C   UNL A   1      32.206  27.532  24.149  1.00  0.00    -0.044 A 
ATOM     27  C   UNL A   1      29.598  28.248  23.381  1.00  0.00     0.001 A 
ATOM     28  C   UNL A   1      31.802  28.880  24.120  1.00  0.00     0.004 A 
ATOM     29  C   UNL A   1      33.614  27.217  24.572  1.00  0.00     0.045 C 
ATOM     30  C   UNL A   1      30.509  29.235  23.734  1.00  0.00     0.000 A 
ENDBRANCH  23  24
ENDBRANCH  12  18
ENDBRANCH   4   7
ENDBRANCH   2   3
ENDBRANCH   1   2
BRANCH   1  31
ATOM     31  C   UNL A   1      38.638  23.260  26.489  1.00  0.00     0.118 C 
BRANCH  31  32
ATOM     32  N   UNL A   1      40.056  23.283  26.846  1.00  0.00    -0.352 N 
ATOM     33  C   UNL A   1      40.813  24.391  27.180  1.00  0.00     0.251 C 
ATOM     34  H   UNL A   1      40.522  22.416  26.850  1.00  0.00     0.163 HD
ATOM     35  O   UNL A   1      42.027  24.357  27.337  1.00  0.00    -0.269 OA
BRANCH  33  36
ATOM     36  C   UNL A   1      40.060  25.622  27.478  1.00  0.00     0.039 A 
ATOM     37  C   UNL A   1      40.388  26.744  26.709  1.00  0.00     0.014 A 
ATOM     38  C   UNL A   1      39.391  25.735  28.695  1.00  0.00     0.014 A 
ATOM     39  C   UNL A   1      40.230  28.006  27.264  1.00  0.00     0.010 A 
ATOM     40  C   UNL A   1      39.299  26.989  29.272  1.00  0.00     0.010 A 
ATOM     41  C   UNL A   1      39.789  28.109  28.584  1.00  0.00    -0.014 A 
BRANCH  41  42
ATOM     42  C   UNL A   1      39.955  29.336  29.356  1.00  0.00     0.031 A 
ATOM     43  C   UNL A   1      38.963  30.427  29.236  1.00  0.00     0.074 A 
ATOM     44  C   UNL A   1      41.032  29.488  30.158  1.00  0.00     0.049 A 
ATOM     45  N   UNL A   1      39.186  31.651  29.582  1.00  0.00    -0.248 NA
ATOM     46  C   UNL A   1      37.661  30.238  28.602  1.00  0.00     0.031 C 
ATOM     47  C   UNL A   1      41.239  30.514  31.174  1.00  0.00     0.029 A 
ATOM     48  N   UNL A   1      42.283  28.867  30.028  1.00  0.00    -0.354 N 
ATOM     49  C   UNL A   1      37.992  32.328  29.499  1.00  0.00     0.074 A 
ATOM     50  C   UNL A   1      37.134  31.459  28.740  1.00  0.00     0.031 C 
ATOM     51  C   UNL A   1      42.554  30.650  31.391  1.00  0.00     0.029 A 
ATOM     52  C   UNL A   1      43.249  29.809  30.431  1.00  0.00     0.049 A 
ATOM     53  H   UNL A   1      42.453  27.949  29.715  1.00  0.00     0.167 HD
ATOM     54  C   UNL A   1      37.832  33.470  30.226  1.00  0.00     0.037 A 
ATOM     55  C   UNL A   1      44.214  30.251  29.573  1.00  0.00     0.037 A 
ATOM     56  C   UNL A   1      39.136  34.014  30.620  1.00  0.00     0.049 A 
ATOM     57  C   UNL A   1      44.154  31.730  29.269  1.00  0.00     0.074 A 
ATOM     58  C   UNL A   1      39.831  34.081  31.814  1.00  0.00     0.029 A 
ATOM     59  N   UNL A   1      40.046  34.369  29.622  1.00  0.00    -0.354 N 
ATOM     60  N   UNL A   1      43.163  32.508  29.613  1.00  0.00    -0.248 NA
ATOM     61  C   UNL A   1      45.187  32.450  28.528  1.00  0.00     0.031 C 
ATOM     62  C   UNL A   1      41.197  34.341  31.511  1.00  0.00     0.029 A 
ATOM     63  C   UNL A   1      41.322  34.490  30.139  1.00  0.00     0.049 A 
ATOM     64  H   UNL A   1      39.812  34.512  28.676  1.00  0.00     0.167 HD
ATOM     65  C   UNL A   1      43.372  33.769  29.122  1.00  0.00     0.074 A 
ATOM     66  C   UNL A   1      44.674  33.692  28.482  1.00  0.00     0.031 C 
ATOM     67  C   UNL A   1      42.453  34.770  29.259  1.00  0.00     0.037 A 
BRANCH  54  68
ATOM     68  C   UNL A   1      36.493  33.948  30.785  1.00  0.00     0.058 A 
ATOM     69  C   UNL A   1      35.432  34.290  29.915  1.00  0.00     0.135 A 
ATOM     70  C   UNL A   1      36.233  34.248  32.145  1.00  0.00     0.135 A 
ATOM     71  F   UNL A   1      35.522  34.069  28.595  1.00  0.00    -0.206 F 
ATOM     72  C   UNL A   1      34.249  34.911  30.350  1.00  0.00     0.059 A 
ATOM     73  C   UNL A   1      35.050  34.826  32.605  1.00  0.00     0.059 A 
ATOM     74  F   UNL A   1      37.133  34.066  33.116  1.00  0.00    -0.206 F 
ATOM     75  C   UNL A   1      34.072  35.187  31.700  1.00  0.00     0.060 A 
BRANCH  75  76
ATOM     76  S   UNL A   1      32.595  36.047  32.272  1.00  0.00     0.124 S 
ATOM     77  O   UNL A   1      31.719  34.935  32.626  1.00  0.00    -0.237 OA
ATOM     78  O   UNL A   1      33.104  36.841  33.384  1.00  0.00    -0.237 OA
ATOM     79  O   UNL A   1      32.177  36.819  31.103  1.00  0.00    -0.744 OA
ENDBRANCH  75  76
ENDBRANCH  54  68
BRANCH  55  80
ATOM     80  C   UNL A   1      44.764  29.186  28.697  1.00  0.00     0.058 A 
ATOM     81  C   UNL A   1      44.209  29.056  27.411  1.00  0.00     0.135 A 
ATOM     82  C   UNL A   1      46.028  28.621  28.914  1.00  0.00     0.135 A 
ATOM     83  F   UNL A   1      42.989  29.558  27.155  1.00  0.00    -0.206 F 
ATOM     84  C   UNL A   1      44.933  28.532  26.346  1.00  0.00     0.059 A 
ATOM     85  C   UNL A   1      46.777  28.093  27.859  1.00  0.00     0.059 A 
ATOM     86  F   UNL A   1      46.600  28.695  30.125  1.00  0.00    -0.206 F 
ATOM     87  C   UNL A   1      46.245  28.121  26.567  1.00  0.00     0.060 A 
BRANCH  87  88
ATOM     88  S   UNL A   1      47.270  27.748  25.124  1.00  0.00     0.124 S 
ATOM     89  O   UNL A   1      48.587  28.205  25.555  1.00  0.00    -0.237 OA
ATOM     90  O   UNL A   1      47.119  26.296  25.019  1.00  0.00    -0.237 OA
ATOM     91  O   UNL A   1      46.646  28.528  24.063  1.00  0.00    -0.744 OA
ENDBRANCH  87  88
ENDBRANCH  55  80
BRANCH  67  92
ATOM     92  C   UNL A   1      42.561  36.132  28.616  1.00  0.00     0.058 A 
ATOM     93  C   UNL A   1      41.960  36.473  27.392  1.00  0.00     0.135 A 
ATOM     94  C   UNL A   1      43.183  37.193  29.313  1.00  0.00     0.135 A 
ATOM     95  F   UNL A   1      41.261  35.570  26.688  1.00  0.00    -0.206 F 
ATOM     96  C   UNL A   1      42.017  37.766  26.865  1.00  0.00     0.059 A 
ATOM     97  C   UNL A   1      43.208  38.501  28.831  1.00  0.00     0.059 A 
ATOM     98  F   UNL A   1      43.783  36.990  30.496  1.00  0.00    -0.206 F 
ATOM     99  C   UNL A   1      42.640  38.775  27.594  1.00  0.00     0.060 A 
BRANCH  99 100
ATOM    100  S   UNL A   1      42.661  40.468  26.972  1.00  0.00     0.124 S 
ATOM    101  O   UNL A   1      41.236  40.755  26.855  1.00  0.00    -0.237 OA
ATOM    102  O   UNL A   1      43.366  41.198  28.021  1.00  0.00    -0.237 OA
ATOM    103  O   UNL A   1      43.388  40.343  25.712  1.00  0.00    -0.744 OA
ENDBRANCH  99 100
ENDBRANCH  67  92
ENDBRANCH  41  42
ENDBRANCH  33  36
ENDBRANCH  31  32
ENDBRANCH   1  31
TORSDOF 16
ENDMDL
MODEL 2
REMARK VINA RESULT:     -15.1      0.965      1.752
REMARK SMILES CC(=O)Nc1cnc(N2CC=C(c3ccccc3C)CC2)c(C(=O)NCCCNC(=O)c2ccc(-c3c4nc(c(-c5c(F)cc(S(=O)(=O)[O-])cc5F)c5ccc([nH]5)c(-c5c(F)cc(S(=O)(=O)[O-])cc5F)c5nc(c(-c6c(F)cc(S(=O)(=O)[O-])cc6F)c6ccc3[nH]6)C=C5)C=C4)cc2)c1
REMARK SMILES IDX 27 1 26 2 25 3 23 4 24 5 22 7 5 8 6 9 98 10 7 11 8 12 4 13
REMARK SMILES IDX 1 14 2 15 3 16 9 18 10 19 21 20 11 21 20 22 12 23 13 24
REMARK SMILES IDX 14 25 18 26 15 27 17 28 19 29 16 30 28 31 29 32 30 33 31 35
REMARK SMILES IDX 32 36 33 37 97 38 34 39 96 40 35 41 36 42 37 43 90 44 38 45
REMARK SMILES IDX 95 46 89 47 91 48 39 49 94 50 88 51 87 52 40 54 74 55 53 56
REMARK SMILES IDX 73 57 54 58 57 59 72 60 92 61 55 62 56 63 71 65 93 66 58 67
REMARK SMILES IDX 41 68 42 69 51 70 43 71 44 72 50 73 52 74 45 75 46 76 47 77
REMARK SMILES IDX 48 78 49 79 75 80 76 81 85 82 77 83 78 84 84 85 86 86 79 87
REMARK SMILES IDX 80 88 81 89 82 90 83 91 59 92 60 93 69 94 61 95 62 96 68 97
REMARK SMILES IDX 70 98 63 99 64 100 65 101 66 102 67 103
REMARK H PARENT 25 6 4 17 29 34 91 53 57 64
REMARK Flexibility Score: inf
ROOT
ATOM      1  C   UNL A   1      37.561  23.327  26.608  1.00  0.00     0.042 C 
ENDROOT
BRANCH   1   2
ATOM      2  C   UNL A   1      36.216  23.309  25.878  1.00  0.00     0.118 C 
BRANCH   2   3
ATOM      3  N   UNL A   1      35.097  22.937  26.747  1.00  0.00    -0.352 N 
ATOM      4  C   UNL A   1      33.960  22.164  26.646  1.00  0.00     0.255 C 
ATOM      5  O   UNL A   1      33.421  21.947  27.734  1.00  0.00    -0.269 OA
ATOM      6  H   UNL A   1      35.178  23.348  27.637  1.00  0.00     0.163 HD
BRANCH   4   7
ATOM      7  C   UNL A   1      33.379  21.592  25.378  1.00  0.00     0.084 A 
ATOM      8  C   UNL A   1      32.862  19.650  23.971  1.00  0.00     0.060 A 
ATOM      9  C   UNL A   1      32.245  20.523  23.099  1.00  0.00     0.139 A 
ATOM     10  C   UNL A   1      33.445  20.212  25.103  1.00  0.00     0.045 A 
ATOM     11  N   UNL A   1      32.140  21.847  23.312  1.00  0.00    -0.236 NA
ATOM     12  C   UNL A   1      32.701  22.395  24.428  1.00  0.00     0.141 A 
BRANCH   8  13
ATOM     13  N   UNL A   1      32.901  18.286  23.635  1.00  0.00    -0.325 N 
ATOM     14  C   UNL A   1      35.125  17.576  24.532  1.00  0.00     0.114 C 
ATOM     15  C   UNL A   1      33.872  17.333  23.739  1.00  0.00     0.221 C 
ATOM     16  O   UNL A   1      33.660  16.235  23.215  1.00  0.00    -0.275 OA
ATOM     17  H   UNL A   1      32.059  17.951  23.248  1.00  0.00     0.169 HD
ENDBRANCH   8  13
BRANCH  12  18
ATOM     18  N   UNL A   1      32.517  23.753  24.474  1.00  0.00    -0.352 N 
ATOM     19  C   UNL A   1      33.447  24.582  23.731  1.00  0.00     0.146 C 
ATOM     20  C   UNL A   1      31.345  24.372  25.073  1.00  0.00     0.123 C 
ATOM     21  C   UNL A   1      33.541  25.964  24.326  1.00  0.00    -0.002 C 
ATOM     22  C   UNL A   1      31.794  25.494  26.025  1.00  0.00     0.057 C 
ATOM     23  C   UNL A   1      32.813  26.399  25.372  1.00  0.00    -0.041 C 
BRANCH  23  24
ATOM     24  C   UNL A   1      32.961  27.781  25.869  1.00  0.00    -0.020 A 
ATOM     25  C   UNL A   1      34.006  28.045  26.775  1.00  0.00     0.008 A 
ATOM     26  C   UNL A   1      32.111  28.838  25.483  1.00  0.00    -0.044 A 
ATOM     27  C   UNL A   1      34.218  29.329  27.279  1.00  0.00     0.001 A 
ATOM     28  C   UNL A   1      32.349  30.130  25.987  1.00  0.00     0.004 A 
ATOM     29  C   UNL A   1      30.970  28.645  24.523  1.00  0.00     0.045 C 
ATOM     30  C   UNL A   1      33.391  30.372  26.883  1.00  0.00     0.000 A 
ENDBRANCH  23  24
ENDBRANCH  12  18
ENDBRANCH   4   7
ENDBRANCH   2   3
ENDBRANCH   1   2
BRANCH   1  31
ATOM     31  C   UNL A   1      38.743  23.584  25.681  1.00  0.00     0.118 C 
BRANCH  31  32
ATOM     32  N   UNL A   1      40.041  23.454  26.341  1.00  0.00    -0.352 N 
ATOM     33  C   UNL A   1      40.758  24.452  26.977  1.00  0.00     0.251 C 
ATOM     34  H   UNL A   1      40.449  22.558  26.335  1.00  0.00     0.163 HD
ATOM     35  O   UNL A   1      41.900  24.305  27.391  1.00  0.00    -0.269 OA
BRANCH  33  36
ATOM     36  C   UNL A   1      40.020  25.696  27.259  1.00  0.00     0.039 A 
ATOM     37  C   UNL A   1      40.421  26.826  26.538  1.00  0.00     0.014 A 
ATOM     38  C   UNL A   1      39.282  25.799  28.437  1.00  0.00     0.014 A 
ATOM     39  C   UNL A   1      40.262  28.079  27.114  1.00  0.00     0.010 A 
ATOM     40  C   UNL A   1      39.188  27.042  29.038  1.00  0.00     0.010 A 
ATOM     41  C   UNL A   1      39.747  28.164  28.407  1.00  0.00    -0.014 A 
BRANCH  41  42
ATOM     42  C   UNL A   1      39.898  29.369  29.217  1.00  0.00     0.031 A 
ATOM     43  C   UNL A   1      38.911  30.465  29.106  1.00  0.00     0.074 A 
ATOM     44  C   UNL A   1      40.957  29.495  30.047  1.00  0.00     0.049 A 
ATOM     45  N   UNL A   1      39.128  31.678  29.491  1.00  0.00    -0.248 NA
ATOM     46  C   UNL A   1      37.623  30.297  28.438  1.00  0.00     0.031 C 
ATOM     47  C   UNL A   1      41.143  30.492  31.096  1.00  0.00     0.029 A 
ATOM     48  N   UNL A   1      42.209  28.874  29.927  1.00  0.00    -0.354 N 
ATOM     49  C   UNL A   1      37.938  32.360  29.401  1.00  0.00     0.074 A 
ATOM     50  C   UNL A   1      37.095  31.514  28.598  1.00  0.00     0.031 C 
ATOM     51  C   UNL A   1      42.453  30.618  31.346  1.00  0.00     0.029 A 
ATOM     52  C   UNL A   1      43.168  29.803  30.378  1.00  0.00     0.049 A 
ATOM     53  H   UNL A   1      42.384  27.965  29.592  1.00  0.00     0.167 HD
ATOM     54  C   UNL A   1      37.763  33.481  30.157  1.00  0.00     0.037 A 
ATOM     55  C   UNL A   1      44.152  30.266  29.555  1.00  0.00     0.037 A 
ATOM     56  C   UNL A   1      39.059  34.011  30.594  1.00  0.00     0.049 A 
ATOM     57  C   UNL A   1      44.102  31.754  29.291  1.00  0.00     0.074 A 
ATOM     58  C   UNL A   1      39.728  34.042  31.805  1.00  0.00     0.029 A 
ATOM     59  N   UNL A   1      39.992  34.391  29.627  1.00  0.00    -0.354 N 
ATOM     60  N   UNL A   1      43.105  32.523  29.635  1.00  0.00    -0.248 NA
ATOM     61  C   UNL A   1      45.153  32.491  28.594  1.00  0.00     0.031 C 
ATOM     62  C   UNL A   1      41.101  34.308  31.540  1.00  0.00     0.029 A 
ATOM     63  C   UNL A   1      41.257  34.495  30.176  1.00  0.00     0.049 A 
ATOM     64  H   UNL A   1      39.779  34.562  28.681  1.00  0.00     0.167 HD
ATOM     65  C   UNL A   1      43.328  33.798  29.184  1.00  0.00     0.074 A 
ATOM     66  C   UNL A   1      44.643  33.735  28.572  1.00  0.00     0.031 C 
ATOM     67  C   UNL A   1      42.407  34.797  29.329  1.00  0.00     0.037 A 
BRANCH  54  68
ATOM     68  C   UNL A   1      36.413  33.947  30.699  1.00  0.00     0.058 A 
ATOM     69  C   UNL A   1      35.427  34.463  29.826  1.00  0.00     0.135 A 
ATOM     70  C   UNL A   1      36.079  34.067  32.070  1.00  0.00     0.135 A 
ATOM     71  F   UNL A   1      35.594  34.425  28.496  1.00  0.00    -0.206 F 
ATOM     72  C   UNL A   1      34.247  35.079  30.275  1.00  0.00     0.059 A 
ATOM     73  C   UNL A   1      34.894  34.636  32.538  1.00  0.00     0.059 A 
ATOM     74  F   UNL A   1      36.903  33.702  33.055  1.00  0.00    -0.206 F 
ATOM     75  C   UNL A   1      33.994  35.173  31.638  1.00  0.00     0.060 A 
BRANCH  75  76
ATOM     76  S   UNL A   1      32.523  36.021  32.240  1.00  0.00     0.124 S 
ATOM     77  O   UNL A   1      33.077  36.877  33.284  1.00  0.00    -0.237 OA
ATOM     78  O   UNL A   1      32.042  36.702  31.043  1.00  0.00    -0.237 OA
ATOM     79  O   UNL A   1      31.673  34.932  32.715  1.00  0.00    -0.744 OA
ENDBRANCH  75  76
ENDBRANCH  54  68
BRANCH  55  80
ATOM     80  C   UNL A   1      44.720  29.225  28.661  1.00  0.00     0.058 A 
ATOM     81  C   UNL A   1      44.199  29.139  27.357  1.00  0.00     0.135 A 
ATOM     82  C   UNL A   1      45.974  28.645  28.896  1.00  0.00     0.135 A 
ATOM     83  F   UNL A   1      42.990  29.657  27.083  1.00  0.00    -0.206 F 
ATOM     84  C   UNL A   1      44.950  28.643  26.297  1.00  0.00     0.059 A 
ATOM     85  C   UNL A   1      46.748  28.144  27.845  1.00  0.00     0.059 A 
ATOM     86  F   UNL A   1      46.513  28.677  30.123  1.00  0.00    -0.206 F 
ATOM     87  C   UNL A   1      46.252  28.216  26.541  1.00  0.00     0.060 A 
BRANCH  87  88
ATOM     88  S   UNL A   1      47.315  27.881  25.115  1.00  0.00     0.124 S 
ATOM     89  O   UNL A   1      48.606  28.387  25.567  1.00  0.00    -0.237 OA
ATOM     90  O   UNL A   1      47.221  26.424  25.010  1.00  0.00    -0.237 OA
ATOM     91  O   UNL A   1      46.680  28.636  24.043  1.00  0.00    -0.744 OA
ENDBRANCH  87  88
ENDBRANCH  55  80
BRANCH  67  92
ATOM     92  C   UNL A   1      42.532  36.176  28.728  1.00  0.00     0.058 A 
ATOM     93  C   UNL A   1      43.078  37.282  29.404  1.00  0.00     0.135 A 
ATOM     94  C   UNL A   1      42.213  36.383  27.366  1.00  0.00     0.135 A 
ATOM     95  F   UNL A   1      43.505  37.177  30.670  1.00  0.00    -0.206 F 
ATOM     96  C   UNL A   1      43.249  38.524  28.788  1.00  0.00     0.059 A 
ATOM     97  C   UNL A   1      42.422  37.599  26.719  1.00  0.00     0.059 A 
ATOM     98  F   UNL A   1      41.693  35.398  26.618  1.00  0.00    -0.206 F 
ATOM     99  C   UNL A   1      42.921  38.673  27.444  1.00  0.00     0.060 A 
BRANCH  99 100
ATOM    100  S   UNL A   1      43.202  40.246  26.606  1.00  0.00     0.124 S 
ATOM    101  O   UNL A   1      44.379  39.942  25.800  1.00  0.00    -0.237 OA
ATOM    102  O   UNL A   1      41.964  40.450  25.859  1.00  0.00    -0.237 OA
ATOM    103  O   UNL A   1      43.414  41.172  27.714  1.00  0.00    -0.744 OA
ENDBRANCH  99 100
ENDBRANCH  67  92
ENDBRANCH  41  42
ENDBRANCH  33  36
ENDBRANCH  31  32
ENDBRANCH   1  31
TORSDOF 16
ENDMDL
MODEL 3
REMARK VINA RESULT:     -14.2      5.020     11.757
REMARK SMILES CC(=O)Nc1cnc(N2CC=C(c3ccccc3C)CC2)c(C(=O)NCCCNC(=O)c2ccc(-c3c4nc(c(-c5c(F)cc(S(=O)(=O)[O-])cc5F)c5ccc([nH]5)c(-c5c(F)cc(S(=O)(=O)[O-])cc5F)c5nc(c(-c6c(F)cc(S(=O)(=O)[O-])cc6F)c6ccc3[nH]6)C=C5)C=C4)cc2)c1
REMARK SMILES IDX 27 1 26 2 25 3 23 4 24 5 22 7 5 8 6 9 98 10 7 11 8 12 4 13
REMARK SMILES IDX 1 14 2 15 3 16 9 18 10 19 21 20 11 21 20 22 12 23 13 24
REMARK SMILES IDX 14 25 18 26 15 27 17 28 19 29 16 30 28 31 29 32 30 33 31 35
REMARK SMILES IDX 32 36 33 37 97 38 34 39 96 40 35 41 36 42 37 43 90 44 38 45
REMARK SMILES IDX 95 46 89 47 91 48 39 49 94 50 88 51 87 52 40 54 74 55 53 56
REMARK SMILES IDX 73 57 54 58 57 59 72 60 92 61 55 62 56 63 71 65 93 66 58 67
REMARK SMILES IDX 41 68 42 69 51 70 43 71 44 72 50 73 52 74 45 75 46 76 47 77
REMARK SMILES IDX 48 78 49 79 75 80 76 81 85 82 77 83 78 84 84 85 86 86 79 87
REMARK SMILES IDX 80 88 81 89 82 90 83 91 59 92 60 93 69 94 61 95 62 96 68 97
REMARK SMILES IDX 70 98 63 99 64 100 65 101 66 102 67 103
REMARK H PARENT 25 6 4 17 29 34 91 53 57 64
REMARK Flexibility Score: inf
ROOT
ATOM      1  C   UNL A   1      34.213  30.963  27.384  1.00  0.00     0.042 C 
ENDROOT
BRANCH   1   2
ATOM      2  C   UNL A   1      34.150  29.456  27.125  1.00  0.00     0.118 C 
BRANCH   2   3
ATOM      3  N   UNL A   1      32.872  28.859  27.514  1.00  0.00    -0.352 N 
ATOM      4  C   UNL A   1      31.821  28.231  26.879  1.00  0.00     0.255 C 
ATOM      5  O   UNL A   1      31.047  27.670  27.658  1.00  0.00    -0.269 OA
ATOM      6  H   UNL A   1      32.723  28.923  28.484  1.00  0.00     0.163 HD
BRANCH   4   7
ATOM      7  C   UNL A   1      31.581  28.177  25.391  1.00  0.00     0.084 A 
ATOM      8  C   UNL A   1      30.789  29.249  23.332  1.00  0.00     0.060 A 
ATOM      9  C   UNL A   1      31.212  28.123  22.656  1.00  0.00     0.139 A 
ATOM     10  C   UNL A   1      30.966  29.246  24.712  1.00  0.00     0.045 A 
ATOM     11  N   UNL A   1      31.815  27.075  23.246  1.00  0.00    -0.236 NA
ATOM     12  C   UNL A   1      31.999  27.080  24.598  1.00  0.00     0.141 A 
BRANCH   8  13
ATOM     13  N   UNL A   1      30.176  30.277  22.598  1.00  0.00    -0.325 N 
ATOM     14  C   UNL A   1      27.753  29.679  22.756  1.00  0.00     0.114 C 
ATOM     15  C   UNL A   1      28.888  30.495  22.204  1.00  0.00     0.221 C 
ATOM     16  O   UNL A   1      28.673  31.430  21.427  1.00  0.00    -0.275 OA
ATOM     17  H   UNL A   1      30.800  30.983  22.310  1.00  0.00     0.169 HD
ENDBRANCH   8  13
BRANCH  12  18
ATOM     18  N   UNL A   1      32.608  25.930  25.031  1.00  0.00    -0.352 N 
ATOM     19  C   UNL A   1      33.900  26.057  25.679  1.00  0.00     0.146 C 
ATOM     20  C   UNL A   1      31.942  24.636  25.035  1.00  0.00     0.123 C 
ATOM     21  C   UNL A   1      34.706  24.790  25.542  1.00  0.00    -0.002 C 
ATOM     22  C   UNL A   1      32.865  23.589  24.389  1.00  0.00     0.057 C 
ATOM     23  C   UNL A   1      34.265  23.663  24.951  1.00  0.00    -0.041 C 
BRANCH  23  24
ATOM     24  C   UNL A   1      35.124  22.463  24.886  1.00  0.00    -0.020 A 
ATOM     25  C   UNL A   1      36.462  22.635  24.486  1.00  0.00     0.008 A 
ATOM     26  C   UNL A   1      34.668  21.167  25.202  1.00  0.00    -0.044 A 
ATOM     27  C   UNL A   1      37.338  21.551  24.412  1.00  0.00     0.001 A 
ATOM     28  C   UNL A   1      35.568  20.087  25.139  1.00  0.00     0.004 A 
ATOM     29  C   UNL A   1      33.254  20.893  25.635  1.00  0.00     0.045 C 
ATOM     30  C   UNL A   1      36.892  20.278  24.742  1.00  0.00     0.000 A 
ENDBRANCH  23  24
ENDBRANCH  12  18
ENDBRANCH   4   7
ENDBRANCH   2   3
ENDBRANCH   1   2
BRANCH   1  31
ATOM     31  C   UNL A   1      35.626  31.469  27.651  1.00  0.00     0.118 C 
BRANCH  31  32
ATOM     32  N   UNL A   1      35.904  31.703  29.068  1.00  0.00    -0.352 N 
ATOM     33  C   UNL A   1      36.611  30.880  29.925  1.00  0.00     0.251 C 
ATOM     34  H   UNL A   1      35.550  32.537  29.452  1.00  0.00     0.163 HD
ATOM     35  O   UNL A   1      36.692  31.072  31.132  1.00  0.00    -0.269 OA
BRANCH  33  36
ATOM     36  C   UNL A   1      37.396  29.807  29.290  1.00  0.00     0.039 A 
ATOM     37  C   UNL A   1      37.468  28.600  29.992  1.00  0.00     0.014 A 
ATOM     38  C   UNL A   1      38.311  30.132  28.290  1.00  0.00     0.014 A 
ATOM     39  C   UNL A   1      38.592  27.801  29.838  1.00  0.00     0.010 A 
ATOM     40  C   UNL A   1      39.461  29.369  28.190  1.00  0.00     0.010 A 
ATOM     41  C   UNL A   1      39.628  28.250  29.020  1.00  0.00    -0.014 A 
BRANCH  41  42
ATOM     42  C   UNL A   1      40.970  27.680  29.095  1.00  0.00     0.031 A 
ATOM     43  C   UNL A   1      41.188  26.252  28.778  1.00  0.00     0.074 A 
ATOM     44  C   UNL A   1      42.009  28.452  29.486  1.00  0.00     0.049 A 
ATOM     45  N   UNL A   1      42.228  25.578  29.142  1.00  0.00    -0.248 NA
ATOM     46  C   UNL A   1      40.180  25.433  28.109  1.00  0.00     0.031 C 
ATOM     47  C   UNL A   1      43.430  28.136  29.386  1.00  0.00     0.029 A 
ATOM     48  N   UNL A   1      41.960  29.596  30.294  1.00  0.00    -0.354 N 
ATOM     49  C   UNL A   1      42.168  24.356  28.517  1.00  0.00     0.074 A 
ATOM     50  C   UNL A   1      40.817  24.261  28.032  1.00  0.00     0.031 C 
ATOM     51  C   UNL A   1      44.100  28.865  30.288  1.00  0.00     0.029 A 
ATOM     52  C   UNL A   1      43.123  29.582  31.090  1.00  0.00     0.049 A 
ATOM     53  H   UNL A   1      41.251  30.278  30.304  1.00  0.00     0.167 HD
ATOM     54  C   UNL A   1      43.320  23.647  28.347  1.00  0.00     0.037 A 
ATOM     55  C   UNL A   1      43.053  29.529  32.452  1.00  0.00     0.037 A 
ATOM     56  C   UNL A   1      44.355  24.122  29.271  1.00  0.00     0.049 A 
ATOM     57  C   UNL A   1      43.663  28.288  33.064  1.00  0.00     0.074 A 
ATOM     58  C   UNL A   1      45.513  24.864  29.121  1.00  0.00     0.029 A 
ATOM     59  N   UNL A   1      44.112  24.057  30.645  1.00  0.00    -0.354 N 
ATOM     60  N   UNL A   1      44.046  27.247  32.376  1.00  0.00    -0.248 NA
ATOM     61  C   UNL A   1      43.863  28.105  34.499  1.00  0.00     0.031 C 
ATOM     62  C   UNL A   1      45.884  25.360  30.403  1.00  0.00     0.029 A 
ATOM     63  C   UNL A   1      44.986  24.872  31.340  1.00  0.00     0.049 A 
ATOM     64  H   UNL A   1      43.413  23.505  31.064  1.00  0.00     0.167 HD
ATOM     65  C   UNL A   1      44.478  26.264  33.227  1.00  0.00     0.074 A 
ATOM     66  C   UNL A   1      44.381  26.865  34.545  1.00  0.00     0.031 C 
ATOM     67  C   UNL A   1      44.860  25.029  32.785  1.00  0.00     0.037 A 
BRANCH  54  68
ATOM     68  C   UNL A   1      43.577  22.698  27.178  1.00  0.00     0.058 A 
ATOM     69  C   UNL A   1      42.958  21.427  27.134  1.00  0.00     0.135 A 
ATOM     70  C   UNL A   1      44.536  22.900  26.155  1.00  0.00     0.135 A 
ATOM     71  F   UNL A   1      42.027  21.081  28.034  1.00  0.00    -0.206 F 
ATOM     72  C   UNL A   1      43.294  20.439  26.193  1.00  0.00     0.059 A 
ATOM     73  C   UNL A   1      44.856  21.949  25.185  1.00  0.00     0.059 A 
ATOM     74  F   UNL A   1      45.280  24.005  26.061  1.00  0.00    -0.206 F 
ATOM     75  C   UNL A   1      44.257  20.706  25.227  1.00  0.00     0.060 A 
BRANCH  75  76
ATOM     76  S   UNL A   1      44.755  19.431  24.055  1.00  0.00     0.124 S 
ATOM     77  O   UNL A   1      43.834  18.347  24.382  1.00  0.00    -0.237 OA
ATOM     78  O   UNL A   1      44.543  20.085  22.770  1.00  0.00    -0.237 OA
ATOM     79  O   UNL A   1      46.154  19.182  24.398  1.00  0.00    -0.744 OA
ENDBRANCH  75  76
ENDBRANCH  54  68
BRANCH  55  80
ATOM     80  C   UNL A   1      41.962  30.356  33.025  1.00  0.00     0.058 A 
ATOM     81  C   UNL A   1      42.252  31.704  33.304  1.00  0.00     0.135 A 
ATOM     82  C   UNL A   1      40.613  29.998  32.905  1.00  0.00     0.135 A 
ATOM     83  F   UNL A   1      43.528  32.097  33.453  1.00  0.00    -0.206 F 
ATOM     84  C   UNL A   1      41.265  32.684  33.307  1.00  0.00     0.059 A 
ATOM     85  C   UNL A   1      39.603  30.965  32.901  1.00  0.00     0.059 A 
ATOM     86  F   UNL A   1      40.273  28.723  32.660  1.00  0.00    -0.206 F 
ATOM     87  C   UNL A   1      39.952  32.311  33.031  1.00  0.00     0.060 A 
BRANCH  87  88
ATOM     88  S   UNL A   1      38.746  33.625  32.722  1.00  0.00     0.124 S 
ATOM     89  O   UNL A   1      39.406  34.791  33.298  1.00  0.00    -0.237 OA
ATOM     90  O   UNL A   1      38.664  33.615  31.261  1.00  0.00    -0.237 OA
ATOM     91  O   UNL A   1      37.559  33.159  33.426  1.00  0.00    -0.744 OA
ENDBRANCH  87  88
ENDBRANCH  55  80
BRANCH  67  92
ATOM     92  C   UNL A   1      45.204  23.863  33.681  1.00  0.00     0.058 A 
ATOM     93  C   UNL A   1      44.311  22.821  33.992  1.00  0.00     0.135 A 
ATOM     94  C   UNL A   1      46.527  23.700  34.150  1.00  0.00     0.135 A 
ATOM     95  F   UNL A   1      43.056  22.821  33.521  1.00  0.00    -0.206 F 
ATOM     96  C   UNL A   1      44.689  21.718  34.762  1.00  0.00     0.059 A 
ATOM     97  C   UNL A   1      46.939  22.584  34.876  1.00  0.00     0.059 A 
ATOM     98  F   UNL A   1      47.468  24.626  33.908  1.00  0.00    -0.206 F 
ATOM     99  C   UNL A   1      46.007  21.606  35.197  1.00  0.00     0.060 A 
BRANCH  99 100
ATOM    100  S   UNL A   1      46.539  20.155  36.128  1.00  0.00     0.124 S 
ATOM    101  O   UNL A   1      47.960  20.105  35.805  1.00  0.00    -0.237 OA
ATOM    102  O   UNL A   1      46.219  20.512  37.508  1.00  0.00    -0.237 OA
ATOM    103  O   UNL A   1      45.721  19.087  35.561  1.00  0.00    -0.744 OA
ENDBRANCH  99 100
ENDBRANCH  67  92
ENDBRANCH  41  42
ENDBRANCH  33  36
ENDBRANCH  31  32
ENDBRANCH   1  31
TORSDOF 16
ENDMDL
