MODEL 1
REMARK VINA RESULT:     -13.8      0.000      0.000
REMARK SMILES COc1ccc(-c2c(C(=O)NCCCNC(=O)c3ccc(-c4c5nc(c(-c6c(F)cc(S(=O)(=O)[O-])cc6F)c6ccc([nH]6)c(-c6c(F)cc(S(=O)(=O)[O-])cc6F)c6nc(c(-c7c(F)cc(S(=O)(=O)[O-])cc7F)c7ccc4[nH]7)C=C6)C=C5)cc3)nnn2-c2ccc3c(c2)OCCO3)cc1
REMARK SMILES IDX 13 1 12 2 11 3 9 4 10 5 8 7 7 8 86 9 84 10 85 11 6 12 3 13
REMARK SMILES IDX 4 14 98 15 5 16 97 17 2 18 1 19 87 20 88 21 92 22 89 23
REMARK SMILES IDX 91 24 90 25 93 26 96 27 94 28 95 29 14 30 15 31 16 32 17 34
REMARK SMILES IDX 18 35 19 36 83 37 20 38 82 39 21 40 22 41 23 42 76 43 24 44
REMARK SMILES IDX 81 45 75 46 77 47 25 48 80 49 74 50 73 51 26 53 60 54 39 55
REMARK SMILES IDX 59 56 40 57 43 58 58 59 78 60 41 61 42 62 57 64 79 65 44 66
REMARK SMILES IDX 27 67 28 68 37 69 29 70 30 71 36 72 38 73 31 74 32 75 33 76
REMARK SMILES IDX 34 77 35 78 61 79 62 80 71 81 63 82 64 83 70 84 72 85 65 86
REMARK SMILES IDX 66 87 67 88 68 89 69 90 45 91 46 92 55 93 47 94 48 95 54 96
REMARK SMILES IDX 56 97 49 98 50 99 51 100 52 101 53 102
REMARK H PARENT 11 6 15 33 77 52 43 63
REMARK Flexibility Score: inf
ROOT
ATOM      1  C   UNL A   1      36.067  23.173  25.523  1.00  0.00     0.042 C 
ENDROOT
BRANCH   1   2
ATOM      2  C   UNL A   1      35.778  21.899  26.309  1.00  0.00     0.118 C 
BRANCH   2   3
ATOM      3  N   UNL A   1      34.786  22.070  27.329  1.00  0.00    -0.351 N 
ATOM      4  C   UNL A   1      33.472  22.444  27.309  1.00  0.00     0.274 C 
ATOM      5  O   UNL A   1      32.891  22.239  28.381  1.00  0.00    -0.267 OA
ATOM      6  H   UNL A   1      35.122  21.880  28.234  1.00  0.00     0.163 HD
BRANCH   4   7
ATOM      7  C   UNL A   1      32.738  23.049  26.186  1.00  0.00     0.178 A 
ATOM      8  C   UNL A   1      32.411  24.329  25.715  1.00  0.00     0.107 A 
ATOM      9  N   UNL A   1      31.662  24.048  24.564  1.00  0.00    -0.212 N 
ATOM     10  N   UNL A   1      32.165  22.121  25.318  1.00  0.00    -0.124 NA
ATOM     11  N   UNL A   1      31.525  22.741  24.352  1.00  0.00    -0.061 NA
BRANCH   8  12
ATOM     12  C   UNL A   1      32.636  25.720  26.162  1.00  0.00     0.003 A 
ATOM     13  C   UNL A   1      32.985  28.490  26.644  1.00  0.00     0.118 A 
ATOM     14  C   UNL A   1      31.829  27.836  27.075  1.00  0.00     0.047 A 
ATOM     15  C   UNL A   1      34.025  27.735  26.108  1.00  0.00     0.047 A 
ATOM     16  C   UNL A   1      31.670  26.452  26.873  1.00  0.00     0.014 A 
ATOM     17  C   UNL A   1      33.845  26.364  25.856  1.00  0.00     0.014 A 
BRANCH  13  18
ATOM     18  O   UNL A   1      33.000  29.850  26.789  1.00  0.00    -0.497 OA
ATOM     19  C   UNL A   1      34.119  30.383  27.504  1.00  0.00     0.278 C 
ENDBRANCH  13  18
ENDBRANCH   8  12
BRANCH   9  20
ATOM     20  C   UNL A   1      31.363  24.955  23.536  1.00  0.00     0.071 A 
ATOM     21  C   UNL A   1      30.228  25.764  23.675  1.00  0.00     0.032 A 
ATOM     22  C   UNL A   1      32.431  25.292  22.702  1.00  0.00     0.078 A 
ATOM     23  C   UNL A   1      30.244  27.034  23.107  1.00  0.00     0.052 A 
ATOM     24  C   UNL A   1      32.474  26.582  22.222  1.00  0.00     0.163 A 
ATOM     25  C   UNL A   1      31.416  27.463  22.489  1.00  0.00     0.161 A 
ATOM     26  O   UNL A   1      33.665  26.990  21.693  1.00  0.00    -0.486 OA
ATOM     27  O   UNL A   1      31.628  28.819  22.385  1.00  0.00    -0.486 OA
ATOM     28  C   UNL A   1      33.978  28.348  22.035  1.00  0.00     0.271 C 
ATOM     29  C   UNL A   1      32.944  29.025  22.931  1.00  0.00     0.271 C 
ENDBRANCH   9  20
ENDBRANCH   4   7
ENDBRANCH   2   3
ENDBRANCH   1   2
BRANCH   1  30
ATOM     30  C   UNL A   1      37.544  23.497  25.580  1.00  0.00     0.118 C 
BRANCH  30  31
ATOM     31  N   UNL A   1      38.316  22.456  26.279  1.00  0.00    -0.352 N 
ATOM     32  C   UNL A   1      39.556  22.568  26.893  1.00  0.00     0.251 C 
ATOM     33  H   UNL A   1      37.898  21.565  26.317  1.00  0.00     0.163 HD
ATOM     34  O   UNL A   1      40.206  21.593  27.199  1.00  0.00    -0.269 OA
BRANCH  32  35
ATOM     35  C   UNL A   1      40.051  23.934  27.146  1.00  0.00     0.039 A 
ATOM     36  C   UNL A   1      39.405  25.063  26.638  1.00  0.00     0.014 A 
ATOM     37  C   UNL A   1      41.092  24.044  28.055  1.00  0.00     0.014 A 
ATOM     38  C   UNL A   1      39.753  26.309  27.155  1.00  0.00     0.010 A 
ATOM     39  C   UNL A   1      41.238  25.216  28.735  1.00  0.00     0.010 A 
ATOM     40  C   UNL A   1      40.648  26.368  28.233  1.00  0.00    -0.014 A 
BRANCH  40  41
ATOM     41  C   UNL A   1      40.930  27.604  28.948  1.00  0.00     0.031 A 
ATOM     42  C   UNL A   1      42.022  28.422  28.349  1.00  0.00     0.074 A 
ATOM     43  C   UNL A   1      40.080  28.080  29.887  1.00  0.00     0.049 A 
ATOM     44  N   UNL A   1      43.212  28.613  28.813  1.00  0.00    -0.248 NA
ATOM     45  C   UNL A   1      41.837  28.937  26.980  1.00  0.00     0.031 C 
ATOM     46  C   UNL A   1      38.783  27.528  30.312  1.00  0.00     0.029 A 
ATOM     47  N   UNL A   1      40.137  29.241  30.588  1.00  0.00    -0.354 N 
ATOM     48  C   UNL A   1      43.822  29.505  27.933  1.00  0.00     0.074 A 
ATOM     49  C   UNL A   1      43.040  29.457  26.726  1.00  0.00     0.031 C 
ATOM     50  C   UNL A   1      38.082  28.464  30.987  1.00  0.00     0.029 A 
ATOM     51  C   UNL A   1      38.946  29.603  31.215  1.00  0.00     0.049 A 
ATOM     52  H   UNL A   1      40.956  29.783  30.649  1.00  0.00     0.167 HD
ATOM     53  C   UNL A   1      44.735  30.415  28.376  1.00  0.00     0.037 A 
ATOM     54  C   UNL A   1      38.696  30.774  31.856  1.00  0.00     0.037 A 
ATOM     55  C   UNL A   1      45.175  30.081  29.711  1.00  0.00     0.049 A 
ATOM     56  C   UNL A   1      40.022  31.368  32.178  1.00  0.00     0.074 A 
ATOM     57  C   UNL A   1      45.784  28.985  30.291  1.00  0.00     0.029 A 
ATOM     58  N   UNL A   1      44.627  30.797  30.750  1.00  0.00    -0.354 N 
ATOM     59  N   UNL A   1      40.877  30.821  33.001  1.00  0.00    -0.248 NA
ATOM     60  C   UNL A   1      40.595  32.289  31.207  1.00  0.00     0.031 C 
ATOM     61  C   UNL A   1      45.151  28.842  31.561  1.00  0.00     0.029 A 
ATOM     62  C   UNL A   1      44.260  29.906  31.725  1.00  0.00     0.049 A 
ATOM     63  H   UNL A   1      44.518  31.774  30.787  1.00  0.00     0.167 HD
ATOM     64  C   UNL A   1      42.115  30.986  32.394  1.00  0.00     0.074 A 
ATOM     65  C   UNL A   1      41.885  31.959  31.327  1.00  0.00     0.031 C 
ATOM     66  C   UNL A   1      43.134  30.102  32.615  1.00  0.00     0.037 A 
BRANCH  53  67
ATOM     67  C   UNL A   1      44.926  31.810  27.807  1.00  0.00     0.058 A 
ATOM     68  C   UNL A   1      46.167  32.137  27.218  1.00  0.00     0.135 A 
ATOM     69  C   UNL A   1      44.075  32.909  28.064  1.00  0.00     0.135 A 
ATOM     70  F   UNL A   1      47.055  31.177  26.914  1.00  0.00    -0.206 F 
ATOM     71  C   UNL A   1      46.572  33.455  27.001  1.00  0.00     0.059 A 
ATOM     72  C   UNL A   1      44.438  34.226  27.805  1.00  0.00     0.059 A 
ATOM     73  F   UNL A   1      42.888  32.780  28.663  1.00  0.00    -0.206 F 
ATOM     74  C   UNL A   1      45.705  34.494  27.317  1.00  0.00     0.060 A 
BRANCH  74  75
ATOM     75  S   UNL A   1      46.259  36.196  27.137  1.00  0.00     0.124 S 
ATOM     76  O   UNL A   1      45.016  36.930  27.349  1.00  0.00    -0.237 OA
ATOM     77  O   UNL A   1      47.254  36.301  28.199  1.00  0.00    -0.237 OA
ATOM     78  O   UNL A   1      46.793  36.234  25.779  1.00  0.00    -0.744 OA
ENDBRANCH  74  75
ENDBRANCH  53  67
BRANCH  54  79
ATOM     79  C   UNL A   1      37.433  31.563  31.866  1.00  0.00     0.058 A 
ATOM     80  C   UNL A   1      36.781  31.879  33.071  1.00  0.00     0.135 A 
ATOM     81  C   UNL A   1      37.000  32.267  30.724  1.00  0.00     0.135 A 
ATOM     82  F   UNL A   1      37.141  31.270  34.211  1.00  0.00    -0.206 F 
ATOM     83  C   UNL A   1      35.797  32.872  33.151  1.00  0.00     0.059 A 
ATOM     84  C   UNL A   1      36.016  33.255  30.777  1.00  0.00     0.059 A 
ATOM     85  F   UNL A   1      37.588  32.080  29.533  1.00  0.00    -0.206 F 
ATOM     86  C   UNL A   1      35.436  33.572  32.000  1.00  0.00     0.060 A 
BRANCH  86  87
ATOM     87  S   UNL A   1      34.301  34.977  32.129  1.00  0.00     0.124 S 
ATOM     88  O   UNL A   1      35.103  35.947  32.867  1.00  0.00    -0.237 OA
ATOM     89  O   UNL A   1      34.044  35.296  30.730  1.00  0.00    -0.237 OA
ATOM     90  O   UNL A   1      33.162  34.425  32.859  1.00  0.00    -0.744 OA
ENDBRANCH  86  87
ENDBRANCH  54  79
BRANCH  66  91
ATOM     91  C   UNL A   1      42.998  29.116  33.751  1.00  0.00     0.058 A 
ATOM     92  C   UNL A   1      43.217  29.415  35.109  1.00  0.00     0.135 A 
ATOM     93  C   UNL A   1      42.462  27.854  33.456  1.00  0.00     0.135 A 
ATOM     94  F   UNL A   1      43.630  30.632  35.489  1.00  0.00    -0.206 F 
ATOM     95  C   UNL A   1      42.948  28.490  36.121  1.00  0.00     0.059 A 
ATOM     96  C   UNL A   1      42.159  26.927  34.449  1.00  0.00     0.059 A 
ATOM     97  F   UNL A   1      42.172  27.529  32.186  1.00  0.00    -0.206 F 
ATOM     98  C   UNL A   1      42.417  27.247  35.780  1.00  0.00     0.060 A 
BRANCH  98  99
ATOM     99  S   UNL A   1      42.005  26.070  37.088  1.00  0.00     0.124 S 
ATOM    100  O   UNL A   1      42.205  24.788  36.421  1.00  0.00    -0.237 OA
ATOM    101  O   UNL A   1      42.975  26.401  38.129  1.00  0.00    -0.237 OA
ATOM    102  O   UNL A   1      40.619  26.394  37.415  1.00  0.00    -0.744 OA
ENDBRANCH  98  99
ENDBRANCH  66  91
ENDBRANCH  40  41
ENDBRANCH  32  35
ENDBRANCH  30  31
ENDBRANCH   1  30
TORSDOF 16
ENDMDL
MODEL 2
REMARK VINA RESULT:     -13.8      2.929      9.267
REMARK SMILES COc1ccc(-c2c(C(=O)NCCCNC(=O)c3ccc(-c4c5nc(c(-c6c(F)cc(S(=O)(=O)[O-])cc6F)c6ccc([nH]6)c(-c6c(F)cc(S(=O)(=O)[O-])cc6F)c6nc(c(-c7c(F)cc(S(=O)(=O)[O-])cc7F)c7ccc4[nH]7)C=C6)C=C5)cc3)nnn2-c2ccc3c(c2)OCCO3)cc1
REMARK SMILES IDX 13 1 12 2 11 3 9 4 10 5 8 7 7 8 86 9 84 10 85 11 6 12 3 13
REMARK SMILES IDX 4 14 98 15 5 16 97 17 2 18 1 19 87 20 88 21 92 22 89 23
REMARK SMILES IDX 91 24 90 25 93 26 96 27 94 28 95 29 14 30 15 31 16 32 17 34
REMARK SMILES IDX 18 35 19 36 83 37 20 38 82 39 21 40 22 41 23 42 76 43 24 44
REMARK SMILES IDX 81 45 75 46 77 47 25 48 80 49 74 50 73 51 26 53 60 54 39 55
REMARK SMILES IDX 59 56 40 57 43 58 58 59 78 60 41 61 42 62 57 64 79 65 44 66
REMARK SMILES IDX 27 67 28 68 37 69 29 70 30 71 36 72 38 73 31 74 32 75 33 76
REMARK SMILES IDX 34 77 35 78 61 79 62 80 71 81 63 82 64 83 70 84 72 85 65 86
REMARK SMILES IDX 66 87 67 88 68 89 69 90 45 91 46 92 55 93 47 94 48 95 54 96
REMARK SMILES IDX 56 97 49 98 50 99 51 100 52 101 53 102
REMARK H PARENT 11 6 15 33 77 52 43 63
REMARK Flexibility Score: inf
ROOT
ATOM      1  C   UNL A   1      33.643  28.422  26.045  1.00  0.00     0.042 C 
ENDROOT
BRANCH   1   2
ATOM      2  C   UNL A   1      33.281  29.400  24.933  1.00  0.00     0.118 C 
BRANCH   2   3
ATOM      3  N   UNL A   1      33.884  29.079  23.673  1.00  0.00    -0.351 N 
ATOM      4  C   UNL A   1      33.713  28.057  22.782  1.00  0.00     0.274 C 
ATOM      5  O   UNL A   1      34.254  28.267  21.690  1.00  0.00    -0.267 OA
ATOM      6  H   UNL A   1      34.564  29.731  23.390  1.00  0.00     0.163 HD
BRANCH   4   7
ATOM      7  C   UNL A   1      32.990  26.794  23.007  1.00  0.00     0.178 A 
ATOM      8  C   UNL A   1      33.261  25.502  23.477  1.00  0.00     0.107 A 
ATOM      9  N   UNL A   1      32.014  24.870  23.367  1.00  0.00    -0.212 N 
ATOM     10  N   UNL A   1      31.645  26.840  22.646  1.00  0.00    -0.124 NA
ATOM     11  N   UNL A   1      31.078  25.676  22.871  1.00  0.00    -0.061 NA
BRANCH   8  12
ATOM     12  C   UNL A   1      34.452  24.767  23.955  1.00  0.00     0.003 A 
ATOM     13  C   UNL A   1      36.477  23.122  25.059  1.00  0.00     0.118 A 
ATOM     14  C   UNL A   1      36.128  23.009  23.711  1.00  0.00     0.047 A 
ATOM     15  C   UNL A   1      35.922  24.153  25.813  1.00  0.00     0.047 A 
ATOM     16  C   UNL A   1      35.150  23.852  23.150  1.00  0.00     0.014 A 
ATOM     17  C   UNL A   1      34.907  24.958  25.269  1.00  0.00     0.014 A 
BRANCH  13  18
ATOM     18  O   UNL A   1      37.356  22.189  25.536  1.00  0.00    -0.497 OA
ATOM     19  C   UNL A   1      37.441  20.977  24.781  1.00  0.00     0.278 C 
ENDBRANCH  13  18
ENDBRANCH   8  12
BRANCH   9  20
ATOM     20  C   UNL A   1      31.640  23.674  23.997  1.00  0.00     0.071 A 
ATOM     21  C   UNL A   1      31.898  22.467  23.334  1.00  0.00     0.032 A 
ATOM     22  C   UNL A   1      31.466  23.751  25.380  1.00  0.00     0.078 A 
ATOM     23  C   UNL A   1      32.173  21.336  24.095  1.00  0.00     0.052 A 
ATOM     24  C   UNL A   1      31.828  22.650  26.124  1.00  0.00     0.163 A 
ATOM     25  C   UNL A   1      32.247  21.478  25.479  1.00  0.00     0.161 A 
ATOM     26  O   UNL A   1      31.966  22.849  27.469  1.00  0.00    -0.486 OA
ATOM     27  O   UNL A   1      32.987  20.551  26.181  1.00  0.00    -0.486 OA
ATOM     28  C   UNL A   1      33.082  22.130  28.016  1.00  0.00     0.271 C 
ATOM     29  C   UNL A   1      33.884  21.337  26.987  1.00  0.00     0.271 C 
ENDBRANCH   9  20
ENDBRANCH   4   7
ENDBRANCH   2   3
ENDBRANCH   1   2
BRANCH   1  30
ATOM     30  C   UNL A   1      33.932  29.173  27.326  1.00  0.00     0.118 C 
BRANCH  30  31
ATOM     31  N   UNL A   1      34.180  30.605  27.088  1.00  0.00    -0.352 N 
ATOM     32  C   UNL A   1      35.183  31.406  27.618  1.00  0.00     0.251 C 
ATOM     33  H   UNL A   1      33.555  31.051  26.473  1.00  0.00     0.163 HD
ATOM     34  O   UNL A   1      35.130  32.615  27.561  1.00  0.00    -0.269 OA
BRANCH  32  35
ATOM     35  C   UNL A   1      36.314  30.714  28.263  1.00  0.00     0.039 A 
ATOM     36  C   UNL A   1      36.466  29.327  28.207  1.00  0.00     0.014 A 
ATOM     37  C   UNL A   1      37.308  31.529  28.783  1.00  0.00     0.014 A 
ATOM     38  C   UNL A   1      37.693  28.783  28.580  1.00  0.00     0.010 A 
ATOM     39  C   UNL A   1      38.569  31.026  28.892  1.00  0.00     0.010 A 
ATOM     40  C   UNL A   1      38.752  29.650  28.886  1.00  0.00    -0.014 A 
BRANCH  40  41
ATOM     41  C   UNL A   1      40.110  29.176  29.111  1.00  0.00     0.031 A 
ATOM     42  C   UNL A   1      40.473  29.021  30.548  1.00  0.00     0.074 A 
ATOM     43  C   UNL A   1      40.848  28.659  28.102  1.00  0.00     0.049 A 
ATOM     44  N   UNL A   1      41.279  29.753  31.243  1.00  0.00    -0.248 NA
ATOM     45  C   UNL A   1      39.711  28.054  31.359  1.00  0.00     0.031 C 
ATOM     46  C   UNL A   1      40.455  28.440  26.700  1.00  0.00     0.029 A 
ATOM     47  N   UNL A   1      42.085  28.102  28.141  1.00  0.00    -0.354 N 
ATOM     48  C   UNL A   1      41.337  29.158  32.502  1.00  0.00     0.074 A 
ATOM     49  C   UNL A   1      40.184  28.302  32.583  1.00  0.00     0.031 C 
ATOM     50  C   UNL A   1      41.318  27.586  26.108  1.00  0.00     0.029 A 
ATOM     51  C   UNL A   1      42.424  27.355  27.013  1.00  0.00     0.049 A 
ATOM     52  H   UNL A   1      42.694  28.217  28.905  1.00  0.00     0.167 HD
ATOM     53  C   UNL A   1      42.480  29.198  33.245  1.00  0.00     0.037 A 
ATOM     54  C   UNL A   1      43.533  26.587  26.859  1.00  0.00     0.037 A 
ATOM     55  C   UNL A   1      43.400  30.173  32.706  1.00  0.00     0.049 A 
ATOM     56  C   UNL A   1      44.514  27.057  27.874  1.00  0.00     0.074 A 
ATOM     57  C   UNL A   1      43.348  31.532  32.464  1.00  0.00     0.029 A 
ATOM     58  N   UNL A   1      44.444  29.697  31.948  1.00  0.00    -0.354 N 
ATOM     59  N   UNL A   1      45.046  28.252  27.864  1.00  0.00    -0.248 NA
ATOM     60  C   UNL A   1      44.513  26.389  29.166  1.00  0.00     0.031 C 
ATOM     61  C   UNL A   1      44.023  31.708  31.219  1.00  0.00     0.029 A 
ATOM     62  C   UNL A   1      44.527  30.469  30.818  1.00  0.00     0.049 A 
ATOM     63  H   UNL A   1      45.029  28.939  32.176  1.00  0.00     0.167 HD
ATOM     64  C   UNL A   1      45.053  28.652  29.194  1.00  0.00     0.074 A 
ATOM     65  C   UNL A   1      44.778  27.434  29.955  1.00  0.00     0.031 C 
ATOM     66  C   UNL A   1      44.981  29.974  29.534  1.00  0.00     0.037 A 
BRANCH  53  67
ATOM     67  C   UNL A   1      42.952  28.101  34.183  1.00  0.00     0.058 A 
ATOM     68  C   UNL A   1      43.169  28.420  35.542  1.00  0.00     0.135 A 
ATOM     69  C   UNL A   1      43.468  26.853  33.769  1.00  0.00     0.135 A 
ATOM     70  F   UNL A   1      42.713  29.573  36.057  1.00  0.00    -0.206 F 
ATOM     71  C   UNL A   1      43.929  27.613  36.390  1.00  0.00     0.059 A 
ATOM     72  C   UNL A   1      44.182  26.010  34.614  1.00  0.00     0.059 A 
ATOM     73  F   UNL A   1      43.393  26.421  32.507  1.00  0.00    -0.206 F 
ATOM     74  C   UNL A   1      44.447  26.417  35.909  1.00  0.00     0.060 A 
BRANCH  74  75
ATOM     75  S   UNL A   1      45.514  25.424  36.965  1.00  0.00     0.124 S 
ATOM     76  O   UNL A   1      46.249  24.640  35.979  1.00  0.00    -0.237 OA
ATOM     77  O   UNL A   1      46.278  26.449  37.667  1.00  0.00    -0.237 OA
ATOM     78  O   UNL A   1      44.568  24.679  37.790  1.00  0.00    -0.744 OA
ENDBRANCH  74  75
ENDBRANCH  53  67
BRANCH  54  79
ATOM     79  C   UNL A   1      43.649  25.271  26.172  1.00  0.00     0.058 A 
ATOM     80  C   UNL A   1      44.679  25.019  25.249  1.00  0.00     0.135 A 
ATOM     81  C   UNL A   1      42.931  24.144  26.622  1.00  0.00     0.135 A 
ATOM     82  F   UNL A   1      45.425  26.031  24.781  1.00  0.00    -0.206 F 
ATOM     83  C   UNL A   1      45.014  23.723  24.837  1.00  0.00     0.059 A 
ATOM     84  C   UNL A   1      43.241  22.843  26.220  1.00  0.00     0.059 A 
ATOM     85  F   UNL A   1      41.961  24.264  27.541  1.00  0.00    -0.206 F 
ATOM     86  C   UNL A   1      44.303  22.637  25.347  1.00  0.00     0.060 A 
BRANCH  86  87
ATOM     87  S   UNL A   1      44.847  20.954  24.962  1.00  0.00     0.124 S 
ATOM     88  O   UNL A   1      46.220  20.961  25.455  1.00  0.00    -0.237 OA
ATOM     89  O   UNL A   1      43.901  20.143  25.721  1.00  0.00    -0.237 OA
ATOM     90  O   UNL A   1      44.705  20.876  23.511  1.00  0.00    -0.744 OA
ENDBRANCH  86  87
ENDBRANCH  54  79
BRANCH  66  91
ATOM     91  C   UNL A   1      45.193  31.008  28.454  1.00  0.00     0.058 A 
ATOM     92  C   UNL A   1      44.198  31.469  27.572  1.00  0.00     0.135 A 
ATOM     93  C   UNL A   1      46.426  31.676  28.427  1.00  0.00     0.135 A 
ATOM     94  F   UNL A   1      42.960  30.957  27.601  1.00  0.00    -0.206 F 
ATOM     95  C   UNL A   1      44.431  32.521  26.682  1.00  0.00     0.059 A 
ATOM     96  C   UNL A   1      46.671  32.745  27.570  1.00  0.00     0.059 A 
ATOM     97  F   UNL A   1      47.397  31.327  29.286  1.00  0.00    -0.206 F 
ATOM     98  C   UNL A   1      45.672  33.154  26.690  1.00  0.00     0.060 A 
BRANCH  98  99
ATOM     99  S   UNL A   1      45.958  34.557  25.588  1.00  0.00     0.124 S 
ATOM    100  O   UNL A   1      47.387  34.447  25.315  1.00  0.00    -0.237 OA
ATOM    101  O   UNL A   1      45.074  34.262  24.463  1.00  0.00    -0.237 OA
ATOM    102  O   UNL A   1      45.563  35.710  26.393  1.00  0.00    -0.744 OA
ENDBRANCH  98  99
ENDBRANCH  66  91
ENDBRANCH  40  41
ENDBRANCH  32  35
ENDBRANCH  30  31
ENDBRANCH   1  30
TORSDOF 16
ENDMDL
MODEL 3
REMARK VINA RESULT:     -12.9      3.077      9.233
REMARK SMILES COc1ccc(-c2c(C(=O)NCCCNC(=O)c3ccc(-c4c5nc(c(-c6c(F)cc(S(=O)(=O)[O-])cc6F)c6ccc([nH]6)c(-c6c(F)cc(S(=O)(=O)[O-])cc6F)c6nc(c(-c7c(F)cc(S(=O)(=O)[O-])cc7F)c7ccc4[nH]7)C=C6)C=C5)cc3)nnn2-c2ccc3c(c2)OCCO3)cc1
REMARK SMILES IDX 13 1 12 2 11 3 9 4 10 5 8 7 7 8 86 9 84 10 85 11 6 12 3 13
REMARK SMILES IDX 4 14 98 15 5 16 97 17 2 18 1 19 87 20 88 21 92 22 89 23
REMARK SMILES IDX 91 24 90 25 93 26 96 27 94 28 95 29 14 30 15 31 16 32 17 34
REMARK SMILES IDX 18 35 19 36 83 37 20 38 82 39 21 40 22 41 23 42 76 43 24 44
REMARK SMILES IDX 81 45 75 46 77 47 25 48 80 49 74 50 73 51 26 53 60 54 39 55
REMARK SMILES IDX 59 56 40 57 43 58 58 59 78 60 41 61 42 62 57 64 79 65 44 66
REMARK SMILES IDX 27 67 28 68 37 69 29 70 30 71 36 72 38 73 31 74 32 75 33 76
REMARK SMILES IDX 34 77 35 78 61 79 62 80 71 81 63 82 64 83 70 84 72 85 65 86
REMARK SMILES IDX 66 87 67 88 68 89 69 90 45 91 46 92 55 93 47 94 48 95 54 96
REMARK SMILES IDX 56 97 49 98 50 99 51 100 52 101 53 102
REMARK H PARENT 11 6 15 33 77 52 43 63
REMARK Flexibility Score: inf
ROOT
ATOM      1  C   UNL A   1      32.402  29.439  26.743  1.00  0.00     0.042 C 
ENDROOT
BRANCH   1   2
ATOM      2  C   UNL A   1      31.931  30.623  25.906  1.00  0.00     0.118 C 
BRANCH   2   3
ATOM      3  N   UNL A   1      31.034  30.256  24.850  1.00  0.00    -0.351 N 
ATOM      4  C   UNL A   1      30.966  29.184  24.005  1.00  0.00     0.274 C 
ATOM      5  O   UNL A   1      29.896  29.118  23.389  1.00  0.00    -0.267 OA
ATOM      6  H   UNL A   1      30.317  30.914  24.702  1.00  0.00     0.163 HD
BRANCH   4   7
ATOM      7  C   UNL A   1      32.006  28.170  23.772  1.00  0.00     0.178 A 
ATOM      8  C   UNL A   1      32.334  26.882  24.219  1.00  0.00     0.107 A 
ATOM      9  N   UNL A   1      33.508  26.601  23.506  1.00  0.00    -0.212 N 
ATOM     10  N   UNL A   1      32.987  28.563  22.862  1.00  0.00    -0.124 NA
ATOM     11  N   UNL A   1      33.877  27.608  22.716  1.00  0.00    -0.061 NA
BRANCH   8  12
ATOM     12  C   UNL A   1      31.781  25.919  25.194  1.00  0.00     0.003 A 
ATOM     13  C   UNL A   1      30.745  23.805  26.771  1.00  0.00     0.118 A 
ATOM     14  C   UNL A   1      32.061  24.241  26.946  1.00  0.00     0.047 A 
ATOM     15  C   UNL A   1      29.907  24.519  25.918  1.00  0.00     0.047 A 
ATOM     16  C   UNL A   1      32.566  25.317  26.192  1.00  0.00     0.014 A 
ATOM     17  C   UNL A   1      30.426  25.558  25.126  1.00  0.00     0.014 A 
BRANCH  13  18
ATOM     18  O   UNL A   1      30.380  22.686  27.469  1.00  0.00    -0.497 OA
ATOM     19  C   UNL A   1      28.999  22.325  27.379  1.00  0.00     0.278 C 
ENDBRANCH  13  18
ENDBRANCH   8  12
BRANCH   9  20
ATOM     20  C   UNL A   1      34.077  25.332  23.327  1.00  0.00     0.071 A 
ATOM     21  C   UNL A   1      34.980  24.869  24.294  1.00  0.00     0.032 A 
ATOM     22  C   UNL A   1      33.379  24.473  22.477  1.00  0.00     0.078 A 
ATOM     23  C   UNL A   1      35.047  23.501  24.540  1.00  0.00     0.052 A 
ATOM     24  C   UNL A   1      33.385  23.132  22.789  1.00  0.00     0.163 A 
ATOM     25  C   UNL A   1      34.160  22.668  23.862  1.00  0.00     0.161 A 
ATOM     26  O   UNL A   1      32.449  22.361  22.160  1.00  0.00    -0.486 OA
ATOM     27  O   UNL A   1      33.861  21.450  24.431  1.00  0.00    -0.486 OA
ATOM     28  C   UNL A   1      31.887  21.367  23.029  1.00  0.00     0.271 C 
ATOM     29  C   UNL A   1      32.422  21.406  24.459  1.00  0.00     0.271 C 
ENDBRANCH   9  20
ENDBRANCH   4   7
ENDBRANCH   2   3
ENDBRANCH   1   2
BRANCH   1  30
ATOM     30  C   UNL A   1      33.748  29.740  27.362  1.00  0.00     0.118 C 
BRANCH  30  31
ATOM     31  N   UNL A   1      34.149  31.144  27.167  1.00  0.00    -0.352 N 
ATOM     32  C   UNL A   1      35.254  31.805  27.688  1.00  0.00     0.251 C 
ATOM     33  H   UNL A   1      33.559  31.682  26.593  1.00  0.00     0.163 HD
ATOM     34  O   UNL A   1      35.337  33.013  27.677  1.00  0.00    -0.269 OA
BRANCH  32  35
ATOM     35  C   UNL A   1      36.320  30.965  28.265  1.00  0.00     0.039 A 
ATOM     36  C   UNL A   1      36.520  29.642  27.866  1.00  0.00     0.014 A 
ATOM     37  C   UNL A   1      37.218  31.611  29.100  1.00  0.00     0.014 A 
ATOM     38  C   UNL A   1      37.710  29.016  28.232  1.00  0.00     0.010 A 
ATOM     39  C   UNL A   1      38.472  31.094  29.229  1.00  0.00     0.010 A 
ATOM     40  C   UNL A   1      38.697  29.769  28.885  1.00  0.00    -0.014 A 
BRANCH  40  41
ATOM     41  C   UNL A   1      40.031  29.249  29.145  1.00  0.00     0.031 A 
ATOM     42  C   UNL A   1      40.345  29.063  30.589  1.00  0.00     0.074 A 
ATOM     43  C   UNL A   1      40.784  28.723  28.151  1.00  0.00     0.049 A 
ATOM     44  N   UNL A   1      41.151  29.760  31.319  1.00  0.00    -0.248 NA
ATOM     45  C   UNL A   1      39.528  28.110  31.363  1.00  0.00     0.031 C 
ATOM     46  C   UNL A   1      40.429  28.534  26.735  1.00  0.00     0.029 A 
ATOM     47  N   UNL A   1      42.001  28.127  28.220  1.00  0.00    -0.354 N 
ATOM     48  C   UNL A   1      41.151  29.147  32.571  1.00  0.00     0.074 A 
ATOM     49  C   UNL A   1      39.970  28.327  32.605  1.00  0.00     0.031 C 
ATOM     50  C   UNL A   1      41.283  27.662  26.157  1.00  0.00     0.029 A 
ATOM     51  C   UNL A   1      42.352  27.384  27.093  1.00  0.00     0.049 A 
ATOM     52  H   UNL A   1      42.590  28.212  29.004  1.00  0.00     0.167 HD
ATOM     53  C   UNL A   1      42.271  29.141  33.349  1.00  0.00     0.037 A 
ATOM     54  C   UNL A   1      43.441  26.584  26.961  1.00  0.00     0.037 A 
ATOM     55  C   UNL A   1      43.238  30.093  32.853  1.00  0.00     0.049 A 
ATOM     56  C   UNL A   1      44.405  27.009  28.013  1.00  0.00     0.074 A 
ATOM     57  C   UNL A   1      43.236  31.456  32.628  1.00  0.00     0.029 A 
ATOM     58  N   UNL A   1      44.290  29.595  32.120  1.00  0.00    -0.354 N 
ATOM     59  N   UNL A   1      44.973  28.186  28.036  1.00  0.00    -0.248 NA
ATOM     60  C   UNL A   1      44.342  26.324  29.295  1.00  0.00     0.031 C 
ATOM     61  C   UNL A   1      43.954  31.628  31.408  1.00  0.00     0.029 A 
ATOM     62  C   UNL A   1      44.432  30.380  31.004  1.00  0.00     0.049 A 
ATOM     63  H   UNL A   1      44.843  28.816  32.355  1.00  0.00     0.167 HD
ATOM     64  C   UNL A   1      44.951  28.569  29.371  1.00  0.00     0.074 A 
ATOM     65  C   UNL A   1      44.614  27.349  30.107  1.00  0.00     0.031 C 
ATOM     66  C   UNL A   1      44.910  29.887  29.728  1.00  0.00     0.037 A 
BRANCH  53  67
ATOM     67  C   UNL A   1      42.679  28.017  34.286  1.00  0.00     0.058 A 
ATOM     68  C   UNL A   1      42.763  28.286  35.670  1.00  0.00     0.135 A 
ATOM     69  C   UNL A   1      43.261  26.797  33.875  1.00  0.00     0.135 A 
ATOM     70  F   UNL A   1      42.234  29.409  36.183  1.00  0.00    -0.206 F 
ATOM     71  C   UNL A   1      43.459  27.462  36.554  1.00  0.00     0.059 A 
ATOM     72  C   UNL A   1      43.912  25.935  34.750  1.00  0.00     0.059 A 
ATOM     73  F   UNL A   1      43.312  26.414  32.596  1.00  0.00    -0.206 F 
ATOM     74  C   UNL A   1      44.047  26.296  36.079  1.00  0.00     0.060 A 
BRANCH  74  75
ATOM     75  S   UNL A   1      45.034  25.283  37.193  1.00  0.00     0.124 S 
ATOM     76  O   UNL A   1      44.906  23.967  36.576  1.00  0.00    -0.237 OA
ATOM     77  O   UNL A   1      46.345  25.914  37.089  1.00  0.00    -0.237 OA
ATOM     78  O   UNL A   1      44.364  25.449  38.479  1.00  0.00    -0.744 OA
ENDBRANCH  74  75
ENDBRANCH  53  67
BRANCH  54  79
ATOM     79  C   UNL A   1      43.537  25.274  26.260  1.00  0.00     0.058 A 
ATOM     80  C   UNL A   1      44.521  25.041  25.282  1.00  0.00     0.135 A 
ATOM     81  C   UNL A   1      42.857  24.135  26.738  1.00  0.00     0.135 A 
ATOM     82  F   UNL A   1      45.229  26.066  24.784  1.00  0.00    -0.206 F 
ATOM     83  C   UNL A   1      44.850  23.752  24.844  1.00  0.00     0.059 A 
ATOM     84  C   UNL A   1      43.162  22.841  26.311  1.00  0.00     0.059 A 
ATOM     85  F   UNL A   1      41.935  24.236  27.707  1.00  0.00    -0.206 F 
ATOM     86  C   UNL A   1      44.180  22.654  25.382  1.00  0.00     0.060 A 
BRANCH  86  87
ATOM     87  S   UNL A   1      44.723  20.981  24.957  1.00  0.00     0.124 S 
ATOM     88  O   UNL A   1      44.577  20.976  23.505  1.00  0.00    -0.237 OA
ATOM     89  O   UNL A   1      46.092  20.963  25.460  1.00  0.00    -0.237 OA
ATOM     90  O   UNL A   1      43.786  20.126  25.681  1.00  0.00    -0.744 OA
ENDBRANCH  86  87
ENDBRANCH  54  79
BRANCH  66  91
ATOM     91  C   UNL A   1      45.187  30.928  28.670  1.00  0.00     0.058 A 
ATOM     92  C   UNL A   1      44.217  31.497  27.824  1.00  0.00     0.135 A 
ATOM     93  C   UNL A   1      46.472  31.489  28.632  1.00  0.00     0.135 A 
ATOM     94  F   UNL A   1      42.941  31.092  27.868  1.00  0.00    -0.206 F 
ATOM     95  C   UNL A   1      44.521  32.549  26.955  1.00  0.00     0.059 A 
ATOM     96  C   UNL A   1      46.790  32.557  27.796  1.00  0.00     0.059 A 
ATOM     97  F   UNL A   1      47.427  31.035  29.458  1.00  0.00    -0.206 F 
ATOM     98  C   UNL A   1      45.812  33.073  26.950  1.00  0.00     0.060 A 
BRANCH  98  99
ATOM     99  S   UNL A   1      46.195  34.476  25.878  1.00  0.00     0.124 S 
ATOM    100  O   UNL A   1      47.606  34.258  25.579  1.00  0.00    -0.237 OA
ATOM    101  O   UNL A   1      45.273  34.283  24.762  1.00  0.00    -0.237 OA
ATOM    102  O   UNL A   1      45.907  35.636  26.717  1.00  0.00    -0.744 OA
ENDBRANCH  98  99
ENDBRANCH  66  91
ENDBRANCH  40  41
ENDBRANCH  32  35
ENDBRANCH  30  31
ENDBRANCH   1  30
TORSDOF 16
ENDMDL
