MODEL 1
REMARK VINA RESULT:     -12.2      0.000      0.000
REMARK SMILES O=C(NCCCNC(=O)[C@@H]1CCC(=O)N1C(=O)/C=C/c1ccccc1)c1ccc(-c2c3nc(c(-c4c(F)cc(S(=O)(=O)[O-])cc4F)c4ccc([nH]4)c(-c4c(F)cc(S(=O)(=O)[O-])cc4F)c4nc(c(-c5c(F)cc(S(=O)(=O)[O-])cc5F)c5ccc2[nH]5)C=C4)C=C3)cc1
REMARK SMILES IDX 5 1 4 2 3 3 1 4 2 5 26 7 27 8 91 9 28 10 90 11 29 12 30 13
REMARK SMILES IDX 31 14 84 15 32 16 89 17 83 18 85 19 33 20 88 21 82 22 81 23
REMARK SMILES IDX 34 25 68 26 47 27 67 28 48 29 51 30 66 31 86 32 49 33 50 34
REMARK SMILES IDX 65 36 87 37 52 38 35 39 36 40 45 41 37 42 38 43 44 44 46 45
REMARK SMILES IDX 39 46 40 47 41 48 42 49 43 50 69 51 70 52 79 53 71 54 72 55
REMARK SMILES IDX 78 56 80 57 73 58 74 59 75 60 76 61 77 62 53 63 54 64 63 65
REMARK SMILES IDX 55 66 56 67 62 68 64 69 57 70 58 71 59 72 60 73 61 74 6 75
REMARK SMILES IDX 7 76 8 77 9 79 10 80 11 81 15 82 12 83 13 84 14 85 16 86
REMARK SMILES IDX 17 87 18 88 19 89 20 90 21 91 25 92 22 93 24 94 23 95
REMARK H PARENT 3 6 85 24 51 35 7 78
REMARK Flexibility Score: inf
ROOT
ATOM      1  C   UNL A   1      32.059  27.895  27.374  1.00  0.00     0.042 C 
ENDROOT
BRANCH   1   2
ATOM      2  C   UNL A   1      33.467  28.479  27.267  1.00  0.00     0.118 C 
BRANCH   2   3
ATOM      3  N   UNL A   1      33.471  29.909  27.515  1.00  0.00    -0.352 N 
ATOM      4  O   UNL A   1      34.103  31.817  28.506  1.00  0.00    -0.269 OA
ATOM      5  C   UNL A   1      34.416  30.689  28.131  1.00  0.00     0.251 C 
ATOM      6  H   UNL A   1      32.675  30.393  27.194  1.00  0.00     0.163 HD
BRANCH   5   7
ATOM      7  C   UNL A   1      35.797  30.194  28.345  1.00  0.00     0.039 A 
ATOM      8  C   UNL A   1      36.753  30.235  27.325  1.00  0.00     0.014 A 
ATOM      9  C   UNL A   1      36.166  29.777  29.628  1.00  0.00     0.014 A 
ATOM     10  C   UNL A   1      38.053  29.789  27.566  1.00  0.00     0.010 A 
ATOM     11  C   UNL A   1      37.481  29.382  29.882  1.00  0.00     0.010 A 
ATOM     12  C   UNL A   1      38.434  29.377  28.851  1.00  0.00    -0.014 A 
BRANCH  12  13
ATOM     13  C   UNL A   1      39.844  29.012  29.142  1.00  0.00     0.031 A 
ATOM     14  C   UNL A   1      40.797  30.026  29.705  1.00  0.00     0.074 A 
ATOM     15  C   UNL A   1      40.274  27.771  28.844  1.00  0.00     0.049 A 
ATOM     16  N   UNL A   1      42.079  29.913  29.933  1.00  0.00    -0.248 NA
ATOM     17  C   UNL A   1      40.236  31.341  30.044  1.00  0.00     0.031 C 
ATOM     18  C   UNL A   1      39.444  26.706  28.276  1.00  0.00     0.029 A 
ATOM     19  N   UNL A   1      41.516  27.200  28.958  1.00  0.00    -0.354 N 
ATOM     20  C   UNL A   1      42.488  31.148  30.419  1.00  0.00     0.074 A 
ATOM     21  C   UNL A   1      41.317  32.001  30.438  1.00  0.00     0.031 C 
ATOM     22  C   UNL A   1      40.199  25.614  28.090  1.00  0.00     0.029 A 
ATOM     23  C   UNL A   1      41.574  25.913  28.480  1.00  0.00     0.049 A 
ATOM     24  H   UNL A   1      42.291  27.667  29.344  1.00  0.00     0.167 HD
ATOM     25  C   UNL A   1      43.726  31.534  30.814  1.00  0.00     0.037 A 
ATOM     26  C   UNL A   1      42.617  25.074  28.342  1.00  0.00     0.037 A 
ATOM     27  C   UNL A   1      44.884  30.677  30.799  1.00  0.00     0.049 A 
ATOM     28  C   UNL A   1      43.982  25.520  28.780  1.00  0.00     0.074 A 
ATOM     29  C   UNL A   1      46.171  30.961  31.218  1.00  0.00     0.029 A 
ATOM     30  N   UNL A   1      44.894  29.369  30.333  1.00  0.00    -0.354 N 
ATOM     31  N   UNL A   1      44.344  26.678  29.277  1.00  0.00    -0.248 NA
ATOM     32  C   UNL A   1      45.078  24.552  28.642  1.00  0.00     0.031 C 
ATOM     33  C   UNL A   1      46.968  29.837  30.973  1.00  0.00     0.029 A 
ATOM     34  C   UNL A   1      46.170  28.840  30.436  1.00  0.00     0.049 A 
ATOM     35  H   UNL A   1      44.110  28.889  29.980  1.00  0.00     0.167 HD
ATOM     36  C   UNL A   1      45.706  26.575  29.527  1.00  0.00     0.074 A 
ATOM     37  C   UNL A   1      46.105  25.239  29.128  1.00  0.00     0.031 C 
ATOM     38  C   UNL A   1      46.548  27.504  30.043  1.00  0.00     0.037 A 
BRANCH  25  39
ATOM     39  C   UNL A   1      43.891  32.958  31.264  1.00  0.00     0.058 A 
ATOM     40  C   UNL A   1      43.689  33.339  32.599  1.00  0.00     0.135 A 
ATOM     41  C   UNL A   1      44.244  33.958  30.343  1.00  0.00     0.135 A 
ATOM     42  F   UNL A   1      43.337  32.424  33.518  1.00  0.00    -0.206 F 
ATOM     43  C   UNL A   1      43.787  34.669  32.999  1.00  0.00     0.059 A 
ATOM     44  C   UNL A   1      44.369  35.290  30.725  1.00  0.00     0.059 A 
ATOM     45  F   UNL A   1      44.452  33.647  29.054  1.00  0.00    -0.206 F 
ATOM     46  C   UNL A   1      44.112  35.640  32.050  1.00  0.00     0.060 A 
BRANCH  46  47
ATOM     47  S   UNL A   1      44.181  37.369  32.564  1.00  0.00     0.124 S 
ATOM     48  O   UNL A   1      45.518  37.442  33.147  1.00  0.00    -0.237 OA
ATOM     49  O   UNL A   1      44.000  38.083  31.304  1.00  0.00    -0.237 OA
ATOM     50  O   UNL A   1      43.076  37.485  33.510  1.00  0.00    -0.744 OA
ENDBRANCH  46  47
ENDBRANCH  25  39
BRANCH  26  51
ATOM     51  C   UNL A   1      42.385  23.730  27.756  1.00  0.00     0.058 A 
ATOM     52  C   UNL A   1      42.371  23.541  26.368  1.00  0.00     0.135 A 
ATOM     53  C   UNL A   1      42.274  22.595  28.576  1.00  0.00     0.135 A 
ATOM     54  F   UNL A   1      42.469  24.596  25.546  1.00  0.00    -0.206 F 
ATOM     55  C   UNL A   1      42.273  22.271  25.809  1.00  0.00     0.059 A 
ATOM     56  C   UNL A   1      42.194  21.314  28.041  1.00  0.00     0.059 A 
ATOM     57  F   UNL A   1      42.300  22.727  29.911  1.00  0.00    -0.206 F 
ATOM     58  C   UNL A   1      42.197  21.161  26.654  1.00  0.00     0.060 A 
BRANCH  58  59
ATOM     59  S   UNL A   1      42.188  19.510  25.923  1.00  0.00     0.124 S 
ATOM     60  O   UNL A   1      40.796  19.381  25.506  1.00  0.00    -0.237 OA
ATOM     61  O   UNL A   1      43.167  19.642  24.849  1.00  0.00    -0.237 OA
ATOM     62  O   UNL A   1      42.598  18.651  27.031  1.00  0.00    -0.744 OA
ENDBRANCH  58  59
ENDBRANCH  26  51
BRANCH  38  63
ATOM     63  C   UNL A   1      47.984  27.111  30.236  1.00  0.00     0.058 A 
ATOM     64  C   UNL A   1      48.944  27.324  29.236  1.00  0.00     0.135 A 
ATOM     65  C   UNL A   1      48.418  26.602  31.470  1.00  0.00     0.135 A 
ATOM     66  F   UNL A   1      48.575  27.800  28.037  1.00  0.00    -0.206 F 
ATOM     67  C   UNL A   1      50.290  27.049  29.454  1.00  0.00     0.059 A 
ATOM     68  C   UNL A   1      49.761  26.336  31.716  1.00  0.00     0.059 A 
ATOM     69  F   UNL A   1      47.537  26.385  32.459  1.00  0.00    -0.206 F 
ATOM     70  C   UNL A   1      50.690  26.562  30.701  1.00  0.00     0.060 A 
BRANCH  70  71
ATOM     71  S   UNL A   1      52.449  26.282  31.001  1.00  0.00     0.124 S 
ATOM     72  O   UNL A   1      52.990  26.338  29.648  1.00  0.00    -0.237 OA
ATOM     73  O   UNL A   1      52.802  27.399  31.872  1.00  0.00    -0.237 OA
ATOM     74  O   UNL A   1      52.478  24.968  31.637  1.00  0.00    -0.744 OA
ENDBRANCH  70  71
ENDBRANCH  38  63
ENDBRANCH  12  13
ENDBRANCH   5   7
ENDBRANCH   2   3
ENDBRANCH   1   2
BRANCH   1  75
ATOM     75  C   UNL A   1      31.749  26.833  26.314  1.00  0.00     0.117 C 
BRANCH  75  76
ATOM     76  N   UNL A   1      31.329  25.587  26.930  1.00  0.00    -0.354 N 
ATOM     77  C   UNL A   1      31.637  24.284  26.689  1.00  0.00     0.243 C 
ATOM     78  H   UNL A   1      30.692  25.710  27.671  1.00  0.00     0.163 HD
ATOM     79  O   UNL A   1      30.865  23.471  27.212  1.00  0.00    -0.273 OA
BRANCH  77  80
ATOM     80  C   UNL A   1      32.919  23.818  25.944  1.00  0.00     0.183 C 
ATOM     81  C   UNL A   1      34.196  24.592  26.227  1.00  0.00     0.046 C 
ATOM     82  N   UNL A   1      32.699  24.023  24.510  1.00  0.00    -0.266 N 
ATOM     83  C   UNL A   1      34.894  24.713  24.894  1.00  0.00     0.103 C 
ATOM     84  C   UNL A   1      33.738  24.770  23.945  1.00  0.00     0.230 C 
ATOM     85  O   UNL A   1      33.771  25.362  22.880  1.00  0.00    -0.274 OA
BRANCH  82  86
ATOM     86  C   UNL A   1      31.886  23.150  23.802  1.00  0.00     0.253 C 
ATOM     87  O   UNL A   1      30.696  23.355  23.574  1.00  0.00    -0.269 OA
BRANCH  86  88
ATOM     88  C   UNL A   1      32.506  21.872  23.381  1.00  0.00     0.072 C 
ATOM     89  C   UNL A   1      32.262  20.762  24.094  1.00  0.00     0.014 C 
BRANCH  89  90
ATOM     90  C   UNL A   1      32.910  19.455  23.902  1.00  0.00    -0.025 A 
ATOM     91  C   UNL A   1      34.093  19.194  24.610  1.00  0.00     0.008 A 
ATOM     92  C   UNL A   1      32.415  18.463  23.045  1.00  0.00     0.008 A 
ATOM     93  C   UNL A   1      34.767  17.979  24.463  1.00  0.00     0.001 A 
ATOM     94  C   UNL A   1      33.090  17.246  22.897  1.00  0.00     0.001 A 
ATOM     95  C   UNL A   1      34.265  17.005  23.606  1.00  0.00     0.000 A 
ENDBRANCH  89  90
ENDBRANCH  86  88
ENDBRANCH  82  86
ENDBRANCH  77  80
ENDBRANCH  75  76
ENDBRANCH   1  75
TORSDOF 16
ENDMDL
MODEL 2
REMARK VINA RESULT:     -11.9      1.462      2.301
REMARK SMILES O=C(NCCCNC(=O)[C@@H]1CCC(=O)N1C(=O)/C=C/c1ccccc1)c1ccc(-c2c3nc(c(-c4c(F)cc(S(=O)(=O)[O-])cc4F)c4ccc([nH]4)c(-c4c(F)cc(S(=O)(=O)[O-])cc4F)c4nc(c(-c5c(F)cc(S(=O)(=O)[O-])cc5F)c5ccc2[nH]5)C=C4)C=C3)cc1
REMARK SMILES IDX 5 1 4 2 3 3 1 4 2 5 26 7 27 8 91 9 28 10 90 11 29 12 30 13
REMARK SMILES IDX 31 14 84 15 32 16 89 17 83 18 85 19 33 20 88 21 82 22 81 23
REMARK SMILES IDX 34 25 68 26 47 27 67 28 48 29 51 30 66 31 86 32 49 33 50 34
REMARK SMILES IDX 65 36 87 37 52 38 35 39 36 40 45 41 37 42 38 43 44 44 46 45
REMARK SMILES IDX 39 46 40 47 41 48 42 49 43 50 69 51 70 52 79 53 71 54 72 55
REMARK SMILES IDX 78 56 80 57 73 58 74 59 75 60 76 61 77 62 53 63 54 64 63 65
REMARK SMILES IDX 55 66 56 67 62 68 64 69 57 70 58 71 59 72 60 73 61 74 6 75
REMARK SMILES IDX 7 76 8 77 9 79 10 80 11 81 15 82 12 83 13 84 14 85 16 86
REMARK SMILES IDX 17 87 18 88 19 89 20 90 21 91 25 92 22 93 24 94 23 95
REMARK H PARENT 3 6 85 24 51 35 7 78
REMARK Flexibility Score: inf
ROOT
ATOM      1  C   UNL A   1      33.748  28.342  25.503  1.00  0.00     0.042 C 
ENDROOT
BRANCH   1   2
ATOM      2  C   UNL A   1      33.751  28.444  27.027  1.00  0.00     0.118 C 
BRANCH   2   3
ATOM      3  N   UNL A   1      33.704  29.827  27.468  1.00  0.00    -0.352 N 
ATOM      4  O   UNL A   1      34.247  31.595  28.732  1.00  0.00    -0.269 OA
ATOM      5  C   UNL A   1      34.606  30.537  28.219  1.00  0.00     0.251 C 
ATOM      6  H   UNL A   1      32.906  30.330  27.187  1.00  0.00     0.163 HD
BRANCH   5   7
ATOM      7  C   UNL A   1      35.992  30.052  28.415  1.00  0.00     0.039 A 
ATOM      8  C   UNL A   1      36.952  30.157  27.403  1.00  0.00     0.014 A 
ATOM      9  C   UNL A   1      36.362  29.576  29.677  1.00  0.00     0.014 A 
ATOM     10  C   UNL A   1      38.257  29.718  27.628  1.00  0.00     0.010 A 
ATOM     11  C   UNL A   1      37.681  29.188  29.918  1.00  0.00     0.010 A 
ATOM     12  C   UNL A   1      38.638  29.247  28.893  1.00  0.00    -0.014 A 
BRANCH  12  13
ATOM     13  C   UNL A   1      40.052  28.888  29.172  1.00  0.00     0.031 A 
ATOM     14  C   UNL A   1      41.001  29.901  29.742  1.00  0.00     0.074 A 
ATOM     15  C   UNL A   1      40.488  27.653  28.856  1.00  0.00     0.049 A 
ATOM     16  N   UNL A   1      42.285  29.793  29.962  1.00  0.00    -0.248 NA
ATOM     17  C   UNL A   1      40.434  31.209  30.100  1.00  0.00     0.031 C 
ATOM     18  C   UNL A   1      39.662  26.590  28.280  1.00  0.00     0.029 A 
ATOM     19  N   UNL A   1      41.734  27.089  28.957  1.00  0.00    -0.354 N 
ATOM     20  C   UNL A   1      42.689  31.026  30.461  1.00  0.00     0.074 A 
ATOM     21  C   UNL A   1      41.512  31.870  30.496  1.00  0.00     0.031 C 
ATOM     22  C   UNL A   1      40.423  25.505  28.077  1.00  0.00     0.029 A 
ATOM     23  C   UNL A   1      41.798  25.808  28.463  1.00  0.00     0.049 A 
ATOM     24  H   UNL A   1      42.509  27.557  29.345  1.00  0.00     0.167 HD
ATOM     25  C   UNL A   1      43.927  31.415  30.854  1.00  0.00     0.037 A 
ATOM     26  C   UNL A   1      42.846  24.978  28.309  1.00  0.00     0.037 A 
ATOM     27  C   UNL A   1      45.089  30.565  30.823  1.00  0.00     0.049 A 
ATOM     28  C   UNL A   1      44.210  25.427  28.746  1.00  0.00     0.074 A 
ATOM     29  C   UNL A   1      46.377  30.853  31.239  1.00  0.00     0.029 A 
ATOM     30  N   UNL A   1      45.106  29.263  30.341  1.00  0.00    -0.354 N 
ATOM     31  N   UNL A   1      44.567  26.582  29.255  1.00  0.00    -0.248 NA
ATOM     32  C   UNL A   1      45.312  24.469  28.590  1.00  0.00     0.031 C 
ATOM     33  C   UNL A   1      47.180  29.737  30.976  1.00  0.00     0.029 A 
ATOM     34  C   UNL A   1      46.385  28.741  30.431  1.00  0.00     0.049 A 
ATOM     35  H   UNL A   1      44.323  28.783  29.987  1.00  0.00     0.167 HD
ATOM     36  C   UNL A   1      45.932  26.485  29.497  1.00  0.00     0.074 A 
ATOM     37  C   UNL A   1      46.337  25.156  29.080  1.00  0.00     0.031 C 
ATOM     38  C   UNL A   1      46.770  27.413  30.019  1.00  0.00     0.037 A 
BRANCH  25  39
ATOM     39  C   UNL A   1      44.085  32.834  31.320  1.00  0.00     0.058 A 
ATOM     40  C   UNL A   1      44.067  33.171  32.683  1.00  0.00     0.135 A 
ATOM     41  C   UNL A   1      44.243  33.874  30.391  1.00  0.00     0.135 A 
ATOM     42  F   UNL A   1      43.906  32.215  33.613  1.00  0.00    -0.206 F 
ATOM     43  C   UNL A   1      44.156  34.493  33.107  1.00  0.00     0.059 A 
ATOM     44  C   UNL A   1      44.356  35.202  30.793  1.00  0.00     0.059 A 
ATOM     45  F   UNL A   1      44.270  33.607  29.075  1.00  0.00    -0.206 F 
ATOM     46  C   UNL A   1      44.285  35.504  32.152  1.00  0.00     0.060 A 
BRANCH  46  47
ATOM     47  S   UNL A   1      44.343  37.221  32.706  1.00  0.00     0.124 S 
ATOM     48  O   UNL A   1      44.486  37.928  31.437  1.00  0.00    -0.237 OA
ATOM     49  O   UNL A   1      43.056  37.381  33.378  1.00  0.00    -0.237 OA
ATOM     50  O   UNL A   1      45.510  37.255  33.581  1.00  0.00    -0.744 OA
ENDBRANCH  46  47
ENDBRANCH  25  39
BRANCH  26  51
ATOM     51  C   UNL A   1      42.620  23.639  27.708  1.00  0.00     0.058 A 
ATOM     52  C   UNL A   1      42.719  23.445  26.324  1.00  0.00     0.135 A 
ATOM     53  C   UNL A   1      42.401  22.513  28.518  1.00  0.00     0.135 A 
ATOM     54  F   UNL A   1      42.922  24.492  25.512  1.00  0.00    -0.206 F 
ATOM     55  C   UNL A   1      42.625  22.176  25.762  1.00  0.00     0.059 A 
ATOM     56  C   UNL A   1      42.323  21.233  27.981  1.00  0.00     0.059 A 
ATOM     57  F   UNL A   1      42.316  22.651  29.850  1.00  0.00    -0.206 F 
ATOM     58  C   UNL A   1      42.440  21.074  26.600  1.00  0.00     0.060 A 
BRANCH  58  59
ATOM     59  S   UNL A   1      42.437  19.420  25.874  1.00  0.00     0.124 S 
ATOM     60  O   UNL A   1      43.275  19.615  24.696  1.00  0.00    -0.237 OA
ATOM     61  O   UNL A   1      43.015  18.612  26.942  1.00  0.00    -0.237 OA
ATOM     62  O   UNL A   1      41.022  19.173  25.609  1.00  0.00    -0.744 OA
ENDBRANCH  58  59
ENDBRANCH  26  51
BRANCH  38  63
ATOM     63  C   UNL A   1      48.209  27.026  30.201  1.00  0.00     0.058 A 
ATOM     64  C   UNL A   1      49.183  27.355  29.247  1.00  0.00     0.135 A 
ATOM     65  C   UNL A   1      48.631  26.403  31.386  1.00  0.00     0.135 A 
ATOM     66  F   UNL A   1      48.827  27.944  28.094  1.00  0.00    -0.206 F 
ATOM     67  C   UNL A   1      50.530  27.083  29.462  1.00  0.00     0.059 A 
ATOM     68  C   UNL A   1      49.974  26.137  31.630  1.00  0.00     0.059 A 
ATOM     69  F   UNL A   1      47.737  26.073  32.330  1.00  0.00    -0.206 F 
ATOM     70  C   UNL A   1      50.917  26.480  30.661  1.00  0.00     0.060 A 
BRANCH  70  71
ATOM     71  S   UNL A   1      52.675  26.201  30.966  1.00  0.00     0.124 S 
ATOM     72  O   UNL A   1      53.218  26.241  29.613  1.00  0.00    -0.237 OA
ATOM     73  O   UNL A   1      53.028  27.327  31.825  1.00  0.00    -0.237 OA
ATOM     74  O   UNL A   1      52.702  24.894  31.617  1.00  0.00    -0.744 OA
ENDBRANCH  70  71
ENDBRANCH  38  63
ENDBRANCH  12  13
ENDBRANCH   5   7
ENDBRANCH   2   3
ENDBRANCH   1   2
BRANCH   1  75
ATOM     75  C   UNL A   1      33.720  26.901  24.981  1.00  0.00     0.117 C 
BRANCH  75  76
ATOM     76  N   UNL A   1      33.828  26.868  23.533  1.00  0.00    -0.354 N 
ATOM     77  C   UNL A   1      33.161  26.175  22.571  1.00  0.00     0.243 C 
ATOM     78  H   UNL A   1      34.522  27.466  23.177  1.00  0.00     0.163 HD
ATOM     79  O   UNL A   1      33.718  26.171  21.466  1.00  0.00    -0.273 OA
BRANCH  77  80
ATOM     80  C   UNL A   1      31.753  25.547  22.769  1.00  0.00     0.183 C 
ATOM     81  C   UNL A   1      30.656  26.470  23.274  1.00  0.00     0.046 C 
ATOM     82  N   UNL A   1      31.862  24.532  23.820  1.00  0.00    -0.266 N 
ATOM     83  C   UNL A   1      29.860  25.647  24.257  1.00  0.00     0.103 C 
ATOM     84  C   UNL A   1      30.912  24.744  24.823  1.00  0.00     0.230 C 
ATOM     85  O   UNL A   1      30.873  24.295  25.956  1.00  0.00    -0.274 OA
BRANCH  82  86
ATOM     86  C   UNL A   1      32.446  23.305  23.540  1.00  0.00     0.253 C 
ATOM     87  O   UNL A   1      32.017  22.518  22.699  1.00  0.00    -0.269 OA
BRANCH  86  88
ATOM     88  C   UNL A   1      33.605  22.923  24.380  1.00  0.00     0.072 C 
ATOM     89  C   UNL A   1      34.826  23.370  24.051  1.00  0.00     0.014 C 
BRANCH  89  90
ATOM     90  C   UNL A   1      36.091  22.967  24.686  1.00  0.00    -0.025 A 
ATOM     91  C   UNL A   1      36.742  23.899  25.509  1.00  0.00     0.008 A 
ATOM     92  C   UNL A   1      36.684  21.710  24.506  1.00  0.00     0.008 A 
ATOM     93  C   UNL A   1      37.953  23.587  26.132  1.00  0.00     0.001 A 
ATOM     94  C   UNL A   1      37.897  21.398  25.129  1.00  0.00     0.001 A 
ATOM     95  C   UNL A   1      38.530  22.336  25.942  1.00  0.00     0.000 A 
ENDBRANCH  89  90
ENDBRANCH  86  88
ENDBRANCH  82  86
ENDBRANCH  77  80
ENDBRANCH  75  76
ENDBRANCH   1  75
TORSDOF 16
ENDMDL
MODEL 3
REMARK VINA RESULT:     -11.8      4.906     11.125
REMARK SMILES O=C(NCCCNC(=O)[C@@H]1CCC(=O)N1C(=O)/C=C/c1ccccc1)c1ccc(-c2c3nc(c(-c4c(F)cc(S(=O)(=O)[O-])cc4F)c4ccc([nH]4)c(-c4c(F)cc(S(=O)(=O)[O-])cc4F)c4nc(c(-c5c(F)cc(S(=O)(=O)[O-])cc5F)c5ccc2[nH]5)C=C4)C=C3)cc1
REMARK SMILES IDX 5 1 4 2 3 3 1 4 2 5 26 7 27 8 91 9 28 10 90 11 29 12 30 13
REMARK SMILES IDX 31 14 84 15 32 16 89 17 83 18 85 19 33 20 88 21 82 22 81 23
REMARK SMILES IDX 34 25 68 26 47 27 67 28 48 29 51 30 66 31 86 32 49 33 50 34
REMARK SMILES IDX 65 36 87 37 52 38 35 39 36 40 45 41 37 42 38 43 44 44 46 45
REMARK SMILES IDX 39 46 40 47 41 48 42 49 43 50 69 51 70 52 79 53 71 54 72 55
REMARK SMILES IDX 78 56 80 57 73 58 74 59 75 60 76 61 77 62 53 63 54 64 63 65
REMARK SMILES IDX 55 66 56 67 62 68 64 69 57 70 58 71 59 72 60 73 61 74 6 75
REMARK SMILES IDX 7 76 8 77 9 79 10 80 11 81 15 82 12 83 13 84 14 85 16 86
REMARK SMILES IDX 17 87 18 88 19 89 20 90 21 91 25 92 22 93 24 94 23 95
REMARK H PARENT 3 6 85 24 51 35 7 78
REMARK Flexibility Score: inf
ROOT
ATOM      1  C   UNL A   1      35.024  31.349  27.634  1.00  0.00     0.042 C 
ENDROOT
BRANCH   1   2
ATOM      2  C   UNL A   1      35.551  30.129  28.389  1.00  0.00     0.118 C 
BRANCH   2   3
ATOM      3  N   UNL A   1      35.613  30.374  29.819  1.00  0.00    -0.352 N 
ATOM      4  O   UNL A   1      36.395  30.146  31.906  1.00  0.00    -0.269 OA
ATOM      5  C   UNL A   1      36.640  30.152  30.702  1.00  0.00     0.251 C 
ATOM      6  H   UNL A   1      34.797  30.757  30.215  1.00  0.00     0.163 HD
BRANCH   5   7
ATOM      7  C   UNL A   1      38.024  29.925  30.226  1.00  0.00     0.039 A 
ATOM      8  C   UNL A   1      38.984  29.312  31.038  1.00  0.00     0.014 A 
ATOM      9  C   UNL A   1      38.335  30.239  28.898  1.00  0.00     0.014 A 
ATOM     10  C   UNL A   1      40.271  29.084  30.550  1.00  0.00     0.010 A 
ATOM     11  C   UNL A   1      39.607  29.961  28.394  1.00  0.00     0.010 A 
ATOM     12  C   UNL A   1      40.589  29.389  29.218  1.00  0.00    -0.014 A 
BRANCH  12  13
ATOM     13  C   UNL A   1      41.921  29.043  28.660  1.00  0.00     0.031 A 
ATOM     14  C   UNL A   1      42.217  27.647  28.196  1.00  0.00     0.074 A 
ATOM     15  C   UNL A   1      42.881  29.987  28.623  1.00  0.00     0.049 A 
ATOM     16  N   UNL A   1      43.346  27.143  27.769  1.00  0.00    -0.248 NA
ATOM     17  C   UNL A   1      41.102  26.690  28.227  1.00  0.00     0.031 C 
ATOM     18  C   UNL A   1      42.715  31.374  29.063  1.00  0.00     0.029 A 
ATOM     19  N   UNL A   1      44.189  29.921  28.216  1.00  0.00    -0.354 N 
ATOM     20  C   UNL A   1      43.087  25.804  27.504  1.00  0.00     0.074 A 
ATOM     21  C   UNL A   1      41.695  25.572  27.833  1.00  0.00     0.031 C 
ATOM     22  C   UNL A   1      43.876  32.026  28.904  1.00  0.00     0.029 A 
ATOM     23  C   UNL A   1      44.879  31.096  28.395  1.00  0.00     0.049 A 
ATOM     24  H   UNL A   1      44.594  29.110  27.831  1.00  0.00     0.167 HD
ATOM     25  C   UNL A   1      43.932  24.857  27.029  1.00  0.00     0.037 A 
ATOM     26  C   UNL A   1      46.179  31.388  28.202  1.00  0.00     0.037 A 
ATOM     27  C   UNL A   1      45.313  25.099  26.697  1.00  0.00     0.049 A 
ATOM     28  C   UNL A   1      47.102  30.326  27.680  1.00  0.00     0.074 A 
ATOM     29  C   UNL A   1      46.239  24.217  26.169  1.00  0.00     0.029 A 
ATOM     30  N   UNL A   1      45.968  26.311  26.868  1.00  0.00    -0.354 N 
ATOM     31  N   UNL A   1      46.832  29.075  27.395  1.00  0.00    -0.248 NA
ATOM     32  C   UNL A   1      48.502  30.708  27.453  1.00  0.00     0.031 C 
ATOM     33  C   UNL A   1      47.463  24.886  26.054  1.00  0.00     0.029 A 
ATOM     34  C   UNL A   1      47.291  26.195  26.475  1.00  0.00     0.049 A 
ATOM     35  H   UNL A   1      45.553  27.133  27.218  1.00  0.00     0.167 HD
ATOM     36  C   UNL A   1      48.022  28.523  26.938  1.00  0.00     0.074 A 
ATOM     37  C   UNL A   1      49.016  29.578  26.983  1.00  0.00     0.031 C 
ATOM     38  C   UNL A   1      48.266  27.258  26.518  1.00  0.00     0.037 A 
BRANCH  25  39
ATOM     39  C   UNL A   1      43.388  23.465  26.874  1.00  0.00     0.058 A 
ATOM     40  C   UNL A   1      43.242  22.602  27.971  1.00  0.00     0.135 A 
ATOM     41  C   UNL A   1      43.020  22.984  25.608  1.00  0.00     0.135 A 
ATOM     42  F   UNL A   1      43.592  23.009  29.202  1.00  0.00    -0.206 F 
ATOM     43  C   UNL A   1      42.792  21.295  27.812  1.00  0.00     0.059 A 
ATOM     44  C   UNL A   1      42.547  21.687  25.429  1.00  0.00     0.059 A 
ATOM     45  F   UNL A   1      43.136  23.770  24.525  1.00  0.00    -0.206 F 
ATOM     46  C   UNL A   1      42.461  20.842  26.534  1.00  0.00     0.060 A 
BRANCH  46  47
ATOM     47  S   UNL A   1      41.933  19.128  26.329  1.00  0.00     0.124 S 
ATOM     48  O   UNL A   1      42.914  18.638  25.365  1.00  0.00    -0.237 OA
ATOM     49  O   UNL A   1      42.054  18.594  27.682  1.00  0.00    -0.237 OA
ATOM     50  O   UNL A   1      40.568  19.253  25.829  1.00  0.00    -0.744 OA
ENDBRANCH  46  47
ENDBRANCH  25  39
BRANCH  26  51
ATOM     51  C   UNL A   1      46.661  32.757  28.517  1.00  0.00     0.058 A 
ATOM     52  C   UNL A   1      46.611  33.777  27.558  1.00  0.00     0.135 A 
ATOM     53  C   UNL A   1      47.087  33.091  29.812  1.00  0.00     0.135 A 
ATOM     54  F   UNL A   1      46.216  33.503  26.306  1.00  0.00    -0.206 F 
ATOM     55  C   UNL A   1      46.949  35.089  27.876  1.00  0.00     0.059 A 
ATOM     56  C   UNL A   1      47.412  34.398  30.159  1.00  0.00     0.059 A 
ATOM     57  F   UNL A   1      47.134  32.149  30.767  1.00  0.00    -0.206 F 
ATOM     58  C   UNL A   1      47.336  35.392  29.183  1.00  0.00     0.060 A 
BRANCH  58  59
ATOM     59  S   UNL A   1      47.660  37.115  29.616  1.00  0.00     0.124 S 
ATOM     60  O   UNL A   1      48.722  37.460  28.677  1.00  0.00    -0.237 OA
ATOM     61  O   UNL A   1      46.365  37.743  29.374  1.00  0.00    -0.237 OA
ATOM     62  O   UNL A   1      48.056  37.039  31.019  1.00  0.00    -0.744 OA
ENDBRANCH  58  59
ENDBRANCH  26  51
BRANCH  38  63
ATOM     63  C   UNL A   1      49.653  26.938  26.043  1.00  0.00     0.058 A 
ATOM     64  C   UNL A   1      50.609  26.371  26.899  1.00  0.00     0.135 A 
ATOM     65  C   UNL A   1      49.999  27.115  24.694  1.00  0.00     0.135 A 
ATOM     66  F   UNL A   1      50.328  26.191  28.199  1.00  0.00    -0.206 F 
ATOM     67  C   UNL A   1      51.861  25.985  26.433  1.00  0.00     0.059 A 
ATOM     68  C   UNL A   1      51.239  26.721  24.202  1.00  0.00     0.059 A 
ATOM     69  F   UNL A   1      49.117  27.650  23.836  1.00  0.00    -0.206 F 
ATOM     70  C   UNL A   1      52.164  26.158  25.080  1.00  0.00     0.060 A 
BRANCH  70  71
ATOM     71  S   UNL A   1      53.763  25.583  24.468  1.00  0.00     0.124 S 
ATOM     72  O   UNL A   1      53.685  24.152  24.741  1.00  0.00    -0.237 OA
ATOM     73  O   UNL A   1      53.716  25.963  23.059  1.00  0.00    -0.237 OA
ATOM     74  O   UNL A   1      54.723  26.327  25.278  1.00  0.00    -0.744 OA
ENDBRANCH  70  71
ENDBRANCH  38  63
ENDBRANCH  12  13
ENDBRANCH   5   7
ENDBRANCH   2   3
ENDBRANCH   1   2
BRANCH   1  75
ATOM     75  C   UNL A   1      34.155  32.277  28.490  1.00  0.00     0.117 C 
BRANCH  75  76
ATOM     76  N   UNL A   1      34.607  33.653  28.390  1.00  0.00    -0.354 N 
ATOM     77  C   UNL A   1      34.175  34.813  28.955  1.00  0.00     0.243 C 
ATOM     78  H   UNL A   1      35.380  33.771  27.793  1.00  0.00     0.163 HD
ATOM     79  O   UNL A   1      34.607  35.838  28.412  1.00  0.00    -0.273 OA
BRANCH  77  80
ATOM     80  C   UNL A   1      33.324  34.883  30.255  1.00  0.00     0.183 C 
ATOM     81  C   UNL A   1      32.545  36.166  30.495  1.00  0.00     0.046 C 
ATOM     82  N   UNL A   1      34.244  34.817  31.392  1.00  0.00    -0.266 N 
ATOM     83  C   UNL A   1      32.672  36.440  31.974  1.00  0.00     0.103 C 
ATOM     84  C   UNL A   1      34.028  35.880  32.275  1.00  0.00     0.230 C 
ATOM     85  O   UNL A   1      34.751  36.309  33.157  1.00  0.00    -0.274 OA
BRANCH  82  86
ATOM     86  C   UNL A   1      34.818  33.605  31.751  1.00  0.00     0.253 C 
ATOM     87  O   UNL A   1      34.187  32.558  31.873  1.00  0.00    -0.269 OA
BRANCH  86  88
ATOM     88  C   UNL A   1      36.264  33.635  32.075  1.00  0.00     0.072 C 
ATOM     89  C   UNL A   1      37.156  33.670  31.074  1.00  0.00     0.014 C 
BRANCH  89  90
ATOM     90  C   UNL A   1      38.616  33.554  31.218  1.00  0.00    -0.025 A 
ATOM     91  C   UNL A   1      39.427  34.267  30.321  1.00  0.00     0.008 A 
ATOM     92  C   UNL A   1      39.239  32.765  32.195  1.00  0.00     0.008 A 
ATOM     93  C   UNL A   1      40.820  34.191  30.394  1.00  0.00     0.001 A 
ATOM     94  C   UNL A   1      40.634  32.688  32.266  1.00  0.00     0.001 A 
ATOM     95  C   UNL A   1      41.423  33.401  31.366  1.00  0.00     0.000 A 
ENDBRANCH  89  90
ENDBRANCH  86  88
ENDBRANCH  82  86
ENDBRANCH  77  80
ENDBRANCH  75  76
ENDBRANCH   1  75
TORSDOF 16
ENDMDL
