MODEL 1
REMARK VINA RESULT:     -13.2      0.000      0.000
REMARK SMILES Cc1cccc(S(=O)(=O)Nc2cc(C(=O)NCCCNC(=O)c3ccc(-c4c5nc(c(-c6c(F)cc(S(=O)(=O)[O-])cc6F)c6ccc([nH]6)c(-c6c(F)cc(S(=O)(=O)[O-])cc6F)c6nc(c(-c7c(F)cc(S(=O)(=O)[O-])cc7F)c7ccc4[nH]7)C=C6)C=C5)cc3)ccc2N2CCC[C@H](C[NH+]3CCCC3)C2)c1
REMARK SMILES IDX 18 1 17 2 16 3 14 4 15 5 13 7 11 8 12 9 91 10 90 11 89 12
REMARK SMILES IDX 10 13 7 15 8 16 9 17 6 18 1 19 2 20 3 21 104 22 4 23 5 24
REMARK SMILES IDX 92 25 93 26 103 27 94 28 96 29 95 30 97 31 98 32 99 33
REMARK SMILES IDX 102 34 100 36 101 37 19 38 20 39 21 40 22 42 23 43 24 44
REMARK SMILES IDX 88 45 25 46 87 47 26 48 27 49 28 50 81 51 29 52 86 53 80 54
REMARK SMILES IDX 82 55 30 56 85 57 79 58 78 59 31 61 65 62 44 63 64 64 45 65
REMARK SMILES IDX 48 66 63 67 83 68 46 69 47 70 62 72 84 73 49 74 32 75 33 76
REMARK SMILES IDX 42 77 34 78 35 79 41 80 43 81 36 82 37 83 38 84 39 85 40 86
REMARK SMILES IDX 66 87 67 88 76 89 68 90 69 91 75 92 77 93 70 94 71 95 72 96
REMARK SMILES IDX 73 97 74 98 50 99 51 100 60 101 52 102 53 103 59 104 61 105
REMARK SMILES IDX 54 106 55 107 56 108 57 109 58 110
REMARK H PARENT 16 6 10 14 98 35 20 41 82 60 48 71
REMARK Flexibility Score: inf
ROOT
ATOM      1  C   UNL A   1      40.413  22.179  27.200  1.00  0.00     0.042 C 
ENDROOT
BRANCH   1   2
ATOM      2  C   UNL A   1      39.128  22.386  26.248  1.00  0.00     0.118 C 
BRANCH   2   3
ATOM      3  N   UNL A   1      38.111  21.326  25.984  1.00  0.00    -0.352 N 
ATOM      4  C   UNL A   1      36.935  21.195  25.286  1.00  0.00     0.251 C 
ATOM      5  O   UNL A   1      36.475  20.116  24.921  1.00  0.00    -0.269 OA
ATOM      6  H   UNL A   1      38.350  20.484  26.437  1.00  0.00     0.163 HD
BRANCH   4   7
ATOM      7  C   UNL A   1      36.185  22.406  24.959  1.00  0.00     0.042 A 
ATOM      8  C   UNL A   1      34.431  23.288  23.628  1.00  0.00     0.073 A 
ATOM      9  C   UNL A   1      35.442  22.380  23.792  1.00  0.00     0.042 A 
ATOM     10  C   UNL A   1      34.396  24.448  24.416  1.00  0.00     0.061 A 
ATOM     11  C   UNL A   1      35.294  24.564  25.492  1.00  0.00     0.029 A 
ATOM     12  C   UNL A   1      36.158  23.517  25.804  1.00  0.00     0.016 A 
BRANCH   8  13
ATOM     13  N   UNL A   1      33.443  22.983  22.647  1.00  0.00    -0.277 N 
ATOM     14  H   UNL A   1      33.460  23.465  21.788  1.00  0.00     0.180 HD
BRANCH  13  15
ATOM     15  S   UNL A   1      32.231  21.811  22.911  1.00  0.00     0.261 S 
ATOM     16  O   UNL A   1      31.900  21.332  21.580  1.00  0.00    -0.201 OA
ATOM     17  O   UNL A   1      31.195  22.473  23.680  1.00  0.00    -0.201 OA
BRANCH  15  18
ATOM     18  C   UNL A   1      32.683  20.361  23.869  1.00  0.00     0.088 A 
ATOM     19  C   UNL A   1      33.405  16.632  23.555  1.00  0.00     0.044 C 
ATOM     20  C   UNL A   1      33.259  18.011  24.143  1.00  0.00    -0.050 A 
ATOM     21  C   UNL A   1      33.074  18.120  25.530  1.00  0.00     0.003 A 
ATOM     22  C   UNL A   1      33.146  19.157  23.322  1.00  0.00     0.025 A 
ATOM     23  C   UNL A   1      32.706  19.338  26.091  1.00  0.00     0.002 A 
ATOM     24  C   UNL A   1      32.487  20.443  25.263  1.00  0.00     0.022 A 
ENDBRANCH  15  18
ENDBRANCH  13  15
ENDBRANCH   8  13
BRANCH  10  25
ATOM     25  N   UNL A   1      33.571  25.511  24.119  1.00  0.00    -0.369 N 
ATOM     26  C   UNL A   1      33.752  26.169  22.832  1.00  0.00     0.116 C 
ATOM     27  C   UNL A   1      32.395  25.810  24.911  1.00  0.00     0.126 C 
ATOM     28  C   UNL A   1      33.704  27.675  23.054  1.00  0.00     0.022 C 
ATOM     29  C   UNL A   1      32.343  27.316  25.191  1.00  0.00     0.064 C 
ATOM     30  C   UNL A   1      32.453  28.061  23.845  1.00  0.00     0.013 C 
BRANCH  29  31
ATOM     31  C   UNL A   1      33.420  27.654  26.257  1.00  0.00     0.267 C 
BRANCH  31  32
ATOM     32  N   UNL A   1      33.105  28.576  27.351  1.00  0.00    -0.335 N 
ATOM     33  C   UNL A   1      31.736  29.084  27.353  1.00  0.00     0.262 C 
ATOM     34  C   UNL A   1      34.006  29.713  27.501  1.00  0.00     0.262 C 
ATOM     35  H   UNL A   1      33.236  27.956  28.151  1.00  0.00     0.348 HD
ATOM     36  C   UNL A   1      31.829  30.468  26.746  1.00  0.00     0.067 C 
ATOM     37  C   UNL A   1      33.196  30.966  27.183  1.00  0.00     0.067 C 
ENDBRANCH  31  32
ENDBRANCH  29  31
ENDBRANCH  10  25
ENDBRANCH   4   7
ENDBRANCH   2   3
ENDBRANCH   1   2
BRANCH   1  38
ATOM     38  C   UNL A   1      41.826  22.563  26.530  1.00  0.00     0.118 C 
BRANCH  38  39
ATOM     39  N   UNL A   1      42.420  23.993  26.264  1.00  0.00    -0.352 N 
ATOM     40  C   UNL A   1      42.303  25.359  26.761  1.00  0.00     0.251 C 
ATOM     41  H   UNL A   1      43.079  23.956  25.534  1.00  0.00     0.163 HD
ATOM     42  O   UNL A   1      43.397  25.858  27.083  1.00  0.00    -0.269 OA
BRANCH  40  43
ATOM     43  C   UNL A   1      41.090  26.343  26.983  1.00  0.00     0.039 A 
ATOM     44  C   UNL A   1      40.927  27.535  26.219  1.00  0.00     0.014 A 
ATOM     45  C   UNL A   1      40.102  26.193  27.930  1.00  0.00     0.014 A 
ATOM     46  C   UNL A   1      40.384  28.720  26.833  1.00  0.00     0.010 A 
ATOM     47  C   UNL A   1      39.508  27.349  28.510  1.00  0.00     0.010 A 
ATOM     48  C   UNL A   1      39.866  28.654  28.123  1.00  0.00    -0.014 A 
BRANCH  48  49
ATOM     49  C   UNL A   1      39.805  29.818  29.107  1.00  0.00     0.031 A 
ATOM     50  C   UNL A   1      38.725  30.799  29.024  1.00  0.00     0.074 A 
ATOM     51  C   UNL A   1      40.540  30.017  30.249  1.00  0.00     0.049 A 
ATOM     52  N   UNL A   1      38.880  32.078  29.131  1.00  0.00    -0.248 NA
ATOM     53  C   UNL A   1      37.346  30.371  28.899  1.00  0.00     0.031 C 
ATOM     54  C   UNL A   1      40.462  30.989  31.363  1.00  0.00     0.029 A 
ATOM     55  N   UNL A   1      41.582  29.252  30.733  1.00  0.00    -0.354 N 
ATOM     56  C   UNL A   1      37.636  32.585  29.438  1.00  0.00     0.074 A 
ATOM     57  C   UNL A   1      36.709  31.522  29.112  1.00  0.00     0.031 C 
ATOM     58  C   UNL A   1      41.625  30.978  32.063  1.00  0.00     0.029 A 
ATOM     59  C   UNL A   1      42.505  30.023  31.425  1.00  0.00     0.049 A 
ATOM     60  H   UNL A   1      41.660  28.280  30.602  1.00  0.00     0.167 HD
ATOM     61  C   UNL A   1      37.505  33.744  30.153  1.00  0.00     0.037 A 
ATOM     62  C   UNL A   1      43.745  30.175  30.869  1.00  0.00     0.037 A 
ATOM     63  C   UNL A   1      38.810  34.213  30.656  1.00  0.00     0.049 A 
ATOM     64  C   UNL A   1      43.880  31.570  30.345  1.00  0.00     0.074 A 
ATOM     65  C   UNL A   1      39.380  34.204  31.922  1.00  0.00     0.029 A 
ATOM     66  N   UNL A   1      39.861  34.461  29.772  1.00  0.00    -0.354 N 
ATOM     67  N   UNL A   1      42.870  32.388  30.310  1.00  0.00    -0.248 NA
ATOM     68  C   UNL A   1      45.102  32.184  29.846  1.00  0.00     0.031 C 
ATOM     69  C   UNL A   1      40.788  34.326  31.779  1.00  0.00     0.029 A 
ATOM     70  C   UNL A   1      41.081  34.444  30.430  1.00  0.00     0.049 A 
ATOM     71  H   UNL A   1      39.751  34.628  28.808  1.00  0.00     0.167 HD
ATOM     72  C   UNL A   1      43.246  33.593  29.824  1.00  0.00     0.074 A 
ATOM     73  C   UNL A   1      44.664  33.425  29.554  1.00  0.00     0.031 C 
ATOM     74  C   UNL A   1      42.339  34.603  29.701  1.00  0.00     0.037 A 
BRANCH  61  75
ATOM     75  C   UNL A   1      36.158  34.242  30.670  1.00  0.00     0.058 A 
ATOM     76  C   UNL A   1      35.131  34.671  29.802  1.00  0.00     0.135 A 
ATOM     77  C   UNL A   1      35.810  34.296  32.038  1.00  0.00     0.135 A 
ATOM     78  F   UNL A   1      35.242  34.554  28.473  1.00  0.00    -0.206 F 
ATOM     79  C   UNL A   1      33.918  35.203  30.256  1.00  0.00     0.059 A 
ATOM     80  C   UNL A   1      34.646  34.900  32.521  1.00  0.00     0.059 A 
ATOM     81  F   UNL A   1      36.549  33.677  32.970  1.00  0.00    -0.206 F 
ATOM     82  C   UNL A   1      33.694  35.343  31.619  1.00  0.00     0.060 A 
BRANCH  82  83
ATOM     83  S   UNL A   1      32.115  35.995  32.194  1.00  0.00     0.124 S 
ATOM     84  O   UNL A   1      32.527  37.047  33.118  1.00  0.00    -0.237 OA
ATOM     85  O   UNL A   1      31.504  36.448  30.948  1.00  0.00    -0.237 OA
ATOM     86  O   UNL A   1      31.473  34.841  32.817  1.00  0.00    -0.744 OA
ENDBRANCH  82  83
ENDBRANCH  61  75
BRANCH  62  87
ATOM     87  C   UNL A   1      44.333  28.899  30.255  1.00  0.00     0.058 A 
ATOM     88  C   UNL A   1      44.814  29.128  28.956  1.00  0.00     0.135 A 
ATOM     89  C   UNL A   1      45.255  28.212  31.027  1.00  0.00     0.135 A 
ATOM     90  F   UNL A   1      43.958  29.264  27.937  1.00  0.00    -0.206 F 
ATOM     91  C   UNL A   1      46.154  29.460  28.749  1.00  0.00     0.059 A 
ATOM     92  C   UNL A   1      46.619  28.355  30.739  1.00  0.00     0.059 A 
ATOM     93  F   UNL A   1      44.873  27.506  32.104  1.00  0.00    -0.206 F 
ATOM     94  C   UNL A   1      47.048  29.273  29.794  1.00  0.00     0.060 A 
BRANCH  94  95
ATOM     95  S   UNL A   1      48.571  30.535  29.908  1.00  0.00     0.124 S 
ATOM     96  O   UNL A   1      48.074  31.351  30.996  1.00  0.00    -0.237 OA
ATOM     97  O   UNL A   1      49.750  29.838  30.386  1.00  0.00    -0.237 OA
ATOM     98  O   UNL A   1      48.721  31.218  28.657  1.00  0.00    -0.744 OA
ENDBRANCH  94  95
ENDBRANCH  62  87
BRANCH  74  99
ATOM     99  C   UNL A   1      42.611  35.883  28.977  1.00  0.00     0.058 A 
ATOM    100  C   UNL A   1      42.152  36.153  27.679  1.00  0.00     0.135 A 
ATOM    101  C   UNL A   1      43.267  36.943  29.641  1.00  0.00     0.135 A 
ATOM    102  F   UNL A   1      41.399  35.274  27.002  1.00  0.00    -0.206 F 
ATOM    103  C   UNL A   1      42.423  37.357  27.038  1.00  0.00     0.059 A 
ATOM    104  C   UNL A   1      43.486  38.176  29.045  1.00  0.00     0.059 A 
ATOM    105  F   UNL A   1      43.716  36.817  30.899  1.00  0.00    -0.206 F 
ATOM    106  C   UNL A   1      43.101  38.358  27.727  1.00  0.00     0.060 A 
BRANCH 106 107
ATOM    107  S   UNL A   1      43.459  39.910  26.897  1.00  0.00     0.124 S 
ATOM    108  O   UNL A   1      43.666  40.801  28.034  1.00  0.00    -0.237 OA
ATOM    109  O   UNL A   1      44.654  39.590  26.121  1.00  0.00    -0.237 OA
ATOM    110  O   UNL A   1      42.256  40.157  26.109  1.00  0.00    -0.744 OA
ENDBRANCH 106 107
ENDBRANCH  74  99
ENDBRANCH  48  49
ENDBRANCH  40  43
ENDBRANCH  38  39
ENDBRANCH   1  38
TORSDOF 19
ENDMDL
MODEL 2
REMARK VINA RESULT:     -12.1      2.236      3.152
REMARK SMILES Cc1cccc(S(=O)(=O)Nc2cc(C(=O)NCCCNC(=O)c3ccc(-c4c5nc(c(-c6c(F)cc(S(=O)(=O)[O-])cc6F)c6ccc([nH]6)c(-c6c(F)cc(S(=O)(=O)[O-])cc6F)c6nc(c(-c7c(F)cc(S(=O)(=O)[O-])cc7F)c7ccc4[nH]7)C=C6)C=C5)cc3)ccc2N2CCC[C@H](C[NH+]3CCCC3)C2)c1
REMARK SMILES IDX 18 1 17 2 16 3 14 4 15 5 13 7 11 8 12 9 91 10 90 11 89 12
REMARK SMILES IDX 10 13 7 15 8 16 9 17 6 18 1 19 2 20 3 21 104 22 4 23 5 24
REMARK SMILES IDX 92 25 93 26 103 27 94 28 96 29 95 30 97 31 98 32 99 33
REMARK SMILES IDX 102 34 100 36 101 37 19 38 20 39 21 40 22 42 23 43 24 44
REMARK SMILES IDX 88 45 25 46 87 47 26 48 27 49 28 50 81 51 29 52 86 53 80 54
REMARK SMILES IDX 82 55 30 56 85 57 79 58 78 59 31 61 65 62 44 63 64 64 45 65
REMARK SMILES IDX 48 66 63 67 83 68 46 69 47 70 62 72 84 73 49 74 32 75 33 76
REMARK SMILES IDX 42 77 34 78 35 79 41 80 43 81 36 82 37 83 38 84 39 85 40 86
REMARK SMILES IDX 66 87 67 88 76 89 68 90 69 91 75 92 77 93 70 94 71 95 72 96
REMARK SMILES IDX 73 97 74 98 50 99 51 100 60 101 52 102 53 103 59 104 61 105
REMARK SMILES IDX 54 106 55 107 56 108 57 109 58 110
REMARK H PARENT 16 6 10 14 98 35 20 41 82 60 48 71
REMARK Flexibility Score: inf
ROOT
ATOM      1  C   UNL A   1      41.572  21.040  26.943  1.00  0.00     0.042 C 
ENDROOT
BRANCH   1   2
ATOM      2  C   UNL A   1      40.060  21.385  26.500  1.00  0.00     0.118 C 
BRANCH   2   3
ATOM      3  N   UNL A   1      39.182  20.445  25.741  1.00  0.00    -0.352 N 
ATOM      4  C   UNL A   1      38.044  20.510  24.976  1.00  0.00     0.251 C 
ATOM      5  O   UNL A   1      37.724  19.654  24.156  1.00  0.00    -0.269 OA
ATOM      6  H   UNL A   1      39.513  19.520  25.807  1.00  0.00     0.163 HD
BRANCH   4   7
ATOM      7  C   UNL A   1      37.160  21.662  25.145  1.00  0.00     0.042 A 
ATOM      8  C   UNL A   1      34.917  22.414  24.969  1.00  0.00     0.073 A 
ATOM      9  C   UNL A   1      35.918  21.586  24.539  1.00  0.00     0.042 A 
ATOM     10  C   UNL A   1      35.228  23.563  25.712  1.00  0.00     0.061 A 
ATOM     11  C   UNL A   1      36.548  23.741  26.165  1.00  0.00     0.029 A 
ATOM     12  C   UNL A   1      37.511  22.762  25.930  1.00  0.00     0.016 A 
BRANCH   8  13
ATOM     13  N   UNL A   1      33.583  22.041  24.636  1.00  0.00    -0.277 N 
ATOM     14  H   UNL A   1      33.106  22.549  23.941  1.00  0.00     0.180 HD
BRANCH  13  15
ATOM     15  S   UNL A   1      32.784  20.741  25.404  1.00  0.00     0.261 S 
ATOM     16  O   UNL A   1      31.373  21.050  25.254  1.00  0.00    -0.201 OA
ATOM     17  O   UNL A   1      33.334  20.670  26.744  1.00  0.00    -0.201 OA
BRANCH  15  18
ATOM     18  C   UNL A   1      33.017  19.104  24.704  1.00  0.00     0.088 A 
ATOM     19  C   UNL A   1      34.942  15.851  25.194  1.00  0.00     0.044 C 
ATOM     20  C   UNL A   1      33.973  16.865  24.645  1.00  0.00    -0.050 A 
ATOM     21  C   UNL A   1      33.526  16.702  23.324  1.00  0.00     0.003 A 
ATOM     22  C   UNL A   1      33.642  18.038  25.363  1.00  0.00     0.025 A 
ATOM     23  C   UNL A   1      32.821  17.722  22.695  1.00  0.00     0.002 A 
ATOM     24  C   UNL A   1      32.591  18.923  23.372  1.00  0.00     0.022 A 
ENDBRANCH  15  18
ENDBRANCH  13  15
ENDBRANCH   8  13
BRANCH  10  25
ATOM     25  N   UNL A   1      34.306  24.561  25.939  1.00  0.00    -0.369 N 
ATOM     26  C   UNL A   1      33.146  24.235  26.757  1.00  0.00     0.116 C 
ATOM     27  C   UNL A   1      34.584  25.947  25.620  1.00  0.00     0.126 C 
ATOM     28  C   UNL A   1      31.909  24.822  26.089  1.00  0.00     0.022 C 
ATOM     29  C   UNL A   1      33.373  26.554  24.903  1.00  0.00     0.064 C 
ATOM     30  C   UNL A   1      32.123  26.303  25.770  1.00  0.00     0.013 C 
BRANCH  29  31
ATOM     31  C   UNL A   1      33.331  25.996  23.454  1.00  0.00     0.267 C 
BRANCH  31  32
ATOM     32  N   UNL A   1      32.827  26.832  22.361  1.00  0.00    -0.335 N 
ATOM     33  C   UNL A   1      32.910  28.270  22.597  1.00  0.00     0.262 C 
ATOM     34  C   UNL A   1      31.475  26.530  21.905  1.00  0.00     0.262 C 
ATOM     35  H   UNL A   1      33.480  26.572  21.621  1.00  0.00     0.348 HD
ATOM     36  C   UNL A   1      31.516  28.681  23.022  1.00  0.00     0.067 C 
ATOM     37  C   UNL A   1      30.609  27.736  22.254  1.00  0.00     0.067 C 
ENDBRANCH  31  32
ENDBRANCH  29  31
ENDBRANCH  10  25
ENDBRANCH   4   7
ENDBRANCH   2   3
ENDBRANCH   1   2
BRANCH   1  38
ATOM     38  C   UNL A   1      42.687  21.286  25.808  1.00  0.00     0.118 C 
BRANCH  38  39
ATOM     39  N   UNL A   1      42.968  22.595  24.986  1.00  0.00    -0.352 N 
ATOM     40  C   UNL A   1      43.000  24.041  25.170  1.00  0.00     0.251 C 
ATOM     41  H   UNL A   1      43.193  22.368  24.055  1.00  0.00     0.163 HD
ATOM     42  O   UNL A   1      44.072  24.557  24.803  1.00  0.00    -0.269 OA
BRANCH  40  43
ATOM     43  C   UNL A   1      41.973  25.096  25.736  1.00  0.00     0.039 A 
ATOM     44  C   UNL A   1      41.881  26.422  25.222  1.00  0.00     0.014 A 
ATOM     45  C   UNL A   1      41.101  24.881  26.780  1.00  0.00     0.014 A 
ATOM     46  C   UNL A   1      41.590  27.523  26.104  1.00  0.00     0.010 A 
ATOM     47  C   UNL A   1      40.750  25.966  27.632  1.00  0.00     0.010 A 
ATOM     48  C   UNL A   1      41.234  27.272  27.427  1.00  0.00    -0.014 A 
BRANCH  48  49
ATOM     49  C   UNL A   1      41.460  28.227  28.594  1.00  0.00     0.031 A 
ATOM     50  C   UNL A   1      40.491  29.283  28.882  1.00  0.00     0.074 A 
ATOM     51  C   UNL A   1      42.389  28.150  29.601  1.00  0.00     0.049 A 
ATOM     52  N   UNL A   1      40.795  30.503  29.182  1.00  0.00    -0.248 NA
ATOM     53  C   UNL A   1      39.072  28.990  28.936  1.00  0.00     0.031 C 
ATOM     54  C   UNL A   1      42.599  28.894  30.863  1.00  0.00     0.029 A 
ATOM     55  N   UNL A   1      43.409  27.232  29.746  1.00  0.00    -0.354 N 
ATOM     56  C   UNL A   1      39.679  31.032  29.793  1.00  0.00     0.074 A 
ATOM     57  C   UNL A   1      38.604  30.123  29.459  1.00  0.00     0.031 C 
ATOM     58  C   UNL A   1      43.853  28.664  31.328  1.00  0.00     0.029 A 
ATOM     59  C   UNL A   1      44.510  27.786  30.384  1.00  0.00     0.049 A 
ATOM     60  H   UNL A   1      43.361  26.299  29.435  1.00  0.00     0.167 HD
ATOM     61  C   UNL A   1      39.792  32.039  30.712  1.00  0.00     0.037 A 
ATOM     62  C   UNL A   1      45.651  27.950  29.648  1.00  0.00     0.037 A 
ATOM     63  C   UNL A   1      41.204  32.305  31.045  1.00  0.00     0.049 A 
ATOM     64  C   UNL A   1      45.845  29.405  29.361  1.00  0.00     0.074 A 
ATOM     65  C   UNL A   1      41.970  32.012  32.165  1.00  0.00     0.029 A 
ATOM     66  N   UNL A   1      42.115  32.640  30.043  1.00  0.00    -0.354 N 
ATOM     67  N   UNL A   1      44.935  30.287  29.654  1.00  0.00    -0.248 NA
ATOM     68  C   UNL A   1      47.026  30.012  28.765  1.00  0.00     0.031 C 
ATOM     69  C   UNL A   1      43.341  32.056  31.793  1.00  0.00     0.029 A 
ATOM     70  C   UNL A   1      43.418  32.408  30.455  1.00  0.00     0.049 A 
ATOM     71  H   UNL A   1      41.866  32.997  29.159  1.00  0.00     0.167 HD
ATOM     72  C   UNL A   1      45.351  31.531  29.327  1.00  0.00     0.074 A 
ATOM     73  C   UNL A   1      46.680  31.314  28.779  1.00  0.00     0.031 C 
ATOM     74  C   UNL A   1      44.549  32.611  29.549  1.00  0.00     0.037 A 
BRANCH  61  75
ATOM     75  C   UNL A   1      38.608  32.527  31.544  1.00  0.00     0.058 A 
ATOM     76  C   UNL A   1      37.764  33.572  31.110  1.00  0.00     0.135 A 
ATOM     77  C   UNL A   1      38.239  31.972  32.789  1.00  0.00     0.135 A 
ATOM     78  F   UNL A   1      37.888  34.114  29.892  1.00  0.00    -0.206 F 
ATOM     79  C   UNL A   1      36.721  34.086  31.891  1.00  0.00     0.059 A 
ATOM     80  C   UNL A   1      37.261  32.520  33.625  1.00  0.00     0.059 A 
ATOM     81  F   UNL A   1      38.753  30.809  33.214  1.00  0.00    -0.206 F 
ATOM     82  C   UNL A   1      36.494  33.575  33.161  1.00  0.00     0.060 A 
BRANCH  82  83
ATOM     83  S   UNL A   1      35.127  34.218  34.144  1.00  0.00     0.124 S 
ATOM     84  O   UNL A   1      33.989  33.462  33.632  1.00  0.00    -0.237 OA
ATOM     85  O   UNL A   1      35.551  33.888  35.501  1.00  0.00    -0.237 OA
ATOM     86  O   UNL A   1      35.117  35.644  33.826  1.00  0.00    -0.744 OA
ENDBRANCH  82  83
ENDBRANCH  61  75
BRANCH  62  87
ATOM     87  C   UNL A   1      45.991  26.775  28.723  1.00  0.00     0.058 A 
ATOM     88  C   UNL A   1      46.010  27.170  27.376  1.00  0.00     0.135 A 
ATOM     89  C   UNL A   1      47.115  26.036  29.054  1.00  0.00     0.135 A 
ATOM     90  F   UNL A   1      44.863  27.393  26.725  1.00  0.00    -0.206 F 
ATOM     91  C   UNL A   1      47.206  27.571  26.776  1.00  0.00     0.059 A 
ATOM     92  C   UNL A   1      48.304  26.259  28.347  1.00  0.00     0.059 A 
ATOM     93  F   UNL A   1      47.112  25.197  30.102  1.00  0.00    -0.206 F 
ATOM     94  C   UNL A   1      48.397  27.295  27.432  1.00  0.00     0.060 A 
BRANCH  94  95
ATOM     95  S   UNL A   1      49.877  28.588  27.184  1.00  0.00     0.124 S 
ATOM     96  O   UNL A   1      50.796  27.711  26.489  1.00  0.00    -0.237 OA
ATOM     97  O   UNL A   1      49.471  29.625  26.253  1.00  0.00    -0.237 OA
ATOM     98  O   UNL A   1      50.329  29.048  28.464  1.00  0.00    -0.744 OA
ENDBRANCH  94  95
ENDBRANCH  62  87
BRANCH  74  99
ATOM     99  C   UNL A   1      44.832  33.982  29.025  1.00  0.00     0.058 A 
ATOM    100  C   UNL A   1      44.272  34.492  27.843  1.00  0.00     0.135 A 
ATOM    101  C   UNL A   1      45.611  34.882  29.785  1.00  0.00     0.135 A 
ATOM    102  F   UNL A   1      43.407  33.777  27.109  1.00  0.00    -0.206 F 
ATOM    103  C   UNL A   1      44.558  35.774  27.386  1.00  0.00     0.059 A 
ATOM    104  C   UNL A   1      45.851  36.186  29.383  1.00  0.00     0.059 A 
ATOM    105  F   UNL A   1      46.166  34.521  30.952  1.00  0.00    -0.206 F 
ATOM    106  C   UNL A   1      45.358  36.610  28.160  1.00  0.00     0.060 A 
BRANCH 106 107
ATOM    107  S   UNL A   1      45.734  38.263  27.567  1.00  0.00     0.124 S 
ATOM    108  O   UNL A   1      46.591  38.762  28.637  1.00  0.00    -0.237 OA
ATOM    109  O   UNL A   1      46.401  38.003  26.294  1.00  0.00    -0.237 OA
ATOM    110  O   UNL A   1      44.422  38.891  27.462  1.00  0.00    -0.744 OA
ENDBRANCH 106 107
ENDBRANCH  74  99
ENDBRANCH  48  49
ENDBRANCH  40  43
ENDBRANCH  38  39
ENDBRANCH   1  38
TORSDOF 19
ENDMDL
MODEL 3
REMARK VINA RESULT:     -11.5      6.395     11.507
REMARK SMILES Cc1cccc(S(=O)(=O)Nc2cc(C(=O)NCCCNC(=O)c3ccc(-c4c5nc(c(-c6c(F)cc(S(=O)(=O)[O-])cc6F)c6ccc([nH]6)c(-c6c(F)cc(S(=O)(=O)[O-])cc6F)c6nc(c(-c7c(F)cc(S(=O)(=O)[O-])cc7F)c7ccc4[nH]7)C=C6)C=C5)cc3)ccc2N2CCC[C@H](C[NH+]3CCCC3)C2)c1
REMARK SMILES IDX 18 1 17 2 16 3 14 4 15 5 13 7 11 8 12 9 91 10 90 11 89 12
REMARK SMILES IDX 10 13 7 15 8 16 9 17 6 18 1 19 2 20 3 21 104 22 4 23 5 24
REMARK SMILES IDX 92 25 93 26 103 27 94 28 96 29 95 30 97 31 98 32 99 33
REMARK SMILES IDX 102 34 100 36 101 37 19 38 20 39 21 40 22 42 23 43 24 44
REMARK SMILES IDX 88 45 25 46 87 47 26 48 27 49 28 50 81 51 29 52 86 53 80 54
REMARK SMILES IDX 82 55 30 56 85 57 79 58 78 59 31 61 65 62 44 63 64 64 45 65
REMARK SMILES IDX 48 66 63 67 83 68 46 69 47 70 62 72 84 73 49 74 32 75 33 76
REMARK SMILES IDX 42 77 34 78 35 79 41 80 43 81 36 82 37 83 38 84 39 85 40 86
REMARK SMILES IDX 66 87 67 88 76 89 68 90 69 91 75 92 77 93 70 94 71 95 72 96
REMARK SMILES IDX 73 97 74 98 50 99 51 100 60 101 52 102 53 103 59 104 61 105
REMARK SMILES IDX 54 106 55 107 56 108 57 109 58 110
REMARK H PARENT 16 6 10 14 98 35 20 41 82 60 48 71
REMARK Flexibility Score: inf
ROOT
ATOM      1  C   UNL A   1      46.905  30.564  30.097  1.00  0.00     0.042 C 
ENDROOT
BRANCH   1   2
ATOM      2  C   UNL A   1      45.898  29.834  29.070  1.00  0.00     0.118 C 
BRANCH   2   3
ATOM      3  N   UNL A   1      46.168  29.682  27.610  1.00  0.00    -0.352 N 
ATOM      4  C   UNL A   1      45.688  28.940  26.558  1.00  0.00     0.251 C 
ATOM      5  O   UNL A   1      45.822  29.260  25.380  1.00  0.00    -0.269 OA
ATOM      6  H   UNL A   1      46.891  30.283  27.318  1.00  0.00     0.163 HD
BRANCH   4   7
ATOM      7  C   UNL A   1      44.979  27.696  26.855  1.00  0.00     0.042 A 
ATOM      8  C   UNL A   1      42.837  26.716  27.132  1.00  0.00     0.073 A 
ATOM      9  C   UNL A   1      43.652  27.811  27.228  1.00  0.00     0.042 A 
ATOM     10  C   UNL A   1      43.396  25.432  27.043  1.00  0.00     0.061 A 
ATOM     11  C   UNL A   1      44.785  25.309  26.859  1.00  0.00     0.029 A 
ATOM     12  C   UNL A   1      45.579  26.444  26.709  1.00  0.00     0.016 A 
BRANCH   8  13
ATOM     13  N   UNL A   1      41.432  26.956  27.118  1.00  0.00    -0.277 N 
ATOM     14  H   UNL A   1      40.963  26.984  26.254  1.00  0.00     0.180 HD
BRANCH  13  15
ATOM     15  S   UNL A   1      40.537  27.196  28.552  1.00  0.00     0.261 S 
ATOM     16  O   UNL A   1      41.518  27.061  29.614  1.00  0.00    -0.201 OA
ATOM     17  O   UNL A   1      39.441  26.247  28.502  1.00  0.00    -0.201 OA
BRANCH  15  18
ATOM     18  C   UNL A   1      39.766  28.802  28.782  1.00  0.00     0.088 A 
ATOM     19  C   UNL A   1      40.083  32.058  30.736  1.00  0.00     0.044 C 
ATOM     20  C   UNL A   1      39.596  31.029  29.750  1.00  0.00    -0.050 A 
ATOM     21  C   UNL A   1      38.279  31.141  29.277  1.00  0.00     0.003 A 
ATOM     22  C   UNL A   1      40.368  29.890  29.427  1.00  0.00     0.025 A 
ATOM     23  C   UNL A   1      37.706  30.101  28.554  1.00  0.00     0.002 A 
ATOM     24  C   UNL A   1      38.436  28.931  28.330  1.00  0.00     0.022 A 
ENDBRANCH  15  18
ENDBRANCH  13  15
ENDBRANCH   8  13
BRANCH  10  25
ATOM     25  N   UNL A   1      42.642  24.292  27.212  1.00  0.00    -0.369 N 
ATOM     26  C   UNL A   1      42.259  23.930  28.570  1.00  0.00     0.116 C 
ATOM     27  C   UNL A   1      42.019  23.614  26.093  1.00  0.00     0.126 C 
ATOM     28  C   UNL A   1      42.476  22.432  28.745  1.00  0.00     0.022 C 
ATOM     29  C   UNL A   1      42.260  22.106  26.216  1.00  0.00     0.064 C 
ATOM     30  C   UNL A   1      41.796  21.656  27.616  1.00  0.00     0.013 C 
BRANCH  29  31
ATOM     31  C   UNL A   1      43.741  21.815  25.854  1.00  0.00     0.267 C 
BRANCH  31  32
ATOM     32  N   UNL A   1      44.062  20.897  24.758  1.00  0.00    -0.335 N 
ATOM     33  C   UNL A   1      43.753  19.494  25.021  1.00  0.00     0.262 C 
ATOM     34  C   UNL A   1      45.428  20.968  24.251  1.00  0.00     0.262 C 
ATOM     35  H   UNL A   1      43.434  21.252  24.037  1.00  0.00     0.348 HD
ATOM     36  C   UNL A   1      45.076  18.864  25.405  1.00  0.00     0.067 C 
ATOM     37  C   UNL A   1      46.097  19.640  24.591  1.00  0.00     0.067 C 
ENDBRANCH  31  32
ENDBRANCH  29  31
ENDBRANCH  10  25
ENDBRANCH   4   7
ENDBRANCH   2   3
ENDBRANCH   1   2
BRANCH   1  38
ATOM     38  C   UNL A   1      48.462  30.204  29.896  1.00  0.00     0.118 C 
BRANCH  38  39
ATOM     39  N   UNL A   1      49.093  28.848  29.413  1.00  0.00    -0.352 N 
ATOM     40  C   UNL A   1      48.717  27.455  29.208  1.00  0.00     0.251 C 
ATOM     41  H   UNL A   1      50.038  28.981  29.175  1.00  0.00     0.163 HD
ATOM     42  O   UNL A   1      48.980  27.041  28.063  1.00  0.00    -0.269 OA
BRANCH  40  43
ATOM     43  C   UNL A   1      48.047  26.356  30.119  1.00  0.00     0.039 A 
ATOM     44  C   UNL A   1      46.945  25.567  29.676  1.00  0.00     0.014 A 
ATOM     45  C   UNL A   1      48.408  26.062  31.416  1.00  0.00     0.014 A 
ATOM     46  C   UNL A   1      45.911  25.183  30.603  1.00  0.00     0.010 A 
ATOM     47  C   UNL A   1      47.415  25.624  32.336  1.00  0.00     0.010 A 
ATOM     48  C   UNL A   1      46.071  25.439  31.962  1.00  0.00    -0.014 A 
BRANCH  48  49
ATOM     49  C   UNL A   1      44.934  25.650  32.957  1.00  0.00     0.031 A 
ATOM     50  C   UNL A   1      44.332  26.971  33.121  1.00  0.00     0.074 A 
ATOM     51  C   UNL A   1      44.208  24.709  33.643  1.00  0.00     0.049 A 
ATOM     52  N   UNL A   1      44.032  27.510  34.256  1.00  0.00    -0.248 NA
ATOM     53  C   UNL A   1      43.938  27.752  31.965  1.00  0.00     0.031 C 
ATOM     54  C   UNL A   1      42.991  24.766  34.484  1.00  0.00     0.029 A 
ATOM     55  N   UNL A   1      44.396  23.343  33.668  1.00  0.00    -0.354 N 
ATOM     56  C   UNL A   1      43.118  28.503  33.974  1.00  0.00     0.074 A 
ATOM     57  C   UNL A   1      43.231  28.720  32.548  1.00  0.00     0.031 C 
ATOM     58  C   UNL A   1      42.881  23.624  35.209  1.00  0.00     0.029 A 
ATOM     59  C   UNL A   1      44.023  22.796  34.888  1.00  0.00     0.049 A 
ATOM     60  H   UNL A   1      44.752  22.820  32.913  1.00  0.00     0.167 HD
ATOM     61  C   UNL A   1      42.187  28.886  34.901  1.00  0.00     0.037 A 
ATOM     62  C   UNL A   1      45.013  22.283  35.681  1.00  0.00     0.037 A 
ATOM     63  C   UNL A   1      42.210  28.000  36.080  1.00  0.00     0.049 A 
ATOM     64  C   UNL A   1      45.233  23.198  36.843  1.00  0.00     0.074 A 
ATOM     65  C   UNL A   1      41.347  27.002  36.513  1.00  0.00     0.029 A 
ATOM     66  N   UNL A   1      43.385  27.826  36.812  1.00  0.00    -0.354 N 
ATOM     67  N   UNL A   1      44.654  24.360  36.920  1.00  0.00    -0.248 NA
ATOM     68  C   UNL A   1      46.066  22.923  38.005  1.00  0.00     0.031 C 
ATOM     69  C   UNL A   1      42.054  26.161  37.415  1.00  0.00     0.029 A 
ATOM     70  C   UNL A   1      43.338  26.661  37.562  1.00  0.00     0.049 A 
ATOM     71  H   UNL A   1      44.146  28.450  36.800  1.00  0.00     0.167 HD
ATOM     72  C   UNL A   1      44.985  24.986  38.071  1.00  0.00     0.074 A 
ATOM     73  C   UNL A   1      45.869  24.040  38.732  1.00  0.00     0.031 C 
ATOM     74  C   UNL A   1      44.486  26.222  38.355  1.00  0.00     0.037 A 
BRANCH  61  75
ATOM     75  C   UNL A   1      41.047  29.845  34.571  1.00  0.00     0.058 A 
ATOM     76  C   UNL A   1      41.044  31.188  35.006  1.00  0.00     0.135 A 
ATOM     77  C   UNL A   1      39.922  29.493  33.792  1.00  0.00     0.135 A 
ATOM     78  F   UNL A   1      42.097  31.724  35.635  1.00  0.00    -0.206 F 
ATOM     79  C   UNL A   1      39.974  32.063  34.780  1.00  0.00     0.059 A 
ATOM     80  C   UNL A   1      38.805  30.316  33.625  1.00  0.00     0.059 A 
ATOM     81  F   UNL A   1      39.897  28.360  33.077  1.00  0.00    -0.206 F 
ATOM     82  C   UNL A   1      38.843  31.611  34.114  1.00  0.00     0.060 A 
BRANCH  82  83
ATOM     83  S   UNL A   1      37.486  32.753  33.796  1.00  0.00     0.124 S 
ATOM     84  O   UNL A   1      36.825  32.146  32.647  1.00  0.00    -0.237 OA
ATOM     85  O   UNL A   1      36.748  32.701  35.055  1.00  0.00    -0.237 OA
ATOM     86  O   UNL A   1      38.160  34.020  33.525  1.00  0.00    -0.744 OA
ENDBRANCH  82  83
ENDBRANCH  61  75
BRANCH  62  87
ATOM     87  C   UNL A   1      46.077  21.472  34.931  1.00  0.00     0.058 A 
ATOM     88  C   UNL A   1      47.352  22.046  35.068  1.00  0.00     0.135 A 
ATOM     89  C   UNL A   1      46.102  20.109  35.182  1.00  0.00     0.135 A 
ATOM     90  F   UNL A   1      47.666  23.152  34.384  1.00  0.00    -0.206 F 
ATOM     91  C   UNL A   1      48.208  21.625  36.087  1.00  0.00     0.059 A 
ATOM     92  C   UNL A   1      47.074  19.599  36.053  1.00  0.00     0.059 A 
ATOM     93  F   UNL A   1      45.152  19.296  34.694  1.00  0.00    -0.206 F 
ATOM     94  C   UNL A   1      47.904  20.452  36.761  1.00  0.00     0.060 A 
BRANCH  94  95
ATOM     95  S   UNL A   1      48.431  20.352  38.669  1.00  0.00     0.124 S 
ATOM     96  O   UNL A   1      49.419  19.301  38.550  1.00  0.00    -0.237 OA
ATOM     97  O   UNL A   1      49.127  21.568  39.049  1.00  0.00    -0.237 OA
ATOM     98  O   UNL A   1      47.285  20.021  39.464  1.00  0.00    -0.744 OA
ENDBRANCH  94  95
ENDBRANCH  62  87
BRANCH  74  99
ATOM     99  C   UNL A   1      44.965  27.074  39.487  1.00  0.00     0.058 A 
ATOM    100  C   UNL A   1      44.602  26.861  40.826  1.00  0.00     0.135 A 
ATOM    101  C   UNL A   1      45.918  28.089  39.252  1.00  0.00     0.135 A 
ATOM    102  F   UNL A   1      43.811  25.840  41.187  1.00  0.00    -0.206 F 
ATOM    103  C   UNL A   1      45.068  27.674  41.853  1.00  0.00     0.059 A 
ATOM    104  C   UNL A   1      46.449  28.866  40.270  1.00  0.00     0.059 A 
ATOM    105  F   UNL A   1      46.371  28.359  38.018  1.00  0.00    -0.206 F 
ATOM    106  C   UNL A   1      45.984  28.681  41.563  1.00  0.00     0.060 A 
BRANCH 106 107
ATOM    107  S   UNL A   1      46.580  29.737  42.887  1.00  0.00     0.124 S 
ATOM    108  O   UNL A   1      45.685  30.883  42.764  1.00  0.00    -0.237 OA
ATOM    109  O   UNL A   1      46.383  28.907  44.072  1.00  0.00    -0.237 OA
ATOM    110  O   UNL A   1      47.972  29.980  42.525  1.00  0.00    -0.744 OA
ENDBRANCH 106 107
ENDBRANCH  74  99
ENDBRANCH  48  49
ENDBRANCH  40  43
ENDBRANCH  38  39
ENDBRANCH   1  38
TORSDOF 19
ENDMDL
