MODEL 1
REMARK VINA RESULT:     -12.1      0.000      0.000
REMARK SMILES Cc1ccc(NC(=O)Cn2c(CCC(=O)NCCCNC(=O)c3ccc(-c4c5nc(c(-c6c(F)cc(S(=O)(=O)[O-])cc6F)c6ccc([nH]6)c(-c6c(F)cc(S(=O)(=O)[O-])cc6F)c6nc(c(-c7c(F)cc(S(=O)(=O)[O-])cc7F)c7ccc4[nH]7)C=C6)C=C5)cc3)ccc2-c2ccccc2)cc1
REMARK SMILES IDX 17 1 16 2 14 3 15 4 13 6 12 7 11 8 10 9 91 10 89 11 90 12
REMARK SMILES IDX 9 13 7 14 6 15 8 17 5 18 1 19 2 20 3 21 99 22 4 23 98 24
REMARK SMILES IDX 92 25 93 26 97 27 94 28 96 29 95 30 18 31 19 32 20 33 21 34
REMARK SMILES IDX 22 36 23 37 24 38 88 39 25 40 87 41 26 42 27 43 28 44 81 45
REMARK SMILES IDX 29 46 86 47 80 48 82 49 30 50 85 51 79 52 78 53 31 55 65 56
REMARK SMILES IDX 44 57 64 58 45 59 48 60 63 61 83 62 46 63 47 64 62 66 84 67
REMARK SMILES IDX 49 68 32 69 33 70 42 71 34 72 35 73 41 74 43 75 36 76 37 77
REMARK SMILES IDX 38 78 39 79 40 80 66 81 67 82 76 83 68 84 69 85 75 86 77 87
REMARK SMILES IDX 70 88 71 89 72 90 73 91 74 92 50 93 51 94 60 95 52 96 53 97
REMARK SMILES IDX 59 98 61 99 54 100 55 101 56 102 57 103 58 104
REMARK H PARENT 16 5 6 16 20 35 82 54 48 65
REMARK Flexibility Score: inf
ROOT
ATOM      1  C   UNL A   1      31.394  29.012  24.834  1.00  0.00     0.117 C 
ENDROOT
BRANCH   1   2
ATOM      2  N   UNL A   1      30.379  28.499  23.927  1.00  0.00    -0.356 N 
ATOM      3  C   UNL A   1      29.762  27.280  23.898  1.00  0.00     0.220 C 
ATOM      4  O   UNL A   1      28.654  27.173  23.359  1.00  0.00    -0.275 OA
ATOM      5  H   UNL A   1      30.092  29.128  23.227  1.00  0.00     0.163 HD
BRANCH   3   6
ATOM      6  C   UNL A   1      30.434  26.031  24.422  1.00  0.00     0.106 C 
BRANCH   6   7
ATOM      7  C   UNL A   1      30.216  24.881  23.431  1.00  0.00     0.064 C 
BRANCH   7   8
ATOM      8  C   UNL A   1      31.314  23.861  23.479  1.00  0.00     0.019 A 
ATOM      9  N   UNL A   1      31.409  22.735  24.285  1.00  0.00    -0.335 N 
ATOM     10  C   UNL A   1      32.375  21.895  23.707  1.00  0.00     0.049 A 
ATOM     11  C   UNL A   1      32.433  23.876  22.659  1.00  0.00     0.024 A 
ATOM     12  C   UNL A   1      33.089  22.645  22.795  1.00  0.00     0.029 A 
BRANCH   9  13
ATOM     13  C   UNL A   1      30.684  22.335  25.509  1.00  0.00     0.222 C 
BRANCH  13  14
ATOM     14  C   UNL A   1      30.662  23.203  26.749  1.00  0.00     0.244 C 
ATOM     15  N   UNL A   1      31.744  23.915  27.183  1.00  0.00    -0.325 N 
ATOM     16  H   UNL A   1      31.566  24.555  27.909  1.00  0.00     0.169 HD
ATOM     17  O   UNL A   1      29.633  23.267  27.434  1.00  0.00    -0.273 OA
BRANCH  15  18
ATOM     18  C   UNL A   1      33.068  23.863  26.739  1.00  0.00     0.041 A 
ATOM     19  C   UNL A   1      36.906  23.526  24.859  1.00  0.00     0.044 C 
ATOM     20  C   UNL A   1      35.613  23.708  25.592  1.00  0.00    -0.051 A 
ATOM     21  C   UNL A   1      35.156  22.695  26.438  1.00  0.00     0.005 A 
ATOM     22  C   UNL A   1      34.815  24.840  25.389  1.00  0.00     0.005 A 
ATOM     23  C   UNL A   1      33.898  22.783  27.020  1.00  0.00     0.026 A 
ATOM     24  C   UNL A   1      33.555  24.931  25.985  1.00  0.00     0.026 A 
ENDBRANCH  15  18
ENDBRANCH  13  14
ENDBRANCH   9  13
BRANCH  10  25
ATOM     25  C   UNL A   1      32.513  20.456  23.927  1.00  0.00    -0.002 A 
ATOM     26  C   UNL A   1      32.305  19.527  22.907  1.00  0.00     0.010 A 
ATOM     27  C   UNL A   1      32.764  19.995  25.228  1.00  0.00     0.010 A 
ATOM     28  C   UNL A   1      32.391  18.158  23.183  1.00  0.00     0.001 A 
ATOM     29  C   UNL A   1      32.886  18.632  25.496  1.00  0.00     0.001 A 
ATOM     30  C   UNL A   1      32.696  17.713  24.471  1.00  0.00     0.000 A 
ENDBRANCH  10  25
ENDBRANCH   7   8
ENDBRANCH   6   7
ENDBRANCH   3   6
ENDBRANCH   1   2
BRANCH   1  31
ATOM     31  C   UNL A   1      32.868  28.781  24.453  1.00  0.00     0.042 C 
BRANCH  31  32
ATOM     32  C   UNL A   1      33.987  28.551  25.522  1.00  0.00     0.118 C 
BRANCH  32  33
ATOM     33  N   UNL A   1      34.037  29.748  26.402  1.00  0.00    -0.352 N 
ATOM     34  C   UNL A   1      34.716  30.290  27.466  1.00  0.00     0.251 C 
ATOM     35  H   UNL A   1      33.332  30.376  26.122  1.00  0.00     0.163 HD
ATOM     36  O   UNL A   1      34.114  31.230  28.007  1.00  0.00    -0.269 OA
BRANCH  34  37
ATOM     37  C   UNL A   1      36.063  29.943  28.031  1.00  0.00     0.039 A 
ATOM     38  C   UNL A   1      36.144  29.630  29.420  1.00  0.00     0.014 A 
ATOM     39  C   UNL A   1      37.260  29.995  27.349  1.00  0.00     0.014 A 
ATOM     40  C   UNL A   1      37.361  29.315  30.098  1.00  0.00     0.010 A 
ATOM     41  C   UNL A   1      38.471  29.722  28.042  1.00  0.00     0.010 A 
ATOM     42  C   UNL A   1      38.567  29.332  29.411  1.00  0.00    -0.014 A 
BRANCH  42  43
ATOM     43  C   UNL A   1      39.844  28.647  29.899  1.00  0.00     0.031 A 
ATOM     44  C   UNL A   1      41.028  29.010  29.109  1.00  0.00     0.074 A 
ATOM     45  C   UNL A   1      40.244  28.290  31.158  1.00  0.00     0.049 A 
ATOM     46  N   UNL A   1      41.341  30.256  29.063  1.00  0.00    -0.248 NA
ATOM     47  C   UNL A   1      41.995  28.117  28.493  1.00  0.00     0.031 C 
ATOM     48  C   UNL A   1      39.377  28.016  32.290  1.00  0.00     0.029 A 
ATOM     49  N   UNL A   1      41.562  28.291  31.730  1.00  0.00    -0.354 N 
ATOM     50  C   UNL A   1      42.640  30.325  28.698  1.00  0.00     0.074 A 
ATOM     51  C   UNL A   1      42.982  28.991  28.227  1.00  0.00     0.031 C 
ATOM     52  C   UNL A   1      40.116  27.998  33.419  1.00  0.00     0.029 A 
ATOM     53  C   UNL A   1      41.532  28.354  33.138  1.00  0.00     0.049 A 
ATOM     54  H   UNL A   1      42.390  28.251  31.200  1.00  0.00     0.167 HD
ATOM     55  C   UNL A   1      43.333  31.455  28.982  1.00  0.00     0.037 A 
ATOM     56  C   UNL A   1      42.214  29.214  33.978  1.00  0.00     0.037 A 
ATOM     57  C   UNL A   1      42.586  32.496  29.708  1.00  0.00     0.049 A 
ATOM     58  C   UNL A   1      41.283  30.371  34.000  1.00  0.00     0.074 A 
ATOM     59  C   UNL A   1      42.457  33.869  29.654  1.00  0.00     0.029 A 
ATOM     60  N   UNL A   1      41.719  32.122  30.730  1.00  0.00    -0.354 N 
ATOM     61  N   UNL A   1      41.153  31.084  32.929  1.00  0.00    -0.248 NA
ATOM     62  C   UNL A   1      40.505  30.804  35.145  1.00  0.00     0.031 C 
ATOM     63  C   UNL A   1      41.392  34.260  30.543  1.00  0.00     0.029 A 
ATOM     64  C   UNL A   1      40.871  33.134  31.164  1.00  0.00     0.049 A 
ATOM     65  H   UNL A   1      41.709  31.216  31.116  1.00  0.00     0.167 HD
ATOM     66  C   UNL A   1      40.235  32.050  33.199  1.00  0.00     0.074 A 
ATOM     67  C   UNL A   1      39.857  31.839  34.589  1.00  0.00     0.031 C 
ATOM     68  C   UNL A   1      39.821  32.856  32.186  1.00  0.00     0.037 A 
BRANCH  55  69
ATOM     69  C   UNL A   1      44.785  31.457  28.669  1.00  0.00     0.058 A 
ATOM     70  C   UNL A   1      45.240  31.336  27.350  1.00  0.00     0.135 A 
ATOM     71  C   UNL A   1      45.745  31.719  29.664  1.00  0.00     0.135 A 
ATOM     72  F   UNL A   1      44.369  31.115  26.353  1.00  0.00    -0.206 F 
ATOM     73  C   UNL A   1      46.587  31.508  27.022  1.00  0.00     0.059 A 
ATOM     74  C   UNL A   1      47.086  31.919  29.358  1.00  0.00     0.059 A 
ATOM     75  F   UNL A   1      45.375  31.860  30.948  1.00  0.00    -0.206 F 
ATOM     76  C   UNL A   1      47.501  31.811  28.034  1.00  0.00     0.060 A 
BRANCH  76  77
ATOM     77  S   UNL A   1      49.226  32.148  27.620  1.00  0.00     0.124 S 
ATOM     78  O   UNL A   1      49.105  32.726  26.286  1.00  0.00    -0.237 OA
ATOM     79  O   UNL A   1      49.645  33.054  28.683  1.00  0.00    -0.237 OA
ATOM     80  O   UNL A   1      49.844  30.824  27.671  1.00  0.00    -0.744 OA
ENDBRANCH  76  77
ENDBRANCH  55  69
BRANCH  56  81
ATOM     81  C   UNL A   1      43.660  29.689  34.136  1.00  0.00     0.058 A 
ATOM     82  C   UNL A   1      44.541  29.698  33.042  1.00  0.00     0.135 A 
ATOM     83  C   UNL A   1      44.302  29.834  35.404  1.00  0.00     0.135 A 
ATOM     84  F   UNL A   1      44.065  29.506  31.802  1.00  0.00    -0.206 F 
ATOM     85  C   UNL A   1      45.943  29.789  33.199  1.00  0.00     0.059 A 
ATOM     86  C   UNL A   1      45.679  29.935  35.581  1.00  0.00     0.059 A 
ATOM     87  F   UNL A   1      43.632  29.777  36.559  1.00  0.00    -0.206 F 
ATOM     88  C   UNL A   1      46.503  29.875  34.477  1.00  0.00     0.060 A 
BRANCH  88  89
ATOM     89  S   UNL A   1      48.296  29.773  34.713  1.00  0.00     0.124 S 
ATOM     90  O   UNL A   1      48.458  28.384  35.137  1.00  0.00    -0.237 OA
ATOM     91  O   UNL A   1      48.806  30.091  33.386  1.00  0.00    -0.237 OA
ATOM     92  O   UNL A   1      48.570  30.764  35.750  1.00  0.00    -0.744 OA
ENDBRANCH  88  89
ENDBRANCH  56  81
BRANCH  68  93
ATOM     93  C   UNL A   1      38.380  33.346  32.151  1.00  0.00     0.058 A 
ATOM     94  C   UNL A   1      37.467  33.064  31.098  1.00  0.00     0.135 A 
ATOM     95  C   UNL A   1      37.897  34.281  33.084  1.00  0.00     0.135 A 
ATOM     96  F   UNL A   1      37.834  32.417  29.983  1.00  0.00    -0.206 F 
ATOM     97  C   UNL A   1      36.145  33.508  31.078  1.00  0.00     0.059 A 
ATOM     98  C   UNL A   1      36.589  34.784  33.056  1.00  0.00     0.059 A 
ATOM     99  F   UNL A   1      38.693  34.809  34.022  1.00  0.00    -0.206 F 
ATOM    100  C   UNL A   1      35.703  34.353  32.077  1.00  0.00     0.060 A 
BRANCH 100 101
ATOM    101  S   UNL A   1      34.006  34.950  32.036  1.00  0.00     0.124 S 
ATOM    102  O   UNL A   1      33.635  34.759  30.630  1.00  0.00    -0.237 OA
ATOM    103  O   UNL A   1      33.356  34.037  32.979  1.00  0.00    -0.237 OA
ATOM    104  O   UNL A   1      34.119  36.328  32.465  1.00  0.00    -0.744 OA
ENDBRANCH 100 101
ENDBRANCH  68  93
ENDBRANCH  42  43
ENDBRANCH  34  37
ENDBRANCH  32  33
ENDBRANCH  31  32
ENDBRANCH   1  31
TORSDOF 19
ENDMDL
MODEL 2
REMARK VINA RESULT:     -11.7      4.090      8.659
REMARK SMILES Cc1ccc(NC(=O)Cn2c(CCC(=O)NCCCNC(=O)c3ccc(-c4c5nc(c(-c6c(F)cc(S(=O)(=O)[O-])cc6F)c6ccc([nH]6)c(-c6c(F)cc(S(=O)(=O)[O-])cc6F)c6nc(c(-c7c(F)cc(S(=O)(=O)[O-])cc7F)c7ccc4[nH]7)C=C6)C=C5)cc3)ccc2-c2ccccc2)cc1
REMARK SMILES IDX 17 1 16 2 14 3 15 4 13 6 12 7 11 8 10 9 91 10 89 11 90 12
REMARK SMILES IDX 9 13 7 14 6 15 8 17 5 18 1 19 2 20 3 21 99 22 4 23 98 24
REMARK SMILES IDX 92 25 93 26 97 27 94 28 96 29 95 30 18 31 19 32 20 33 21 34
REMARK SMILES IDX 22 36 23 37 24 38 88 39 25 40 87 41 26 42 27 43 28 44 81 45
REMARK SMILES IDX 29 46 86 47 80 48 82 49 30 50 85 51 79 52 78 53 31 55 65 56
REMARK SMILES IDX 44 57 64 58 45 59 48 60 63 61 83 62 46 63 47 64 62 66 84 67
REMARK SMILES IDX 49 68 32 69 33 70 42 71 34 72 35 73 41 74 43 75 36 76 37 77
REMARK SMILES IDX 38 78 39 79 40 80 66 81 67 82 76 83 68 84 69 85 75 86 77 87
REMARK SMILES IDX 70 88 71 89 72 90 73 91 74 92 50 93 51 94 60 95 52 96 53 97
REMARK SMILES IDX 59 98 61 99 54 100 55 101 56 102 57 103 58 104
REMARK H PARENT 16 5 6 16 20 35 82 54 48 65
REMARK Flexibility Score: inf
ROOT
ATOM      1  C   UNL A   1      34.080  22.250  24.763  1.00  0.00     0.117 C 
ENDROOT
BRANCH   1   2
ATOM      2  N   UNL A   1      33.481  22.853  25.943  1.00  0.00    -0.356 N 
ATOM      3  C   UNL A   1      32.204  22.764  26.424  1.00  0.00     0.220 C 
ATOM      4  O   UNL A   1      31.992  22.969  27.625  1.00  0.00    -0.275 OA
ATOM      5  H   UNL A   1      34.090  23.411  26.479  1.00  0.00     0.163 HD
BRANCH   3   6
ATOM      6  C   UNL A   1      31.023  22.515  25.514  1.00  0.00     0.106 C 
BRANCH   6   7
ATOM      7  C   UNL A   1      31.187  23.337  24.230  1.00  0.00     0.064 C 
BRANCH   7   8
ATOM      8  C   UNL A   1      30.854  24.786  24.424  1.00  0.00     0.019 A 
ATOM      9  N   UNL A   1      30.834  25.800  23.476  1.00  0.00    -0.335 N 
ATOM     10  C   UNL A   1      30.094  26.860  24.023  1.00  0.00     0.049 A 
ATOM     11  C   UNL A   1      30.464  25.345  25.633  1.00  0.00     0.024 A 
ATOM     12  C   UNL A   1      29.981  26.636  25.379  1.00  0.00     0.029 A 
BRANCH   9  13
ATOM     13  C   UNL A   1      31.393  25.883  22.111  1.00  0.00     0.222 C 
BRANCH  13  14
ATOM     14  C   UNL A   1      32.870  25.699  21.836  1.00  0.00     0.244 C 
ATOM     15  N   UNL A   1      33.850  26.153  22.674  1.00  0.00    -0.325 N 
ATOM     16  H   UNL A   1      34.761  25.844  22.466  1.00  0.00     0.169 HD
ATOM     17  O   UNL A   1      33.234  25.134  20.796  1.00  0.00    -0.273 OA
BRANCH  15  18
ATOM     18  C   UNL A   1      33.739  26.993  23.784  1.00  0.00     0.041 A 
ATOM     19  C   UNL A   1      32.843  29.372  27.236  1.00  0.00     0.044 C 
ATOM     20  C   UNL A   1      33.263  28.557  26.053  1.00  0.00    -0.051 A 
ATOM     21  C   UNL A   1      33.237  29.131  24.780  1.00  0.00     0.005 A 
ATOM     22  C   UNL A   1      33.610  27.207  26.186  1.00  0.00     0.005 A 
ATOM     23  C   UNL A   1      33.490  28.356  23.656  1.00  0.00     0.026 A 
ATOM     24  C   UNL A   1      33.875  26.433  25.054  1.00  0.00     0.026 A 
ENDBRANCH  15  18
ENDBRANCH  13  14
ENDBRANCH   9  13
BRANCH  10  25
ATOM     25  C   UNL A   1      29.442  27.935  23.276  1.00  0.00    -0.002 A 
ATOM     26  C   UNL A   1      30.169  28.894  22.571  1.00  0.00     0.010 A 
ATOM     27  C   UNL A   1      28.047  28.061  23.357  1.00  0.00     0.010 A 
ATOM     28  C   UNL A   1      29.500  29.937  21.921  1.00  0.00     0.001 A 
ATOM     29  C   UNL A   1      27.376  29.078  22.678  1.00  0.00     0.001 A 
ATOM     30  C   UNL A   1      28.106  30.020  21.962  1.00  0.00     0.000 A 
ENDBRANCH  10  25
ENDBRANCH   7   8
ENDBRANCH   6   7
ENDBRANCH   3   6
ENDBRANCH   1   2
BRANCH   1  31
ATOM     31  C   UNL A   1      35.477  22.743  24.345  1.00  0.00     0.042 C 
BRANCH  31  32
ATOM     32  C   UNL A   1      36.304  23.753  25.209  1.00  0.00     0.118 C 
BRANCH  32  33
ATOM     33  N   UNL A   1      37.483  23.034  25.756  1.00  0.00    -0.352 N 
ATOM     34  C   UNL A   1      38.722  23.238  26.314  1.00  0.00     0.251 C 
ATOM     35  H   UNL A   1      37.319  22.064  25.697  1.00  0.00     0.163 HD
ATOM     36  O   UNL A   1      39.439  22.226  26.309  1.00  0.00    -0.269 OA
BRANCH  34  37
ATOM     37  C   UNL A   1      39.305  24.469  26.948  1.00  0.00     0.039 A 
ATOM     38  C   UNL A   1      40.271  25.209  26.204  1.00  0.00     0.014 A 
ATOM     39  C   UNL A   1      39.067  24.901  28.236  1.00  0.00     0.014 A 
ATOM     40  C   UNL A   1      40.931  26.377  26.694  1.00  0.00     0.010 A 
ATOM     41  C   UNL A   1      39.761  26.040  28.729  1.00  0.00     0.010 A 
ATOM     42  C   UNL A   1      40.672  26.840  27.977  1.00  0.00    -0.014 A 
BRANCH  42  43
ATOM     43  C   UNL A   1      40.992  28.254  28.462  1.00  0.00     0.031 A 
ATOM     44  C   UNL A   1      40.953  28.381  29.925  1.00  0.00     0.074 A 
ATOM     45  C   UNL A   1      41.837  29.205  27.957  1.00  0.00     0.049 A 
ATOM     46  N   UNL A   1      41.752  27.632  30.599  1.00  0.00    -0.248 NA
ATOM     47  C   UNL A   1      40.232  29.367  30.713  1.00  0.00     0.031 C 
ATOM     48  C   UNL A   1      42.276  29.319  26.577  1.00  0.00     0.029 A 
ATOM     49  N   UNL A   1      42.641  30.170  28.652  1.00  0.00    -0.354 N 
ATOM     50  C   UNL A   1      41.888  28.197  31.819  1.00  0.00     0.074 A 
ATOM     51  C   UNL A   1      40.836  29.197  31.904  1.00  0.00     0.031 C 
ATOM     52  C   UNL A   1      43.322  30.169  26.515  1.00  0.00     0.029 A 
ATOM     53  C   UNL A   1      43.727  30.621  27.873  1.00  0.00     0.049 A 
ATOM     54  H   UNL A   1      42.455  30.484  29.567  1.00  0.00     0.167 HD
ATOM     55  C   UNL A   1      42.973  27.872  32.564  1.00  0.00     0.037 A 
ATOM     56  C   UNL A   1      45.064  30.690  28.215  1.00  0.00     0.037 A 
ATOM     57  C   UNL A   1      43.927  26.945  31.933  1.00  0.00     0.049 A 
ATOM     58  C   UNL A   1      45.507  29.315  27.868  1.00  0.00     0.074 A 
ATOM     59  C   UNL A   1      44.670  25.846  32.314  1.00  0.00     0.029 A 
ATOM     60  N   UNL A   1      44.224  27.092  30.581  1.00  0.00    -0.354 N 
ATOM     61  N   UNL A   1      45.093  28.328  28.593  1.00  0.00    -0.248 NA
ATOM     62  C   UNL A   1      46.403  28.967  26.782  1.00  0.00     0.031 C 
ATOM     63  C   UNL A   1      45.267  25.271  31.135  1.00  0.00     0.029 A 
ATOM     64  C   UNL A   1      44.912  26.021  30.024  1.00  0.00     0.049 A 
ATOM     65  H   UNL A   1      43.969  27.890  30.063  1.00  0.00     0.167 HD
ATOM     66  C   UNL A   1      45.611  27.191  28.057  1.00  0.00     0.074 A 
ATOM     67  C   UNL A   1      46.420  27.635  26.931  1.00  0.00     0.031 C 
ATOM     68  C   UNL A   1      45.214  25.994  28.563  1.00  0.00     0.037 A 
BRANCH  55  69
ATOM     69  C   UNL A   1      43.152  28.592  33.851  1.00  0.00     0.058 A 
ATOM     70  C   UNL A   1      44.101  29.614  33.982  1.00  0.00     0.135 A 
ATOM     71  C   UNL A   1      42.284  28.372  34.936  1.00  0.00     0.135 A 
ATOM     72  F   UNL A   1      44.937  29.892  32.970  1.00  0.00    -0.206 F 
ATOM     73  C   UNL A   1      44.162  30.413  35.125  1.00  0.00     0.059 A 
ATOM     74  C   UNL A   1      42.310  29.170  36.074  1.00  0.00     0.059 A 
ATOM     75  F   UNL A   1      41.341  27.417  34.871  1.00  0.00    -0.206 F 
ATOM     76  C   UNL A   1      43.253  30.190  36.162  1.00  0.00     0.060 A 
BRANCH  76  77
ATOM     77  S   UNL A   1      43.240  31.281  37.601  1.00  0.00     0.124 S 
ATOM     78  O   UNL A   1      44.013  30.509  38.567  1.00  0.00    -0.237 OA
ATOM     79  O   UNL A   1      43.865  32.497  37.094  1.00  0.00    -0.237 OA
ATOM     80  O   UNL A   1      41.815  31.411  37.906  1.00  0.00    -0.744 OA
ENDBRANCH  76  77
ENDBRANCH  55  69
BRANCH  56  81
ATOM     81  C   UNL A   1      45.877  31.232  29.392  1.00  0.00     0.058 A 
ATOM     82  C   UNL A   1      45.241  31.743  30.535  1.00  0.00     0.135 A 
ATOM     83  C   UNL A   1      47.264  31.561  29.299  1.00  0.00     0.135 A 
ATOM     84  F   UNL A   1      43.923  31.556  30.704  1.00  0.00    -0.206 F 
ATOM     85  C   UNL A   1      45.913  32.556  31.476  1.00  0.00     0.059 A 
ATOM     86  C   UNL A   1      47.948  32.352  30.219  1.00  0.00     0.059 A 
ATOM     87  F   UNL A   1      48.014  31.222  28.246  1.00  0.00    -0.206 F 
ATOM     88  C   UNL A   1      47.260  32.881  31.290  1.00  0.00     0.060 A 
BRANCH  88  89
ATOM     89  S   UNL A   1      48.079  34.091  32.360  1.00  0.00     0.124 S 
ATOM     90  O   UNL A   1      47.258  35.280  32.139  1.00  0.00    -0.237 OA
ATOM     91  O   UNL A   1      47.961  33.479  33.676  1.00  0.00    -0.237 OA
ATOM     92  O   UNL A   1      49.433  34.177  31.820  1.00  0.00    -0.744 OA
ENDBRANCH  88  89
ENDBRANCH  56  81
BRANCH  68  93
ATOM     93  C   UNL A   1      45.071  24.793  27.638  1.00  0.00     0.058 A 
ATOM     94  C   UNL A   1      43.857  24.078  27.441  1.00  0.00     0.135 A 
ATOM     95  C   UNL A   1      46.191  24.181  27.045  1.00  0.00     0.135 A 
ATOM     96  F   UNL A   1      42.745  24.345  28.139  1.00  0.00    -0.206 F 
ATOM     97  C   UNL A   1      43.731  22.986  26.583  1.00  0.00     0.059 A 
ATOM     98  C   UNL A   1      46.099  23.051  26.222  1.00  0.00     0.059 A 
ATOM     99  F   UNL A   1      47.435  24.607  27.297  1.00  0.00    -0.206 F 
ATOM    100  C   UNL A   1      44.857  22.489  25.956  1.00  0.00     0.060 A 
BRANCH 100 101
ATOM    101  S   UNL A   1      44.700  21.059  24.873  1.00  0.00     0.124 S 
ATOM    102  O   UNL A   1      43.479  20.417  25.368  1.00  0.00    -0.237 OA
ATOM    103  O   UNL A   1      44.576  21.702  23.563  1.00  0.00    -0.237 OA
ATOM    104  O   UNL A   1      45.925  20.322  25.103  1.00  0.00    -0.744 OA
ENDBRANCH 100 101
ENDBRANCH  68  93
ENDBRANCH  42  43
ENDBRANCH  34  37
ENDBRANCH  32  33
ENDBRANCH  31  32
ENDBRANCH   1  31
TORSDOF 19
ENDMDL
MODEL 3
REMARK VINA RESULT:     -11.2      3.582      8.528
REMARK SMILES Cc1ccc(NC(=O)Cn2c(CCC(=O)NCCCNC(=O)c3ccc(-c4c5nc(c(-c6c(F)cc(S(=O)(=O)[O-])cc6F)c6ccc([nH]6)c(-c6c(F)cc(S(=O)(=O)[O-])cc6F)c6nc(c(-c7c(F)cc(S(=O)(=O)[O-])cc7F)c7ccc4[nH]7)C=C6)C=C5)cc3)ccc2-c2ccccc2)cc1
REMARK SMILES IDX 17 1 16 2 14 3 15 4 13 6 12 7 11 8 10 9 91 10 89 11 90 12
REMARK SMILES IDX 9 13 7 14 6 15 8 17 5 18 1 19 2 20 3 21 99 22 4 23 98 24
REMARK SMILES IDX 92 25 93 26 97 27 94 28 96 29 95 30 18 31 19 32 20 33 21 34
REMARK SMILES IDX 22 36 23 37 24 38 88 39 25 40 87 41 26 42 27 43 28 44 81 45
REMARK SMILES IDX 29 46 86 47 80 48 82 49 30 50 85 51 79 52 78 53 31 55 65 56
REMARK SMILES IDX 44 57 64 58 45 59 48 60 63 61 83 62 46 63 47 64 62 66 84 67
REMARK SMILES IDX 49 68 32 69 33 70 42 71 34 72 35 73 41 74 43 75 36 76 37 77
REMARK SMILES IDX 38 78 39 79 40 80 66 81 67 82 76 83 68 84 69 85 75 86 77 87
REMARK SMILES IDX 70 88 71 89 72 90 73 91 74 92 50 93 51 94 60 95 52 96 53 97
REMARK SMILES IDX 59 98 61 99 54 100 55 101 56 102 57 103 58 104
REMARK H PARENT 16 5 6 16 20 35 82 54 48 65
REMARK Flexibility Score: inf
ROOT
ATOM      1  C   UNL A   1      39.739  22.041  26.498  1.00  0.00     0.117 C 
ENDROOT
BRANCH   1   2
ATOM      2  N   UNL A   1      38.812  22.308  25.410  1.00  0.00    -0.356 N 
ATOM      3  C   UNL A   1      37.760  23.180  25.345  1.00  0.00     0.220 C 
ATOM      4  O   UNL A   1      37.372  23.581  24.241  1.00  0.00    -0.275 OA
ATOM      5  H   UNL A   1      38.966  21.780  24.594  1.00  0.00     0.163 HD
BRANCH   3   6
ATOM      6  C   UNL A   1      36.991  23.598  26.577  1.00  0.00     0.106 C 
BRANCH   6   7
ATOM      7  C   UNL A   1      35.547  23.933  26.188  1.00  0.00     0.064 C 
BRANCH   7   8
ATOM      8  C   UNL A   1      34.668  22.720  26.132  1.00  0.00     0.019 A 
ATOM      9  N   UNL A   1      34.220  22.032  25.012  1.00  0.00    -0.335 N 
ATOM     10  C   UNL A   1      33.780  20.772  25.452  1.00  0.00     0.049 A 
ATOM     11  C   UNL A   1      34.178  22.055  27.246  1.00  0.00     0.024 A 
ATOM     12  C   UNL A   1      33.633  20.835  26.822  1.00  0.00     0.029 A 
BRANCH   9  13
ATOM     13  C   UNL A   1      34.185  22.395  23.581  1.00  0.00     0.222 C 
BRANCH  13  14
ATOM     14  C   UNL A   1      32.915  22.863  22.902  1.00  0.00     0.244 C 
ATOM     15  N   UNL A   1      32.343  24.080  23.144  1.00  0.00    -0.325 N 
ATOM     16  H   UNL A   1      31.610  24.332  22.537  1.00  0.00     0.169 HD
ATOM     17  O   UNL A   1      32.335  22.116  22.104  1.00  0.00    -0.273 OA
BRANCH  15  18
ATOM     18  C   UNL A   1      32.653  25.017  24.132  1.00  0.00     0.041 A 
ATOM     19  C   UNL A   1      33.113  28.176  26.995  1.00  0.00     0.044 C 
ATOM     20  C   UNL A   1      33.021  27.013  26.057  1.00  0.00    -0.051 A 
ATOM     21  C   UNL A   1      33.760  27.029  24.871  1.00  0.00     0.005 A 
ATOM     22  C   UNL A   1      32.154  25.942  26.307  1.00  0.00     0.005 A 
ATOM     23  C   UNL A   1      33.587  26.027  23.924  1.00  0.00     0.026 A 
ATOM     24  C   UNL A   1      31.991  24.931  25.358  1.00  0.00     0.026 A 
ENDBRANCH  15  18
ENDBRANCH  13  14
ENDBRANCH   9  13
BRANCH  10  25
ATOM     25  C   UNL A   1      33.637  19.571  24.630  1.00  0.00    -0.002 A 
ATOM     26  C   UNL A   1      32.466  19.291  23.925  1.00  0.00     0.010 A 
ATOM     27  C   UNL A   1      34.672  18.625  24.635  1.00  0.00     0.010 A 
ATOM     28  C   UNL A   1      32.357  18.099  23.200  1.00  0.00     0.001 A 
ATOM     29  C   UNL A   1      34.579  17.454  23.883  1.00  0.00     0.001 A 
ATOM     30  C   UNL A   1      33.417  17.191  23.167  1.00  0.00     0.000 A 
ENDBRANCH  10  25
ENDBRANCH   7   8
ENDBRANCH   6   7
ENDBRANCH   3   6
ENDBRANCH   1   2
BRANCH   1  31
ATOM     31  C   UNL A   1      41.204  22.475  26.305  1.00  0.00     0.042 C 
BRANCH  31  32
ATOM     32  C   UNL A   1      42.397  21.466  26.394  1.00  0.00     0.118 C 
BRANCH  32  33
ATOM     33  N   UNL A   1      43.041  21.630  27.722  1.00  0.00    -0.352 N 
ATOM     34  C   UNL A   1      43.578  22.575  28.563  1.00  0.00     0.251 C 
ATOM     35  H   UNL A   1      43.107  20.748  28.154  1.00  0.00     0.163 HD
ATOM     36  O   UNL A   1      44.277  22.090  29.467  1.00  0.00    -0.269 OA
BRANCH  34  37
ATOM     37  C   UNL A   1      43.416  24.068  28.570  1.00  0.00     0.039 A 
ATOM     38  C   UNL A   1      44.352  24.845  27.827  1.00  0.00     0.014 A 
ATOM     39  C   UNL A   1      42.496  24.774  29.316  1.00  0.00     0.014 A 
ATOM     40  C   UNL A   1      44.340  26.271  27.771  1.00  0.00     0.010 A 
ATOM     41  C   UNL A   1      42.518  26.196  29.288  1.00  0.00     0.010 A 
ATOM     42  C   UNL A   1      43.395  26.991  28.491  1.00  0.00    -0.014 A 
BRANCH  42  43
ATOM     43  C   UNL A   1      43.027  28.448  28.213  1.00  0.00     0.031 A 
ATOM     44  C   UNL A   1      41.589  28.644  27.992  1.00  0.00     0.074 A 
ATOM     45  C   UNL A   1      43.566  29.614  28.685  1.00  0.00     0.049 A 
ATOM     46  N   UNL A   1      40.798  28.300  28.946  1.00  0.00    -0.248 NA
ATOM     47  C   UNL A   1      40.943  29.331  26.885  1.00  0.00     0.031 C 
ATOM     48  C   UNL A   1      44.921  29.797  29.177  1.00  0.00     0.029 A 
ATOM     49  N   UNL A   1      42.917  30.855  29.001  1.00  0.00    -0.354 N 
ATOM     50  C   UNL A   1      39.631  28.951  28.747  1.00  0.00     0.074 A 
ATOM     51  C   UNL A   1      39.707  29.480  27.394  1.00  0.00     0.031 C 
ATOM     52  C   UNL A   1      44.998  30.975  29.831  1.00  0.00     0.029 A 
ATOM     53  C   UNL A   1      43.666  31.633  29.908  1.00  0.00     0.049 A 
ATOM     54  H   UNL A   1      42.050  31.132  28.627  1.00  0.00     0.167 HD
ATOM     55  C   UNL A   1      38.792  29.111  29.800  1.00  0.00     0.037 A 
ATOM     56  C   UNL A   1      43.250  32.227  31.084  1.00  0.00     0.037 A 
ATOM     57  C   UNL A   1      39.272  28.578  31.085  1.00  0.00     0.049 A 
ATOM     58  C   UNL A   1      43.436  31.104  32.039  1.00  0.00     0.074 A 
ATOM     59  C   UNL A   1      38.743  27.870  32.145  1.00  0.00     0.029 A 
ATOM     60  N   UNL A   1      40.610  28.740  31.431  1.00  0.00    -0.354 N 
ATOM     61  N   UNL A   1      42.648  30.082  31.958  1.00  0.00    -0.248 NA
ATOM     62  C   UNL A   1      44.426  31.054  33.097  1.00  0.00     0.031 C 
ATOM     63  C   UNL A   1      39.821  27.490  33.022  1.00  0.00     0.029 A 
ATOM     64  C   UNL A   1      41.019  27.977  32.518  1.00  0.00     0.049 A 
ATOM     65  H   UNL A   1      41.216  29.346  30.946  1.00  0.00     0.167 HD
ATOM     66  C   UNL A   1      43.041  29.195  32.910  1.00  0.00     0.074 A 
ATOM     67  C   UNL A   1      44.151  29.840  33.597  1.00  0.00     0.031 C 
ATOM     68  C   UNL A   1      42.449  27.973  32.944  1.00  0.00     0.037 A 
BRANCH  55  69
ATOM     69  C   UNL A   1      37.570  29.927  29.575  1.00  0.00     0.058 A 
ATOM     70  C   UNL A   1      37.310  31.067  30.347  1.00  0.00     0.135 A 
ATOM     71  C   UNL A   1      36.709  29.666  28.494  1.00  0.00     0.135 A 
ATOM     72  F   UNL A   1      38.114  31.385  31.373  1.00  0.00    -0.206 F 
ATOM     73  C   UNL A   1      36.263  31.936  30.036  1.00  0.00     0.059 A 
ATOM     74  C   UNL A   1      35.675  30.530  28.151  1.00  0.00     0.059 A 
ATOM     75  F   UNL A   1      36.910  28.597  27.705  1.00  0.00    -0.206 F 
ATOM     76  C   UNL A   1      35.457  31.664  28.927  1.00  0.00     0.060 A 
BRANCH  76  77
ATOM     77  S   UNL A   1      34.168  32.832  28.440  1.00  0.00     0.124 S 
ATOM     78  O   UNL A   1      34.918  33.780  27.624  1.00  0.00    -0.237 OA
ATOM     79  O   UNL A   1      33.212  31.985  27.736  1.00  0.00    -0.237 OA
ATOM     80  O   UNL A   1      33.692  33.353  29.721  1.00  0.00    -0.744 OA
ENDBRANCH  76  77
ENDBRANCH  55  69
BRANCH  56  81
ATOM     81  C   UNL A   1      42.080  33.111  31.522  1.00  0.00     0.058 A 
ATOM     82  C   UNL A   1      42.110  33.793  32.750  1.00  0.00     0.135 A 
ATOM     83  C   UNL A   1      40.787  33.054  30.917  1.00  0.00     0.135 A 
ATOM     84  F   UNL A   1      43.255  33.859  33.447  1.00  0.00    -0.206 F 
ATOM     85  C   UNL A   1      40.947  34.326  33.349  1.00  0.00     0.059 A 
ATOM     86  C   UNL A   1      39.630  33.580  31.485  1.00  0.00     0.059 A 
ATOM     87  F   UNL A   1      40.553  32.386  29.784  1.00  0.00    -0.206 F 
ATOM     88  C   UNL A   1      39.705  34.184  32.722  1.00  0.00     0.060 A 
BRANCH  88  89
ATOM     89  S   UNL A   1      38.178  34.663  33.569  1.00  0.00     0.124 S 
ATOM     90  O   UNL A   1      37.625  33.361  33.936  1.00  0.00    -0.237 OA
ATOM     91  O   UNL A   1      38.672  35.473  34.675  1.00  0.00    -0.237 OA
ATOM     92  O   UNL A   1      37.420  35.382  32.548  1.00  0.00    -0.744 OA
ENDBRANCH  88  89
ENDBRANCH  56  81
BRANCH  68  93
ATOM     93  C   UNL A   1      43.263  26.751  33.347  1.00  0.00     0.058 A 
ATOM     94  C   UNL A   1      44.348  26.229  32.589  1.00  0.00     0.135 A 
ATOM     95  C   UNL A   1      42.876  25.928  34.421  1.00  0.00     0.135 A 
ATOM     96  F   UNL A   1      44.686  26.719  31.389  1.00  0.00    -0.206 F 
ATOM     97  C   UNL A   1      45.096  25.116  32.971  1.00  0.00     0.059 A 
ATOM     98  C   UNL A   1      43.578  24.774  34.793  1.00  0.00     0.059 A 
ATOM     99  F   UNL A   1      41.753  26.164  35.113  1.00  0.00    -0.206 F 
ATOM    100  C   UNL A   1      44.718  24.403  34.092  1.00  0.00     0.060 A 
BRANCH 100 101
ATOM    101  S   UNL A   1      45.664  22.947  34.567  1.00  0.00     0.124 S 
ATOM    102  O   UNL A   1      45.271  22.754  35.967  1.00  0.00    -0.237 OA
ATOM    103  O   UNL A   1      45.143  21.947  33.632  1.00  0.00    -0.237 OA
ATOM    104  O   UNL A   1      47.039  23.351  34.360  1.00  0.00    -0.744 OA
ENDBRANCH 100 101
ENDBRANCH  68  93
ENDBRANCH  42  43
ENDBRANCH  34  37
ENDBRANCH  32  33
ENDBRANCH  31  32
ENDBRANCH   1  31
TORSDOF 19
ENDMDL
