MODEL 1
REMARK VINA RESULT:     -10.3      0.000      0.000
REMARK SMILES CC[C@@H](C(=O)NCCCNC(=O)c1ccc(-c2c3nc(c(-c4c(F)cc(S(=O)(=O)[O-])cc4F)c4ccc([nH]4)c(-c4c(F)cc(S(=O)(=O)[O-])cc4F)c4nc(c(-c5c(F)cc(S(=O)(=O)[O-])cc5F)c5ccc2[nH]5)C=C4)C=C3)cc1)N(C)C(=O)N(C)C[C@@H]1CCC[N@H+]1C
REMARK SMILES IDX 7 1 6 2 4 3 5 4 3 6 2 7 1 8 79 9 80 10 81 11 82 12 83 13
REMARK SMILES IDX 84 14 85 15 86 16 87 17 90 18 88 19 89 20 91 21 8 23 9 24
REMARK SMILES IDX 10 25 11 26 12 28 13 29 14 30 78 31 15 32 77 33 16 34 17 35
REMARK SMILES IDX 18 36 71 37 19 38 76 39 70 40 72 41 20 42 75 43 69 44 68 45
REMARK SMILES IDX 21 47 55 48 34 49 54 50 35 51 38 52 53 53 73 54 36 55 37 56
REMARK SMILES IDX 52 58 74 59 39 60 22 61 23 62 32 63 24 64 25 65 31 66 33 67
REMARK SMILES IDX 26 68 27 69 28 70 29 71 30 72 56 73 57 74 66 75 58 76 59 77
REMARK SMILES IDX 65 78 67 79 60 80 61 81 62 82 63 83 64 84 40 85 41 86 50 87
REMARK SMILES IDX 42 88 43 89 49 90 51 91 44 92 45 93 46 94 47 95 48 96
REMARK H PARENT 6 5 90 22 10 27 72 46 38 57
REMARK Flexibility Score: inf
ROOT
ATOM      1  C   UNL A   1      36.588  20.698  25.152  1.00  0.00     0.117 C 
ENDROOT
BRANCH   1   2
ATOM      2  N   UNL A   1      35.468  19.810  24.932  1.00  0.00    -0.354 N 
ATOM      3  C   UNL A   1      34.136  20.035  24.763  1.00  0.00     0.242 C 
ATOM      4  O   UNL A   1      33.519  19.058  24.318  1.00  0.00    -0.273 OA
ATOM      5  H   UNL A   1      35.716  18.858  24.898  1.00  0.00     0.163 HD
BRANCH   3   6
ATOM      6  C   UNL A   1      33.466  21.435  24.989  1.00  0.00     0.175 C 
BRANCH   6   7
ATOM      7  C   UNL A   1      32.015  21.488  25.531  1.00  0.00     0.032 C 
ATOM      8  C   UNL A   1      31.593  22.726  26.296  1.00  0.00     0.006 C 
ENDBRANCH   6   7
BRANCH   6   9
ATOM      9  N   UNL A   1      33.555  22.179  23.675  1.00  0.00    -0.316 N 
ATOM     10  C   UNL A   1      32.501  21.898  22.722  1.00  0.00     0.149 C 
BRANCH   9  11
ATOM     11  C   UNL A   1      34.532  23.154  23.596  1.00  0.00     0.320 C 
ATOM     12  O   UNL A   1      35.271  23.163  22.604  1.00  0.00    -0.248 OA
BRANCH  11  13
ATOM     13  N   UNL A   1      34.744  24.121  24.555  1.00  0.00    -0.322 N 
ATOM     14  C   UNL A   1      35.827  24.306  25.505  1.00  0.00     0.149 C 
BRANCH  13  15
ATOM     15  C   UNL A   1      33.624  25.085  24.716  1.00  0.00     0.185 C 
BRANCH  15  16
ATOM     16  C   UNL A   1      33.903  26.488  24.104  1.00  0.00     0.203 C 
ATOM     17  C   UNL A   1      33.648  27.613  25.118  1.00  0.00     0.073 C 
ATOM     18  N   UNL A   1      32.993  26.908  23.008  1.00  0.00    -0.333 N 
ATOM     19  C   UNL A   1      33.278  28.837  24.284  1.00  0.00     0.068 C 
ATOM     20  C   UNL A   1      33.248  28.341  22.850  1.00  0.00     0.262 C 
ATOM     21  C   UNL A   1      33.269  26.205  21.753  1.00  0.00     0.333 C 
ATOM     22  H   UNL A   1      32.022  26.691  23.234  1.00  0.00     0.348 HD
ENDBRANCH  15  16
ENDBRANCH  13  15
ENDBRANCH  11  13
ENDBRANCH   9  11
ENDBRANCH   6   9
ENDBRANCH   3   6
ENDBRANCH   1   2
BRANCH   1  23
ATOM     23  C   UNL A   1      37.923  20.006  24.887  1.00  0.00     0.042 C 
BRANCH  23  24
ATOM     24  C   UNL A   1      39.063  20.444  25.801  1.00  0.00     0.118 C 
BRANCH  24  25
ATOM     25  N   UNL A   1      40.096  19.432  25.940  1.00  0.00    -0.352 N 
ATOM     26  C   UNL A   1      41.451  19.567  26.139  1.00  0.00     0.251 C 
ATOM     27  H   UNL A   1      39.776  18.503  25.885  1.00  0.00     0.163 HD
ATOM     28  O   UNL A   1      42.162  18.568  26.049  1.00  0.00    -0.269 OA
BRANCH  26  29
ATOM     29  C   UNL A   1      42.068  20.885  26.431  1.00  0.00     0.039 A 
ATOM     30  C   UNL A   1      42.357  21.740  25.362  1.00  0.00     0.014 A 
ATOM     31  C   UNL A   1      42.415  21.271  27.729  1.00  0.00     0.014 A 
ATOM     32  C   UNL A   1      42.935  22.993  25.598  1.00  0.00     0.010 A 
ATOM     33  C   UNL A   1      42.916  22.552  27.972  1.00  0.00     0.010 A 
ATOM     34  C   UNL A   1      43.193  23.424  26.908  1.00  0.00    -0.014 A 
BRANCH  34  35
ATOM     35  C   UNL A   1      43.773  24.769  27.178  1.00  0.00     0.031 A 
ATOM     36  C   UNL A   1      42.895  25.893  27.663  1.00  0.00     0.074 A 
ATOM     37  C   UNL A   1      45.082  24.994  26.944  1.00  0.00     0.049 A 
ATOM     38  N   UNL A   1      43.208  27.143  27.901  1.00  0.00    -0.248 NA
ATOM     39  C   UNL A   1      41.475  25.579  27.885  1.00  0.00     0.031 C 
ATOM     40  C   UNL A   1      46.033  24.007  26.430  1.00  0.00     0.029 A 
ATOM     41  N   UNL A   1      45.838  26.129  27.104  1.00  0.00    -0.354 N 
ATOM     42  C   UNL A   1      42.024  27.765  28.283  1.00  0.00     0.074 A 
ATOM     43  C   UNL A   1      40.978  26.769  28.198  1.00  0.00     0.031 C 
ATOM     44  C   UNL A   1      47.249  24.572  26.342  1.00  0.00     0.029 A 
ATOM     45  C   UNL A   1      47.160  25.967  26.761  1.00  0.00     0.049 A 
ATOM     46  H   UNL A   1      45.468  26.980  27.434  1.00  0.00     0.167 HD
ATOM     47  C   UNL A   1      41.827  29.042  28.691  1.00  0.00     0.037 A 
ATOM     48  C   UNL A   1      48.185  26.842  26.779  1.00  0.00     0.037 A 
ATOM     49  C   UNL A   1      42.872  30.026  28.809  1.00  0.00     0.049 A 
ATOM     50  C   UNL A   1      47.947  28.249  27.254  1.00  0.00     0.074 A 
ATOM     51  C   UNL A   1      42.780  31.330  29.264  1.00  0.00     0.029 A 
ATOM     52  N   UNL A   1      44.202  29.812  28.475  1.00  0.00    -0.354 N 
ATOM     53  N   UNL A   1      46.829  28.804  27.658  1.00  0.00    -0.248 NA
ATOM     54  C   UNL A   1      49.109  29.147  27.281  1.00  0.00     0.031 C 
ATOM     55  C   UNL A   1      44.049  31.914  29.179  1.00  0.00     0.029 A 
ATOM     56  C   UNL A   1      44.939  30.963  28.706  1.00  0.00     0.049 A 
ATOM     57  H   UNL A   1      44.567  28.968  28.127  1.00  0.00     0.167 HD
ATOM     58  C   UNL A   1      47.159  30.109  28.011  1.00  0.00     0.074 A 
ATOM     59  C   UNL A   1      48.581  30.256  27.782  1.00  0.00     0.031 C 
ATOM     60  C   UNL A   1      46.355  31.094  28.480  1.00  0.00     0.037 A 
BRANCH  47  61
ATOM     61  C   UNL A   1      40.424  29.447  29.050  1.00  0.00     0.058 A 
ATOM     62  C   UNL A   1      40.038  29.648  30.385  1.00  0.00     0.135 A 
ATOM     63  C   UNL A   1      39.461  29.662  28.051  1.00  0.00     0.135 A 
ATOM     64  F   UNL A   1      40.914  29.442  31.380  1.00  0.00    -0.206 F 
ATOM     65  C   UNL A   1      38.739  30.016  30.720  1.00  0.00     0.059 A 
ATOM     66  C   UNL A   1      38.162  30.055  28.361  1.00  0.00     0.059 A 
ATOM     67  F   UNL A   1      39.777  29.486  26.759  1.00  0.00    -0.206 F 
ATOM     68  C   UNL A   1      37.806  30.213  29.700  1.00  0.00     0.060 A 
BRANCH  68  69
ATOM     69  S   UNL A   1      36.122  30.686  30.148  1.00  0.00     0.124 S 
ATOM     70  O   UNL A   1      35.471  30.711  28.841  1.00  0.00    -0.237 OA
ATOM     71  O   UNL A   1      35.717  29.602  31.036  1.00  0.00    -0.237 OA
ATOM     72  O   UNL A   1      36.294  31.986  30.789  1.00  0.00    -0.744 OA
ENDBRANCH  68  69
ENDBRANCH  47  61
BRANCH  48  73
ATOM     73  C   UNL A   1      49.543  26.400  26.364  1.00  0.00     0.058 A 
ATOM     74  C   UNL A   1      50.354  25.659  27.236  1.00  0.00     0.135 A 
ATOM     75  C   UNL A   1      50.048  26.695  25.089  1.00  0.00     0.135 A 
ATOM     76  F   UNL A   1      49.916  25.359  28.468  1.00  0.00    -0.206 F 
ATOM     77  C   UNL A   1      51.625  25.234  26.863  1.00  0.00     0.059 A 
ATOM     78  C   UNL A   1      51.308  26.263  24.685  1.00  0.00     0.059 A 
ATOM     79  F   UNL A   1      49.305  27.388  24.214  1.00  0.00    -0.206 F 
ATOM     80  C   UNL A   1      52.093  25.540  25.584  1.00  0.00     0.060 A 
BRANCH  80  81
ATOM     81  S   UNL A   1      53.721  24.935  25.088  1.00  0.00     0.124 S 
ATOM     82  O   UNL A   1      53.892  25.584  23.793  1.00  0.00    -0.237 OA
ATOM     83  O   UNL A   1      54.574  25.427  26.165  1.00  0.00    -0.237 OA
ATOM     84  O   UNL A   1      53.543  23.487  25.053  1.00  0.00    -0.744 OA
ENDBRANCH  80  81
ENDBRANCH  48  73
BRANCH  60  85
ATOM     85  C   UNL A   1      47.000  32.411  28.809  1.00  0.00     0.058 A 
ATOM     86  C   UNL A   1      47.533  32.673  30.080  1.00  0.00     0.135 A 
ATOM     87  C   UNL A   1      47.123  33.408  27.826  1.00  0.00     0.135 A 
ATOM     88  F   UNL A   1      47.435  31.755  31.055  1.00  0.00    -0.206 F 
ATOM     89  C   UNL A   1      48.144  33.887  30.374  1.00  0.00     0.059 A 
ATOM     90  C   UNL A   1      47.751  34.621  28.093  1.00  0.00     0.059 A 
ATOM     91  F   UNL A   1      46.638  33.202  26.591  1.00  0.00    -0.206 F 
ATOM     92  C   UNL A   1      48.247  34.856  29.374  1.00  0.00     0.060 A 
BRANCH  92  93
ATOM     93  S   UNL A   1      49.066  36.418  29.758  1.00  0.00     0.124 S 
ATOM     94  O   UNL A   1      49.807  36.071  30.967  1.00  0.00    -0.237 OA
ATOM     95  O   UNL A   1      49.873  36.654  28.566  1.00  0.00    -0.237 OA
ATOM     96  O   UNL A   1      47.954  37.346  29.948  1.00  0.00    -0.744 OA
ENDBRANCH  92  93
ENDBRANCH  60  85
ENDBRANCH  34  35
ENDBRANCH  26  29
ENDBRANCH  24  25
ENDBRANCH  23  24
ENDBRANCH   1  23
TORSDOF 19
ENDMDL
MODEL 2
REMARK VINA RESULT:     -10.1      2.346      8.364
REMARK SMILES CC[C@@H](C(=O)NCCCNC(=O)c1ccc(-c2c3nc(c(-c4c(F)cc(S(=O)(=O)[O-])cc4F)c4ccc([nH]4)c(-c4c(F)cc(S(=O)(=O)[O-])cc4F)c4nc(c(-c5c(F)cc(S(=O)(=O)[O-])cc5F)c5ccc2[nH]5)C=C4)C=C3)cc1)N(C)C(=O)N(C)C[C@@H]1CCC[N@H+]1C
REMARK SMILES IDX 7 1 6 2 4 3 5 4 3 6 2 7 1 8 79 9 80 10 81 11 82 12 83 13
REMARK SMILES IDX 84 14 85 15 86 16 87 17 90 18 88 19 89 20 91 21 8 23 9 24
REMARK SMILES IDX 10 25 11 26 12 28 13 29 14 30 78 31 15 32 77 33 16 34 17 35
REMARK SMILES IDX 18 36 71 37 19 38 76 39 70 40 72 41 20 42 75 43 69 44 68 45
REMARK SMILES IDX 21 47 55 48 34 49 54 50 35 51 38 52 53 53 73 54 36 55 37 56
REMARK SMILES IDX 52 58 74 59 39 60 22 61 23 62 32 63 24 64 25 65 31 66 33 67
REMARK SMILES IDX 26 68 27 69 28 70 29 71 30 72 56 73 57 74 66 75 58 76 59 77
REMARK SMILES IDX 65 78 67 79 60 80 61 81 62 82 63 83 64 84 40 85 41 86 50 87
REMARK SMILES IDX 42 88 43 89 49 90 51 91 44 92 45 93 46 94 47 95 48 96
REMARK H PARENT 6 5 90 22 10 27 72 46 38 57
REMARK Flexibility Score: inf
ROOT
ATOM      1  C   UNL A   1      33.442  28.002  26.642  1.00  0.00     0.117 C 
ENDROOT
BRANCH   1   2
ATOM      2  N   UNL A   1      33.902  27.625  25.324  1.00  0.00    -0.354 N 
ATOM      3  C   UNL A   1      33.246  27.378  24.157  1.00  0.00     0.242 C 
ATOM      4  O   UNL A   1      33.986  27.356  23.165  1.00  0.00    -0.273 OA
ATOM      5  H   UNL A   1      34.879  27.527  25.257  1.00  0.00     0.163 HD
BRANCH   3   6
ATOM      6  C   UNL A   1      31.685  27.256  24.059  1.00  0.00     0.175 C 
BRANCH   6   7
ATOM      7  C   UNL A   1      30.816  28.465  24.489  1.00  0.00     0.032 C 
ATOM      8  C   UNL A   1      30.123  29.259  23.399  1.00  0.00     0.006 C 
ENDBRANCH   6   7
BRANCH   6   9
ATOM      9  N   UNL A   1      31.292  26.028  24.849  1.00  0.00    -0.316 N 
ATOM     10  C   UNL A   1      30.349  26.251  25.926  1.00  0.00     0.149 C 
BRANCH   9  11
ATOM     11  C   UNL A   1      31.748  24.820  24.358  1.00  0.00     0.320 C 
ATOM     12  O   UNL A   1      31.663  24.613  23.142  1.00  0.00    -0.248 OA
BRANCH  11  13
ATOM     13  N   UNL A   1      32.293  23.821  25.136  1.00  0.00    -0.322 N 
ATOM     14  C   UNL A   1      32.335  23.645  26.577  1.00  0.00     0.149 C 
BRANCH  13  15
ATOM     15  C   UNL A   1      33.060  22.798  24.377  1.00  0.00     0.185 C 
BRANCH  15  16
ATOM     16  C   UNL A   1      34.603  22.974  24.460  1.00  0.00     0.203 C 
ATOM     17  C   UNL A   1      35.220  23.263  23.083  1.00  0.00     0.073 C 
ATOM     18  N   UNL A   1      35.373  21.764  24.846  1.00  0.00    -0.333 N 
ATOM     19  C   UNL A   1      36.651  22.738  23.159  1.00  0.00     0.068 C 
ATOM     20  C   UNL A   1      36.763  22.099  24.530  1.00  0.00     0.262 C 
ATOM     21  C   UNL A   1      35.241  21.449  26.271  1.00  0.00     0.333 C 
ATOM     22  H   UNL A   1      35.031  20.940  24.352  1.00  0.00     0.348 HD
ENDBRANCH  15  16
ENDBRANCH  13  15
ENDBRANCH  11  13
ENDBRANCH   9  11
ENDBRANCH   6   9
ENDBRANCH   3   6
ENDBRANCH   1   2
BRANCH   1  23
ATOM     23  C   UNL A   1      33.801  29.448  26.977  1.00  0.00     0.042 C 
BRANCH  23  24
ATOM     24  C   UNL A   1      35.217  29.649  27.506  1.00  0.00     0.118 C 
BRANCH  24  25
ATOM     25  N   UNL A   1      35.249  30.279  28.815  1.00  0.00    -0.352 N 
ATOM     26  C   UNL A   1      36.265  30.361  29.737  1.00  0.00     0.251 C 
ATOM     27  H   UNL A   1      34.409  30.717  29.082  1.00  0.00     0.163 HD
ATOM     28  O   UNL A   1      36.010  30.792  30.859  1.00  0.00    -0.269 OA
BRANCH  26  29
ATOM     29  C   UNL A   1      37.646  29.919  29.416  1.00  0.00     0.039 A 
ATOM     30  C   UNL A   1      38.031  29.852  28.072  1.00  0.00     0.014 A 
ATOM     31  C   UNL A   1      38.547  29.519  30.406  1.00  0.00     0.014 A 
ATOM     32  C   UNL A   1      39.325  29.445  27.729  1.00  0.00     0.010 A 
ATOM     33  C   UNL A   1      39.863  29.191  30.070  1.00  0.00     0.010 A 
ATOM     34  C   UNL A   1      40.264  29.138  28.727  1.00  0.00    -0.014 A 
BRANCH  34  35
ATOM     35  C   UNL A   1      41.656  28.739  28.379  1.00  0.00     0.031 A 
ATOM     36  C   UNL A   1      42.759  29.765  28.354  1.00  0.00     0.074 A 
ATOM     37  C   UNL A   1      41.923  27.461  28.041  1.00  0.00     0.049 A 
ATOM     38  N   UNL A   1      44.018  29.618  28.025  1.00  0.00    -0.248 NA
ATOM     39  C   UNL A   1      42.394  31.142  28.723  1.00  0.00     0.031 C 
ATOM     40  C   UNL A   1      40.940  26.378  27.979  1.00  0.00     0.029 A 
ATOM     41  N   UNL A   1      43.103  26.857  27.681  1.00  0.00    -0.354 N 
ATOM     42  C   UNL A   1      44.589  30.882  28.130  1.00  0.00     0.074 A 
ATOM     43  C   UNL A   1      43.529  31.793  28.505  1.00  0.00     0.031 C 
ATOM     44  C   UNL A   1      41.561  25.239  27.628  1.00  0.00     0.029 A 
ATOM     45  C   UNL A   1      42.977  25.515  27.410  1.00  0.00     0.049 A 
ATOM     46  H   UNL A   1      43.959  27.340  27.622  1.00  0.00     0.167 HD
ATOM     47  C   UNL A   1      45.881  31.250  27.955  1.00  0.00     0.037 A 
ATOM     48  C   UNL A   1      43.898  24.607  27.027  1.00  0.00     0.037 A 
ATOM     49  C   UNL A   1      46.944  30.339  27.615  1.00  0.00     0.049 A 
ATOM     50  C   UNL A   1      45.329  25.034  26.857  1.00  0.00     0.074 A 
ATOM     51  C   UNL A   1      48.294  30.607  27.468  1.00  0.00     0.029 A 
ATOM     52  N   UNL A   1      46.778  28.983  27.375  1.00  0.00    -0.354 N 
ATOM     53  N   UNL A   1      45.858  26.225  27.009  1.00  0.00    -0.248 NA
ATOM     54  C   UNL A   1      46.292  23.993  26.469  1.00  0.00     0.031 C 
ATOM     55  C   UNL A   1      48.941  29.418  27.111  1.00  0.00     0.029 A 
ATOM     56  C   UNL A   1      48.000  28.402  27.071  1.00  0.00     0.049 A 
ATOM     57  H   UNL A   1      45.920  28.504  27.414  1.00  0.00     0.167 HD
ATOM     58  C   UNL A   1      47.218  26.071  26.760  1.00  0.00     0.074 A 
ATOM     59  C   UNL A   1      47.431  24.671  26.457  1.00  0.00     0.031 C 
ATOM     60  C   UNL A   1      48.199  27.007  26.779  1.00  0.00     0.037 A 
BRANCH  47  61
ATOM     61  C   UNL A   1      46.220  32.703  28.138  1.00  0.00     0.058 A 
ATOM     62  C   UNL A   1      46.677  33.201  29.369  1.00  0.00     0.135 A 
ATOM     63  C   UNL A   1      46.113  33.605  27.067  1.00  0.00     0.135 A 
ATOM     64  F   UNL A   1      46.785  32.385  30.429  1.00  0.00    -0.206 F 
ATOM     65  C   UNL A   1      46.985  34.546  29.541  1.00  0.00     0.059 A 
ATOM     66  C   UNL A   1      46.439  34.951  27.210  1.00  0.00     0.059 A 
ATOM     67  F   UNL A   1      45.683  33.183  25.868  1.00  0.00    -0.206 F 
ATOM     68  C   UNL A   1      46.858  35.415  28.457  1.00  0.00     0.060 A 
BRANCH  68  69
ATOM     69  S   UNL A   1      47.257  37.160  28.696  1.00  0.00     0.124 S 
ATOM     70  O   UNL A   1      47.992  37.119  29.957  1.00  0.00    -0.237 OA
ATOM     71  O   UNL A   1      48.051  37.466  27.510  1.00  0.00    -0.237 OA
ATOM     72  O   UNL A   1      45.947  37.803  28.753  1.00  0.00    -0.744 OA
ENDBRANCH  68  69
ENDBRANCH  47  61
BRANCH  48  73
ATOM     73  C   UNL A   1      43.496  23.192  26.810  1.00  0.00     0.058 A 
ATOM     74  C   UNL A   1      43.420  22.658  25.516  1.00  0.00     0.135 A 
ATOM     75  C   UNL A   1      43.195  22.346  27.888  1.00  0.00     0.135 A 
ATOM     76  F   UNL A   1      43.692  23.431  24.454  1.00  0.00    -0.206 F 
ATOM     77  C   UNL A   1      43.050  21.335  25.294  1.00  0.00     0.059 A 
ATOM     78  C   UNL A   1      42.842  21.013  27.693  1.00  0.00     0.059 A 
ATOM     79  F   UNL A   1      43.267  22.806  29.146  1.00  0.00    -0.206 F 
ATOM     80  C   UNL A   1      42.763  20.520  26.390  1.00  0.00     0.060 A 
BRANCH  80  81
ATOM     81  S   UNL A   1      42.339  18.789  26.097  1.00  0.00     0.124 S 
ATOM     82  O   UNL A   1      42.564  18.205  27.415  1.00  0.00    -0.237 OA
ATOM     83  O   UNL A   1      40.947  18.881  25.670  1.00  0.00    -0.237 OA
ATOM     84  O   UNL A   1      43.280  18.385  25.057  1.00  0.00    -0.744 OA
ENDBRANCH  80  81
ENDBRANCH  48  73
BRANCH  60  85
ATOM     85  C   UNL A   1      49.600  26.541  26.495  1.00  0.00     0.058 A 
ATOM     86  C   UNL A   1      50.406  25.979  27.497  1.00  0.00     0.135 A 
ATOM     87  C   UNL A   1      50.126  26.621  25.195  1.00  0.00     0.135 A 
ATOM     88  F   UNL A   1      49.950  25.886  28.756  1.00  0.00    -0.206 F 
ATOM     89  C   UNL A   1      51.695  25.534  27.225  1.00  0.00     0.059 A 
ATOM     90  C   UNL A   1      51.405  26.162  24.897  1.00  0.00     0.059 A 
ATOM     91  F   UNL A   1      49.391  27.142  24.200  1.00  0.00    -0.206 F 
ATOM     92  C   UNL A   1      52.187  25.631  25.922  1.00  0.00     0.060 A 
BRANCH  92  93
ATOM     93  S   UNL A   1      53.852  25.026  25.574  1.00  0.00     0.124 S 
ATOM     94  O   UNL A   1      53.614  23.597  25.400  1.00  0.00    -0.237 OA
ATOM     95  O   UNL A   1      54.209  25.761  24.366  1.00  0.00    -0.237 OA
ATOM     96  O   UNL A   1      54.604  25.397  26.770  1.00  0.00    -0.744 OA
ENDBRANCH  92  93
ENDBRANCH  60  85
ENDBRANCH  34  35
ENDBRANCH  26  29
ENDBRANCH  24  25
ENDBRANCH  23  24
ENDBRANCH   1  23
TORSDOF 19
ENDMDL
MODEL 3
REMARK VINA RESULT:     -10.1      2.341      8.629
REMARK SMILES CC[C@@H](C(=O)NCCCNC(=O)c1ccc(-c2c3nc(c(-c4c(F)cc(S(=O)(=O)[O-])cc4F)c4ccc([nH]4)c(-c4c(F)cc(S(=O)(=O)[O-])cc4F)c4nc(c(-c5c(F)cc(S(=O)(=O)[O-])cc5F)c5ccc2[nH]5)C=C4)C=C3)cc1)N(C)C(=O)N(C)C[C@@H]1CCC[N@H+]1C
REMARK SMILES IDX 7 1 6 2 4 3 5 4 3 6 2 7 1 8 79 9 80 10 81 11 82 12 83 13
REMARK SMILES IDX 84 14 85 15 86 16 87 17 90 18 88 19 89 20 91 21 8 23 9 24
REMARK SMILES IDX 10 25 11 26 12 28 13 29 14 30 78 31 15 32 77 33 16 34 17 35
REMARK SMILES IDX 18 36 71 37 19 38 76 39 70 40 72 41 20 42 75 43 69 44 68 45
REMARK SMILES IDX 21 47 55 48 34 49 54 50 35 51 38 52 53 53 73 54 36 55 37 56
REMARK SMILES IDX 52 58 74 59 39 60 22 61 23 62 32 63 24 64 25 65 31 66 33 67
REMARK SMILES IDX 26 68 27 69 28 70 29 71 30 72 56 73 57 74 66 75 58 76 59 77
REMARK SMILES IDX 65 78 67 79 60 80 61 81 62 82 63 83 64 84 40 85 41 86 50 87
REMARK SMILES IDX 42 88 43 89 49 90 51 91 44 92 45 93 46 94 47 95 48 96
REMARK H PARENT 6 5 90 22 10 27 72 46 38 57
REMARK Flexibility Score: inf
ROOT
ATOM      1  C   UNL A   1      33.569  29.576  26.414  1.00  0.00     0.117 C 
ENDROOT
BRANCH   1   2
ATOM      2  N   UNL A   1      33.882  29.321  25.025  1.00  0.00    -0.354 N 
ATOM      3  C   UNL A   1      33.459  28.370  24.148  1.00  0.00     0.242 C 
ATOM      4  O   UNL A   1      33.722  28.630  22.967  1.00  0.00    -0.273 OA
ATOM      5  H   UNL A   1      34.525  29.958  24.639  1.00  0.00     0.163 HD
BRANCH   3   6
ATOM      6  C   UNL A   1      32.608  27.123  24.577  1.00  0.00     0.175 C 
BRANCH   6   7
ATOM      7  C   UNL A   1      33.273  26.035  25.458  1.00  0.00     0.032 C 
ATOM      8  C   UNL A   1      32.379  25.232  26.380  1.00  0.00     0.006 C 
ENDBRANCH   6   7
BRANCH   6   9
ATOM      9  N   UNL A   1      32.070  26.503  23.306  1.00  0.00    -0.316 N 
ATOM     10  C   UNL A   1      30.956  27.196  22.693  1.00  0.00     0.149 C 
BRANCH   9  11
ATOM     11  C   UNL A   1      32.799  25.447  22.793  1.00  0.00     0.320 C 
ATOM     12  O   UNL A   1      33.848  25.699  22.188  1.00  0.00    -0.248 OA
BRANCH  11  13
ATOM     13  N   UNL A   1      32.433  24.123  22.906  1.00  0.00    -0.322 N 
ATOM     14  C   UNL A   1      31.211  23.506  23.391  1.00  0.00     0.149 C 
BRANCH  13  15
ATOM     15  C   UNL A   1      33.510  23.155  22.571  1.00  0.00     0.185 C 
BRANCH  15  16
ATOM     16  C   UNL A   1      34.469  22.840  23.754  1.00  0.00     0.203 C 
ATOM     17  C   UNL A   1      35.942  23.018  23.357  1.00  0.00     0.073 C 
ATOM     18  N   UNL A   1      34.487  21.429  24.215  1.00  0.00    -0.333 N 
ATOM     19  C   UNL A   1      36.725  22.073  24.266  1.00  0.00     0.068 C 
ATOM     20  C   UNL A   1      35.671  21.339  25.072  1.00  0.00     0.262 C 
ATOM     21  C   UNL A   1      33.286  21.074  24.975  1.00  0.00     0.333 C 
ATOM     22  H   UNL A   1      34.509  20.785  23.423  1.00  0.00     0.348 HD
ENDBRANCH  15  16
ENDBRANCH  13  15
ENDBRANCH  11  13
ENDBRANCH   9  11
ENDBRANCH   6   9
ENDBRANCH   3   6
ENDBRANCH   1   2
BRANCH   1  23
ATOM     23  C   UNL A   1      34.724  29.190  27.336  1.00  0.00     0.042 C 
BRANCH  23  24
ATOM     24  C   UNL A   1      35.447  30.367  27.982  1.00  0.00     0.118 C 
BRANCH  24  25
ATOM     25  N   UNL A   1      35.460  30.296  29.433  1.00  0.00    -0.352 N 
ATOM     26  C   UNL A   1      36.462  29.916  30.295  1.00  0.00     0.251 C 
ATOM     27  H   UNL A   1      34.618  30.562  29.868  1.00  0.00     0.163 HD
ATOM     28  O   UNL A   1      36.191  29.762  31.484  1.00  0.00    -0.269 OA
BRANCH  26  29
ATOM     29  C   UNL A   1      37.846  29.667  29.819  1.00  0.00     0.039 A 
ATOM     30  C   UNL A   1      38.831  29.351  30.761  1.00  0.00     0.014 A 
ATOM     31  C   UNL A   1      38.202  29.791  28.473  1.00  0.00     0.014 A 
ATOM     32  C   UNL A   1      40.146  29.105  30.350  1.00  0.00     0.010 A 
ATOM     33  C   UNL A   1      39.494  29.467  28.054  1.00  0.00     0.010 A 
ATOM     34  C   UNL A   1      40.485  29.132  28.988  1.00  0.00    -0.014 A 
BRANCH  34  35
ATOM     35  C   UNL A   1      41.871  28.836  28.532  1.00  0.00     0.031 A 
ATOM     36  C   UNL A   1      42.249  27.445  28.096  1.00  0.00     0.074 A 
ATOM     37  C   UNL A   1      42.806  29.808  28.552  1.00  0.00     0.049 A 
ATOM     38  N   UNL A   1      43.415  26.984  27.717  1.00  0.00    -0.248 NA
ATOM     39  C   UNL A   1      41.182  26.431  28.110  1.00  0.00     0.031 C 
ATOM     40  C   UNL A   1      42.587  31.186  28.996  1.00  0.00     0.029 A 
ATOM     41  N   UNL A   1      44.132  29.784  28.195  1.00  0.00    -0.354 N 
ATOM     42  C   UNL A   1      43.227  25.629  27.466  1.00  0.00     0.074 A 
ATOM     43  C   UNL A   1      41.847  25.331  27.781  1.00  0.00     0.031 C 
ATOM     44  C   UNL A   1      43.729  31.880  28.860  1.00  0.00     0.029 A 
ATOM     45  C   UNL A   1      44.770  30.992  28.351  1.00  0.00     0.049 A 
ATOM     46  H   UNL A   1      44.584  28.977  27.857  1.00  0.00     0.167 HD
ATOM     47  C   UNL A   1      44.113  24.720  26.993  1.00  0.00     0.037 A 
ATOM     48  C   UNL A   1      46.048  31.346  28.114  1.00  0.00     0.037 A 
ATOM     49  C   UNL A   1      45.477  25.022  26.646  1.00  0.00     0.049 A 
ATOM     50  C   UNL A   1      47.009  30.325  27.571  1.00  0.00     0.074 A 
ATOM     51  C   UNL A   1      46.436  24.180  26.109  1.00  0.00     0.029 A 
ATOM     52  N   UNL A   1      46.076  26.264  26.796  1.00  0.00    -0.354 N 
ATOM     53  N   UNL A   1      46.798  29.060  27.294  1.00  0.00    -0.248 NA
ATOM     54  C   UNL A   1      48.381  30.779  27.303  1.00  0.00     0.031 C 
ATOM     55  C   UNL A   1      47.623  24.907  25.960  1.00  0.00     0.029 A 
ATOM     56  C   UNL A   1      47.394  26.210  26.370  1.00  0.00     0.049 A 
ATOM     57  H   UNL A   1      45.630  27.066  27.151  1.00  0.00     0.167 HD
ATOM     58  C   UNL A   1      48.003  28.575  26.796  1.00  0.00     0.074 A 
ATOM     59  C   UNL A   1      48.934  29.683  26.801  1.00  0.00     0.031 C 
ATOM     60  C   UNL A   1      48.308  27.323  26.374  1.00  0.00     0.037 A 
BRANCH  47  61
ATOM     61  C   UNL A   1      43.628  23.307  26.814  1.00  0.00     0.058 A 
ATOM     62  C   UNL A   1      43.402  22.464  27.914  1.00  0.00     0.135 A 
ATOM     63  C   UNL A   1      43.361  22.798  25.533  1.00  0.00     0.135 A 
ATOM     64  F   UNL A   1      43.654  22.895  29.158  1.00  0.00    -0.206 F 
ATOM     65  C   UNL A   1      42.960  21.155  27.748  1.00  0.00     0.059 A 
ATOM     66  C   UNL A   1      42.895  21.500  25.345  1.00  0.00     0.059 A 
ATOM     67  F   UNL A   1      43.558  23.562  24.447  1.00  0.00    -0.206 F 
ATOM     68  C   UNL A   1      42.713  20.681  26.459  1.00  0.00     0.060 A 
BRANCH  68  69
ATOM     69  S   UNL A   1      42.144  18.979  26.259  1.00  0.00     0.124 S 
ATOM     70  O   UNL A   1      42.247  18.477  27.626  1.00  0.00    -0.237 OA
ATOM     71  O   UNL A   1      40.787  19.159  25.752  1.00  0.00    -0.237 OA
ATOM     72  O   UNL A   1      43.095  18.412  25.308  1.00  0.00    -0.744 OA
ENDBRANCH  68  69
ENDBRANCH  47  61
BRANCH  48  73
ATOM     73  C   UNL A   1      46.486  32.746  28.358  1.00  0.00     0.058 A 
ATOM     74  C   UNL A   1      46.410  33.709  27.342  1.00  0.00     0.135 A 
ATOM     75  C   UNL A   1      46.972  33.152  29.611  1.00  0.00     0.135 A 
ATOM     76  F   UNL A   1      45.960  33.367  26.125  1.00  0.00    -0.206 F 
ATOM     77  C   UNL A   1      46.811  35.025  27.553  1.00  0.00     0.059 A 
ATOM     78  C   UNL A   1      47.359  34.467  29.853  1.00  0.00     0.059 A 
ATOM     79  F   UNL A   1      47.048  32.271  30.619  1.00  0.00    -0.206 F 
ATOM     80  C   UNL A   1      47.283  35.394  28.813  1.00  0.00     0.060 A 
BRANCH  80  81
ATOM     81  S   UNL A   1      47.748  37.116  29.096  1.00  0.00     0.124 S 
ATOM     82  O   UNL A   1      47.940  37.135  30.542  1.00  0.00    -0.237 OA
ATOM     83  O   UNL A   1      48.958  37.245  28.290  1.00  0.00    -0.237 OA
ATOM     84  O   UNL A   1      46.593  37.860  28.600  1.00  0.00    -0.744 OA
ENDBRANCH  80  81
ENDBRANCH  48  73
BRANCH  60  85
ATOM     85  C   UNL A   1      49.698  27.092  25.853  1.00  0.00     0.058 A 
ATOM     86  C   UNL A   1      50.021  27.294  24.502  1.00  0.00     0.135 A 
ATOM     87  C   UNL A   1      50.729  26.703  26.724  1.00  0.00     0.135 A 
ATOM     88  F   UNL A   1      49.069  27.661  23.629  1.00  0.00    -0.206 F 
ATOM     89  C   UNL A   1      51.313  27.096  24.027  1.00  0.00     0.059 A 
ATOM     90  C   UNL A   1      52.033  26.520  26.274  1.00  0.00     0.059 A 
ATOM     91  F   UNL A   1      50.474  26.505  28.027  1.00  0.00    -0.206 F 
ATOM     92  C   UNL A   1      52.313  26.707  24.921  1.00  0.00     0.060 A 
BRANCH  92  93
ATOM     93  S   UNL A   1      53.992  26.478  24.300  1.00  0.00     0.124 S 
ATOM     94  O   UNL A   1      54.530  25.518  25.259  1.00  0.00    -0.237 OA
ATOM     95  O   UNL A   1      53.764  25.967  22.953  1.00  0.00    -0.237 OA
ATOM     96  O   UNL A   1      54.564  27.820  24.366  1.00  0.00    -0.744 OA
ENDBRANCH  92  93
ENDBRANCH  60  85
ENDBRANCH  34  35
ENDBRANCH  26  29
ENDBRANCH  24  25
ENDBRANCH  23  24
ENDBRANCH   1  23
TORSDOF 19
ENDMDL
