MODEL 1
REMARK VINA RESULT:     -12.1      0.000      0.000
REMARK SMILES O=C(NCCCNC(=O)[C@@H]1CCCN(C(=O)/C=C/c2c(F)cccc2Cl)C1)c1ccc(-c2c3nc(c(-c4c(F)cc(S(=O)(=O)[O-])cc4F)c4ccc([nH]4)c(-c4c(F)cc(S(=O)(=O)[O-])cc4F)c4nc(c(-c5c(F)cc(S(=O)(=O)[O-])cc5F)c5ccc2[nH]5)C=C4)C=C3)cc1
REMARK SMILES IDX 5 1 4 2 3 3 1 4 2 5 28 7 29 8 93 9 30 10 92 11 31 12 32 13
REMARK SMILES IDX 33 14 86 15 34 16 91 17 85 18 87 19 35 20 90 21 84 22 83 23
REMARK SMILES IDX 36 25 70 26 49 27 69 28 50 29 53 30 68 31 88 32 51 33 52 34
REMARK SMILES IDX 67 36 89 37 54 38 37 39 38 40 47 41 39 42 40 43 46 44 48 45
REMARK SMILES IDX 41 46 42 47 43 48 44 49 45 50 71 51 72 52 81 53 73 54 74 55
REMARK SMILES IDX 80 56 82 57 75 58 76 59 77 60 78 61 79 62 55 63 56 64 65 65
REMARK SMILES IDX 57 66 58 67 64 68 66 69 59 70 60 71 61 72 62 73 63 74 6 75
REMARK SMILES IDX 7 76 8 77 9 79 10 80 11 81 27 82 12 83 14 84 13 85 15 86
REMARK SMILES IDX 16 87 17 88 18 89 19 90 20 91 25 92 21 93 22 94 24 95 26 96
REMARK SMILES IDX 23 97
REMARK H PARENT 3 6 87 24 53 35 7 78
REMARK Flexibility Score: inf
ROOT
ATOM      1  C   UNL A   1      32.363  28.071  26.011  1.00  0.00     0.042 C 
ENDROOT
BRANCH   1   2
ATOM      2  C   UNL A   1      33.229  28.347  27.242  1.00  0.00     0.118 C 
BRANCH   2   3
ATOM      3  N   UNL A   1      33.315  29.760  27.572  1.00  0.00    -0.352 N 
ATOM      4  O   UNL A   1      34.081  31.672  28.430  1.00  0.00    -0.269 OA
ATOM      5  C   UNL A   1      34.345  30.521  28.081  1.00  0.00     0.251 C 
ATOM      6  H   UNL A   1      32.487  30.266  27.400  1.00  0.00     0.163 HD
BRANCH   5   7
ATOM      7  C   UNL A   1      35.745  30.023  28.240  1.00  0.00     0.039 A 
ATOM      8  C   UNL A   1      36.695  30.048  27.216  1.00  0.00     0.014 A 
ATOM      9  C   UNL A   1      36.154  29.611  29.520  1.00  0.00     0.014 A 
ATOM     10  C   UNL A   1      38.009  29.605  27.448  1.00  0.00     0.010 A 
ATOM     11  C   UNL A   1      37.477  29.207  29.764  1.00  0.00     0.010 A 
ATOM     12  C   UNL A   1      38.421  29.199  28.729  1.00  0.00    -0.014 A 
BRANCH  12  13
ATOM     13  C   UNL A   1      39.858  28.907  29.017  1.00  0.00     0.031 A 
ATOM     14  C   UNL A   1      40.797  29.947  29.564  1.00  0.00     0.074 A 
ATOM     15  C   UNL A   1      40.340  27.686  28.730  1.00  0.00     0.049 A 
ATOM     16  N   UNL A   1      42.094  29.920  29.741  1.00  0.00    -0.248 NA
ATOM     17  C   UNL A   1      40.177  31.207  29.959  1.00  0.00     0.031 C 
ATOM     18  C   UNL A   1      39.555  26.578  28.187  1.00  0.00     0.029 A 
ATOM     19  N   UNL A   1      41.609  27.180  28.841  1.00  0.00    -0.354 N 
ATOM     20  C   UNL A   1      42.444  31.176  30.236  1.00  0.00     0.074 A 
ATOM     21  C   UNL A   1      41.223  31.943  30.307  1.00  0.00     0.031 C 
ATOM     22  C   UNL A   1      40.361  25.521  28.008  1.00  0.00     0.029 A 
ATOM     23  C   UNL A   1      41.725  25.894  28.374  1.00  0.00     0.049 A 
ATOM     24  H   UNL A   1      42.364  27.688  29.217  1.00  0.00     0.167 HD
ATOM     25  C   UNL A   1      43.663  31.641  30.612  1.00  0.00     0.037 A 
ATOM     26  C   UNL A   1      42.811  25.115  28.227  1.00  0.00     0.037 A 
ATOM     27  C   UNL A   1      44.859  30.837  30.599  1.00  0.00     0.049 A 
ATOM     28  C   UNL A   1      44.157  25.633  28.650  1.00  0.00     0.074 A 
ATOM     29  C   UNL A   1      46.131  31.174  31.034  1.00  0.00     0.029 A 
ATOM     30  N   UNL A   1      44.927  29.531  30.138  1.00  0.00    -0.354 N 
ATOM     31  N   UNL A   1      44.471  26.809  29.141  1.00  0.00    -0.248 NA
ATOM     32  C   UNL A   1      45.296  24.718  28.504  1.00  0.00     0.031 C 
ATOM     33  C   UNL A   1      46.977  30.087  30.791  1.00  0.00     0.029 A 
ATOM     34  C   UNL A   1      46.222  29.054  30.257  1.00  0.00     0.049 A 
ATOM     35  H   UNL A   1      44.168  29.018  29.779  1.00  0.00     0.167 HD
ATOM     36  C   UNL A   1      45.839  26.765  29.384  1.00  0.00     0.074 A 
ATOM     37  C   UNL A   1      46.289  25.444  29.000  1.00  0.00     0.031 C 
ATOM     38  C   UNL A   1      46.651  27.732  29.878  1.00  0.00     0.037 A 
BRANCH  25  39
ATOM     39  C   UNL A   1      43.789  33.076  31.069  1.00  0.00     0.058 A 
ATOM     40  C   UNL A   1      43.718  33.442  32.424  1.00  0.00     0.135 A 
ATOM     41  C   UNL A   1      44.076  34.096  30.141  1.00  0.00     0.135 A 
ATOM     42  F   UNL A   1      43.438  32.520  33.358  1.00  0.00    -0.206 F 
ATOM     43  C   UNL A   1      43.897  34.760  32.837  1.00  0.00     0.059 A 
ATOM     44  C   UNL A   1      44.290  35.414  30.535  1.00  0.00     0.059 A 
ATOM     45  F   UNL A   1      44.164  33.810  28.832  1.00  0.00    -0.206 F 
ATOM     46  C   UNL A   1      44.185  35.740  31.886  1.00  0.00     0.060 A 
BRANCH  46  47
ATOM     47  S   UNL A   1      44.421  37.443  32.441  1.00  0.00     0.124 S 
ATOM     48  O   UNL A   1      44.158  38.185  31.211  1.00  0.00    -0.237 OA
ATOM     49  O   UNL A   1      43.408  37.573  33.486  1.00  0.00    -0.237 OA
ATOM     50  O   UNL A   1      45.802  37.465  32.904  1.00  0.00    -0.744 OA
ENDBRANCH  46  47
ENDBRANCH  25  39
BRANCH  26  51
ATOM     51  C   UNL A   1      42.652  23.760  27.641  1.00  0.00     0.058 A 
ATOM     52  C   UNL A   1      42.820  23.542  26.266  1.00  0.00     0.135 A 
ATOM     53  C   UNL A   1      42.377  22.649  28.454  1.00  0.00     0.135 A 
ATOM     54  F   UNL A   1      43.082  24.574  25.450  1.00  0.00    -0.206 F 
ATOM     55  C   UNL A   1      42.709  22.271  25.716  1.00  0.00     0.059 A 
ATOM     56  C   UNL A   1      42.293  21.365  27.932  1.00  0.00     0.059 A 
ATOM     57  F   UNL A   1      42.230  22.805  29.780  1.00  0.00    -0.206 F 
ATOM     58  C   UNL A   1      42.451  21.187  26.558  1.00  0.00     0.060 A 
BRANCH  58  59
ATOM     59  S   UNL A   1      42.360  19.535  25.838  1.00  0.00     0.124 S 
ATOM     60  O   UNL A   1      42.723  18.700  26.977  1.00  0.00    -0.237 OA
ATOM     61  O   UNL A   1      40.966  19.463  25.411  1.00  0.00    -0.237 OA
ATOM     62  O   UNL A   1      43.337  19.586  24.755  1.00  0.00    -0.744 OA
ENDBRANCH  58  59
ENDBRANCH  26  51
BRANCH  38  63
ATOM     63  C   UNL A   1      48.105  27.394  30.062  1.00  0.00     0.058 A 
ATOM     64  C   UNL A   1      49.061  27.713  29.086  1.00  0.00     0.135 A 
ATOM     65  C   UNL A   1      48.554  26.804  31.255  1.00  0.00     0.135 A 
ATOM     66  F   UNL A   1      48.684  28.272  27.926  1.00  0.00    -0.206 F 
ATOM     67  C   UNL A   1      50.413  27.442  29.280  1.00  0.00     0.059 A 
ATOM     68  C   UNL A   1      49.903  26.551  31.481  1.00  0.00     0.059 A 
ATOM     69  F   UNL A   1      47.679  26.490  32.224  1.00  0.00    -0.206 F 
ATOM     70  C   UNL A   1      50.824  26.866  30.483  1.00  0.00     0.060 A 
BRANCH  70  71
ATOM     71  S   UNL A   1      52.585  26.565  30.738  1.00  0.00     0.124 S 
ATOM     72  O   UNL A   1      53.034  26.280  29.379  1.00  0.00    -0.237 OA
ATOM     73  O   UNL A   1      53.038  27.831  31.303  1.00  0.00    -0.237 OA
ATOM     74  O   UNL A   1      52.608  25.431  31.656  1.00  0.00    -0.744 OA
ENDBRANCH  70  71
ENDBRANCH  38  63
ENDBRANCH  12  13
ENDBRANCH   5   7
ENDBRANCH   2   3
ENDBRANCH   1   2
BRANCH   1  75
ATOM     75  C   UNL A   1      32.932  28.396  24.644  1.00  0.00     0.117 C 
BRANCH  75  76
ATOM     76  N   UNL A   1      32.042  29.133  23.771  1.00  0.00    -0.356 N 
ATOM     77  C   UNL A   1      30.833  28.886  23.221  1.00  0.00     0.224 C 
ATOM     78  H   UNL A   1      32.399  30.015  23.522  1.00  0.00     0.163 HD
ATOM     79  O   UNL A   1      30.238  29.892  22.803  1.00  0.00    -0.275 OA
BRANCH  77  80
ATOM     80  C   UNL A   1      30.188  27.521  22.972  1.00  0.00     0.098 C 
ATOM     81  C   UNL A   1      29.603  26.677  24.112  1.00  0.00     0.017 C 
ATOM     82  C   UNL A   1      31.027  26.740  21.949  1.00  0.00     0.133 C 
ATOM     83  C   UNL A   1      30.393  25.424  24.509  1.00  0.00     0.022 C 
ATOM     84  N   UNL A   1      31.836  25.699  22.572  1.00  0.00    -0.338 N 
ATOM     85  C   UNL A   1      31.038  24.727  23.310  1.00  0.00     0.120 C 
BRANCH  84  86
ATOM     86  C   UNL A   1      33.214  25.734  22.420  1.00  0.00     0.246 C 
ATOM     87  O   UNL A   1      33.767  26.477  21.607  1.00  0.00    -0.270 OA
BRANCH  86  88
ATOM     88  C   UNL A   1      34.113  24.902  23.277  1.00  0.00     0.072 C 
ATOM     89  C   UNL A   1      34.388  23.617  23.014  1.00  0.00     0.018 C 
BRANCH  89  90
ATOM     90  C   UNL A   1      35.099  22.634  23.833  1.00  0.00     0.029 A 
ATOM     91  C   UNL A   1      36.485  22.530  23.641  1.00  0.00     0.131 A 
ATOM     92  C   UNL A   1      34.532  21.969  24.924  1.00  0.00     0.051 A 
ATOM     93  F   UNL A   1      37.072  23.187  22.633  1.00  0.00    -0.206 F 
ATOM     94  C   UNL A   1      37.299  21.804  24.502  1.00  0.00     0.040 A 
ATOM     95  C   UNL A   1      35.349  21.262  25.813  1.00  0.00     0.021 A 
ATOM     96  Cl  UNL A   1      32.839  22.051  25.259  1.00  0.00    -0.084 Cl
ATOM     97  C   UNL A   1      36.731  21.185  25.609  1.00  0.00     0.005 A 
ENDBRANCH  89  90
ENDBRANCH  86  88
ENDBRANCH  84  86
ENDBRANCH  77  80
ENDBRANCH  75  76
ENDBRANCH   1  75
TORSDOF 16
ENDMDL
MODEL 2
REMARK VINA RESULT:     -12.1      2.472      3.062
REMARK SMILES O=C(NCCCNC(=O)[C@@H]1CCCN(C(=O)/C=C/c2c(F)cccc2Cl)C1)c1ccc(-c2c3nc(c(-c4c(F)cc(S(=O)(=O)[O-])cc4F)c4ccc([nH]4)c(-c4c(F)cc(S(=O)(=O)[O-])cc4F)c4nc(c(-c5c(F)cc(S(=O)(=O)[O-])cc5F)c5ccc2[nH]5)C=C4)C=C3)cc1
REMARK SMILES IDX 5 1 4 2 3 3 1 4 2 5 28 7 29 8 93 9 30 10 92 11 31 12 32 13
REMARK SMILES IDX 33 14 86 15 34 16 91 17 85 18 87 19 35 20 90 21 84 22 83 23
REMARK SMILES IDX 36 25 70 26 49 27 69 28 50 29 53 30 68 31 88 32 51 33 52 34
REMARK SMILES IDX 67 36 89 37 54 38 37 39 38 40 47 41 39 42 40 43 46 44 48 45
REMARK SMILES IDX 41 46 42 47 43 48 44 49 45 50 71 51 72 52 81 53 73 54 74 55
REMARK SMILES IDX 80 56 82 57 75 58 76 59 77 60 78 61 79 62 55 63 56 64 65 65
REMARK SMILES IDX 57 66 58 67 64 68 66 69 59 70 60 71 61 72 62 73 63 74 6 75
REMARK SMILES IDX 7 76 8 77 9 79 10 80 11 81 27 82 12 83 14 84 13 85 15 86
REMARK SMILES IDX 16 87 17 88 18 89 19 90 20 91 25 92 21 93 22 94 24 95 26 96
REMARK SMILES IDX 23 97
REMARK H PARENT 3 6 87 24 53 35 7 78
REMARK Flexibility Score: inf
ROOT
ATOM      1  C   UNL A   1      33.319  29.370  27.245  1.00  0.00     0.042 C 
ENDROOT
BRANCH   1   2
ATOM      2  C   UNL A   1      34.790  29.375  27.666  1.00  0.00     0.118 C 
BRANCH   2   3
ATOM      3  N   UNL A   1      35.068  30.302  28.750  1.00  0.00    -0.352 N 
ATOM      4  O   UNL A   1      36.113  31.267  30.469  1.00  0.00    -0.269 OA
ATOM      5  C   UNL A   1      36.212  30.539  29.481  1.00  0.00     0.251 C 
ATOM      6  H   UNL A   1      34.300  30.863  29.010  1.00  0.00     0.163 HD
BRANCH   5   7
ATOM      7  C   UNL A   1      37.547  29.956  29.148  1.00  0.00     0.039 A 
ATOM      8  C   UNL A   1      38.018  29.800  27.842  1.00  0.00     0.014 A 
ATOM      9  C   UNL A   1      38.414  29.652  30.211  1.00  0.00     0.014 A 
ATOM     10  C   UNL A   1      39.304  29.286  27.602  1.00  0.00     0.010 A 
ATOM     11  C   UNL A   1      39.714  29.175  29.973  1.00  0.00     0.010 A 
ATOM     12  C   UNL A   1      40.175  28.987  28.663  1.00  0.00    -0.014 A 
BRANCH  12  13
ATOM     13  C   UNL A   1      41.600  28.618  28.408  1.00  0.00     0.031 A 
ATOM     14  C   UNL A   1      42.703  29.640  28.376  1.00  0.00     0.074 A 
ATOM     15  C   UNL A   1      41.900  27.334  28.148  1.00  0.00     0.049 A 
ATOM     16  N   UNL A   1      43.962  29.530  28.033  1.00  0.00    -0.248 NA
ATOM     17  C   UNL A   1      42.321  30.989  28.783  1.00  0.00     0.031 C 
ATOM     18  C   UNL A   1      40.938  26.233  28.133  1.00  0.00     0.029 A 
ATOM     19  N   UNL A   1      43.095  26.744  27.830  1.00  0.00    -0.354 N 
ATOM     20  C   UNL A   1      44.509  30.807  28.152  1.00  0.00     0.074 A 
ATOM     21  C   UNL A   1      43.436  31.675  28.575  1.00  0.00     0.031 C 
ATOM     22  C   UNL A   1      41.581  25.098  27.819  1.00  0.00     0.029 A 
ATOM     23  C   UNL A   1      42.985  25.403  27.560  1.00  0.00     0.049 A 
ATOM     24  H   UNL A   1      43.948  27.234  27.797  1.00  0.00     0.167 HD
ATOM     25  C   UNL A   1      45.787  31.216  27.944  1.00  0.00     0.037 A 
ATOM     26  C   UNL A   1      43.904  24.524  27.122  1.00  0.00     0.037 A 
ATOM     27  C   UNL A   1      46.860  30.321  27.589  1.00  0.00     0.049 A 
ATOM     28  C   UNL A   1      45.319  24.981  26.899  1.00  0.00     0.074 A 
ATOM     29  C   UNL A   1      48.207  30.607  27.434  1.00  0.00     0.029 A 
ATOM     30  N   UNL A   1      46.708  28.965  27.346  1.00  0.00    -0.354 N 
ATOM     31  N   UNL A   1      45.830  26.181  27.040  1.00  0.00    -0.248 NA
ATOM     32  C   UNL A   1      46.284  23.964  26.462  1.00  0.00     0.031 C 
ATOM     33  C   UNL A   1      48.860  29.431  27.051  1.00  0.00     0.029 A 
ATOM     34  C   UNL A   1      47.932  28.403  27.021  1.00  0.00     0.049 A 
ATOM     35  H   UNL A   1      45.857  28.474  27.396  1.00  0.00     0.167 HD
ATOM     36  C   UNL A   1      47.180  26.058  26.732  1.00  0.00     0.074 A 
ATOM     37  C   UNL A   1      47.409  24.664  26.412  1.00  0.00     0.031 C 
ATOM     38  C   UNL A   1      48.144  27.011  26.713  1.00  0.00     0.037 A 
BRANCH  25  39
ATOM     39  C   UNL A   1      46.118  32.684  28.088  1.00  0.00     0.058 A 
ATOM     40  C   UNL A   1      46.649  33.222  29.272  1.00  0.00     0.135 A 
ATOM     41  C   UNL A   1      45.985  33.554  26.989  1.00  0.00     0.135 A 
ATOM     42  F   UNL A   1      46.792  32.449  30.360  1.00  0.00    -0.206 F 
ATOM     43  C   UNL A   1      47.007  34.564  29.371  1.00  0.00     0.059 A 
ATOM     44  C   UNL A   1      46.366  34.892  27.055  1.00  0.00     0.059 A 
ATOM     45  F   UNL A   1      45.490  33.100  25.826  1.00  0.00    -0.206 F 
ATOM     46  C   UNL A   1      46.865  35.392  28.257  1.00  0.00     0.060 A 
BRANCH  46  47
ATOM     47  S   UNL A   1      47.340  37.129  28.402  1.00  0.00     0.124 S 
ATOM     48  O   UNL A   1      46.451  37.581  29.469  1.00  0.00    -0.237 OA
ATOM     49  O   UNL A   1      48.754  37.036  28.756  1.00  0.00    -0.237 OA
ATOM     50  O   UNL A   1      47.061  37.673  27.080  1.00  0.00    -0.744 OA
ENDBRANCH  46  47
ENDBRANCH  25  39
BRANCH  26  51
ATOM     51  C   UNL A   1      43.494  23.121  26.862  1.00  0.00     0.058 A 
ATOM     52  C   UNL A   1      43.405  22.624  25.554  1.00  0.00     0.135 A 
ATOM     53  C   UNL A   1      43.230  22.238  27.921  1.00  0.00     0.135 A 
ATOM     54  F   UNL A   1      43.647  23.432  24.511  1.00  0.00    -0.206 F 
ATOM     55  C   UNL A   1      43.058  21.302  25.304  1.00  0.00     0.059 A 
ATOM     56  C   UNL A   1      42.911  20.904  27.697  1.00  0.00     0.059 A 
ATOM     57  F   UNL A   1      43.323  22.663  29.191  1.00  0.00    -0.206 F 
ATOM     58  C   UNL A   1      42.817  20.448  26.383  1.00  0.00     0.060 A 
BRANCH  58  59
ATOM     59  S   UNL A   1      42.417  18.721  26.046  1.00  0.00     0.124 S 
ATOM     60  O   UNL A   1      41.016  18.817  25.655  1.00  0.00    -0.237 OA
ATOM     61  O   UNL A   1      43.357  18.391  24.978  1.00  0.00    -0.237 OA
ATOM     62  O   UNL A   1      42.674  18.061  27.322  1.00  0.00    -0.744 OA
ENDBRANCH  58  59
ENDBRANCH  26  51
BRANCH  38  63
ATOM     63  C   UNL A   1      49.542  26.582  26.363  1.00  0.00     0.058 A 
ATOM     64  C   UNL A   1      50.057  26.743  25.069  1.00  0.00     0.135 A 
ATOM     65  C   UNL A   1      50.396  26.064  27.351  1.00  0.00     0.135 A 
ATOM     66  F   UNL A   1      49.280  27.228  24.087  1.00  0.00    -0.206 F 
ATOM     67  C   UNL A   1      51.366  26.389  24.759  1.00  0.00     0.059 A 
ATOM     68  C   UNL A   1      51.717  25.730  27.071  1.00  0.00     0.059 A 
ATOM     69  F   UNL A   1      49.954  25.901  28.609  1.00  0.00    -0.206 F 
ATOM     70  C   UNL A   1      52.190  25.889  25.770  1.00  0.00     0.060 A 
BRANCH  70  71
ATOM     71  S   UNL A   1      53.900  25.479  25.363  1.00  0.00     0.124 S 
ATOM     72  O   UNL A   1      53.969  24.077  25.761  1.00  0.00    -0.237 OA
ATOM     73  O   UNL A   1      53.948  25.733  23.927  1.00  0.00    -0.237 OA
ATOM     74  O   UNL A   1      54.677  26.403  26.184  1.00  0.00    -0.744 OA
ENDBRANCH  70  71
ENDBRANCH  38  63
ENDBRANCH  12  13
ENDBRANCH   5   7
ENDBRANCH   2   3
ENDBRANCH   1   2
BRANCH   1  75
ATOM     75  C   UNL A   1      32.936  30.081  25.962  1.00  0.00     0.117 C 
BRANCH  75  76
ATOM     76  N   UNL A   1      33.470  29.490  24.752  1.00  0.00    -0.356 N 
ATOM     77  C   UNL A   1      32.935  28.838  23.697  1.00  0.00     0.224 C 
ATOM     78  H   UNL A   1      34.448  29.584  24.683  1.00  0.00     0.163 HD
ATOM     79  O   UNL A   1      33.668  28.779  22.697  1.00  0.00    -0.275 OA
BRANCH  77  80
ATOM     80  C   UNL A   1      31.599  28.094  23.648  1.00  0.00     0.098 C 
ATOM     81  C   UNL A   1      31.002  27.411  24.885  1.00  0.00     0.017 C 
ATOM     82  C   UNL A   1      31.519  27.276  22.350  1.00  0.00     0.133 C 
ATOM     83  C   UNL A   1      31.030  25.877  24.898  1.00  0.00     0.022 C 
ATOM     84  N   UNL A   1      31.746  25.852  22.575  1.00  0.00    -0.338 N 
ATOM     85  C   UNL A   1      30.795  25.270  23.515  1.00  0.00     0.120 C 
BRANCH  84  86
ATOM     86  C   UNL A   1      32.792  25.224  21.917  1.00  0.00     0.246 C 
ATOM     87  O   UNL A   1      33.373  25.741  20.961  1.00  0.00    -0.270 OA
BRANCH  86  88
ATOM     88  C   UNL A   1      33.310  23.896  22.369  1.00  0.00     0.072 C 
ATOM     89  C   UNL A   1      34.198  23.758  23.363  1.00  0.00     0.018 C 
BRANCH  89  90
ATOM     90  C   UNL A   1      34.918  22.563  23.804  1.00  0.00     0.029 A 
ATOM     91  C   UNL A   1      36.317  22.586  23.697  1.00  0.00     0.131 A 
ATOM     92  C   UNL A   1      34.329  21.514  24.515  1.00  0.00     0.051 A 
ATOM     93  F   UNL A   1      36.921  23.598  23.060  1.00  0.00    -0.206 F 
ATOM     94  C   UNL A   1      37.121  21.616  24.281  1.00  0.00     0.040 A 
ATOM     95  C   UNL A   1      35.133  20.550  25.134  1.00  0.00     0.021 A 
ATOM     96  Cl  UNL A   1      32.618  21.404  24.722  1.00  0.00    -0.084 Cl
ATOM     97  C   UNL A   1      36.527  20.604  25.025  1.00  0.00     0.005 A 
ENDBRANCH  89  90
ENDBRANCH  86  88
ENDBRANCH  84  86
ENDBRANCH  77  80
ENDBRANCH  75  76
ENDBRANCH   1  75
TORSDOF 16
ENDMDL
MODEL 3
REMARK VINA RESULT:     -12.0      4.969     10.560
REMARK SMILES O=C(NCCCNC(=O)[C@@H]1CCCN(C(=O)/C=C/c2c(F)cccc2Cl)C1)c1ccc(-c2c3nc(c(-c4c(F)cc(S(=O)(=O)[O-])cc4F)c4ccc([nH]4)c(-c4c(F)cc(S(=O)(=O)[O-])cc4F)c4nc(c(-c5c(F)cc(S(=O)(=O)[O-])cc5F)c5ccc2[nH]5)C=C4)C=C3)cc1
REMARK SMILES IDX 5 1 4 2 3 3 1 4 2 5 28 7 29 8 93 9 30 10 92 11 31 12 32 13
REMARK SMILES IDX 33 14 86 15 34 16 91 17 85 18 87 19 35 20 90 21 84 22 83 23
REMARK SMILES IDX 36 25 70 26 49 27 69 28 50 29 53 30 68 31 88 32 51 33 52 34
REMARK SMILES IDX 67 36 89 37 54 38 37 39 38 40 47 41 39 42 40 43 46 44 48 45
REMARK SMILES IDX 41 46 42 47 43 48 44 49 45 50 71 51 72 52 81 53 73 54 74 55
REMARK SMILES IDX 80 56 82 57 75 58 76 59 77 60 78 61 79 62 55 63 56 64 65 65
REMARK SMILES IDX 57 66 58 67 64 68 66 69 59 70 60 71 61 72 62 73 63 74 6 75
REMARK SMILES IDX 7 76 8 77 9 79 10 80 11 81 27 82 12 83 14 84 13 85 15 86
REMARK SMILES IDX 16 87 17 88 18 89 19 90 20 91 25 92 21 93 22 94 24 95 26 96
REMARK SMILES IDX 23 97
REMARK H PARENT 3 6 87 24 53 35 7 78
REMARK Flexibility Score: inf
ROOT
ATOM      1  C   UNL A   1      37.127  23.282  24.998  1.00  0.00     0.042 C 
ENDROOT
BRANCH   1   2
ATOM      2  C   UNL A   1      37.871  23.926  26.170  1.00  0.00     0.118 C 
BRANCH   2   3
ATOM      3  N   UNL A   1      39.302  23.677  26.141  1.00  0.00    -0.352 N 
ATOM      4  O   UNL A   1      41.497  24.020  26.358  1.00  0.00    -0.269 OA
ATOM      5  C   UNL A   1      40.362  24.363  26.693  1.00  0.00     0.251 C 
ATOM      6  H   UNL A   1      39.562  22.872  25.636  1.00  0.00     0.163 HD
BRANCH   5   7
ATOM      7  C   UNL A   1      40.208  25.497  27.655  1.00  0.00     0.039 A 
ATOM      8  C   UNL A   1      39.302  25.490  28.717  1.00  0.00     0.014 A 
ATOM      9  C   UNL A   1      41.101  26.577  27.544  1.00  0.00     0.014 A 
ATOM     10  C   UNL A   1      39.242  26.573  29.612  1.00  0.00     0.010 A 
ATOM     11  C   UNL A   1      41.069  27.640  28.461  1.00  0.00     0.010 A 
ATOM     12  C   UNL A   1      40.137  27.650  29.508  1.00  0.00    -0.014 A 
BRANCH  12  13
ATOM     13  C   UNL A   1      40.196  28.706  30.564  1.00  0.00     0.031 A 
ATOM     14  C   UNL A   1      41.124  28.614  31.744  1.00  0.00     0.074 A 
ATOM     15  C   UNL A   1      39.354  29.751  30.483  1.00  0.00     0.049 A 
ATOM     16  N   UNL A   1      41.213  29.352  32.822  1.00  0.00    -0.248 NA
ATOM     17  C   UNL A   1      42.086  27.517  31.702  1.00  0.00     0.031 C 
ATOM     18  C   UNL A   1      38.391  29.972  29.405  1.00  0.00     0.029 A 
ATOM     19  N   UNL A   1      39.163  30.810  31.331  1.00  0.00    -0.354 N 
ATOM     20  C   UNL A   1      42.222  28.782  33.600  1.00  0.00     0.074 A 
ATOM     21  C   UNL A   1      42.692  27.624  32.876  1.00  0.00     0.031 C 
ATOM     22  C   UNL A   1      37.708  31.098  29.657  1.00  0.00     0.029 A 
ATOM     23  C   UNL A   1      38.148  31.646  30.938  1.00  0.00     0.049 A 
ATOM     24  H   UNL A   1      39.701  30.957  32.142  1.00  0.00     0.167 HD
ATOM     25  C   UNL A   1      42.719  29.192  34.794  1.00  0.00     0.037 A 
ATOM     26  C   UNL A   1      37.609  32.713  31.554  1.00  0.00     0.037 A 
ATOM     27  C   UNL A   1      42.283  30.389  35.468  1.00  0.00     0.049 A 
ATOM     28  C   UNL A   1      38.168  33.165  32.874  1.00  0.00     0.074 A 
ATOM     29  C   UNL A   1      42.771  30.948  36.639  1.00  0.00     0.029 A 
ATOM     30  N   UNL A   1      41.266  31.219  35.023  1.00  0.00    -0.354 N 
ATOM     31  N   UNL A   1      39.137  32.637  33.585  1.00  0.00    -0.248 NA
ATOM     32  C   UNL A   1      37.566  34.363  33.474  1.00  0.00     0.031 C 
ATOM     33  C   UNL A   1      42.015  32.089  36.925  1.00  0.00     0.029 A 
ATOM     34  C   UNL A   1      41.095  32.273  35.906  1.00  0.00     0.049 A 
ATOM     35  H   UNL A   1      40.741  31.080  34.202  1.00  0.00     0.167 HD
ATOM     36  C   UNL A   1      39.273  33.451  34.704  1.00  0.00     0.074 A 
ATOM     37  C   UNL A   1      38.300  34.514  34.568  1.00  0.00     0.031 C 
ATOM     38  C   UNL A   1      40.126  33.328  35.751  1.00  0.00     0.037 A 
BRANCH  25  39
ATOM     39  C   UNL A   1      43.785  28.358  35.467  1.00  0.00     0.058 A 
ATOM     40  C   UNL A   1      45.156  28.563  35.236  1.00  0.00     0.135 A 
ATOM     41  C   UNL A   1      43.432  27.395  36.431  1.00  0.00     0.135 A 
ATOM     42  F   UNL A   1      45.560  29.460  34.323  1.00  0.00    -0.206 F 
ATOM     43  C   UNL A   1      46.130  27.829  35.909  1.00  0.00     0.059 A 
ATOM     44  C   UNL A   1      44.390  26.672  37.139  1.00  0.00     0.059 A 
ATOM     45  F   UNL A   1      42.140  27.156  36.704  1.00  0.00    -0.206 F 
ATOM     46  C   UNL A   1      45.738  26.887  36.861  1.00  0.00     0.060 A 
BRANCH  46  47
ATOM     47  S   UNL A   1      47.016  25.950  37.728  1.00  0.00     0.124 S 
ATOM     48  O   UNL A   1      47.314  24.902  36.755  1.00  0.00    -0.237 OA
ATOM     49  O   UNL A   1      48.063  26.951  37.918  1.00  0.00    -0.237 OA
ATOM     50  O   UNL A   1      46.350  25.505  38.944  1.00  0.00    -0.744 OA
ENDBRANCH  46  47
ENDBRANCH  25  39
BRANCH  26  51
ATOM     51  C   UNL A   1      36.468  33.415  30.915  1.00  0.00     0.058 A 
ATOM     52  C   UNL A   1      35.197  33.417  31.507  1.00  0.00     0.135 A 
ATOM     53  C   UNL A   1      36.640  34.138  29.723  1.00  0.00     0.135 A 
ATOM     54  F   UNL A   1      34.986  32.739  32.645  1.00  0.00    -0.206 F 
ATOM     55  C   UNL A   1      34.133  34.102  30.934  1.00  0.00     0.059 A 
ATOM     56  C   UNL A   1      35.599  34.856  29.148  1.00  0.00     0.059 A 
ATOM     57  F   UNL A   1      37.844  34.182  29.131  1.00  0.00    -0.206 F 
ATOM     58  C   UNL A   1      34.345  34.823  29.757  1.00  0.00     0.060 A 
BRANCH  58  59
ATOM     59  S   UNL A   1      32.968  35.751  29.051  1.00  0.00     0.124 S 
ATOM     60  O   UNL A   1      32.189  36.069  30.241  1.00  0.00    -0.237 OA
ATOM     61  O   UNL A   1      33.649  36.874  28.414  1.00  0.00    -0.237 OA
ATOM     62  O   UNL A   1      32.356  34.797  28.131  1.00  0.00    -0.744 OA
ENDBRANCH  58  59
ENDBRANCH  26  51
BRANCH  38  63
ATOM     63  C   UNL A   1      40.071  34.383  36.821  1.00  0.00     0.058 A 
ATOM     64  C   UNL A   1      40.755  35.600  36.688  1.00  0.00     0.135 A 
ATOM     65  C   UNL A   1      39.271  34.199  37.962  1.00  0.00     0.135 A 
ATOM     66  F   UNL A   1      41.537  35.823  35.620  1.00  0.00    -0.206 F 
ATOM     67  C   UNL A   1      40.663  36.594  37.658  1.00  0.00     0.059 A 
ATOM     68  C   UNL A   1      39.142  35.190  38.930  1.00  0.00     0.059 A 
ATOM     69  F   UNL A   1      38.587  33.056  38.130  1.00  0.00    -0.206 F 
ATOM     70  C   UNL A   1      39.850  36.381  38.773  1.00  0.00     0.060 A 
BRANCH  70  71
ATOM     71  S   UNL A   1      39.704  37.698  39.999  1.00  0.00     0.124 S 
ATOM     72  O   UNL A   1      39.523  36.935  41.229  1.00  0.00    -0.237 OA
ATOM     73  O   UNL A   1      40.982  38.389  39.864  1.00  0.00    -0.237 OA
ATOM     74  O   UNL A   1      38.539  38.453  39.551  1.00  0.00    -0.744 OA
ENDBRANCH  70  71
ENDBRANCH  38  63
ENDBRANCH  12  13
ENDBRANCH   5   7
ENDBRANCH   2   3
ENDBRANCH   1   2
BRANCH   1  75
ATOM     75  C   UNL A   1      35.806  22.593  25.276  1.00  0.00     0.117 C 
BRANCH  75  76
ATOM     76  N   UNL A   1      34.777  23.447  25.832  1.00  0.00    -0.356 N 
ATOM     77  C   UNL A   1      33.595  23.924  25.386  1.00  0.00     0.224 C 
ATOM     78  H   UNL A   1      34.987  23.749  26.746  1.00  0.00     0.163 HD
ATOM     79  O   UNL A   1      32.838  24.350  26.273  1.00  0.00    -0.275 OA
BRANCH  77  80
ATOM     80  C   UNL A   1      33.151  24.087  23.930  1.00  0.00     0.098 C 
ATOM     81  C   UNL A   1      34.005  24.834  22.898  1.00  0.00     0.017 C 
ATOM     82  C   UNL A   1      31.649  24.409  23.889  1.00  0.00     0.133 C 
ATOM     83  C   UNL A   1      33.489  26.208  22.451  1.00  0.00     0.022 C 
ATOM     84  N   UNL A   1      31.390  25.818  23.613  1.00  0.00    -0.338 N 
ATOM     85  C   UNL A   1      31.965  26.262  22.349  1.00  0.00     0.120 C 
BRANCH  84  86
ATOM     86  C   UNL A   1      30.668  26.563  24.534  1.00  0.00     0.246 C 
ATOM     87  O   UNL A   1      29.438  26.625  24.510  1.00  0.00    -0.270 OA
BRANCH  86  88
ATOM     88  C   UNL A   1      31.349  27.295  25.646  1.00  0.00     0.072 C 
ATOM     89  C   UNL A   1      32.001  28.452  25.465  1.00  0.00     0.018 C 
BRANCH  89  90
ATOM     90  C   UNL A   1      32.848  29.195  26.400  1.00  0.00     0.029 A 
ATOM     91  C   UNL A   1      34.053  28.588  26.787  1.00  0.00     0.131 A 
ATOM     92  C   UNL A   1      32.642  30.533  26.747  1.00  0.00     0.051 A 
ATOM     93  F   UNL A   1      34.306  27.321  26.437  1.00  0.00    -0.206 F 
ATOM     94  C   UNL A   1      35.037  29.276  27.485  1.00  0.00     0.040 A 
ATOM     95  C   UNL A   1      33.642  31.242  27.422  1.00  0.00     0.021 A 
ATOM     96  Cl  UNL A   1      31.202  31.377  26.301  1.00  0.00    -0.084 Cl
ATOM     97  C   UNL A   1      34.841  30.619  27.783  1.00  0.00     0.005 A 
ENDBRANCH  89  90
ENDBRANCH  86  88
ENDBRANCH  84  86
ENDBRANCH  77  80
ENDBRANCH  75  76
ENDBRANCH   1  75
TORSDOF 16
ENDMDL
