MODEL 1
REMARK VINA RESULT:     -11.0      0.000      0.000
REMARK SMILES O=C(NCCCNC(=O)[C@@H](CCCCO)c1cccc(Cl)c1)c1ccc(-c2c3nc(c(-c4c(F)cc(S(=O)(=O)[O-])cc4F)c4ccc([nH]4)c(-c4c(F)cc(S(=O)(=O)[O-])cc4F)c4nc(c(-c5c(F)cc(S(=O)(=O)[O-])cc5F)c5ccc2[nH]5)C=C4)C=C3)cc1
REMARK SMILES IDX 6 1 5 2 4 3 3 4 1 5 2 6 23 8 24 9 88 10 25 11 87 12 26 13
REMARK SMILES IDX 27 14 28 15 81 16 29 17 86 18 80 19 82 20 30 21 85 22 79 23
REMARK SMILES IDX 78 24 31 26 65 27 44 28 64 29 45 30 48 31 63 32 83 33 46 34
REMARK SMILES IDX 47 35 62 37 84 38 49 39 32 40 33 41 42 42 34 43 35 44 41 45
REMARK SMILES IDX 43 46 36 47 37 48 38 49 39 50 40 51 66 52 67 53 76 54 68 55
REMARK SMILES IDX 69 56 75 57 77 58 70 59 71 60 72 61 73 62 74 63 50 64 51 65
REMARK SMILES IDX 60 66 52 67 53 68 59 69 61 70 54 71 55 72 56 73 57 74 58 75
REMARK SMILES IDX 7 76 8 77 9 79 10 80 11 81 12 82 13 83 14 84 15 85 16 87
REMARK SMILES IDX 17 88 22 89 18 90 20 91 19 92 21 93
REMARK H PARENT 3 7 82 25 48 36 7 78 15 86
REMARK Flexibility Score: inf
ROOT
ATOM      1  C   UNL A   1      38.102  23.242  26.121  1.00  0.00     0.117 C 
ENDROOT
BRANCH   1   2
ATOM      2  C   UNL A   1      39.305  22.392  26.492  1.00  0.00     0.042 C 
BRANCH   2   3
ATOM      3  C   UNL A   1      40.452  23.201  27.064  1.00  0.00     0.118 C 
BRANCH   3   4
ATOM      4  N   UNL A   1      41.116  24.004  26.048  1.00  0.00    -0.352 N 
ATOM      5  O   UNL A   1      41.751  25.863  24.957  1.00  0.00    -0.269 OA
ATOM      6  C   UNL A   1      41.378  25.354  26.015  1.00  0.00     0.251 C 
ATOM      7  H   UNL A   1      41.427  23.501  25.262  1.00  0.00     0.163 HD
BRANCH   6   8
ATOM      8  C   UNL A   1      41.200  26.196  27.221  1.00  0.00     0.039 A 
ATOM      9  C   UNL A   1      42.069  27.251  27.493  1.00  0.00     0.014 A 
ATOM     10  C   UNL A   1      40.120  25.960  28.081  1.00  0.00     0.014 A 
ATOM     11  C   UNL A   1      41.983  27.934  28.697  1.00  0.00     0.010 A 
ATOM     12  C   UNL A   1      39.946  26.752  29.224  1.00  0.00     0.010 A 
ATOM     13  C   UNL A   1      40.891  27.733  29.555  1.00  0.00    -0.014 A 
BRANCH  13  14
ATOM     14  C   UNL A   1      40.727  28.647  30.719  1.00  0.00     0.031 A 
ATOM     15  C   UNL A   1      41.608  28.550  31.933  1.00  0.00     0.074 A 
ATOM     16  C   UNL A   1      39.784  29.611  30.639  1.00  0.00     0.049 A 
ATOM     17  N   UNL A   1      41.599  29.289  33.013  1.00  0.00    -0.248 NA
ATOM     18  C   UNL A   1      42.623  27.486  31.947  1.00  0.00     0.031 C 
ATOM     19  C   UNL A   1      38.853  29.787  29.519  1.00  0.00     0.029 A 
ATOM     20  N   UNL A   1      39.466  30.638  31.489  1.00  0.00    -0.354 N 
ATOM     21  C   UNL A   1      42.596  28.781  33.837  1.00  0.00     0.074 A 
ATOM     22  C   UNL A   1      43.167  27.643  33.148  1.00  0.00     0.031 C 
ATOM     23  C   UNL A   1      38.117  30.888  29.719  1.00  0.00     0.029 A 
ATOM     24  C   UNL A   1      38.455  31.446  31.021  1.00  0.00     0.049 A 
ATOM     25  H   UNL A   1      39.916  30.784  32.353  1.00  0.00     0.167 HD
ATOM     26  C   UNL A   1      43.005  29.233  35.049  1.00  0.00     0.037 A 
ATOM     27  C   UNL A   1      37.840  32.502  31.584  1.00  0.00     0.037 A 
ATOM     28  C   UNL A   1      42.426  30.369  35.724  1.00  0.00     0.049 A 
ATOM     29  C   UNL A   1      38.291  32.956  32.942  1.00  0.00     0.074 A 
ATOM     30  C   UNL A   1      42.768  30.906  36.954  1.00  0.00     0.029 A 
ATOM     31  N   UNL A   1      41.387  31.145  35.229  1.00  0.00    -0.354 N 
ATOM     32  N   UNL A   1      39.246  32.468  33.696  1.00  0.00    -0.248 NA
ATOM     33  C   UNL A   1      37.582  34.099  33.526  1.00  0.00     0.031 C 
ATOM     34  C   UNL A   1      41.908  31.976  37.221  1.00  0.00     0.029 A 
ATOM     35  C   UNL A   1      41.066  32.146  36.134  1.00  0.00     0.049 A 
ATOM     36  H   UNL A   1      40.941  31.005  34.362  1.00  0.00     0.167 HD
ATOM     37  C   UNL A   1      39.263  33.257  34.839  1.00  0.00     0.074 A 
ATOM     38  C   UNL A   1      38.243  34.270  34.662  1.00  0.00     0.031 C 
ATOM     39  C   UNL A   1      40.049  33.149  35.940  1.00  0.00     0.037 A 
BRANCH  26  40
ATOM     40  C   UNL A   1      44.130  28.499  35.730  1.00  0.00     0.058 A 
ATOM     41  C   UNL A   1      43.887  27.430  36.608  1.00  0.00     0.135 A 
ATOM     42  C   UNL A   1      45.469  28.824  35.457  1.00  0.00     0.135 A 
ATOM     43  F   UNL A   1      42.628  27.082  36.919  1.00  0.00    -0.206 F 
ATOM     44  C   UNL A   1      44.928  26.724  37.206  1.00  0.00     0.059 A 
ATOM     45  C   UNL A   1      46.527  28.115  36.022  1.00  0.00     0.059 A 
ATOM     46  F   UNL A   1      45.763  29.836  34.624  1.00  0.00    -0.206 F 
ATOM     47  C   UNL A   1      46.245  27.072  36.902  1.00  0.00     0.060 A 
BRANCH  47  48
ATOM     48  S   UNL A   1      47.582  26.132  37.671  1.00  0.00     0.124 S 
ATOM     49  O   UNL A   1      47.976  27.021  38.760  1.00  0.00    -0.237 OA
ATOM     50  O   UNL A   1      46.906  24.902  38.072  1.00  0.00    -0.237 OA
ATOM     51  O   UNL A   1      48.558  25.985  36.597  1.00  0.00    -0.744 OA
ENDBRANCH  47  48
ENDBRANCH  26  40
BRANCH  27  52
ATOM     52  C   UNL A   1      36.712  33.170  30.880  1.00  0.00     0.058 A 
ATOM     53  C   UNL A   1      36.938  34.093  29.848  1.00  0.00     0.135 A 
ATOM     54  C   UNL A   1      35.380  32.892  31.226  1.00  0.00     0.135 A 
ATOM     55  F   UNL A   1      38.193  34.392  29.479  1.00  0.00    -0.206 F 
ATOM     56  C   UNL A   1      35.887  34.741  29.207  1.00  0.00     0.059 A 
ATOM     57  C   UNL A   1      34.312  33.498  30.575  1.00  0.00     0.059 A 
ATOM     58  F   UNL A   1      35.106  31.999  32.190  1.00  0.00    -0.206 F 
ATOM     59  C   UNL A   1      34.576  34.436  29.580  1.00  0.00     0.060 A 
BRANCH  59  60
ATOM     60  S   UNL A   1      33.216  35.267  28.733  1.00  0.00     0.124 S 
ATOM     61  O   UNL A   1      33.935  36.190  27.864  1.00  0.00    -0.237 OA
ATOM     62  O   UNL A   1      32.544  34.155  28.068  1.00  0.00    -0.237 OA
ATOM     63  O   UNL A   1      32.466  35.881  29.824  1.00  0.00    -0.744 OA
ENDBRANCH  59  60
ENDBRANCH  27  52
BRANCH  39  64
ATOM     64  C   UNL A   1      39.854  34.178  37.019  1.00  0.00     0.058 A 
ATOM     65  C   UNL A   1      39.058  33.928  38.147  1.00  0.00     0.135 A 
ATOM     66  C   UNL A   1      40.485  35.429  36.927  1.00  0.00     0.135 A 
ATOM     67  F   UNL A   1      38.423  32.751  38.278  1.00  0.00    -0.206 F 
ATOM     68  C   UNL A   1      38.865  34.893  39.129  1.00  0.00     0.059 A 
ATOM     69  C   UNL A   1      40.334  36.397  37.913  1.00  0.00     0.059 A 
ATOM     70  F   UNL A   1      41.265  35.719  35.873  1.00  0.00    -0.206 F 
ATOM     71  C   UNL A   1      39.507  36.127  39.002  1.00  0.00     0.060 A 
BRANCH  71  72
ATOM     72  S   UNL A   1      39.259  37.366  40.290  1.00  0.00     0.124 S 
ATOM     73  O   UNL A   1      40.632  37.765  40.581  1.00  0.00    -0.237 OA
ATOM     74  O   UNL A   1      38.439  38.364  39.610  1.00  0.00    -0.237 OA
ATOM     75  O   UNL A   1      38.583  36.624  41.350  1.00  0.00    -0.744 OA
ENDBRANCH  71  72
ENDBRANCH  39  64
ENDBRANCH  13  14
ENDBRANCH   6   8
ENDBRANCH   3   4
ENDBRANCH   2   3
ENDBRANCH   1   2
BRANCH   1  76
ATOM     76  N   UNL A   1      37.739  23.076  24.726  1.00  0.00    -0.356 N 
ATOM     77  C   UNL A   1      36.528  23.033  24.107  1.00  0.00     0.227 C 
ATOM     78  H   UNL A   1      38.507  22.976  24.118  1.00  0.00     0.163 HD
ATOM     79  O   UNL A   1      36.553  22.920  22.875  1.00  0.00    -0.274 OA
BRANCH  77  80
ATOM     80  C   UNL A   1      35.176  23.103  24.842  1.00  0.00     0.108 C 
BRANCH  80  81
ATOM     81  C   UNL A   1      34.501  24.500  24.716  1.00  0.00     0.018 C 
BRANCH  81  82
ATOM     82  C   UNL A   1      34.229  25.147  23.350  1.00  0.00     0.004 C 
BRANCH  82  83
ATOM     83  C   UNL A   1      33.083  26.157  23.210  1.00  0.00     0.028 C 
BRANCH  83  84
ATOM     84  C   UNL A   1      32.806  26.607  21.780  1.00  0.00     0.156 C 
BRANCH  84  85
ATOM     85  O   UNL A   1      33.241  25.628  20.850  1.00  0.00    -0.396 OA
ATOM     86  H   UNL A   1      33.332  26.034  19.973  1.00  0.00     0.210 HD
ENDBRANCH  84  85
ENDBRANCH  83  84
ENDBRANCH  82  83
ENDBRANCH  81  82
ENDBRANCH  80  81
BRANCH  80  87
ATOM     87  C   UNL A   1      34.295  21.856  24.795  1.00  0.00    -0.034 A 
ATOM     88  C   UNL A   1      32.893  21.934  24.867  1.00  0.00     0.004 A 
ATOM     89  C   UNL A   1      34.860  20.586  24.591  1.00  0.00     0.025 A 
ATOM     90  C   UNL A   1      32.104  20.780  24.881  1.00  0.00     0.002 A 
ATOM     91  C   UNL A   1      34.076  19.434  24.623  1.00  0.00     0.041 A 
ATOM     92  C   UNL A   1      32.699  19.525  24.786  1.00  0.00     0.020 A 
ATOM     93  Cl  UNL A   1      34.826  17.892  24.482  1.00  0.00    -0.084 Cl
ENDBRANCH  80  87
ENDBRANCH  77  80
ENDBRANCH   1  76
TORSDOF 19
ENDMDL
MODEL 2
REMARK VINA RESULT:     -10.9      5.358     10.243
REMARK SMILES O=C(NCCCNC(=O)[C@@H](CCCCO)c1cccc(Cl)c1)c1ccc(-c2c3nc(c(-c4c(F)cc(S(=O)(=O)[O-])cc4F)c4ccc([nH]4)c(-c4c(F)cc(S(=O)(=O)[O-])cc4F)c4nc(c(-c5c(F)cc(S(=O)(=O)[O-])cc5F)c5ccc2[nH]5)C=C4)C=C3)cc1
REMARK SMILES IDX 6 1 5 2 4 3 3 4 1 5 2 6 23 8 24 9 88 10 25 11 87 12 26 13
REMARK SMILES IDX 27 14 28 15 81 16 29 17 86 18 80 19 82 20 30 21 85 22 79 23
REMARK SMILES IDX 78 24 31 26 65 27 44 28 64 29 45 30 48 31 63 32 83 33 46 34
REMARK SMILES IDX 47 35 62 37 84 38 49 39 32 40 33 41 42 42 34 43 35 44 41 45
REMARK SMILES IDX 43 46 36 47 37 48 38 49 39 50 40 51 66 52 67 53 76 54 68 55
REMARK SMILES IDX 69 56 75 57 77 58 70 59 71 60 72 61 73 62 74 63 50 64 51 65
REMARK SMILES IDX 60 66 52 67 53 68 59 69 61 70 54 71 55 72 56 73 57 74 58 75
REMARK SMILES IDX 7 76 8 77 9 79 10 80 11 81 12 82 13 83 14 84 15 85 16 87
REMARK SMILES IDX 17 88 22 89 18 90 20 91 19 92 21 93
REMARK H PARENT 3 7 82 25 48 36 7 78 15 86
REMARK Flexibility Score: inf
ROOT
ATOM      1  C   UNL A   1      33.381  28.883  25.007  1.00  0.00     0.117 C 
ENDROOT
BRANCH   1   2
ATOM      2  C   UNL A   1      33.992  27.948  26.038  1.00  0.00     0.042 C 
BRANCH   2   3
ATOM      3  C   UNL A   1      33.640  28.324  27.464  1.00  0.00     0.118 C 
BRANCH   3   4
ATOM      4  N   UNL A   1      33.547  29.765  27.644  1.00  0.00    -0.352 N 
ATOM      5  O   UNL A   1      34.089  31.799  28.430  1.00  0.00    -0.269 OA
ATOM      6  C   UNL A   1      34.459  30.655  28.160  1.00  0.00     0.251 C 
ATOM      7  H   UNL A   1      32.697  30.164  27.351  1.00  0.00     0.163 HD
BRANCH   6   8
ATOM      8  C   UNL A   1      35.863  30.252  28.408  1.00  0.00     0.039 A 
ATOM      9  C   UNL A   1      36.843  30.429  27.432  1.00  0.00     0.014 A 
ATOM     10  C   UNL A   1      36.225  29.724  29.654  1.00  0.00     0.014 A 
ATOM     11  C   UNL A   1      38.116  29.912  27.620  1.00  0.00     0.010 A 
ATOM     12  C   UNL A   1      37.551  29.340  29.895  1.00  0.00     0.010 A 
ATOM     13  C   UNL A   1      38.506  29.409  28.870  1.00  0.00    -0.014 A 
BRANCH  13  14
ATOM     14  C   UNL A   1      39.941  29.077  29.085  1.00  0.00     0.031 A 
ATOM     15  C   UNL A   1      40.505  27.730  28.724  1.00  0.00     0.074 A 
ATOM     16  C   UNL A   1      40.748  30.042  29.575  1.00  0.00     0.049 A 
ATOM     17  N   UNL A   1      41.737  27.302  28.833  1.00  0.00    -0.248 NA
ATOM     18  C   UNL A   1      39.572  26.731  28.182  1.00  0.00     0.031 C 
ATOM     19  C   UNL A   1      40.308  31.381  29.984  1.00  0.00     0.029 A 
ATOM     20  N   UNL A   1      42.102  30.067  29.788  1.00  0.00    -0.354 N 
ATOM     21  C   UNL A   1      41.730  25.988  28.381  1.00  0.00     0.074 A 
ATOM     22  C   UNL A   1      40.361  25.673  28.032  1.00  0.00     0.031 C 
ATOM     23  C   UNL A   1      41.373  32.113  30.335  1.00  0.00     0.029 A 
ATOM     24  C   UNL A   1      42.561  31.274  30.266  1.00  0.00     0.049 A 
ATOM     25  H   UNL A   1      42.691  29.297  29.617  1.00  0.00     0.167 HD
ATOM     26  C   UNL A   1      42.773  25.131  28.256  1.00  0.00     0.037 A 
ATOM     27  C   UNL A   1      43.793  31.661  30.641  1.00  0.00     0.037 A 
ATOM     28  C   UNL A   1      44.134  25.458  28.608  1.00  0.00     0.049 A 
ATOM     29  C   UNL A   1      44.921  30.677  30.525  1.00  0.00     0.074 A 
ATOM     30  C   UNL A   1      45.262  24.660  28.521  1.00  0.00     0.029 A 
ATOM     31  N   UNL A   1      44.553  26.681  29.114  1.00  0.00    -0.354 N 
ATOM     32  N   UNL A   1      44.894  29.443  30.081  1.00  0.00    -0.248 NA
ATOM     33  C   UNL A   1      46.245  31.134  30.961  1.00  0.00     0.031 C 
ATOM     34  C   UNL A   1      46.353  25.383  29.014  1.00  0.00     0.029 A 
ATOM     35  C   UNL A   1      45.919  26.654  29.355  1.00  0.00     0.049 A 
ATOM     36  H   UNL A   1      43.967  27.455  29.278  1.00  0.00     0.167 HD
ATOM     37  C   UNL A   1      46.201  28.982  30.169  1.00  0.00     0.074 A 
ATOM     38  C   UNL A   1      46.996  30.079  30.681  1.00  0.00     0.031 C 
ATOM     39  C   UNL A   1      46.697  27.758  29.862  1.00  0.00     0.037 A 
BRANCH  26  40
ATOM     40  C   UNL A   1      42.491  23.751  27.720  1.00  0.00     0.058 A 
ATOM     41  C   UNL A   1      42.383  23.504  26.342  1.00  0.00     0.135 A 
ATOM     42  C   UNL A   1      42.386  22.651  28.588  1.00  0.00     0.135 A 
ATOM     43  F   UNL A   1      42.460  24.519  25.465  1.00  0.00    -0.206 F 
ATOM     44  C   UNL A   1      42.164  22.223  25.844  1.00  0.00     0.059 A 
ATOM     45  C   UNL A   1      42.195  21.356  28.111  1.00  0.00     0.059 A 
ATOM     46  F   UNL A   1      42.483  22.826  29.916  1.00  0.00    -0.206 F 
ATOM     47  C   UNL A   1      42.075  21.154  26.738  1.00  0.00     0.060 A 
BRANCH  47  48
ATOM     48  S   UNL A   1      41.811  19.497  26.072  1.00  0.00     0.124 S 
ATOM     49  O   UNL A   1      42.667  19.518  24.890  1.00  0.00    -0.237 OA
ATOM     50  O   UNL A   1      42.266  18.645  27.167  1.00  0.00    -0.237 OA
ATOM     51  O   UNL A   1      40.377  19.459  25.807  1.00  0.00    -0.744 OA
ENDBRANCH  47  48
ENDBRANCH  26  40
BRANCH  27  52
ATOM     52  C   UNL A   1      44.011  33.025  31.193  1.00  0.00     0.058 A 
ATOM     53  C   UNL A   1      44.018  33.262  32.575  1.00  0.00     0.135 A 
ATOM     54  C   UNL A   1      44.220  34.123  30.342  1.00  0.00     0.135 A 
ATOM     55  F   UNL A   1      43.824  32.247  33.431  1.00  0.00    -0.206 F 
ATOM     56  C   UNL A   1      44.192  34.542  33.094  1.00  0.00     0.059 A 
ATOM     57  C   UNL A   1      44.434  35.404  30.837  1.00  0.00     0.059 A 
ATOM     58  F   UNL A   1      44.246  33.949  29.011  1.00  0.00    -0.206 F 
ATOM     59  C   UNL A   1      44.398  35.607  32.215  1.00  0.00     0.060 A 
BRANCH  59  60
ATOM     60  S   UNL A   1      44.641  37.261  32.895  1.00  0.00     0.124 S 
ATOM     61  O   UNL A   1      45.571  36.994  33.984  1.00  0.00    -0.237 OA
ATOM     62  O   UNL A   1      45.186  37.985  31.751  1.00  0.00    -0.237 OA
ATOM     63  O   UNL A   1      43.295  37.660  33.295  1.00  0.00    -0.744 OA
ENDBRANCH  59  60
ENDBRANCH  27  52
BRANCH  39  64
ATOM     64  C   UNL A   1      48.177  27.559  30.038  1.00  0.00     0.058 A 
ATOM     65  C   UNL A   1      49.083  27.768  28.986  1.00  0.00     0.135 A 
ATOM     66  C   UNL A   1      48.696  27.167  31.282  1.00  0.00     0.135 A 
ATOM     67  F   UNL A   1      48.638  28.134  27.773  1.00  0.00    -0.206 F 
ATOM     68  C   UNL A   1      50.448  27.561  29.151  1.00  0.00     0.059 A 
ATOM     69  C   UNL A   1      50.060  26.986  31.479  1.00  0.00     0.059 A 
ATOM     70  F   UNL A   1      47.875  26.962  32.324  1.00  0.00    -0.206 F 
ATOM     71  C   UNL A   1      50.927  27.168  30.403  1.00  0.00     0.060 A 
BRANCH  71  72
ATOM     72  S   UNL A   1      52.702  26.915  30.607  1.00  0.00     0.124 S 
ATOM     73  O   UNL A   1      53.076  28.084  31.396  1.00  0.00    -0.237 OA
ATOM     74  O   UNL A   1      52.756  25.635  31.307  1.00  0.00    -0.237 OA
ATOM     75  O   UNL A   1      53.203  26.896  29.236  1.00  0.00    -0.744 OA
ENDBRANCH  71  72
ENDBRANCH  39  64
ENDBRANCH  13  14
ENDBRANCH   6   8
ENDBRANCH   3   4
ENDBRANCH   2   3
ENDBRANCH   1   2
BRANCH   1  76
ATOM     76  N   UNL A   1      33.915  28.638  23.680  1.00  0.00    -0.356 N 
ATOM     77  C   UNL A   1      33.512  27.802  22.685  1.00  0.00     0.227 C 
ATOM     78  H   UNL A   1      34.712  29.173  23.460  1.00  0.00     0.163 HD
ATOM     79  O   UNL A   1      34.165  27.855  21.635  1.00  0.00    -0.274 OA
BRANCH  77  80
ATOM     80  C   UNL A   1      32.333  26.818  22.805  1.00  0.00     0.108 C 
BRANCH  80  81
ATOM     81  C   UNL A   1      32.677  25.581  23.685  1.00  0.00     0.018 C 
BRANCH  81  82
ATOM     82  C   UNL A   1      34.117  25.067  23.830  1.00  0.00     0.004 C 
BRANCH  82  83
ATOM     83  C   UNL A   1      34.505  23.726  23.196  1.00  0.00     0.028 C 
BRANCH  83  84
ATOM     84  C   UNL A   1      35.880  23.206  23.601  1.00  0.00     0.156 C 
BRANCH  84  85
ATOM     85  O   UNL A   1      36.674  22.935  22.458  1.00  0.00    -0.396 OA
ATOM     86  H   UNL A   1      36.236  22.265  21.911  1.00  0.00     0.210 HD
ENDBRANCH  84  85
ENDBRANCH  83  84
ENDBRANCH  82  83
ENDBRANCH  81  82
ENDBRANCH  80  81
BRANCH  80  87
ATOM     87  C   UNL A   1      30.933  27.421  22.903  1.00  0.00    -0.034 A 
ATOM     88  C   UNL A   1      29.889  26.768  23.582  1.00  0.00     0.004 A 
ATOM     89  C   UNL A   1      30.664  28.699  22.384  1.00  0.00     0.025 A 
ATOM     90  C   UNL A   1      28.599  27.306  23.613  1.00  0.00     0.002 A 
ATOM     91  C   UNL A   1      29.374  29.227  22.398  1.00  0.00     0.041 A 
ATOM     92  C   UNL A   1      28.334  28.525  22.996  1.00  0.00     0.020 A 
ATOM     93  Cl  UNL A   1      29.071  30.746  21.650  1.00  0.00    -0.084 Cl
ENDBRANCH  80  87
ENDBRANCH  77  80
ENDBRANCH   1  76
TORSDOF 19
ENDMDL
MODEL 3
REMARK VINA RESULT:     -10.7      7.086     12.525
REMARK SMILES O=C(NCCCNC(=O)[C@@H](CCCCO)c1cccc(Cl)c1)c1ccc(-c2c3nc(c(-c4c(F)cc(S(=O)(=O)[O-])cc4F)c4ccc([nH]4)c(-c4c(F)cc(S(=O)(=O)[O-])cc4F)c4nc(c(-c5c(F)cc(S(=O)(=O)[O-])cc5F)c5ccc2[nH]5)C=C4)C=C3)cc1
REMARK SMILES IDX 6 1 5 2 4 3 3 4 1 5 2 6 23 8 24 9 88 10 25 11 87 12 26 13
REMARK SMILES IDX 27 14 28 15 81 16 29 17 86 18 80 19 82 20 30 21 85 22 79 23
REMARK SMILES IDX 78 24 31 26 65 27 44 28 64 29 45 30 48 31 63 32 83 33 46 34
REMARK SMILES IDX 47 35 62 37 84 38 49 39 32 40 33 41 42 42 34 43 35 44 41 45
REMARK SMILES IDX 43 46 36 47 37 48 38 49 39 50 40 51 66 52 67 53 76 54 68 55
REMARK SMILES IDX 69 56 75 57 77 58 70 59 71 60 72 61 73 62 74 63 50 64 51 65
REMARK SMILES IDX 60 66 52 67 53 68 59 69 61 70 54 71 55 72 56 73 57 74 58 75
REMARK SMILES IDX 7 76 8 77 9 79 10 80 11 81 12 82 13 83 14 84 15 85 16 87
REMARK SMILES IDX 17 88 22 89 18 90 20 91 19 92 21 93
REMARK H PARENT 3 7 82 25 48 36 7 78 15 86
REMARK Flexibility Score: inf
ROOT
ATOM      1  C   UNL A   1      34.461  29.484  27.150  1.00  0.00     0.117 C 
ENDROOT
BRANCH   1   2
ATOM      2  C   UNL A   1      34.469  30.957  27.522  1.00  0.00     0.042 C 
BRANCH   2   3
ATOM      3  C   UNL A   1      35.692  31.361  28.321  1.00  0.00     0.118 C 
BRANCH   3   4
ATOM      4  N   UNL A   1      35.619  30.909  29.702  1.00  0.00    -0.352 N 
ATOM      5  O   UNL A   1      36.137  29.692  31.519  1.00  0.00    -0.269 OA
ATOM      6  C   UNL A   1      36.502  30.149  30.435  1.00  0.00     0.251 C 
ATOM      7  H   UNL A   1      34.811  31.190  30.188  1.00  0.00     0.163 HD
BRANCH   6   8
ATOM      8  C   UNL A   1      37.865  29.863  29.930  1.00  0.00     0.039 A 
ATOM      9  C   UNL A   1      38.908  29.574  30.808  1.00  0.00     0.014 A 
ATOM     10  C   UNL A   1      38.105  29.840  28.550  1.00  0.00     0.014 A 
ATOM     11  C   UNL A   1      40.207  29.458  30.335  1.00  0.00     0.010 A 
ATOM     12  C   UNL A   1      39.392  29.571  28.066  1.00  0.00     0.010 A 
ATOM     13  C   UNL A   1      40.462  29.400  28.957  1.00  0.00    -0.014 A 
BRANCH  13  14
ATOM     14  C   UNL A   1      41.836  29.048  28.504  1.00  0.00     0.031 A 
ATOM     15  C   UNL A   1      42.947  30.061  28.487  1.00  0.00     0.074 A 
ATOM     16  C   UNL A   1      42.077  27.768  28.148  1.00  0.00     0.049 A 
ATOM     17  N   UNL A   1      44.199  29.898  28.140  1.00  0.00    -0.248 NA
ATOM     18  C   UNL A   1      42.617  31.432  28.901  1.00  0.00     0.031 C 
ATOM     19  C   UNL A   1      41.070  26.702  28.102  1.00  0.00     0.029 A 
ATOM     20  N   UNL A   1      43.237  27.133  27.786  1.00  0.00    -0.354 N 
ATOM     21  C   UNL A   1      44.805  31.140  28.286  1.00  0.00     0.074 A 
ATOM     22  C   UNL A   1      43.773  32.059  28.717  1.00  0.00     0.031 C 
ATOM     23  C   UNL A   1      41.663  25.541  27.798  1.00  0.00     0.029 A 
ATOM     24  C   UNL A   1      43.073  25.790  27.536  1.00  0.00     0.049 A 
ATOM     25  H   UNL A   1      44.104  27.593  27.710  1.00  0.00     0.167 HD
ATOM     26  C   UNL A   1      46.105  31.475  28.092  1.00  0.00     0.037 A 
ATOM     27  C   UNL A   1      43.948  24.860  27.112  1.00  0.00     0.037 A 
ATOM     28  C   UNL A   1      47.123  30.547  27.662  1.00  0.00     0.049 A 
ATOM     29  C   UNL A   1      45.372  25.271  26.872  1.00  0.00     0.074 A 
ATOM     30  C   UNL A   1      48.467  30.788  27.435  1.00  0.00     0.029 A 
ATOM     31  N   UNL A   1      46.911  29.202  27.395  1.00  0.00    -0.354 N 
ATOM     32  N   UNL A   1      45.926  26.449  27.031  1.00  0.00    -0.248 NA
ATOM     33  C   UNL A   1      46.289  24.230  26.394  1.00  0.00     0.031 C 
ATOM     34  C   UNL A   1      49.058  29.602  26.989  1.00  0.00     0.029 A 
ATOM     35  C   UNL A   1      48.097  28.604  26.992  1.00  0.00     0.049 A 
ATOM     36  H   UNL A   1      46.046  28.738  27.478  1.00  0.00     0.167 HD
ATOM     37  C   UNL A   1      47.262  26.286  26.687  1.00  0.00     0.074 A 
ATOM     38  C   UNL A   1      47.436  24.890  26.341  1.00  0.00     0.031 C 
ATOM     39  C   UNL A   1      48.254  27.211  26.654  1.00  0.00     0.037 A 
BRANCH  26  40
ATOM     40  C   UNL A   1      46.506  32.906  28.338  1.00  0.00     0.058 A 
ATOM     41  C   UNL A   1      46.449  33.872  27.321  1.00  0.00     0.135 A 
ATOM     42  C   UNL A   1      46.894  33.333  29.619  1.00  0.00     0.135 A 
ATOM     43  F   UNL A   1      46.099  33.521  26.073  1.00  0.00    -0.206 F 
ATOM     44  C   UNL A   1      46.779  35.204  27.558  1.00  0.00     0.059 A 
ATOM     45  C   UNL A   1      47.202  34.665  29.887  1.00  0.00     0.059 A 
ATOM     46  F   UNL A   1      46.965  32.454  30.632  1.00  0.00    -0.206 F 
ATOM     47  C   UNL A   1      47.151  35.591  28.847  1.00  0.00     0.060 A 
BRANCH  47  48
ATOM     48  S   UNL A   1      47.556  37.326  29.140  1.00  0.00     0.124 S 
ATOM     49  O   UNL A   1      48.944  37.231  29.583  1.00  0.00    -0.237 OA
ATOM     50  O   UNL A   1      47.353  37.920  27.823  1.00  0.00    -0.237 OA
ATOM     51  O   UNL A   1      46.598  37.733  30.162  1.00  0.00    -0.744 OA
ENDBRANCH  47  48
ENDBRANCH  26  40
BRANCH  27  52
ATOM     52  C   UNL A   1      43.491  23.468  26.855  1.00  0.00     0.058 A 
ATOM     53  C   UNL A   1      43.229  22.578  27.907  1.00  0.00     0.135 A 
ATOM     54  C   UNL A   1      43.301  23.002  25.544  1.00  0.00     0.135 A 
ATOM     55  F   UNL A   1      43.393  22.974  29.178  1.00  0.00    -0.206 F 
ATOM     56  C   UNL A   1      42.829  21.266  27.669  1.00  0.00     0.059 A 
ATOM     57  C   UNL A   1      42.866  21.709  25.281  1.00  0.00     0.059 A 
ATOM     58  F   UNL A   1      43.514  23.819  24.501  1.00  0.00    -0.206 F 
ATOM     59  C   UNL A   1      42.651  20.841  26.350  1.00  0.00     0.060 A 
BRANCH  59  60
ATOM     60  S   UNL A   1      42.114  19.145  26.048  1.00  0.00     0.124 S 
ATOM     61  O   UNL A   1      42.928  18.783  24.895  1.00  0.00    -0.237 OA
ATOM     62  O   UNL A   1      42.457  18.487  27.305  1.00  0.00    -0.237 OA
ATOM     63  O   UNL A   1      40.684  19.286  25.794  1.00  0.00    -0.744 OA
ENDBRANCH  59  60
ENDBRANCH  27  52
BRANCH  39  64
ATOM     64  C   UNL A   1      49.623  26.727  26.263  1.00  0.00     0.058 A 
ATOM     65  C   UNL A   1      50.493  26.137  27.193  1.00  0.00     0.135 A 
ATOM     66  C   UNL A   1      50.063  26.843  24.935  1.00  0.00     0.135 A 
ATOM     67  F   UNL A   1      50.125  26.011  28.478  1.00  0.00    -0.206 F 
ATOM     68  C   UNL A   1      51.766  25.713  26.828  1.00  0.00     0.059 A 
ATOM     69  C   UNL A   1      51.319  26.395  24.541  1.00  0.00     0.059 A 
ATOM     70  F   UNL A   1      49.267  27.391  24.003  1.00  0.00    -0.206 F 
ATOM     71  C   UNL A   1      52.171  25.847  25.498  1.00  0.00     0.060 A 
BRANCH  71  72
ATOM     72  S   UNL A   1      53.820  25.280  25.035  1.00  0.00     0.124 S 
ATOM     73  O   UNL A   1      54.044  26.013  23.793  1.00  0.00    -0.237 OA
ATOM     74  O   UNL A   1      54.627  25.703  26.176  1.00  0.00    -0.237 OA
ATOM     75  O   UNL A   1      53.655  23.836  24.891  1.00  0.00    -0.744 OA
ENDBRANCH  71  72
ENDBRANCH  39  64
ENDBRANCH  13  14
ENDBRANCH   6   8
ENDBRANCH   3   4
ENDBRANCH   2   3
ENDBRANCH   1   2
BRANCH   1  76
ATOM     76  N   UNL A   1      33.287  28.806  27.671  1.00  0.00    -0.356 N 
ATOM     77  C   UNL A   1      32.225  28.231  27.046  1.00  0.00     0.227 C 
ATOM     78  H   UNL A   1      33.254  28.754  28.654  1.00  0.00     0.163 HD
ATOM     79  O   UNL A   1      31.392  27.688  27.782  1.00  0.00    -0.274 OA
BRANCH  77  80
ATOM     80  C   UNL A   1      32.011  28.235  25.520  1.00  0.00     0.108 C 
BRANCH  80  81
ATOM     81  C   UNL A   1      31.888  26.799  24.933  1.00  0.00     0.018 C 
BRANCH  81  82
ATOM     82  C   UNL A   1      32.697  26.354  23.706  1.00  0.00     0.004 C 
BRANCH  82  83
ATOM     83  C   UNL A   1      31.978  25.668  22.538  1.00  0.00     0.028 C 
BRANCH  83  84
ATOM     84  C   UNL A   1      32.726  25.725  21.211  1.00  0.00     0.156 C 
BRANCH  84  85
ATOM     85  O   UNL A   1      33.045  24.420  20.754  1.00  0.00    -0.396 OA
ATOM     86  H   UNL A   1      32.254  23.861  20.795  1.00  0.00     0.210 HD
ENDBRANCH  84  85
ENDBRANCH  83  84
ENDBRANCH  82  83
ENDBRANCH  81  82
ENDBRANCH  80  81
BRANCH  80  87
ATOM     87  C   UNL A   1      31.127  29.341  24.946  1.00  0.00    -0.034 A 
ATOM     88  C   UNL A   1      31.124  30.641  25.480  1.00  0.00     0.004 A 
ATOM     89  C   UNL A   1      30.344  29.111  23.803  1.00  0.00     0.025 A 
ATOM     90  C   UNL A   1      30.266  31.626  24.980  1.00  0.00     0.002 A 
ATOM     91  C   UNL A   1      29.475  30.087  23.315  1.00  0.00     0.041 A 
ATOM     92  C   UNL A   1      29.420  31.340  23.913  1.00  0.00     0.020 A 
ATOM     93  Cl  UNL A   1      28.453  29.722  21.981  1.00  0.00    -0.084 Cl
ENDBRANCH  80  87
ENDBRANCH  77  80
ENDBRANCH   1  76
TORSDOF 19
ENDMDL
