MODEL 1
REMARK VINA RESULT:     -11.8      0.000      0.000
REMARK SMILES CCc1cccc(NC(=O)N2CCO[C@@H](CC(=O)NCCCNC(=O)c3ccc(-c4c5nc(c(-c6c(F)cc(S(=O)(=O)[O-])cc6F)c6ccc([nH]6)c(-c6c(F)cc(S(=O)(=O)[O-])cc6F)c6nc(c(-c7c(F)cc(S(=O)(=O)[O-])cc7F)c7ccc4[nH]7)C=C6)C=C5)cc3)C2)c1
REMARK SMILES IDX 20 1 19 2 17 3 18 4 16 6 15 7 11 8 12 9 92 10 13 11 14 12
REMARK SMILES IDX 9 13 8 14 10 16 7 17 3 18 4 19 93 20 5 21 6 22 2 23 1 24
REMARK SMILES IDX 21 25 22 26 23 27 24 28 25 30 26 31 27 32 91 33 28 34 90 35
REMARK SMILES IDX 29 36 30 37 31 38 84 39 32 40 89 41 83 42 85 43 33 44 88 45
REMARK SMILES IDX 82 46 81 47 34 49 68 50 47 51 67 52 48 53 51 54 66 55 86 56
REMARK SMILES IDX 49 57 50 58 65 60 87 61 52 62 35 63 36 64 45 65 37 66 38 67
REMARK SMILES IDX 44 68 46 69 39 70 40 71 41 72 42 73 43 74 69 75 70 76 79 77
REMARK SMILES IDX 71 78 72 79 78 80 80 81 73 82 74 83 75 84 76 85 77 86 53 87
REMARK SMILES IDX 54 88 63 89 55 90 56 91 62 92 64 93 57 94 58 95 59 96 60 97
REMARK SMILES IDX 61 98
REMARK H PARENT 19 5 8 15 23 29 85 48 51 59
REMARK Flexibility Score: inf
ROOT
ATOM      1  C   UNL A   1      33.119  29.778  26.667  1.00  0.00     0.117 C 
ENDROOT
BRANCH   1   2
ATOM      2  N   UNL A   1      33.256  29.677  25.217  1.00  0.00    -0.356 N 
ATOM      3  C   UNL A   1      32.545  28.955  24.300  1.00  0.00     0.222 C 
ATOM      4  O   UNL A   1      32.893  29.005  23.119  1.00  0.00    -0.275 OA
ATOM      5  H   UNL A   1      33.983  30.219  24.835  1.00  0.00     0.163 HD
BRANCH   3   6
ATOM      6  C   UNL A   1      31.380  28.085  24.725  1.00  0.00     0.133 C 
BRANCH   6   7
ATOM      7  C   UNL A   1      31.646  26.594  24.514  1.00  0.00     0.147 C 
ATOM      8  N   UNL A   1      31.143  24.341  25.398  1.00  0.00    -0.320 N 
ATOM      9  C   UNL A   1      30.672  23.917  24.082  1.00  0.00     0.150 C 
ATOM     10  C   UNL A   1      31.024  25.759  25.632  1.00  0.00     0.154 C 
ATOM     11  C   UNL A   1      31.268  24.803  22.980  1.00  0.00     0.182 C 
ATOM     12  O   UNL A   1      31.070  26.207  23.244  1.00  0.00    -0.374 OA
BRANCH   8  13
ATOM     13  C   UNL A   1      31.031  23.518  26.488  1.00  0.00     0.322 C 
ATOM     14  N   UNL A   1      32.050  22.664  26.776  1.00  0.00    -0.308 N 
ATOM     15  H   UNL A   1      31.803  21.935  27.391  1.00  0.00     0.171 HD
ATOM     16  O   UNL A   1      30.057  23.573  27.241  1.00  0.00    -0.248 OA
BRANCH  14  17
ATOM     17  C   UNL A   1      33.394  22.633  26.355  1.00  0.00     0.043 A 
ATOM     18  C   UNL A   1      35.202  21.299  25.396  1.00  0.00    -0.046 A 
ATOM     19  C   UNL A   1      36.026  22.435  25.416  1.00  0.00     0.004 A 
ATOM     20  C   UNL A   1      33.881  21.418  25.857  1.00  0.00     0.029 A 
ATOM     21  C   UNL A   1      35.568  23.631  25.952  1.00  0.00     0.002 A 
ATOM     22  C   UNL A   1      34.273  23.710  26.456  1.00  0.00     0.026 A 
BRANCH  18  23
ATOM     23  C   UNL A   1      35.815  19.996  24.939  1.00  0.00     0.032 C 
ATOM     24  C   UNL A   1      37.334  19.928  24.883  1.00  0.00     0.009 C 
ENDBRANCH  18  23
ENDBRANCH  14  17
ENDBRANCH   8  13
ENDBRANCH   6   7
ENDBRANCH   3   6
ENDBRANCH   1   2
BRANCH   1  25
ATOM     25  C   UNL A   1      34.425  29.473  27.403  1.00  0.00     0.042 C 
BRANCH  25  26
ATOM     26  C   UNL A   1      35.277  30.692  27.718  1.00  0.00     0.118 C 
BRANCH  26  27
ATOM     27  N   UNL A   1      35.337  30.948  29.145  1.00  0.00    -0.352 N 
ATOM     28  C   UNL A   1      36.298  30.602  30.068  1.00  0.00     0.251 C 
ATOM     29  H   UNL A   1      34.571  31.448  29.511  1.00  0.00     0.163 HD
ATOM     30  O   UNL A   1      36.013  30.679  31.263  1.00  0.00    -0.269 OA
BRANCH  28  31
ATOM     31  C   UNL A   1      37.652  30.139  29.663  1.00  0.00     0.039 A 
ATOM     32  C   UNL A   1      38.560  29.778  30.666  1.00  0.00     0.014 A 
ATOM     33  C   UNL A   1      38.074  30.138  28.332  1.00  0.00     0.014 A 
ATOM     34  C   UNL A   1      39.864  29.387  30.332  1.00  0.00     0.010 A 
ATOM     35  C   UNL A   1      39.346  29.669  27.992  1.00  0.00     0.010 A 
ATOM     36  C   UNL A   1      40.265  29.309  28.989  1.00  0.00    -0.014 A 
BRANCH  36  37
ATOM     37  C   UNL A   1      41.645  28.893  28.616  1.00  0.00     0.031 A 
ATOM     38  C   UNL A   1      42.762  29.906  28.583  1.00  0.00     0.074 A 
ATOM     39  C   UNL A   1      41.894  27.614  28.269  1.00  0.00     0.049 A 
ATOM     40  N   UNL A   1      44.014  29.749  28.230  1.00  0.00    -0.248 NA
ATOM     41  C   UNL A   1      42.422  31.283  28.976  1.00  0.00     0.031 C 
ATOM     42  C   UNL A   1      40.899  26.542  28.221  1.00  0.00     0.029 A 
ATOM     43  N   UNL A   1      43.062  27.000  27.883  1.00  0.00    -0.354 N 
ATOM     44  C   UNL A   1      44.602  31.005  28.342  1.00  0.00     0.074 A 
ATOM     45  C   UNL A   1      43.560  31.922  28.748  1.00  0.00     0.031 C 
ATOM     46  C   UNL A   1      41.501  25.398  27.855  1.00  0.00     0.029 A 
ATOM     47  C   UNL A   1      42.916  25.661  27.605  1.00  0.00     0.049 A 
ATOM     48  H   UNL A   1      43.921  27.474  27.814  1.00  0.00     0.167 HD
ATOM     49  C   UNL A   1      45.896  31.359  28.148  1.00  0.00     0.037 A 
ATOM     50  C   UNL A   1      43.816  24.749  27.188  1.00  0.00     0.037 A 
ATOM     51  C   UNL A   1      46.940  30.440  27.773  1.00  0.00     0.049 A 
ATOM     52  C   UNL A   1      45.247  25.165  26.977  1.00  0.00     0.074 A 
ATOM     53  C   UNL A   1      48.290  30.694  27.605  1.00  0.00     0.029 A 
ATOM     54  N   UNL A   1      46.752  29.091  27.511  1.00  0.00    -0.354 N 
ATOM     55  N   UNL A   1      45.793  26.347  27.136  1.00  0.00    -0.248 NA
ATOM     56  C   UNL A   1      46.185  24.123  26.535  1.00  0.00     0.031 C 
ATOM     57  C   UNL A   1      48.914  29.506  27.206  1.00  0.00     0.029 A 
ATOM     58  C   UNL A   1      47.958  28.503  27.167  1.00  0.00     0.049 A 
ATOM     59  H   UNL A   1      45.889  28.621  27.564  1.00  0.00     0.167 HD
ATOM     60  C   UNL A   1      47.142  26.186  26.833  1.00  0.00     0.074 A 
ATOM     61  C   UNL A   1      47.330  24.790  26.495  1.00  0.00     0.031 C 
ATOM     62  C   UNL A   1      48.132  27.111  26.835  1.00  0.00     0.037 A 
BRANCH  49  63
ATOM     63  C   UNL A   1      46.257  32.808  28.341  1.00  0.00     0.058 A 
ATOM     64  C   UNL A   1      46.214  33.725  27.279  1.00  0.00     0.135 A 
ATOM     65  C   UNL A   1      46.622  33.291  29.608  1.00  0.00     0.135 A 
ATOM     66  F   UNL A   1      45.883  33.314  26.045  1.00  0.00    -0.206 F 
ATOM     67  C   UNL A   1      46.556  35.061  27.457  1.00  0.00     0.059 A 
ATOM     68  C   UNL A   1      46.942  34.631  29.815  1.00  0.00     0.059 A 
ATOM     69  F   UNL A   1      46.676  32.460  30.660  1.00  0.00    -0.206 F 
ATOM     70  C   UNL A   1      46.923  35.505  28.728  1.00  0.00     0.060 A 
BRANCH  70  71
ATOM     71  S   UNL A   1      47.371  37.240  28.942  1.00  0.00     0.124 S 
ATOM     72  O   UNL A   1      47.779  37.264  30.343  1.00  0.00    -0.237 OA
ATOM     73  O   UNL A   1      48.443  37.411  27.967  1.00  0.00    -0.237 OA
ATOM     74  O   UNL A   1      46.133  37.951  28.637  1.00  0.00    -0.744 OA
ENDBRANCH  70  71
ENDBRANCH  49  63
BRANCH  50  75
ATOM     75  C   UNL A   1      43.393  23.341  26.962  1.00  0.00     0.058 A 
ATOM     76  C   UNL A   1      43.236  22.455  28.037  1.00  0.00     0.135 A 
ATOM     77  C   UNL A   1      43.125  22.859  25.672  1.00  0.00     0.135 A 
ATOM     78  F   UNL A   1      43.491  22.867  29.288  1.00  0.00    -0.206 F 
ATOM     79  C   UNL A   1      42.840  21.136  27.843  1.00  0.00     0.059 A 
ATOM     80  C   UNL A   1      42.703  21.550  25.454  1.00  0.00     0.059 A 
ATOM     81  F   UNL A   1      43.245  23.671  24.610  1.00  0.00    -0.206 F 
ATOM     82  C   UNL A   1      42.573  20.693  26.547  1.00  0.00     0.060 A 
BRANCH  82  83
ATOM     83  S   UNL A   1      42.007  18.994  26.308  1.00  0.00     0.124 S 
ATOM     84  O   UNL A   1      43.004  18.482  25.374  1.00  0.00    -0.237 OA
ATOM     85  O   UNL A   1      42.066  18.457  27.663  1.00  0.00    -0.237 OA
ATOM     86  O   UNL A   1      40.662  19.164  25.767  1.00  0.00    -0.744 OA
ENDBRANCH  82  83
ENDBRANCH  50  75
BRANCH  62  87
ATOM     87  C   UNL A   1      49.518  26.642  26.484  1.00  0.00     0.058 A 
ATOM     88  C   UNL A   1      50.387  26.122  27.454  1.00  0.00     0.135 A 
ATOM     89  C   UNL A   1      49.961  26.668  25.151  1.00  0.00     0.135 A 
ATOM     90  F   UNL A   1      50.014  26.082  28.743  1.00  0.00    -0.206 F 
ATOM     91  C   UNL A   1      51.658  25.663  27.120  1.00  0.00     0.059 A 
ATOM     92  C   UNL A   1      51.218  26.192  24.791  1.00  0.00     0.059 A 
ATOM     93  F   UNL A   1      49.164  27.147  24.182  1.00  0.00    -0.206 F 
ATOM     94  C   UNL A   1      52.063  25.702  25.785  1.00  0.00     0.060 A 
BRANCH  94  95
ATOM     95  S   UNL A   1      53.701  25.071  25.358  1.00  0.00     0.124 S 
ATOM     96  O   UNL A   1      54.487  25.494  26.512  1.00  0.00    -0.237 OA
ATOM     97  O   UNL A   1      53.464  23.635  25.243  1.00  0.00    -0.237 OA
ATOM     98  O   UNL A   1      54.010  25.751  24.103  1.00  0.00    -0.744 OA
ENDBRANCH  94  95
ENDBRANCH  62  87
ENDBRANCH  36  37
ENDBRANCH  28  31
ENDBRANCH  26  27
ENDBRANCH  25  26
ENDBRANCH   1  25
TORSDOF 17
ENDMDL
MODEL 2
REMARK VINA RESULT:     -11.8      0.888      8.306
REMARK SMILES CCc1cccc(NC(=O)N2CCO[C@@H](CC(=O)NCCCNC(=O)c3ccc(-c4c5nc(c(-c6c(F)cc(S(=O)(=O)[O-])cc6F)c6ccc([nH]6)c(-c6c(F)cc(S(=O)(=O)[O-])cc6F)c6nc(c(-c7c(F)cc(S(=O)(=O)[O-])cc7F)c7ccc4[nH]7)C=C6)C=C5)cc3)C2)c1
REMARK SMILES IDX 20 1 19 2 17 3 18 4 16 6 15 7 11 8 12 9 92 10 13 11 14 12
REMARK SMILES IDX 9 13 8 14 10 16 7 17 3 18 4 19 93 20 5 21 6 22 2 23 1 24
REMARK SMILES IDX 21 25 22 26 23 27 24 28 25 30 26 31 27 32 91 33 28 34 90 35
REMARK SMILES IDX 29 36 30 37 31 38 84 39 32 40 89 41 83 42 85 43 33 44 88 45
REMARK SMILES IDX 82 46 81 47 34 49 68 50 47 51 67 52 48 53 51 54 66 55 86 56
REMARK SMILES IDX 49 57 50 58 65 60 87 61 52 62 35 63 36 64 45 65 37 66 38 67
REMARK SMILES IDX 44 68 46 69 39 70 40 71 41 72 42 73 43 74 69 75 70 76 79 77
REMARK SMILES IDX 71 78 72 79 78 80 80 81 73 82 74 83 75 84 76 85 77 86 53 87
REMARK SMILES IDX 54 88 63 89 55 90 56 91 62 92 64 93 57 94 58 95 59 96 60 97
REMARK SMILES IDX 61 98
REMARK H PARENT 19 5 8 15 23 29 85 48 51 59
REMARK Flexibility Score: inf
ROOT
ATOM      1  C   UNL A   1      33.288  30.241  26.904  1.00  0.00     0.117 C 
ENDROOT
BRANCH   1   2
ATOM      2  N   UNL A   1      33.816  29.757  25.633  1.00  0.00    -0.356 N 
ATOM      3  C   UNL A   1      33.331  28.824  24.760  1.00  0.00     0.222 C 
ATOM      4  O   UNL A   1      33.998  28.556  23.760  1.00  0.00    -0.275 OA
ATOM      5  H   UNL A   1      34.665  30.172  25.357  1.00  0.00     0.163 HD
BRANCH   3   6
ATOM      6  C   UNL A   1      32.023  28.109  25.030  1.00  0.00     0.133 C 
BRANCH   6   7
ATOM      7  C   UNL A   1      32.078  26.621  24.680  1.00  0.00     0.147 C 
ATOM      8  N   UNL A   1      31.906  24.348  25.634  1.00  0.00    -0.320 N 
ATOM      9  C   UNL A   1      30.863  24.008  24.670  1.00  0.00     0.150 C 
ATOM     10  C   UNL A   1      31.988  25.755  25.936  1.00  0.00     0.154 C 
ATOM     11  C   UNL A   1      30.940  24.926  23.442  1.00  0.00     0.182 C 
ATOM     12  O   UNL A   1      30.965  26.321  23.805  1.00  0.00    -0.374 OA
BRANCH   8  13
ATOM     13  C   UNL A   1      32.257  23.476  26.632  1.00  0.00     0.322 C 
ATOM     14  N   UNL A   1      33.405  22.756  26.504  1.00  0.00    -0.308 N 
ATOM     15  H   UNL A   1      33.461  21.978  27.105  1.00  0.00     0.171 HD
ATOM     16  O   UNL A   1      31.590  23.371  27.662  1.00  0.00    -0.248 OA
BRANCH  14  17
ATOM     17  C   UNL A   1      34.527  22.922  25.668  1.00  0.00     0.043 A 
ATOM     18  C   UNL A   1      36.898  23.490  25.524  1.00  0.00    -0.046 A 
ATOM     19  C   UNL A   1      36.859  23.225  24.146  1.00  0.00     0.004 A 
ATOM     20  C   UNL A   1      35.724  23.320  26.275  1.00  0.00     0.029 A 
ATOM     21  C   UNL A   1      35.666  22.876  23.527  1.00  0.00     0.002 A 
ATOM     22  C   UNL A   1      34.503  22.769  24.283  1.00  0.00     0.026 A 
BRANCH  18  23
ATOM     23  C   UNL A   1      38.194  24.010  26.101  1.00  0.00     0.032 C 
ATOM     24  C   UNL A   1      39.193  22.977  26.601  1.00  0.00     0.009 C 
ENDBRANCH  18  23
ENDBRANCH  14  17
ENDBRANCH   8  13
ENDBRANCH   6   7
ENDBRANCH   3   6
ENDBRANCH   1   2
BRANCH   1  25
ATOM     25  C   UNL A   1      34.308  31.071  27.686  1.00  0.00     0.042 C 
BRANCH  25  26
ATOM     26  C   UNL A   1      35.441  30.267  28.304  1.00  0.00     0.118 C 
BRANCH  26  27
ATOM     27  N   UNL A   1      35.512  30.459  29.741  1.00  0.00    -0.352 N 
ATOM     28  C   UNL A   1      36.531  30.185  30.623  1.00  0.00     0.251 C 
ATOM     29  H   UNL A   1      34.704  30.847  30.149  1.00  0.00     0.163 HD
ATOM     30  O   UNL A   1      36.274  30.170  31.826  1.00  0.00    -0.269 OA
BRANCH  28  31
ATOM     31  C   UNL A   1      37.918  29.903  30.165  1.00  0.00     0.039 A 
ATOM     32  C   UNL A   1      38.223  30.084  28.810  1.00  0.00     0.014 A 
ATOM     33  C   UNL A   1      38.894  29.381  31.017  1.00  0.00     0.014 A 
ATOM     34  C   UNL A   1      39.502  29.779  28.326  1.00  0.00     0.010 A 
ATOM     35  C   UNL A   1      40.193  29.156  30.552  1.00  0.00     0.010 A 
ATOM     36  C   UNL A   1      40.508  29.330  29.196  1.00  0.00    -0.014 A 
BRANCH  36  37
ATOM     37  C   UNL A   1      41.873  29.005  28.699  1.00  0.00     0.031 A 
ATOM     38  C   UNL A   1      42.203  27.605  28.243  1.00  0.00     0.074 A 
ATOM     39  C   UNL A   1      42.833  29.952  28.691  1.00  0.00     0.049 A 
ATOM     40  N   UNL A   1      43.346  27.115  27.832  1.00  0.00    -0.248 NA
ATOM     41  C   UNL A   1      41.109  26.621  28.275  1.00  0.00     0.031 C 
ATOM     42  C   UNL A   1      42.660  31.334  29.140  1.00  0.00     0.029 A 
ATOM     43  N   UNL A   1      44.147  29.894  28.296  1.00  0.00    -0.354 N 
ATOM     44  C   UNL A   1      43.112  25.767  27.576  1.00  0.00     0.074 A 
ATOM     45  C   UNL A   1      41.732  25.506  27.923  1.00  0.00     0.031 C 
ATOM     46  C   UNL A   1      43.814  32.000  28.971  1.00  0.00     0.029 A 
ATOM     47  C   UNL A   1      44.821  31.085  28.439  1.00  0.00     0.049 A 
ATOM     48  H   UNL A   1      44.568  29.077  27.943  1.00  0.00     0.167 HD
ATOM     49  C   UNL A   1      43.961  24.836  27.075  1.00  0.00     0.037 A 
ATOM     50  C   UNL A   1      46.103  31.403  28.179  1.00  0.00     0.037 A 
ATOM     51  C   UNL A   1      45.325  25.103  26.700  1.00  0.00     0.049 A 
ATOM     52  C   UNL A   1      47.029  30.354  27.623  1.00  0.00     0.074 A 
ATOM     53  C   UNL A   1      46.247  24.239  26.133  1.00  0.00     0.029 A 
ATOM     54  N   UNL A   1      45.965  26.325  26.850  1.00  0.00    -0.354 N 
ATOM     55  N   UNL A   1      46.775  29.098  27.342  1.00  0.00    -0.248 NA
ATOM     56  C   UNL A   1      48.413  30.765  27.347  1.00  0.00     0.031 C 
ATOM     57  C   UNL A   1      47.455  24.928  25.974  1.00  0.00     0.029 A 
ATOM     58  C   UNL A   1      47.273  26.234  26.404  1.00  0.00     0.049 A 
ATOM     59  H   UNL A   1      45.549  27.137  27.219  1.00  0.00     0.167 HD
ATOM     60  C   UNL A   1      47.961  28.576  26.836  1.00  0.00     0.074 A 
ATOM     61  C   UNL A   1      48.928  29.655  26.838  1.00  0.00     0.031 C 
ATOM     62  C   UNL A   1      48.224  27.317  26.409  1.00  0.00     0.037 A 
BRANCH  49  63
ATOM     63  C   UNL A   1      43.433  23.438  26.898  1.00  0.00     0.058 A 
ATOM     64  C   UNL A   1      43.263  22.572  27.991  1.00  0.00     0.135 A 
ATOM     65  C   UNL A   1      43.067  22.966  25.628  1.00  0.00     0.135 A 
ATOM     66  F   UNL A   1      43.609  22.968  29.226  1.00  0.00    -0.206 F 
ATOM     67  C   UNL A   1      42.783  21.277  27.826  1.00  0.00     0.059 A 
ATOM     68  C   UNL A   1      42.559  21.682  25.442  1.00  0.00     0.059 A 
ATOM     69  F   UNL A   1      43.204  23.751  24.548  1.00  0.00    -0.206 F 
ATOM     70  C   UNL A   1      42.438  20.839  26.547  1.00  0.00     0.060 A 
BRANCH  70  71
ATOM     71  S   UNL A   1      41.824  19.153  26.349  1.00  0.00     0.124 S 
ATOM     72  O   UNL A   1      41.910  18.650  27.716  1.00  0.00    -0.237 OA
ATOM     73  O   UNL A   1      40.474  19.368  25.836  1.00  0.00    -0.237 OA
ATOM     74  O   UNL A   1      42.763  18.559  25.401  1.00  0.00    -0.744 OA
ENDBRANCH  70  71
ENDBRANCH  49  63
BRANCH  50  75
ATOM     75  C   UNL A   1      46.586  32.790  28.421  1.00  0.00     0.058 A 
ATOM     76  C   UNL A   1      46.518  33.762  27.413  1.00  0.00     0.135 A 
ATOM     77  C   UNL A   1      47.110  33.173  29.665  1.00  0.00     0.135 A 
ATOM     78  F   UNL A   1      46.034  33.441  26.203  1.00  0.00    -0.206 F 
ATOM     79  C   UNL A   1      46.963  35.063  27.623  1.00  0.00     0.059 A 
ATOM     80  C   UNL A   1      47.539  34.475  29.907  1.00  0.00     0.059 A 
ATOM     81  F   UNL A   1      47.183  32.283  30.667  1.00  0.00    -0.206 F 
ATOM     82  C   UNL A   1      47.470  35.411  28.876  1.00  0.00     0.060 A 
BRANCH  82  83
ATOM     83  S   UNL A   1      47.996  37.115  29.158  1.00  0.00     0.124 S 
ATOM     84  O   UNL A   1      48.702  36.998  30.430  1.00  0.00    -0.237 OA
ATOM     85  O   UNL A   1      48.828  37.378  27.988  1.00  0.00    -0.237 OA
ATOM     86  O   UNL A   1      46.736  37.850  29.201  1.00  0.00    -0.744 OA
ENDBRANCH  82  83
ENDBRANCH  50  75
BRANCH  62  87
ATOM     87  C   UNL A   1      49.606  27.038  25.885  1.00  0.00     0.058 A 
ATOM     88  C   UNL A   1      50.621  26.539  26.715  1.00  0.00     0.135 A 
ATOM     89  C   UNL A   1      49.903  27.225  24.525  1.00  0.00     0.135 A 
ATOM     90  F   UNL A   1      50.391  26.350  28.025  1.00  0.00    -0.206 F 
ATOM     91  C   UNL A   1      51.891  26.255  26.221  1.00  0.00     0.059 A 
ATOM     92  C   UNL A   1      51.158  26.924  24.004  1.00  0.00     0.059 A 
ATOM     93  F   UNL A   1      48.964  27.690  23.685  1.00  0.00    -0.206 F 
ATOM     94  C   UNL A   1      52.148  26.451  24.863  1.00  0.00     0.060 A 
BRANCH  94  95
ATOM     95  S   UNL A   1      53.789  26.045  24.226  1.00  0.00     0.124 S 
ATOM     96  O   UNL A   1      53.557  26.063  22.786  1.00  0.00    -0.237 OA
ATOM     97  O   UNL A   1      54.608  27.133  24.751  1.00  0.00    -0.237 OA
ATOM     98  O   UNL A   1      54.061  24.731  24.803  1.00  0.00    -0.744 OA
ENDBRANCH  94  95
ENDBRANCH  62  87
ENDBRANCH  36  37
ENDBRANCH  28  31
ENDBRANCH  26  27
ENDBRANCH  25  26
ENDBRANCH   1  25
TORSDOF 17
ENDMDL
MODEL 3
REMARK VINA RESULT:     -11.7      2.699      3.599
REMARK SMILES CCc1cccc(NC(=O)N2CCO[C@@H](CC(=O)NCCCNC(=O)c3ccc(-c4c5nc(c(-c6c(F)cc(S(=O)(=O)[O-])cc6F)c6ccc([nH]6)c(-c6c(F)cc(S(=O)(=O)[O-])cc6F)c6nc(c(-c7c(F)cc(S(=O)(=O)[O-])cc7F)c7ccc4[nH]7)C=C6)C=C5)cc3)C2)c1
REMARK SMILES IDX 20 1 19 2 17 3 18 4 16 6 15 7 11 8 12 9 92 10 13 11 14 12
REMARK SMILES IDX 9 13 8 14 10 16 7 17 3 18 4 19 93 20 5 21 6 22 2 23 1 24
REMARK SMILES IDX 21 25 22 26 23 27 24 28 25 30 26 31 27 32 91 33 28 34 90 35
REMARK SMILES IDX 29 36 30 37 31 38 84 39 32 40 89 41 83 42 85 43 33 44 88 45
REMARK SMILES IDX 82 46 81 47 34 49 68 50 47 51 67 52 48 53 51 54 66 55 86 56
REMARK SMILES IDX 49 57 50 58 65 60 87 61 52 62 35 63 36 64 45 65 37 66 38 67
REMARK SMILES IDX 44 68 46 69 39 70 40 71 41 72 42 73 43 74 69 75 70 76 79 77
REMARK SMILES IDX 71 78 72 79 78 80 80 81 73 82 74 83 75 84 76 85 77 86 53 87
REMARK SMILES IDX 54 88 63 89 55 90 56 91 62 92 64 93 57 94 58 95 59 96 60 97
REMARK SMILES IDX 61 98
REMARK H PARENT 19 5 8 15 23 29 85 48 51 59
REMARK Flexibility Score: inf
ROOT
ATOM      1  C   UNL A   1      31.646  28.554  25.437  1.00  0.00     0.117 C 
ENDROOT
BRANCH   1   2
ATOM      2  N   UNL A   1      31.239  28.686  24.041  1.00  0.00    -0.356 N 
ATOM      3  C   UNL A   1      30.409  27.917  23.276  1.00  0.00     0.222 C 
ATOM      4  O   UNL A   1      30.260  28.219  22.091  1.00  0.00    -0.275 OA
ATOM      5  H   UNL A   1      31.629  29.459  23.572  1.00  0.00     0.163 HD
BRANCH   3   6
ATOM      6  C   UNL A   1      29.713  26.703  23.857  1.00  0.00     0.133 C 
BRANCH   6   7
ATOM      7  C   UNL A   1      30.664  25.525  24.076  1.00  0.00     0.147 C 
ATOM      8  N   UNL A   1      31.088  23.553  25.504  1.00  0.00    -0.320 N 
ATOM      9  C   UNL A   1      31.115  22.690  24.326  1.00  0.00     0.150 C 
ATOM     10  C   UNL A   1      30.295  24.746  25.338  1.00  0.00     0.154 C 
ATOM     11  C   UNL A   1      31.434  23.503  23.064  1.00  0.00     0.182 C 
ATOM     12  O   UNL A   1      30.573  24.652  22.925  1.00  0.00    -0.374 OA
BRANCH   8  13
ATOM     13  C   UNL A   1      31.164  23.027  26.768  1.00  0.00     0.322 C 
ATOM     14  N   UNL A   1      32.319  22.427  27.163  1.00  0.00    -0.308 N 
ATOM     15  H   UNL A   1      32.222  21.852  27.957  1.00  0.00     0.171 HD
ATOM     16  O   UNL A   1      30.233  23.135  27.569  1.00  0.00    -0.248 OA
BRANCH  14  17
ATOM     17  C   UNL A   1      33.628  22.479  26.645  1.00  0.00     0.043 A 
ATOM     18  C   UNL A   1      35.440  21.259  25.551  1.00  0.00    -0.046 A 
ATOM     19  C   UNL A   1      36.191  22.444  25.514  1.00  0.00     0.004 A 
ATOM     20  C   UNL A   1      34.152  21.296  26.109  1.00  0.00     0.029 A 
ATOM     21  C   UNL A   1      35.699  23.611  26.085  1.00  0.00     0.002 A 
ATOM     22  C   UNL A   1      34.442  23.609  26.683  1.00  0.00     0.026 A 
BRANCH  18  23
ATOM     23  C   UNL A   1      36.098  19.997  25.047  1.00  0.00     0.032 C 
ATOM     24  C   UNL A   1      37.576  20.079  24.695  1.00  0.00     0.009 C 
ENDBRANCH  18  23
ENDBRANCH  14  17
ENDBRANCH   8  13
ENDBRANCH   6   7
ENDBRANCH   3   6
ENDBRANCH   1   2
BRANCH   1  25
ATOM     25  C   UNL A   1      33.039  27.938  25.587  1.00  0.00     0.042 C 
BRANCH  25  26
ATOM     26  C   UNL A   1      33.713  28.210  26.922  1.00  0.00     0.118 C 
BRANCH  26  27
ATOM     27  N   UNL A   1      33.604  29.606  27.303  1.00  0.00    -0.352 N 
ATOM     28  C   UNL A   1      34.477  30.405  28.004  1.00  0.00     0.251 C 
ATOM     29  H   UNL A   1      32.775  30.052  27.014  1.00  0.00     0.163 HD
ATOM     30  O   UNL A   1      34.061  31.474  28.449  1.00  0.00    -0.269 OA
BRANCH  28  31
ATOM     31  C   UNL A   1      35.892  30.012  28.241  1.00  0.00     0.039 A 
ATOM     32  C   UNL A   1      36.245  29.516  29.502  1.00  0.00     0.014 A 
ATOM     33  C   UNL A   1      36.890  30.205  27.283  1.00  0.00     0.014 A 
ATOM     34  C   UNL A   1      37.576  29.185  29.785  1.00  0.00     0.010 A 
ATOM     35  C   UNL A   1      38.203  29.796  27.537  1.00  0.00     0.010 A 
ATOM     36  C   UNL A   1      38.567  29.303  28.798  1.00  0.00    -0.014 A 
BRANCH  36  37
ATOM     37  C   UNL A   1      39.987  28.952  29.081  1.00  0.00     0.031 A 
ATOM     38  C   UNL A   1      40.905  29.960  29.727  1.00  0.00     0.074 A 
ATOM     39  C   UNL A   1      40.468  27.744  28.723  1.00  0.00     0.049 A 
ATOM     40  N   UNL A   1      42.182  29.861  30.001  1.00  0.00    -0.248 NA
ATOM     41  C   UNL A   1      40.315  31.257  30.094  1.00  0.00     0.031 C 
ATOM     42  C   UNL A   1      39.700  26.691  28.057  1.00  0.00     0.029 A 
ATOM     43  N   UNL A   1      41.722  27.200  28.865  1.00  0.00    -0.354 N 
ATOM     44  C   UNL A   1      42.549  31.085  30.552  1.00  0.00     0.074 A 
ATOM     45  C   UNL A   1      41.372  31.926  30.530  1.00  0.00     0.031 C 
ATOM     46  C   UNL A   1      40.490  25.620  27.872  1.00  0.00     0.029 A 
ATOM     47  C   UNL A   1      41.829  25.921  28.370  1.00  0.00     0.049 A 
ATOM     48  H   UNL A   1      42.473  27.680  29.283  1.00  0.00     0.167 HD
ATOM     49  C   UNL A   1      43.749  31.468  31.054  1.00  0.00     0.037 A 
ATOM     50  C   UNL A   1      42.886  25.088  28.316  1.00  0.00     0.037 A 
ATOM     51  C   UNL A   1      44.913  30.621  31.104  1.00  0.00     0.049 A 
ATOM     52  C   UNL A   1      44.209  25.534  28.878  1.00  0.00     0.074 A 
ATOM     53  C   UNL A   1      46.157  30.899  31.642  1.00  0.00     0.029 A 
ATOM     54  N   UNL A   1      44.975  29.329  30.602  1.00  0.00    -0.354 N 
ATOM     55  N   UNL A   1      44.523  26.676  29.439  1.00  0.00    -0.248 NA
ATOM     56  C   UNL A   1      45.322  24.575  28.801  1.00  0.00     0.031 C 
ATOM     57  C   UNL A   1      46.984  29.790  31.432  1.00  0.00     0.029 A 
ATOM     58  C   UNL A   1      46.241  28.804  30.801  1.00  0.00     0.049 A 
ATOM     59  H   UNL A   1      44.229  28.856  30.168  1.00  0.00     0.167 HD
ATOM     60  C   UNL A   1      45.861  26.567  29.802  1.00  0.00     0.074 A 
ATOM     61  C   UNL A   1      46.294  25.242  29.408  1.00  0.00     0.031 C 
ATOM     62  C   UNL A   1      46.658  27.481  30.407  1.00  0.00     0.037 A 
BRANCH  49  63
ATOM     63  C   UNL A   1      43.862  32.868  31.593  1.00  0.00     0.058 A 
ATOM     64  C   UNL A   1      43.617  33.158  32.945  1.00  0.00     0.135 A 
ATOM     65  C   UNL A   1      44.246  33.929  30.757  1.00  0.00     0.135 A 
ATOM     66  F   UNL A   1      43.235  32.183  33.786  1.00  0.00    -0.206 F 
ATOM     67  C   UNL A   1      43.714  34.453  33.442  1.00  0.00     0.059 A 
ATOM     68  C   UNL A   1      44.375  35.229  31.238  1.00  0.00     0.059 A 
ATOM     69  F   UNL A   1      44.496  33.710  29.457  1.00  0.00    -0.206 F 
ATOM     70  C   UNL A   1      44.089  35.484  32.579  1.00  0.00     0.060 A 
BRANCH  70  71
ATOM     71  S   UNL A   1      44.203  37.161  33.237  1.00  0.00     0.124 S 
ATOM     72  O   UNL A   1      42.855  37.359  33.761  1.00  0.00    -0.237 OA
ATOM     73  O   UNL A   1      45.259  37.037  34.236  1.00  0.00    -0.237 OA
ATOM     74  O   UNL A   1      44.544  37.963  32.066  1.00  0.00    -0.744 OA
ENDBRANCH  70  71
ENDBRANCH  49  63
BRANCH  50  75
ATOM     75  C   UNL A   1      42.730  23.732  27.723  1.00  0.00     0.058 A 
ATOM     76  C   UNL A   1      42.866  23.530  26.343  1.00  0.00     0.135 A 
ATOM     77  C   UNL A   1      42.456  22.614  28.525  1.00  0.00     0.135 A 
ATOM     78  F   UNL A   1      43.118  24.571  25.534  1.00  0.00    -0.206 F 
ATOM     79  C   UNL A   1      42.725  22.269  25.773  1.00  0.00     0.059 A 
ATOM     80  C   UNL A   1      42.334  21.338  27.981  1.00  0.00     0.059 A 
ATOM     81  F   UNL A   1      42.331  22.751  29.854  1.00  0.00    -0.206 F 
ATOM     82  C   UNL A   1      42.462  21.177  26.602  1.00  0.00     0.060 A 
BRANCH  82  83
ATOM     83  S   UNL A   1      42.333  19.535  25.862  1.00  0.00     0.124 S 
ATOM     84  O   UNL A   1      42.685  18.677  26.988  1.00  0.00    -0.237 OA
ATOM     85  O   UNL A   1      40.935  19.496  25.442  1.00  0.00    -0.237 OA
ATOM     86  O   UNL A   1      43.305  19.582  24.774  1.00  0.00    -0.744 OA
ENDBRANCH  82  83
ENDBRANCH  50  75
BRANCH  62  87
ATOM     87  C   UNL A   1      48.076  27.076  30.703  1.00  0.00     0.058 A 
ATOM     88  C   UNL A   1      49.107  27.274  29.772  1.00  0.00     0.135 A 
ATOM     89  C   UNL A   1      48.414  26.530  31.951  1.00  0.00     0.135 A 
ATOM     90  F   UNL A   1      48.836  27.787  28.561  1.00  0.00    -0.206 F 
ATOM     91  C   UNL A   1      50.423  26.924  30.060  1.00  0.00     0.059 A 
ATOM     92  C   UNL A   1      49.727  26.196  32.271  1.00  0.00     0.059 A 
ATOM     93  F   UNL A   1      47.467  26.329  32.881  1.00  0.00    -0.206 F 
ATOM     94  C   UNL A   1      50.722  26.386  31.314  1.00  0.00     0.060 A 
BRANCH  94  95
ATOM     95  S   UNL A   1      52.439  25.969  31.689  1.00  0.00     0.124 S 
ATOM     96  O   UNL A   1      52.324  24.564  32.063  1.00  0.00    -0.237 OA
ATOM     97  O   UNL A   1      53.112  26.235  30.422  1.00  0.00    -0.237 OA
ATOM     98  O   UNL A   1      52.780  26.883  32.776  1.00  0.00    -0.744 OA
ENDBRANCH  94  95
ENDBRANCH  62  87
ENDBRANCH  36  37
ENDBRANCH  28  31
ENDBRANCH  26  27
ENDBRANCH  25  26
ENDBRANCH   1  25
TORSDOF 17
ENDMDL
