MODEL 1
REMARK VINA RESULT:      -9.8      0.000      0.000
REMARK SMILES Cc1ccc(Br)cc1C(=O)N1CCO[C@H](CC(=O)NCCCNC(=O)c2ccc(-c3c4nc(c(-c5c(F)cc(S(=O)(=O)[O-])cc5F)c5ccc([nH]5)c(-c5c(F)cc(S(=O)(=O)[O-])cc5F)c5nc(c(-c6c(F)cc(S(=O)(=O)[O-])cc6F)c6ccc3[nH]6)C=C5)C=C4)cc2)C1
REMARK SMILES IDX 21 1 20 2 19 3 17 4 18 5 16 7 15 8 11 9 12 10 92 11 13 12
REMARK SMILES IDX 14 13 9 14 10 15 8 16 1 17 2 18 3 19 4 20 7 21 5 22 6 23
REMARK SMILES IDX 22 24 23 25 24 26 25 28 26 29 27 30 91 31 28 32 90 33 29 34
REMARK SMILES IDX 30 35 31 36 84 37 32 38 89 39 83 40 85 41 33 42 88 43 82 44
REMARK SMILES IDX 81 45 34 47 68 48 47 49 67 50 48 51 51 52 66 53 86 54 49 55
REMARK SMILES IDX 50 56 65 58 87 59 52 60 35 61 36 62 45 63 37 64 38 65 44 66
REMARK SMILES IDX 46 67 39 68 40 69 41 70 42 71 43 72 69 73 70 74 79 75 71 76
REMARK SMILES IDX 72 77 78 78 80 79 73 80 74 81 75 82 76 83 77 84 53 85 54 86
REMARK SMILES IDX 63 87 55 88 56 89 62 90 64 91 57 92 58 93 59 94 60 95 61 96
REMARK H PARENT 19 6 23 27 85 46 51 57
REMARK Flexibility Score: inf
ROOT
ATOM      1  C   UNL A   1      35.716  33.309  28.477  1.00  0.00     0.042 C 
ENDROOT
BRANCH   1   2
ATOM      2  C   UNL A   1      36.210  34.574  29.161  1.00  0.00     0.117 C 
BRANCH   2   3
ATOM      3  N   UNL A   1      37.658  34.577  29.251  1.00  0.00    -0.356 N 
ATOM      4  C   UNL A   1      38.429  34.424  30.362  1.00  0.00     0.222 C 
ATOM      5  O   UNL A   1      39.631  34.676  30.302  1.00  0.00    -0.275 OA
ATOM      6  H   UNL A   1      38.142  34.705  28.403  1.00  0.00     0.163 HD
BRANCH   4   7
ATOM      7  C   UNL A   1      37.805  33.846  31.602  1.00  0.00     0.133 C 
BRANCH   7   8
ATOM      8  C   UNL A   1      37.236  34.872  32.593  1.00  0.00     0.147 C 
ATOM      9  N   UNL A   1      36.883  33.158  34.273  1.00  0.00    -0.334 N 
ATOM     10  C   UNL A   1      35.434  33.307  34.261  1.00  0.00     0.148 C 
ATOM     11  C   UNL A   1      37.571  34.429  34.023  1.00  0.00     0.152 C 
ATOM     12  C   UNL A   1      34.950  34.051  32.996  1.00  0.00     0.182 C 
ATOM     13  O   UNL A   1      35.811  35.089  32.490  1.00  0.00    -0.374 OA
BRANCH   9  14
ATOM     14  C   UNL A   1      37.616  32.121  34.825  1.00  0.00     0.254 C 
ATOM     15  O   UNL A   1      37.434  31.842  36.016  1.00  0.00    -0.269 OA
BRANCH  14  16
ATOM     16  C   UNL A   1      38.756  31.406  34.120  1.00  0.00     0.044 A 
ATOM     17  C   UNL A   1      40.819  32.896  34.677  1.00  0.00     0.045 C 
ATOM     18  C   UNL A   1      40.144  31.682  34.132  1.00  0.00    -0.038 A 
ATOM     19  C   UNL A   1      41.051  30.742  33.585  1.00  0.00     0.005 A 
ATOM     20  C   UNL A   1      40.625  29.531  33.058  1.00  0.00     0.016 A 
ATOM     21  C   UNL A   1      38.353  30.176  33.539  1.00  0.00     0.029 A 
ATOM     22  C   UNL A   1      39.271  29.255  33.032  1.00  0.00     0.018 A 
ATOM     23  Br  UNL A   1      38.669  27.598  32.352  1.00  0.00    -0.051 Br
ENDBRANCH  14  16
ENDBRANCH   9  14
ENDBRANCH   7   8
ENDBRANCH   4   7
ENDBRANCH   2   3
ENDBRANCH   1   2
BRANCH   1  24
ATOM     24  C   UNL A   1      34.824  32.472  29.382  1.00  0.00     0.118 C 
BRANCH  24  25
ATOM     25  N   UNL A   1      34.063  31.479  28.634  1.00  0.00    -0.352 N 
ATOM     26  C   UNL A   1      34.506  30.350  27.989  1.00  0.00     0.251 C 
ATOM     27  H   UNL A   1      33.094  31.641  28.583  1.00  0.00     0.163 HD
ATOM     28  O   UNL A   1      33.754  29.747  27.233  1.00  0.00    -0.269 OA
BRANCH  26  29
ATOM     29  C   UNL A   1      35.893  29.889  28.202  1.00  0.00     0.039 A 
ATOM     30  C   UNL A   1      36.818  30.026  27.165  1.00  0.00     0.014 A 
ATOM     31  C   UNL A   1      36.278  29.330  29.423  1.00  0.00     0.014 A 
ATOM     32  C   UNL A   1      38.147  29.657  27.377  1.00  0.00     0.010 A 
ATOM     33  C   UNL A   1      37.618  29.048  29.661  1.00  0.00     0.010 A 
ATOM     34  C   UNL A   1      38.564  29.198  28.638  1.00  0.00    -0.014 A 
BRANCH  34  35
ATOM     35  C   UNL A   1      39.984  28.864  28.906  1.00  0.00     0.031 A 
ATOM     36  C   UNL A   1      40.903  29.901  29.489  1.00  0.00     0.074 A 
ATOM     37  C   UNL A   1      40.458  27.652  28.563  1.00  0.00     0.049 A 
ATOM     38  N   UNL A   1      42.185  29.824  29.738  1.00  0.00    -0.248 NA
ATOM     39  C   UNL A   1      40.310  31.210  29.809  1.00  0.00     0.031 C 
ATOM     40  C   UNL A   1      39.673  26.579  27.947  1.00  0.00     0.029 A 
ATOM     41  N   UNL A   1      41.717  27.117  28.673  1.00  0.00    -0.354 N 
ATOM     42  C   UNL A   1      42.552  31.072  30.228  1.00  0.00     0.074 A 
ATOM     43  C   UNL A   1      41.371  31.907  30.181  1.00  0.00     0.031 C 
ATOM     44  C   UNL A   1      40.460  25.506  27.765  1.00  0.00     0.029 A 
ATOM     45  C   UNL A   1      41.813  25.829  28.207  1.00  0.00     0.049 A 
ATOM     46  H   UNL A   1      42.480  27.611  29.053  1.00  0.00     0.167 HD
ATOM     47  C   UNL A   1      43.755  31.477  30.699  1.00  0.00     0.037 A 
ATOM     48  C   UNL A   1      42.874  25.001  28.136  1.00  0.00     0.037 A 
ATOM     49  C   UNL A   1      44.921  30.634  30.749  1.00  0.00     0.049 A 
ATOM     50  C   UNL A   1      44.207  25.478  28.643  1.00  0.00     0.074 A 
ATOM     51  C   UNL A   1      46.175  30.928  31.253  1.00  0.00     0.029 A 
ATOM     52  N   UNL A   1      44.978  29.332  30.269  1.00  0.00    -0.354 N 
ATOM     53  N   UNL A   1      44.524  26.639  29.165  1.00  0.00    -0.248 NA
ATOM     54  C   UNL A   1      45.327  24.531  28.556  1.00  0.00     0.031 C 
ATOM     55  C   UNL A   1      47.006  29.825  31.027  1.00  0.00     0.029 A 
ATOM     56  C   UNL A   1      46.254  28.818  30.440  1.00  0.00     0.049 A 
ATOM     57  H   UNL A   1      44.223  28.844  29.866  1.00  0.00     0.167 HD
ATOM     58  C   UNL A   1      45.871  26.553  29.497  1.00  0.00     0.074 A 
ATOM     59  C   UNL A   1      46.307  25.222  29.124  1.00  0.00     0.031 C 
ATOM     60  C   UNL A   1      46.673  27.489  30.064  1.00  0.00     0.037 A 
BRANCH  47  61
ATOM     61  C   UNL A   1      43.866  32.899  31.185  1.00  0.00     0.058 A 
ATOM     62  C   UNL A   1      43.912  33.212  32.554  1.00  0.00     0.135 A 
ATOM     63  C   UNL A   1      43.927  33.963  30.271  1.00  0.00     0.135 A 
ATOM     64  F   UNL A   1      43.844  32.237  33.475  1.00  0.00    -0.206 F 
ATOM     65  C   UNL A   1      43.961  34.529  33.000  1.00  0.00     0.059 A 
ATOM     66  C   UNL A   1      44.014  35.288  30.694  1.00  0.00     0.059 A 
ATOM     67  F   UNL A   1      43.892  33.726  28.951  1.00  0.00    -0.206 F 
ATOM     68  C   UNL A   1      44.006  35.561  32.061  1.00  0.00     0.060 A 
BRANCH  68  69
ATOM     69  S   UNL A   1      44.042  37.264  32.656  1.00  0.00     0.124 S 
ATOM     70  O   UNL A   1      45.365  37.329  33.270  1.00  0.00    -0.237 OA
ATOM     71  O   UNL A   1      43.878  38.029  31.424  1.00  0.00    -0.237 OA
ATOM     72  O   UNL A   1      42.916  37.325  33.584  1.00  0.00    -0.744 OA
ENDBRANCH  68  69
ENDBRANCH  47  61
BRANCH  48  73
ATOM     73  C   UNL A   1      42.701  23.626  27.597  1.00  0.00     0.058 A 
ATOM     74  C   UNL A   1      42.841  23.370  26.224  1.00  0.00     0.135 A 
ATOM     75  C   UNL A   1      42.434  22.536  28.440  1.00  0.00     0.135 A 
ATOM     76  F   UNL A   1      43.090  24.379  25.376  1.00  0.00    -0.206 F 
ATOM     77  C   UNL A   1      42.720  22.085  25.706  1.00  0.00     0.059 A 
ATOM     78  C   UNL A   1      42.334  21.238  27.948  1.00  0.00     0.059 A 
ATOM     79  F   UNL A   1      42.306  22.725  29.763  1.00  0.00    -0.206 F 
ATOM     80  C   UNL A   1      42.474  21.024  26.579  1.00  0.00     0.060 A 
BRANCH  80  81
ATOM     81  S   UNL A   1      42.395  19.350  25.902  1.00  0.00     0.124 S 
ATOM     82  O   UNL A   1      43.237  19.472  24.718  1.00  0.00    -0.237 OA
ATOM     83  O   UNL A   1      42.941  18.554  26.996  1.00  0.00    -0.237 OA
ATOM     84  O   UNL A   1      40.971  19.158  25.646  1.00  0.00    -0.744 OA
ENDBRANCH  80  81
ENDBRANCH  48  73
BRANCH  60  85
ATOM     85  C   UNL A   1      48.098  27.099  30.353  1.00  0.00     0.058 A 
ATOM     86  C   UNL A   1      49.135  27.351  29.442  1.00  0.00     0.135 A 
ATOM     87  C   UNL A   1      48.435  26.518  31.587  1.00  0.00     0.135 A 
ATOM     88  F   UNL A   1      48.867  27.897  28.245  1.00  0.00    -0.206 F 
ATOM     89  C   UNL A   1      50.454  27.017  29.734  1.00  0.00     0.059 A 
ATOM     90  C   UNL A   1      49.752  26.207  31.912  1.00  0.00     0.059 A 
ATOM     91  F   UNL A   1      47.484  26.265  32.499  1.00  0.00    -0.206 F 
ATOM     92  C   UNL A   1      50.753  26.449  30.974  1.00  0.00     0.060 A 
BRANCH  92  93
ATOM     93  S   UNL A   1      52.474  26.059  31.354  1.00  0.00     0.124 S 
ATOM     94  O   UNL A   1      52.856  27.194  32.188  1.00  0.00    -0.237 OA
ATOM     95  O   UNL A   1      52.359  24.777  32.041  1.00  0.00    -0.237 OA
ATOM     96  O   UNL A   1      53.109  26.005  30.041  1.00  0.00    -0.744 OA
ENDBRANCH  92  93
ENDBRANCH  60  85
ENDBRANCH  34  35
ENDBRANCH  26  29
ENDBRANCH  24  25
ENDBRANCH   1  24
TORSDOF 16
ENDMDL
MODEL 2
REMARK VINA RESULT:      -9.8      4.417      7.592
REMARK SMILES Cc1ccc(Br)cc1C(=O)N1CCO[C@H](CC(=O)NCCCNC(=O)c2ccc(-c3c4nc(c(-c5c(F)cc(S(=O)(=O)[O-])cc5F)c5ccc([nH]5)c(-c5c(F)cc(S(=O)(=O)[O-])cc5F)c5nc(c(-c6c(F)cc(S(=O)(=O)[O-])cc6F)c6ccc3[nH]6)C=C5)C=C4)cc2)C1
REMARK SMILES IDX 21 1 20 2 19 3 17 4 18 5 16 7 15 8 11 9 12 10 92 11 13 12
REMARK SMILES IDX 14 13 9 14 10 15 8 16 1 17 2 18 3 19 4 20 7 21 5 22 6 23
REMARK SMILES IDX 22 24 23 25 24 26 25 28 26 29 27 30 91 31 28 32 90 33 29 34
REMARK SMILES IDX 30 35 31 36 84 37 32 38 89 39 83 40 85 41 33 42 88 43 82 44
REMARK SMILES IDX 81 45 34 47 68 48 47 49 67 50 48 51 51 52 66 53 86 54 49 55
REMARK SMILES IDX 50 56 65 58 87 59 52 60 35 61 36 62 45 63 37 64 38 65 44 66
REMARK SMILES IDX 46 67 39 68 40 69 41 70 42 71 43 72 69 73 70 74 79 75 71 76
REMARK SMILES IDX 72 77 78 78 80 79 73 80 74 81 75 82 76 83 77 84 53 85 54 86
REMARK SMILES IDX 63 87 55 88 56 89 62 90 64 91 57 92 58 93 59 94 60 95 61 96
REMARK H PARENT 19 6 23 27 85 46 51 57
REMARK Flexibility Score: inf
ROOT
ATOM      1  C   UNL A   1      33.115  27.739  27.019  1.00  0.00     0.042 C 
ENDROOT
BRANCH   1   2
ATOM      2  C   UNL A   1      32.073  26.963  26.227  1.00  0.00     0.117 C 
BRANCH   2   3
ATOM      3  N   UNL A   1      31.677  25.763  26.941  1.00  0.00    -0.356 N 
ATOM      4  C   UNL A   1      31.316  24.559  26.419  1.00  0.00     0.222 C 
ATOM      5  O   UNL A   1      30.793  23.718  27.147  1.00  0.00    -0.275 OA
ATOM      6  H   UNL A   1      31.670  25.829  27.923  1.00  0.00     0.163 HD
BRANCH   4   7
ATOM      7  C   UNL A   1      31.667  24.255  24.989  1.00  0.00     0.133 C 
BRANCH   7   8
ATOM      8  C   UNL A   1      33.073  23.683  24.761  1.00  0.00     0.147 C 
ATOM      9  N   UNL A   1      33.090  24.449  22.460  1.00  0.00    -0.334 N 
ATOM     10  C   UNL A   1      33.139  23.102  21.909  1.00  0.00     0.148 C 
ATOM     11  C   UNL A   1      33.810  24.551  23.734  1.00  0.00     0.152 C 
ATOM     12  C   UNL A   1      32.725  22.044  22.957  1.00  0.00     0.182 C 
ATOM     13  O   UNL A   1      33.104  22.306  24.322  1.00  0.00    -0.374 OA
BRANCH   9  14
ATOM     14  C   UNL A   1      32.795  25.622  21.785  1.00  0.00     0.254 C 
ATOM     15  O   UNL A   1      33.135  25.719  20.601  1.00  0.00    -0.269 OA
BRANCH  14  16
ATOM     16  C   UNL A   1      32.233  26.871  22.442  1.00  0.00     0.044 A 
ATOM     17  C   UNL A   1      34.256  28.513  22.414  1.00  0.00     0.045 C 
ATOM     18  C   UNL A   1      32.827  28.143  22.628  1.00  0.00    -0.038 A 
ATOM     19  C   UNL A   1      32.031  29.232  23.062  1.00  0.00     0.005 A 
ATOM     20  C   UNL A   1      30.668  29.102  23.285  1.00  0.00     0.016 A 
ATOM     21  C   UNL A   1      30.845  26.767  22.716  1.00  0.00     0.029 A 
ATOM     22  C   UNL A   1      30.080  27.862  23.116  1.00  0.00     0.018 A 
ATOM     23  Br  UNL A   1      28.218  27.670  23.379  1.00  0.00    -0.051 Br
ENDBRANCH  14  16
ENDBRANCH   9  14
ENDBRANCH   7   8
ENDBRANCH   4   7
ENDBRANCH   2   3
ENDBRANCH   1   2
BRANCH   1  24
ATOM     24  C   UNL A   1      33.952  28.651  26.134  1.00  0.00     0.118 C 
BRANCH  24  25
ATOM     25  N   UNL A   1      33.764  30.058  26.464  1.00  0.00    -0.352 N 
ATOM     26  C   UNL A   1      34.439  30.834  27.374  1.00  0.00     0.251 C 
ATOM     27  H   UNL A   1      33.051  30.517  25.965  1.00  0.00     0.163 HD
ATOM     28  O   UNL A   1      34.005  31.940  27.670  1.00  0.00    -0.269 OA
BRANCH  26  29
ATOM     29  C   UNL A   1      35.673  30.315  27.999  1.00  0.00     0.039 A 
ATOM     30  C   UNL A   1      36.888  30.476  27.331  1.00  0.00     0.014 A 
ATOM     31  C   UNL A   1      35.629  29.679  29.242  1.00  0.00     0.014 A 
ATOM     32  C   UNL A   1      38.069  30.051  27.941  1.00  0.00     0.010 A 
ATOM     33  C   UNL A   1      36.812  29.340  29.886  1.00  0.00     0.010 A 
ATOM     34  C   UNL A   1      38.043  29.511  29.238  1.00  0.00    -0.014 A 
BRANCH  34  35
ATOM     35  C   UNL A   1      39.292  29.115  29.934  1.00  0.00     0.031 A 
ATOM     36  C   UNL A   1      39.731  29.852  31.169  1.00  0.00     0.074 A 
ATOM     37  C   UNL A   1      40.061  28.139  29.415  1.00  0.00     0.049 A 
ATOM     38  N   UNL A   1      40.817  29.697  31.881  1.00  0.00    -0.248 NA
ATOM     39  C   UNL A   1      38.845  30.924  31.652  1.00  0.00     0.031 C 
ATOM     40  C   UNL A   1      39.763  27.385  28.196  1.00  0.00     0.029 A 
ATOM     41  N   UNL A   1      41.257  27.619  29.841  1.00  0.00    -0.354 N 
ATOM     42  C   UNL A   1      40.752  30.658  32.884  1.00  0.00     0.074 A 
ATOM     43  C   UNL A   1      39.552  31.431  32.649  1.00  0.00     0.031 C 
ATOM     44  C   UNL A   1      40.731  26.478  27.991  1.00  0.00     0.029 A 
ATOM     45  C   UNL A   1      41.741  26.617  29.035  1.00  0.00     0.049 A 
ATOM     46  H   UNL A   1      41.724  27.933  30.649  1.00  0.00     0.167 HD
ATOM     47  C   UNL A   1      41.601  30.860  33.920  1.00  0.00     0.037 A 
ATOM     48  C   UNL A   1      42.876  25.895  29.124  1.00  0.00     0.037 A 
ATOM     49  C   UNL A   1      42.788  30.078  34.148  1.00  0.00     0.049 A 
ATOM     50  C   UNL A   1      43.816  26.150  30.269  1.00  0.00     0.074 A 
ATOM     51  C   UNL A   1      43.689  30.165  35.193  1.00  0.00     0.029 A 
ATOM     52  N   UNL A   1      43.244  29.069  33.310  1.00  0.00    -0.354 N 
ATOM     53  N   UNL A   1      43.708  27.018  31.247  1.00  0.00    -0.248 NA
ATOM     54  C   UNL A   1      45.031  25.326  30.326  1.00  0.00     0.031 C 
ATOM     55  C   UNL A   1      44.720  29.249  34.959  1.00  0.00     0.029 A 
ATOM     56  C   UNL A   1      44.429  28.544  33.800  1.00  0.00     0.049 A 
ATOM     57  H   UNL A   1      42.792  28.769  32.487  1.00  0.00     0.167 HD
ATOM     58  C   UNL A   1      44.825  26.825  32.053  1.00  0.00     0.074 A 
ATOM     59  C   UNL A   1      45.590  25.751  31.451  1.00  0.00     0.031 C 
ATOM     60  C   UNL A   1      45.180  27.473  33.191  1.00  0.00     0.037 A 
BRANCH  47  61
ATOM     61  C   UNL A   1      41.274  31.979  34.874  1.00  0.00     0.058 A 
ATOM     62  C   UNL A   1      40.452  31.780  35.996  1.00  0.00     0.135 A 
ATOM     63  C   UNL A   1      41.789  33.269  34.665  1.00  0.00     0.135 A 
ATOM     64  F   UNL A   1      39.920  30.571  36.239  1.00  0.00    -0.206 F 
ATOM     65  C   UNL A   1      40.110  32.827  36.845  1.00  0.00     0.059 A 
ATOM     66  C   UNL A   1      41.490  34.325  35.524  1.00  0.00     0.059 A 
ATOM     67  F   UNL A   1      42.584  33.519  33.614  1.00  0.00    -0.206 F 
ATOM     68  C   UNL A   1      40.630  34.098  36.596  1.00  0.00     0.060 A 
BRANCH  68  69
ATOM     69  S   UNL A   1      40.155  35.452  37.692  1.00  0.00     0.124 S 
ATOM     70  O   UNL A   1      38.886  34.962  38.224  1.00  0.00    -0.237 OA
ATOM     71  O   UNL A   1      41.264  35.492  38.639  1.00  0.00    -0.237 OA
ATOM     72  O   UNL A   1      40.057  36.599  36.794  1.00  0.00    -0.744 OA
ENDBRANCH  68  69
ENDBRANCH  47  61
BRANCH  48  73
ATOM     73  C   UNL A   1      43.157  24.839  28.115  1.00  0.00     0.058 A 
ATOM     74  C   UNL A   1      43.809  25.151  26.912  1.00  0.00     0.135 A 
ATOM     75  C   UNL A   1      42.821  23.496  28.346  1.00  0.00     0.135 A 
ATOM     76  F   UNL A   1      44.145  26.421  26.640  1.00  0.00    -0.206 F 
ATOM     77  C   UNL A   1      44.114  24.171  25.973  1.00  0.00     0.059 A 
ATOM     78  C   UNL A   1      43.140  22.494  27.434  1.00  0.00     0.059 A 
ATOM     79  F   UNL A   1      42.211  23.143  29.489  1.00  0.00    -0.206 F 
ATOM     80  C   UNL A   1      43.783  22.843  26.248  1.00  0.00     0.060 A 
BRANCH  80  81
ATOM     81  S   UNL A   1      44.253  21.571  25.054  1.00  0.00     0.124 S 
ATOM     82  O   UNL A   1      43.251  20.544  25.309  1.00  0.00    -0.237 OA
ATOM     83  O   UNL A   1      44.132  22.284  23.787  1.00  0.00    -0.237 OA
ATOM     84  O   UNL A   1      45.619  21.232  25.445  1.00  0.00    -0.744 OA
ENDBRANCH  80  81
ENDBRANCH  48  73
BRANCH  60  85
ATOM     85  C   UNL A   1      46.435  27.018  33.885  1.00  0.00     0.058 A 
ATOM     86  C   UNL A   1      47.684  27.602  33.621  1.00  0.00     0.135 A 
ATOM     87  C   UNL A   1      46.374  26.020  34.873  1.00  0.00     0.135 A 
ATOM     88  F   UNL A   1      47.800  28.554  32.682  1.00  0.00    -0.206 F 
ATOM     89  C   UNL A   1      48.831  27.196  34.295  1.00  0.00     0.059 A 
ATOM     90  C   UNL A   1      47.504  25.623  35.581  1.00  0.00     0.059 A 
ATOM     91  F   UNL A   1      45.204  25.434  35.173  1.00  0.00    -0.206 F 
ATOM     92  C   UNL A   1      48.730  26.208  35.277  1.00  0.00     0.060 A 
BRANCH  92  93
ATOM     93  S   UNL A   1      50.221  25.722  36.170  1.00  0.00     0.124 S 
ATOM     94  O   UNL A   1      50.313  24.303  35.839  1.00  0.00    -0.237 OA
ATOM     95  O   UNL A   1      51.239  26.580  35.570  1.00  0.00    -0.237 OA
ATOM     96  O   UNL A   1      49.898  26.021  37.562  1.00  0.00    -0.744 OA
ENDBRANCH  92  93
ENDBRANCH  60  85
ENDBRANCH  34  35
ENDBRANCH  26  29
ENDBRANCH  24  25
ENDBRANCH   1  24
TORSDOF 16
ENDMDL
MODEL 3
REMARK VINA RESULT:      -9.8      4.007      6.755
REMARK SMILES Cc1ccc(Br)cc1C(=O)N1CCO[C@H](CC(=O)NCCCNC(=O)c2ccc(-c3c4nc(c(-c5c(F)cc(S(=O)(=O)[O-])cc5F)c5ccc([nH]5)c(-c5c(F)cc(S(=O)(=O)[O-])cc5F)c5nc(c(-c6c(F)cc(S(=O)(=O)[O-])cc6F)c6ccc3[nH]6)C=C5)C=C4)cc2)C1
REMARK SMILES IDX 21 1 20 2 19 3 17 4 18 5 16 7 15 8 11 9 12 10 92 11 13 12
REMARK SMILES IDX 14 13 9 14 10 15 8 16 1 17 2 18 3 19 4 20 7 21 5 22 6 23
REMARK SMILES IDX 22 24 23 25 24 26 25 28 26 29 27 30 91 31 28 32 90 33 29 34
REMARK SMILES IDX 30 35 31 36 84 37 32 38 89 39 83 40 85 41 33 42 88 43 82 44
REMARK SMILES IDX 81 45 34 47 68 48 47 49 67 50 48 51 51 52 66 53 86 54 49 55
REMARK SMILES IDX 50 56 65 58 87 59 52 60 35 61 36 62 45 63 37 64 38 65 44 66
REMARK SMILES IDX 46 67 39 68 40 69 41 70 42 71 43 72 69 73 70 74 79 75 71 76
REMARK SMILES IDX 72 77 78 78 80 79 73 80 74 81 75 82 76 83 77 84 53 85 54 86
REMARK SMILES IDX 63 87 55 88 56 89 62 90 64 91 57 92 58 93 59 94 60 95 61 96
REMARK H PARENT 19 6 23 27 85 46 51 57
REMARK Flexibility Score: inf
ROOT
ATOM      1  C   UNL A   1      35.303  29.329  27.611  1.00  0.00     0.042 C 
ENDROOT
BRANCH   1   2
ATOM      2  C   UNL A   1      34.024  29.297  26.788  1.00  0.00     0.117 C 
BRANCH   2   3
ATOM      3  N   UNL A   1      32.901  28.874  27.603  1.00  0.00    -0.356 N 
ATOM      4  C   UNL A   1      31.967  27.926  27.317  1.00  0.00     0.222 C 
ATOM      5  O   UNL A   1      30.955  27.847  28.009  1.00  0.00    -0.275 OA
ATOM      6  H   UNL A   1      32.803  29.330  28.471  1.00  0.00     0.163 HD
BRANCH   4   7
ATOM      7  C   UNL A   1      32.256  26.934  26.225  1.00  0.00     0.133 C 
BRANCH   7   8
ATOM      8  C   UNL A   1      31.170  25.874  25.992  1.00  0.00     0.147 C 
ATOM      9  N   UNL A   1      32.330  25.010  24.045  1.00  0.00    -0.334 N 
ATOM     10  C   UNL A   1      31.268  25.390  23.123  1.00  0.00     0.148 C 
ATOM     11  C   UNL A   1      31.808  24.630  25.361  1.00  0.00     0.152 C 
ATOM     12  C   UNL A   1      30.315  26.431  23.751  1.00  0.00     0.182 C 
ATOM     13  O   UNL A   1      30.067  26.307  25.164  1.00  0.00    -0.374 OA
BRANCH   9  14
ATOM     14  C   UNL A   1      33.625  24.634  23.726  1.00  0.00     0.254 C 
ATOM     15  O   UNL A   1      34.133  25.095  22.698  1.00  0.00    -0.269 OA
BRANCH  14  16
ATOM     16  C   UNL A   1      34.410  23.559  24.458  1.00  0.00     0.044 A 
ATOM     17  C   UNL A   1      33.102  21.381  23.885  1.00  0.00     0.045 C 
ATOM     18  C   UNL A   1      34.245  22.154  24.451  1.00  0.00    -0.038 A 
ATOM     19  C   UNL A   1      35.241  21.328  25.029  1.00  0.00     0.005 A 
ATOM     20  C   UNL A   1      36.401  21.853  25.580  1.00  0.00     0.016 A 
ATOM     21  C   UNL A   1      35.590  24.063  25.063  1.00  0.00     0.029 A 
ATOM     22  C   UNL A   1      36.568  23.225  25.600  1.00  0.00     0.018 A 
ATOM     23  Br  UNL A   1      38.156  23.961  26.312  1.00  0.00    -0.051 Br
ENDBRANCH  14  16
ENDBRANCH   9  14
ENDBRANCH   7   8
ENDBRANCH   4   7
ENDBRANCH   2   3
ENDBRANCH   1   2
BRANCH   1  24
ATOM     24  C   UNL A   1      35.619  30.721  28.135  1.00  0.00     0.118 C 
BRANCH  24  25
ATOM     25  N   UNL A   1      35.536  30.791  29.589  1.00  0.00    -0.352 N 
ATOM     26  C   UNL A   1      36.478  30.454  30.530  1.00  0.00     0.251 C 
ATOM     27  H   UNL A   1      34.683  31.127  29.947  1.00  0.00     0.163 HD
ATOM     28  O   UNL A   1      36.158  30.378  31.710  1.00  0.00    -0.269 OA
BRANCH  26  29
ATOM     29  C   UNL A   1      37.863  30.170  30.103  1.00  0.00     0.039 A 
ATOM     30  C   UNL A   1      38.776  29.692  31.044  1.00  0.00     0.014 A 
ATOM     31  C   UNL A   1      38.254  30.369  28.777  1.00  0.00     0.014 A 
ATOM     32  C   UNL A   1      40.068  29.355  30.638  1.00  0.00     0.010 A 
ATOM     33  C   UNL A   1      39.510  29.949  28.357  1.00  0.00     0.010 A 
ATOM     34  C   UNL A   1      40.434  29.448  29.285  1.00  0.00    -0.014 A 
BRANCH  34  35
ATOM     35  C   UNL A   1      41.779  29.033  28.819  1.00  0.00     0.031 A 
ATOM     36  C   UNL A   1      42.889  30.043  28.727  1.00  0.00     0.074 A 
ATOM     37  C   UNL A   1      41.981  27.764  28.415  1.00  0.00     0.049 A 
ATOM     38  N   UNL A   1      44.111  29.891  28.287  1.00  0.00    -0.248 NA
ATOM     39  C   UNL A   1      42.575  31.415  29.161  1.00  0.00     0.031 C 
ATOM     40  C   UNL A   1      40.968  26.706  28.414  1.00  0.00     0.029 A 
ATOM     41  N   UNL A   1      43.102  27.148  27.920  1.00  0.00    -0.354 N 
ATOM     42  C   UNL A   1      44.705  31.144  28.378  1.00  0.00     0.074 A 
ATOM     43  C   UNL A   1      43.690  32.059  28.854  1.00  0.00     0.031 C 
ATOM     44  C   UNL A   1      41.523  25.566  27.973  1.00  0.00     0.029 A 
ATOM     45  C   UNL A   1      42.915  25.821  27.616  1.00  0.00     0.049 A 
ATOM     46  H   UNL A   1      43.961  27.614  27.796  1.00  0.00     0.167 HD
ATOM     47  C   UNL A   1      45.986  31.496  28.114  1.00  0.00     0.037 A 
ATOM     48  C   UNL A   1      43.767  24.914  27.100  1.00  0.00     0.037 A 
ATOM     49  C   UNL A   1      46.990  30.575  27.649  1.00  0.00     0.049 A 
ATOM     50  C   UNL A   1      45.179  25.330  26.793  1.00  0.00     0.074 A 
ATOM     51  C   UNL A   1      48.329  30.816  27.399  1.00  0.00     0.029 A 
ATOM     52  N   UNL A   1      46.762  29.238  27.355  1.00  0.00    -0.354 N 
ATOM     53  N   UNL A   1      45.744  26.504  26.946  1.00  0.00    -0.248 NA
ATOM     54  C   UNL A   1      46.070  24.298  26.246  1.00  0.00     0.031 C 
ATOM     55  C   UNL A   1      48.898  29.639  26.900  1.00  0.00     0.029 A 
ATOM     56  C   UNL A   1      47.930  28.646  26.899  1.00  0.00     0.049 A 
ATOM     57  H   UNL A   1      45.898  28.776  27.454  1.00  0.00     0.167 HD
ATOM     58  C   UNL A   1      47.066  26.346  26.543  1.00  0.00     0.074 A 
ATOM     59  C   UNL A   1      47.216  24.959  26.148  1.00  0.00     0.031 C 
ATOM     60  C   UNL A   1      48.065  27.263  26.510  1.00  0.00     0.037 A 
BRANCH  47  61
ATOM     61  C   UNL A   1      46.363  32.941  28.314  1.00  0.00     0.058 A 
ATOM     62  C   UNL A   1      46.830  33.421  29.549  1.00  0.00     0.135 A 
ATOM     63  C   UNL A   1      46.255  33.861  27.258  1.00  0.00     0.135 A 
ATOM     64  F   UNL A   1      46.942  32.591  30.599  1.00  0.00    -0.206 F 
ATOM     65  C   UNL A   1      47.127  34.765  29.745  1.00  0.00     0.059 A 
ATOM     66  C   UNL A   1      46.581  35.205  27.420  1.00  0.00     0.059 A 
ATOM     67  F   UNL A   1      45.818  33.461  26.054  1.00  0.00    -0.206 F 
ATOM     68  C   UNL A   1      46.993  35.651  28.674  1.00  0.00     0.060 A 
BRANCH  68  69
ATOM     69  S   UNL A   1      47.356  37.398  28.953  1.00  0.00     0.124 S 
ATOM     70  O   UNL A   1      46.867  37.582  30.316  1.00  0.00    -0.237 OA
ATOM     71  O   UNL A   1      48.805  37.446  28.789  1.00  0.00    -0.237 OA
ATOM     72  O   UNL A   1      46.586  38.075  27.913  1.00  0.00    -0.744 OA
ENDBRANCH  68  69
ENDBRANCH  47  61
BRANCH  48  73
ATOM     73  C   UNL A   1      43.310  23.516  26.882  1.00  0.00     0.058 A 
ATOM     74  C   UNL A   1      43.029  23.045  25.590  1.00  0.00     0.135 A 
ATOM     75  C   UNL A   1      43.184  22.611  27.948  1.00  0.00     0.135 A 
ATOM     76  F   UNL A   1      43.129  23.873  24.539  1.00  0.00    -0.206 F 
ATOM     77  C   UNL A   1      42.637  21.730  25.362  1.00  0.00     0.059 A 
ATOM     78  C   UNL A   1      42.818  21.284  27.742  1.00  0.00     0.059 A 
ATOM     79  F   UNL A   1      43.456  23.006  29.202  1.00  0.00    -0.206 F 
ATOM     80  C   UNL A   1      42.543  20.855  26.445  1.00  0.00     0.060 A 
BRANCH  80  81
ATOM     81  S   UNL A   1      42.106  19.131  26.126  1.00  0.00     0.124 S 
ATOM     82  O   UNL A   1      42.995  18.803  25.017  1.00  0.00    -0.237 OA
ATOM     83  O   UNL A   1      42.416  18.497  27.403  1.00  0.00    -0.237 OA
ATOM     84  O   UNL A   1      40.686  19.199  25.797  1.00  0.00    -0.744 OA
ENDBRANCH  80  81
ENDBRANCH  48  73
BRANCH  60  85
ATOM     85  C   UNL A   1      49.424  26.793  26.065  1.00  0.00     0.058 A 
ATOM     86  C   UNL A   1      49.852  26.915  24.734  1.00  0.00     0.135 A 
ATOM     87  C   UNL A   1      50.331  26.266  26.999  1.00  0.00     0.135 A 
ATOM     88  F   UNL A   1      49.023  27.405  23.798  1.00  0.00    -0.206 F 
ATOM     89  C   UNL A   1      51.123  26.509  24.341  1.00  0.00     0.059 A 
ATOM     90  C   UNL A   1      51.618  25.884  26.634  1.00  0.00     0.059 A 
ATOM     91  F   UNL A   1      49.977  26.136  28.287  1.00  0.00    -0.206 F 
ATOM     92  C   UNL A   1      52.001  25.999  25.299  1.00  0.00     0.060 A 
BRANCH  92  93
ATOM     93  S   UNL A   1      53.660  25.513  24.781  1.00  0.00     0.124 S 
ATOM     94  O   UNL A   1      54.465  25.961  25.913  1.00  0.00    -0.237 OA
ATOM     95  O   UNL A   1      53.530  24.068  24.628  1.00  0.00    -0.237 OA
ATOM     96  O   UNL A   1      53.859  26.254  23.538  1.00  0.00    -0.744 OA
ENDBRANCH  92  93
ENDBRANCH  60  85
ENDBRANCH  34  35
ENDBRANCH  26  29
ENDBRANCH  24  25
ENDBRANCH   1  24
TORSDOF 16
ENDMDL
