MODEL 1
REMARK VINA RESULT:     -12.6      0.000      0.000
REMARK SMILES COc1ccc([C@@H](CC(=O)NCCCNC(=O)c2ccc(-c3c4nc(c(-c5c(F)cc(S(=O)(=O)[O-])cc5F)c5ccc([nH]5)c(-c5c(F)cc(S(=O)(=O)[O-])cc5F)c5nc(c(-c6c(F)cc(S(=O)(=O)[O-])cc6F)c6ccc3[nH]6)C=C5)C=C4)cc2)N2C(=O)[C@H]3CC=CC[C@H]3C2=O)cc1OC
REMARK SMILES IDX 13 1 12 2 11 3 9 4 10 5 8 7 7 8 6 9 3 10 4 11 96 12 5 13
REMARK SMILES IDX 95 14 2 15 1 16 97 17 98 18 84 19 85 20 93 21 86 22 87 23
REMARK SMILES IDX 92 24 94 25 88 26 91 27 89 28 90 29 14 30 15 31 16 32 17 34
REMARK SMILES IDX 18 35 19 36 83 37 20 38 82 39 21 40 22 41 23 42 76 43 24 44
REMARK SMILES IDX 81 45 75 46 77 47 25 48 80 49 74 50 73 51 26 53 60 54 39 55
REMARK SMILES IDX 59 56 40 57 43 58 58 59 78 60 41 61 42 62 57 64 79 65 44 66
REMARK SMILES IDX 27 67 28 68 37 69 29 70 30 71 36 72 38 73 31 74 32 75 33 76
REMARK SMILES IDX 34 77 35 78 61 79 62 80 71 81 63 82 64 83 70 84 72 85 65 86
REMARK SMILES IDX 66 87 67 88 68 89 69 90 45 91 46 92 55 93 47 94 48 95 54 96
REMARK SMILES IDX 56 97 49 98 50 99 51 100 52 101 53 102
REMARK H PARENT 11 6 15 33 77 52 43 63
REMARK Flexibility Score: inf
ROOT
ATOM      1  C   UNL A   1      40.265  21.719  26.797  1.00  0.00     0.042 C 
ENDROOT
BRANCH   1   2
ATOM      2  C   UNL A   1      38.952  22.205  26.188  1.00  0.00     0.117 C 
BRANCH   2   3
ATOM      3  N   UNL A   1      38.363  21.151  25.378  1.00  0.00    -0.356 N 
ATOM      4  C   UNL A   1      37.058  20.818  25.176  1.00  0.00     0.222 C 
ATOM      5  O   UNL A   1      36.854  19.676  24.761  1.00  0.00    -0.275 OA
ATOM      6  H   UNL A   1      39.012  20.587  24.899  1.00  0.00     0.163 HD
BRANCH   4   7
ATOM      7  C   UNL A   1      35.931  21.829  25.348  1.00  0.00     0.130 C 
BRANCH   7   8
ATOM      8  C   UNL A   1      34.796  21.842  24.286  1.00  0.00     0.133 C 
BRANCH   8   9
ATOM      9  C   UNL A   1      34.164  23.243  24.240  1.00  0.00    -0.020 A 
ATOM     10  C   UNL A   1      33.222  25.919  24.135  1.00  0.00     0.160 A 
ATOM     11  C   UNL A   1      33.179  25.197  25.328  1.00  0.00     0.051 A 
ATOM     12  C   UNL A   1      33.659  25.275  22.967  1.00  0.00     0.161 A 
ATOM     13  C   UNL A   1      33.640  23.877  25.375  1.00  0.00     0.010 A 
ATOM     14  C   UNL A   1      34.135  23.957  23.031  1.00  0.00     0.056 A 
BRANCH  10  15
ATOM     15  O   UNL A   1      32.959  27.258  24.062  1.00  0.00    -0.493 OA
ATOM     16  C   UNL A   1      34.017  28.154  24.358  1.00  0.00     0.278 C 
ENDBRANCH  10  15
BRANCH  12  17
ATOM     17  O   UNL A   1      33.719  25.826  21.710  1.00  0.00    -0.493 OA
ATOM     18  C   UNL A   1      32.536  25.708  20.919  1.00  0.00     0.278 C 
ENDBRANCH  12  17
ENDBRANCH   8   9
BRANCH   8  19
ATOM     19  N   UNL A   1      33.809  20.759  24.385  1.00  0.00    -0.274 N 
ATOM     20  C   UNL A   1      32.796  20.534  23.504  1.00  0.00     0.234 C 
ATOM     21  C   UNL A   1      33.389  20.245  25.580  1.00  0.00     0.234 C 
ATOM     22  O   UNL A   1      32.392  21.294  22.635  1.00  0.00    -0.274 OA
ATOM     23  C   UNL A   1      32.107  19.237  23.872  1.00  0.00     0.095 C 
ATOM     24  C   UNL A   1      32.571  19.007  25.313  1.00  0.00     0.095 C 
ATOM     25  O   UNL A   1      33.584  20.699  26.692  1.00  0.00    -0.274 OA
ATOM     26  C   UNL A   1      32.471  18.148  22.863  1.00  0.00     0.041 C 
ATOM     27  C   UNL A   1      33.458  17.781  25.577  1.00  0.00     0.041 C 
ATOM     28  C   UNL A   1      33.788  17.488  23.137  1.00  0.00    -0.030 C 
ATOM     29  C   UNL A   1      34.240  17.317  24.386  1.00  0.00    -0.030 C 
ENDBRANCH   8  19
ENDBRANCH   7   8
ENDBRANCH   4   7
ENDBRANCH   2   3
ENDBRANCH   1   2
BRANCH   1  30
ATOM     30  C   UNL A   1      41.264  22.798  27.192  1.00  0.00     0.118 C 
BRANCH  30  31
ATOM     31  N   UNL A   1      41.464  23.770  26.137  1.00  0.00    -0.352 N 
ATOM     32  C   UNL A   1      41.439  25.142  26.105  1.00  0.00     0.251 C 
ATOM     33  H   UNL A   1      41.658  23.363  25.262  1.00  0.00     0.163 HD
ATOM     34  O   UNL A   1      41.440  25.660  24.985  1.00  0.00    -0.269 OA
BRANCH  32  35
ATOM     35  C   UNL A   1      41.405  26.035  27.304  1.00  0.00     0.039 A 
ATOM     36  C   UNL A   1      40.303  25.897  28.164  1.00  0.00     0.014 A 
ATOM     37  C   UNL A   1      42.305  27.072  27.561  1.00  0.00     0.014 A 
ATOM     38  C   UNL A   1      40.109  26.766  29.248  1.00  0.00     0.010 A 
ATOM     39  C   UNL A   1      42.153  27.897  28.692  1.00  0.00     0.010 A 
ATOM     40  C   UNL A   1      41.043  27.772  29.539  1.00  0.00    -0.014 A 
BRANCH  40  41
ATOM     41  C   UNL A   1      40.835  28.689  30.703  1.00  0.00     0.031 A 
ATOM     42  C   UNL A   1      41.678  28.575  31.949  1.00  0.00     0.074 A 
ATOM     43  C   UNL A   1      39.879  29.640  30.650  1.00  0.00     0.049 A 
ATOM     44  N   UNL A   1      41.646  29.305  33.037  1.00  0.00    -0.248 NA
ATOM     45  C   UNL A   1      42.677  27.496  31.986  1.00  0.00     0.031 C 
ATOM     46  C   UNL A   1      38.972  29.852  29.525  1.00  0.00     0.029 A 
ATOM     47  N   UNL A   1      39.506  30.604  31.556  1.00  0.00    -0.354 N 
ATOM     48  C   UNL A   1      42.612  28.776  33.886  1.00  0.00     0.074 A 
ATOM     49  C   UNL A   1      43.178  27.629  33.206  1.00  0.00     0.031 C 
ATOM     50  C   UNL A   1      38.155  30.882  29.796  1.00  0.00     0.029 A 
ATOM     51  C   UNL A   1      38.470  31.401  31.122  1.00  0.00     0.049 A 
ATOM     52  H   UNL A   1      39.940  30.716  32.432  1.00  0.00     0.167 HD
ATOM     53  C   UNL A   1      43.012  29.215  35.105  1.00  0.00     0.037 A 
ATOM     54  C   UNL A   1      37.844  32.438  31.713  1.00  0.00     0.037 A 
ATOM     55  C   UNL A   1      42.468  30.369  35.779  1.00  0.00     0.049 A 
ATOM     56  C   UNL A   1      38.306  32.907  33.063  1.00  0.00     0.074 A 
ATOM     57  C   UNL A   1      42.853  30.920  36.990  1.00  0.00     0.029 A 
ATOM     58  N   UNL A   1      41.423  31.149  35.305  1.00  0.00    -0.354 N 
ATOM     59  N   UNL A   1      39.266  32.430  33.817  1.00  0.00    -0.248 NA
ATOM     60  C   UNL A   1      37.611  34.069  33.634  1.00  0.00     0.031 C 
ATOM     61  C   UNL A   1      42.015  32.006  37.267  1.00  0.00     0.029 A 
ATOM     62  C   UNL A   1      41.137  32.161  36.209  1.00  0.00     0.049 A 
ATOM     63  H   UNL A   1      40.955  31.004  34.451  1.00  0.00     0.167 HD
ATOM     64  C   UNL A   1      39.304  33.244  34.943  1.00  0.00     0.074 A 
ATOM     65  C   UNL A   1      38.284  34.256  34.762  1.00  0.00     0.031 C 
ATOM     66  C   UNL A   1      40.112  33.158  36.029  1.00  0.00     0.037 A 
BRANCH  53  67
ATOM     67  C   UNL A   1      44.103  28.444  35.801  1.00  0.00     0.058 A 
ATOM     68  C   UNL A   1      45.459  28.759  35.614  1.00  0.00     0.135 A 
ATOM     69  C   UNL A   1      43.790  27.408  36.696  1.00  0.00     0.135 A 
ATOM     70  F   UNL A   1      45.816  29.732  34.762  1.00  0.00    -0.206 F 
ATOM     71  C   UNL A   1      46.467  28.053  36.266  1.00  0.00     0.059 A 
ATOM     72  C   UNL A   1      44.780  26.707  37.379  1.00  0.00     0.059 A 
ATOM     73  F   UNL A   1      42.510  27.068  36.915  1.00  0.00    -0.206 F 
ATOM     74  C   UNL A   1      46.117  27.027  37.145  1.00  0.00     0.060 A 
BRANCH  74  75
ATOM     75  S   UNL A   1      47.435  26.120  37.981  1.00  0.00     0.124 S 
ATOM     76  O   UNL A   1      48.596  26.491  37.180  1.00  0.00    -0.237 OA
ATOM     77  O   UNL A   1      47.392  26.677  39.330  1.00  0.00    -0.237 OA
ATOM     78  O   UNL A   1      47.014  24.727  37.868  1.00  0.00    -0.744 OA
ENDBRANCH  74  75
ENDBRANCH  53  67
BRANCH  54  79
ATOM     79  C   UNL A   1      36.727  33.124  31.011  1.00  0.00     0.058 A 
ATOM     80  C   UNL A   1      36.972  33.985  29.931  1.00  0.00     0.135 A 
ATOM     81  C   UNL A   1      35.392  32.920  31.397  1.00  0.00     0.135 A 
ATOM     82  F   UNL A   1      38.231  34.215  29.529  1.00  0.00    -0.206 F 
ATOM     83  C   UNL A   1      35.936  34.631  29.265  1.00  0.00     0.059 A 
ATOM     84  C   UNL A   1      34.338  33.537  30.732  1.00  0.00     0.059 A 
ATOM     85  F   UNL A   1      35.106  32.091  32.412  1.00  0.00    -0.206 F 
ATOM     86  C   UNL A   1      34.621  34.398  29.672  1.00  0.00     0.060 A 
BRANCH  86  87
ATOM     87  S   UNL A   1      33.278  35.195  28.764  1.00  0.00     0.124 S 
ATOM     88  O   UNL A   1      32.708  34.070  28.034  1.00  0.00    -0.237 OA
ATOM     89  O   UNL A   1      32.460  35.741  29.842  1.00  0.00    -0.237 OA
ATOM     90  O   UNL A   1      33.972  36.191  27.951  1.00  0.00    -0.744 OA
ENDBRANCH  86  87
ENDBRANCH  54  79
BRANCH  66  91
ATOM     91  C   UNL A   1      39.933  34.202  37.098  1.00  0.00     0.058 A 
ATOM     92  C   UNL A   1      39.140  33.964  38.233  1.00  0.00     0.135 A 
ATOM     93  C   UNL A   1      40.563  35.452  36.990  1.00  0.00     0.135 A 
ATOM     94  F   UNL A   1      38.511  32.787  38.383  1.00  0.00    -0.206 F 
ATOM     95  C   UNL A   1      38.947  34.942  39.203  1.00  0.00     0.059 A 
ATOM     96  C   UNL A   1      40.406  36.436  37.962  1.00  0.00     0.059 A 
ATOM     97  F   UNL A   1      41.341  35.728  35.931  1.00  0.00    -0.206 F 
ATOM     98  C   UNL A   1      39.578  36.178  39.055  1.00  0.00     0.060 A 
BRANCH  98  99
ATOM     99  S   UNL A   1      39.317  37.444  40.316  1.00  0.00     0.124 S 
ATOM    100  O   UNL A   1      38.442  38.379  39.615  1.00  0.00    -0.237 OA
ATOM    101  O   UNL A   1      38.698  36.686  41.399  1.00  0.00    -0.237 OA
ATOM    102  O   UNL A   1      40.666  37.931  40.591  1.00  0.00    -0.744 OA
ENDBRANCH  98  99
ENDBRANCH  66  91
ENDBRANCH  40  41
ENDBRANCH  32  35
ENDBRANCH  30  31
ENDBRANCH   1  30
TORSDOF 18
ENDMDL
MODEL 2
REMARK VINA RESULT:     -12.6      1.303      2.350
REMARK SMILES COc1ccc([C@@H](CC(=O)NCCCNC(=O)c2ccc(-c3c4nc(c(-c5c(F)cc(S(=O)(=O)[O-])cc5F)c5ccc([nH]5)c(-c5c(F)cc(S(=O)(=O)[O-])cc5F)c5nc(c(-c6c(F)cc(S(=O)(=O)[O-])cc6F)c6ccc3[nH]6)C=C5)C=C4)cc2)N2C(=O)[C@H]3CC=CC[C@H]3C2=O)cc1OC
REMARK SMILES IDX 13 1 12 2 11 3 9 4 10 5 8 7 7 8 6 9 3 10 4 11 96 12 5 13
REMARK SMILES IDX 95 14 2 15 1 16 97 17 98 18 84 19 85 20 93 21 86 22 87 23
REMARK SMILES IDX 92 24 94 25 88 26 91 27 89 28 90 29 14 30 15 31 16 32 17 34
REMARK SMILES IDX 18 35 19 36 83 37 20 38 82 39 21 40 22 41 23 42 76 43 24 44
REMARK SMILES IDX 81 45 75 46 77 47 25 48 80 49 74 50 73 51 26 53 60 54 39 55
REMARK SMILES IDX 59 56 40 57 43 58 58 59 78 60 41 61 42 62 57 64 79 65 44 66
REMARK SMILES IDX 27 67 28 68 37 69 29 70 30 71 36 72 38 73 31 74 32 75 33 76
REMARK SMILES IDX 34 77 35 78 61 79 62 80 71 81 63 82 64 83 70 84 72 85 65 86
REMARK SMILES IDX 66 87 67 88 68 89 69 90 45 91 46 92 55 93 47 94 48 95 54 96
REMARK SMILES IDX 56 97 49 98 50 99 51 100 52 101 53 102
REMARK H PARENT 11 6 15 33 77 52 43 63
REMARK Flexibility Score: inf
ROOT
ATOM      1  C   UNL A   1      38.478  22.102  25.713  1.00  0.00     0.042 C 
ENDROOT
BRANCH   1   2
ATOM      2  C   UNL A   1      37.286  22.429  24.817  1.00  0.00     0.117 C 
BRANCH   2   3
ATOM      3  N   UNL A   1      36.047  22.104  25.505  1.00  0.00    -0.356 N 
ATOM      4  C   UNL A   1      35.193  22.898  26.208  1.00  0.00     0.222 C 
ATOM      5  O   UNL A   1      34.441  22.315  26.991  1.00  0.00    -0.275 OA
ATOM      6  H   UNL A   1      35.783  21.156  25.453  1.00  0.00     0.163 HD
BRANCH   4   7
ATOM      7  C   UNL A   1      35.099  24.399  25.962  1.00  0.00     0.130 C 
BRANCH   7   8
ATOM      8  C   UNL A   1      34.368  24.882  24.678  1.00  0.00     0.133 C 
BRANCH   8   9
ATOM      9  C   UNL A   1      34.071  26.385  24.803  1.00  0.00    -0.020 A 
ATOM     10  C   UNL A   1      33.315  29.100  25.146  1.00  0.00     0.160 A 
ATOM     11  C   UNL A   1      33.289  28.509  23.882  1.00  0.00     0.051 A 
ATOM     12  C   UNL A   1      33.803  28.358  26.232  1.00  0.00     0.161 A 
ATOM     13  C   UNL A   1      33.667  27.172  23.717  1.00  0.00     0.010 A 
ATOM     14  C   UNL A   1      34.161  27.013  26.056  1.00  0.00     0.056 A 
BRANCH  10  15
ATOM     15  O   UNL A   1      32.792  30.336  25.403  1.00  0.00    -0.493 OA
ATOM     16  C   UNL A   1      31.430  30.406  25.789  1.00  0.00     0.278 C 
ENDBRANCH  10  15
BRANCH  12  17
ATOM     17  O   UNL A   1      33.937  28.803  27.525  1.00  0.00    -0.493 OA
ATOM     18  C   UNL A   1      35.114  29.560  27.806  1.00  0.00     0.278 C 
ENDBRANCH  12  17
ENDBRANCH   8   9
BRANCH   8  19
ATOM     19  N   UNL A   1      33.204  24.088  24.262  1.00  0.00    -0.274 N 
ATOM     20  C   UNL A   1      32.911  23.733  22.981  1.00  0.00     0.234 C 
ATOM     21  C   UNL A   1      32.011  24.118  24.927  1.00  0.00     0.234 C 
ATOM     22  O   UNL A   1      33.408  24.185  21.959  1.00  0.00    -0.274 OA
ATOM     23  C   UNL A   1      31.726  22.790  22.994  1.00  0.00     0.095 C 
ATOM     24  C   UNL A   1      31.129  23.022  24.385  1.00  0.00     0.095 C 
ATOM     25  O   UNL A   1      31.661  24.903  25.788  1.00  0.00    -0.274 OA
ATOM     26  C   UNL A   1      32.189  21.367  22.686  1.00  0.00     0.041 C 
ATOM     27  C   UNL A   1      31.168  21.844  25.370  1.00  0.00     0.041 C 
ATOM     28  C   UNL A   1      32.739  20.640  23.876  1.00  0.00    -0.030 C 
ATOM     29  C   UNL A   1      32.267  20.858  25.109  1.00  0.00    -0.030 C 
ENDBRANCH   8  19
ENDBRANCH   7   8
ENDBRANCH   4   7
ENDBRANCH   2   3
ENDBRANCH   1   2
BRANCH   1  30
ATOM     30  C   UNL A   1      38.998  23.237  26.583  1.00  0.00     0.118 C 
BRANCH  30  31
ATOM     31  N   UNL A   1      40.286  23.725  26.135  1.00  0.00    -0.352 N 
ATOM     32  C   UNL A   1      41.017  24.852  26.420  1.00  0.00     0.251 C 
ATOM     33  H   UNL A   1      40.729  23.125  25.494  1.00  0.00     0.163 HD
ATOM     34  O   UNL A   1      41.991  25.066  25.693  1.00  0.00    -0.269 OA
BRANCH  32  35
ATOM     35  C   UNL A   1      40.719  25.820  27.519  1.00  0.00     0.039 A 
ATOM     36  C   UNL A   1      41.637  26.868  27.706  1.00  0.00     0.014 A 
ATOM     37  C   UNL A   1      39.683  25.690  28.448  1.00  0.00     0.014 A 
ATOM     38  C   UNL A   1      41.521  27.758  28.784  1.00  0.00     0.010 A 
ATOM     39  C   UNL A   1      39.521  26.629  29.485  1.00  0.00     0.010 A 
ATOM     40  C   UNL A   1      40.449  27.662  29.683  1.00  0.00    -0.014 A 
BRANCH  40  41
ATOM     41  C   UNL A   1      40.325  28.621  30.824  1.00  0.00     0.031 A 
ATOM     42  C   UNL A   1      41.196  28.494  32.050  1.00  0.00     0.074 A 
ATOM     43  C   UNL A   1      39.422  29.621  30.770  1.00  0.00     0.049 A 
ATOM     44  N   UNL A   1      41.234  29.255  33.117  1.00  0.00    -0.248 NA
ATOM     45  C   UNL A   1      42.134  27.363  32.092  1.00  0.00     0.031 C 
ATOM     46  C   UNL A   1      38.496  29.853  29.663  1.00  0.00     0.029 A 
ATOM     47  N   UNL A   1      39.128  30.631  31.656  1.00  0.00    -0.354 N 
ATOM     48  C   UNL A   1      42.194  28.697  33.955  1.00  0.00     0.074 A 
ATOM     49  C   UNL A   1      42.676  27.502  33.294  1.00  0.00     0.031 C 
ATOM     50  C   UNL A   1      37.746  30.934  29.925  1.00  0.00     0.029 A 
ATOM     51  C   UNL A   1      38.127  31.471  31.226  1.00  0.00     0.049 A 
ATOM     52  H   UNL A   1      39.593  30.742  32.517  1.00  0.00     0.167 HD
ATOM     53  C   UNL A   1      42.651  29.147  35.150  1.00  0.00     0.037 A 
ATOM     54  C   UNL A   1      37.575  32.558  31.804  1.00  0.00     0.037 A 
ATOM     55  C   UNL A   1      42.191  30.347  35.803  1.00  0.00     0.049 A 
ATOM     56  C   UNL A   1      38.101  33.038  33.126  1.00  0.00     0.074 A 
ATOM     57  C   UNL A   1      42.641  30.910  36.986  1.00  0.00     0.029 A 
ATOM     58  N   UNL A   1      41.178  31.171  35.334  1.00  0.00    -0.354 N 
ATOM     59  N   UNL A   1      39.054  32.529  33.867  1.00  0.00    -0.248 NA
ATOM     60  C   UNL A   1      37.487  34.253  33.681  1.00  0.00     0.031 C 
ATOM     61  C   UNL A   1      41.871  32.049  37.254  1.00  0.00     0.029 A 
ATOM     62  C   UNL A   1      40.974  32.223  36.215  1.00  0.00     0.049 A 
ATOM     63  H   UNL A   1      40.678  31.030  34.498  1.00  0.00     0.167 HD
ATOM     64  C   UNL A   1      39.168  33.371  34.968  1.00  0.00     0.074 A 
ATOM     65  C   UNL A   1      38.201  34.433  34.784  1.00  0.00     0.031 C 
ATOM     66  C   UNL A   1      40.001  33.271  36.034  1.00  0.00     0.037 A 
BRANCH  53  67
ATOM     67  C   UNL A   1      43.718  28.335  35.838  1.00  0.00     0.058 A 
ATOM     68  C   UNL A   1      45.084  28.594  35.636  1.00  0.00     0.135 A 
ATOM     69  C   UNL A   1      43.372  27.318  36.742  1.00  0.00     0.135 A 
ATOM     70  F   UNL A   1      45.470  29.548  34.774  1.00  0.00    -0.206 F 
ATOM     71  C   UNL A   1      46.068  27.852  36.281  1.00  0.00     0.059 A 
ATOM     72  C   UNL A   1      44.341  26.581  37.419  1.00  0.00     0.059 A 
ATOM     73  F   UNL A   1      42.082  27.032  36.977  1.00  0.00    -0.206 F 
ATOM     74  C   UNL A   1      45.686  26.845  37.170  1.00  0.00     0.060 A 
BRANCH  74  75
ATOM     75  S   UNL A   1      46.976  25.890  37.997  1.00  0.00     0.124 S 
ATOM     76  O   UNL A   1      46.782  24.569  37.407  1.00  0.00    -0.237 OA
ATOM     77  O   UNL A   1      48.192  26.591  37.596  1.00  0.00    -0.237 OA
ATOM     78  O   UNL A   1      46.628  26.002  39.410  1.00  0.00    -0.744 OA
ENDBRANCH  74  75
ENDBRANCH  53  67
BRANCH  54  79
ATOM     79  C   UNL A   1      36.478  33.286  31.112  1.00  0.00     0.058 A 
ATOM     80  C   UNL A   1      36.730  34.053  29.965  1.00  0.00     0.135 A 
ATOM     81  C   UNL A   1      35.154  33.215  31.575  1.00  0.00     0.135 A 
ATOM     82  F   UNL A   1      37.980  34.155  29.488  1.00  0.00    -0.206 F 
ATOM     83  C   UNL A   1      35.713  34.737  29.308  1.00  0.00     0.059 A 
ATOM     84  C   UNL A   1      34.116  33.871  30.921  1.00  0.00     0.059 A 
ATOM     85  F   UNL A   1      34.860  32.478  32.656  1.00  0.00    -0.206 F 
ATOM     86  C   UNL A   1      34.408  34.637  29.793  1.00  0.00     0.060 A 
BRANCH  86  87
ATOM     87  S   UNL A   1      33.084  35.481  28.899  1.00  0.00     0.124 S 
ATOM     88  O   UNL A   1      32.247  35.957  29.994  1.00  0.00    -0.237 OA
ATOM     89  O   UNL A   1      33.817  36.504  28.161  1.00  0.00    -0.237 OA
ATOM     90  O   UNL A   1      32.509  34.420  28.077  1.00  0.00    -0.744 OA
ENDBRANCH  86  87
ENDBRANCH  54  79
BRANCH  66  91
ATOM     91  C   UNL A   1      39.910  34.352  37.076  1.00  0.00     0.058 A 
ATOM     92  C   UNL A   1      39.115  34.203  38.224  1.00  0.00     0.135 A 
ATOM     93  C   UNL A   1      40.629  35.549  36.929  1.00  0.00     0.135 A 
ATOM     94  F   UNL A   1      38.403  33.079  38.411  1.00  0.00    -0.206 F 
ATOM     95  C   UNL A   1      39.004  35.217  39.169  1.00  0.00     0.059 A 
ATOM     96  C   UNL A   1      40.554  36.567  37.875  1.00  0.00     0.059 A 
ATOM     97  F   UNL A   1      41.413  35.740  35.857  1.00  0.00    -0.206 F 
ATOM     98  C   UNL A   1      39.721  36.399  38.982  1.00  0.00     0.060 A 
BRANCH  98  99
ATOM     99  S   UNL A   1      39.568  37.713  40.212  1.00  0.00     0.124 S 
ATOM    100  O   UNL A   1      39.091  36.970  41.375  1.00  0.00    -0.237 OA
ATOM    101  O   UNL A   1      40.932  38.223  40.300  1.00  0.00    -0.237 OA
ATOM    102  O   UNL A   1      38.601  38.628  39.611  1.00  0.00    -0.744 OA
ENDBRANCH  98  99
ENDBRANCH  66  91
ENDBRANCH  40  41
ENDBRANCH  32  35
ENDBRANCH  30  31
ENDBRANCH   1  30
TORSDOF 18
ENDMDL
MODEL 3
REMARK VINA RESULT:     -12.5      1.122      3.503
REMARK SMILES COc1ccc([C@@H](CC(=O)NCCCNC(=O)c2ccc(-c3c4nc(c(-c5c(F)cc(S(=O)(=O)[O-])cc5F)c5ccc([nH]5)c(-c5c(F)cc(S(=O)(=O)[O-])cc5F)c5nc(c(-c6c(F)cc(S(=O)(=O)[O-])cc6F)c6ccc3[nH]6)C=C5)C=C4)cc2)N2C(=O)[C@H]3CC=CC[C@H]3C2=O)cc1OC
REMARK SMILES IDX 13 1 12 2 11 3 9 4 10 5 8 7 7 8 6 9 3 10 4 11 96 12 5 13
REMARK SMILES IDX 95 14 2 15 1 16 97 17 98 18 84 19 85 20 93 21 86 22 87 23
REMARK SMILES IDX 92 24 94 25 88 26 91 27 89 28 90 29 14 30 15 31 16 32 17 34
REMARK SMILES IDX 18 35 19 36 83 37 20 38 82 39 21 40 22 41 23 42 76 43 24 44
REMARK SMILES IDX 81 45 75 46 77 47 25 48 80 49 74 50 73 51 26 53 60 54 39 55
REMARK SMILES IDX 59 56 40 57 43 58 58 59 78 60 41 61 42 62 57 64 79 65 44 66
REMARK SMILES IDX 27 67 28 68 37 69 29 70 30 71 36 72 38 73 31 74 32 75 33 76
REMARK SMILES IDX 34 77 35 78 61 79 62 80 71 81 63 82 64 83 70 84 72 85 65 86
REMARK SMILES IDX 66 87 67 88 68 89 69 90 45 91 46 92 55 93 47 94 48 95 54 96
REMARK SMILES IDX 56 97 49 98 50 99 51 100 52 101 53 102
REMARK H PARENT 11 6 15 33 77 52 43 63
REMARK Flexibility Score: inf
ROOT
ATOM      1  C   UNL A   1      40.284  21.472  26.362  1.00  0.00     0.042 C 
ENDROOT
BRANCH   1   2
ATOM      2  C   UNL A   1      38.897  21.707  25.768  1.00  0.00     0.117 C 
BRANCH   2   3
ATOM      3  N   UNL A   1      38.265  22.842  26.418  1.00  0.00    -0.356 N 
ATOM      4  C   UNL A   1      37.272  23.667  25.985  1.00  0.00     0.222 C 
ATOM      5  O   UNL A   1      37.191  24.755  26.559  1.00  0.00    -0.275 OA
ATOM      6  H   UNL A   1      38.610  23.047  27.318  1.00  0.00     0.163 HD
BRANCH   4   7
ATOM      7  C   UNL A   1      36.259  23.229  24.935  1.00  0.00     0.130 C 
BRANCH   7   8
ATOM      8  C   UNL A   1      34.750  23.327  25.294  1.00  0.00     0.133 C 
BRANCH   8   9
ATOM      9  C   UNL A   1      34.118  21.928  25.199  1.00  0.00    -0.020 A 
ATOM     10  C   UNL A   1      32.996  19.354  24.787  1.00  0.00     0.160 A 
ATOM     11  C   UNL A   1      32.180  20.444  25.089  1.00  0.00     0.051 A 
ATOM     12  C   UNL A   1      34.388  19.530  24.774  1.00  0.00     0.161 A 
ATOM     13  C   UNL A   1      32.737  21.711  25.296  1.00  0.00     0.010 A 
ATOM     14  C   UNL A   1      34.933  20.809  24.966  1.00  0.00     0.056 A 
BRANCH  10  15
ATOM     15  O   UNL A   1      32.505  18.139  24.398  1.00  0.00    -0.493 OA
ATOM     16  C   UNL A   1      32.431  17.116  25.377  1.00  0.00     0.278 C 
ENDBRANCH  10  15
BRANCH  12  17
ATOM     17  O   UNL A   1      35.328  18.556  24.541  1.00  0.00    -0.493 OA
ATOM     18  C   UNL A   1      36.681  18.911  24.829  1.00  0.00     0.278 C 
ENDBRANCH  12  17
ENDBRANCH   8   9
BRANCH   8  19
ATOM     19  N   UNL A   1      33.985  24.363  24.587  1.00  0.00    -0.274 N 
ATOM     20  C   UNL A   1      33.876  24.476  23.235  1.00  0.00     0.234 C 
ATOM     21  C   UNL A   1      33.805  25.622  25.086  1.00  0.00     0.234 C 
ATOM     22  O   UNL A   1      34.555  23.907  22.390  1.00  0.00    -0.274 OA
ATOM     23  C   UNL A   1      32.878  25.568  22.914  1.00  0.00     0.095 C 
ATOM     24  C   UNL A   1      32.786  26.338  24.234  1.00  0.00     0.095 C 
ATOM     25  O   UNL A   1      34.376  26.135  26.029  1.00  0.00    -0.274 OA
ATOM     26  C   UNL A   1      31.577  24.950  22.400  1.00  0.00     0.041 C 
ATOM     27  C   UNL A   1      31.439  26.308  24.972  1.00  0.00     0.041 C 
ATOM     28  C   UNL A   1      30.663  24.479  23.489  1.00  0.00    -0.030 C 
ATOM     29  C   UNL A   1      30.597  25.105  24.670  1.00  0.00    -0.030 C 
ENDBRANCH   8  19
ENDBRANCH   7   8
ENDBRANCH   4   7
ENDBRANCH   2   3
ENDBRANCH   1   2
BRANCH   1  30
ATOM     30  C   UNL A   1      40.918  22.656  27.078  1.00  0.00     0.118 C 
BRANCH  30  31
ATOM     31  N   UNL A   1      41.548  23.579  26.157  1.00  0.00    -0.352 N 
ATOM     32  C   UNL A   1      41.653  24.948  26.119  1.00  0.00     0.251 C 
ATOM     33  H   UNL A   1      41.993  23.133  25.400  1.00  0.00     0.163 HD
ATOM     34  O   UNL A   1      42.080  25.432  25.068  1.00  0.00    -0.269 OA
BRANCH  32  35
ATOM     35  C   UNL A   1      41.290  25.873  27.236  1.00  0.00     0.039 A 
ATOM     36  C   UNL A   1      42.168  26.942  27.484  1.00  0.00     0.014 A 
ATOM     37  C   UNL A   1      40.228  25.684  28.125  1.00  0.00     0.014 A 
ATOM     38  C   UNL A   1      41.988  27.795  28.582  1.00  0.00     0.010 A 
ATOM     39  C   UNL A   1      40.003  26.586  29.183  1.00  0.00     0.010 A 
ATOM     40  C   UNL A   1      40.891  27.640  29.442  1.00  0.00    -0.014 A 
BRANCH  40  41
ATOM     41  C   UNL A   1      40.700  28.560  30.606  1.00  0.00     0.031 A 
ATOM     42  C   UNL A   1      41.548  28.437  31.848  1.00  0.00     0.074 A 
ATOM     43  C   UNL A   1      39.755  29.522  30.557  1.00  0.00     0.049 A 
ATOM     44  N   UNL A   1      41.530  29.169  32.935  1.00  0.00    -0.248 NA
ATOM     45  C   UNL A   1      42.534  27.347  31.880  1.00  0.00     0.031 C 
ATOM     46  C   UNL A   1      38.845  29.744  29.436  1.00  0.00     0.029 A 
ATOM     47  N   UNL A   1      39.398  30.492  31.463  1.00  0.00    -0.354 N 
ATOM     48  C   UNL A   1      42.495  28.629  33.780  1.00  0.00     0.074 A 
ATOM     49  C   UNL A   1      43.044  27.475  33.098  1.00  0.00     0.031 C 
ATOM     50  C   UNL A   1      38.042  30.784  29.710  1.00  0.00     0.029 A 
ATOM     51  C   UNL A   1      38.370  31.300  31.034  1.00  0.00     0.049 A 
ATOM     52  H   UNL A   1      39.838  30.599  32.338  1.00  0.00     0.167 HD
ATOM     53  C   UNL A   1      42.905  29.064  34.996  1.00  0.00     0.037 A 
ATOM     54  C   UNL A   1      37.759  32.345  31.628  1.00  0.00     0.037 A 
ATOM     55  C   UNL A   1      42.378  30.225  35.672  1.00  0.00     0.049 A 
ATOM     56  C   UNL A   1      38.233  32.810  32.974  1.00  0.00     0.074 A 
ATOM     57  C   UNL A   1      42.776  30.773  36.880  1.00  0.00     0.029 A 
ATOM     58  N   UNL A   1      41.341  31.017  35.202  1.00  0.00    -0.354 N 
ATOM     59  N   UNL A   1      39.191  32.322  33.724  1.00  0.00    -0.248 NA
ATOM     60  C   UNL A   1      37.554  33.980  33.548  1.00  0.00     0.031 C 
ATOM     61  C   UNL A   1      41.952  31.869  37.161  1.00  0.00     0.029 A 
ATOM     62  C   UNL A   1      41.071  32.034  36.106  1.00  0.00     0.049 A 
ATOM     63  H   UNL A   1      40.866  30.877  34.351  1.00  0.00     0.167 HD
ATOM     64  C   UNL A   1      39.244  33.137  34.849  1.00  0.00     0.074 A 
ATOM     65  C   UNL A   1      38.236  34.160  34.672  1.00  0.00     0.031 C 
ATOM     66  C   UNL A   1      40.057  33.043  35.931  1.00  0.00     0.037 A 
BRANCH  53  67
ATOM     67  C   UNL A   1      43.991  28.281  35.687  1.00  0.00     0.058 A 
ATOM     68  C   UNL A   1      43.691  27.247  36.589  1.00  0.00     0.135 A 
ATOM     69  C   UNL A   1      45.344  28.536  35.413  1.00  0.00     0.135 A 
ATOM     70  F   UNL A   1      42.414  26.967  36.896  1.00  0.00    -0.206 F 
ATOM     71  C   UNL A   1      44.694  26.515  37.218  1.00  0.00     0.059 A 
ATOM     72  C   UNL A   1      46.364  27.799  36.010  1.00  0.00     0.059 A 
ATOM     73  F   UNL A   1      45.688  29.510  34.556  1.00  0.00    -0.206 F 
ATOM     74  C   UNL A   1      46.028  26.801  36.924  1.00  0.00     0.060 A 
BRANCH  74  75
ATOM     75  S   UNL A   1      47.318  25.845  37.750  1.00  0.00     0.124 S 
ATOM     76  O   UNL A   1      46.546  24.743  38.313  1.00  0.00    -0.237 OA
ATOM     77  O   UNL A   1      48.207  25.497  36.645  1.00  0.00    -0.237 OA
ATOM     78  O   UNL A   1      47.869  26.785  38.720  1.00  0.00    -0.744 OA
ENDBRANCH  74  75
ENDBRANCH  53  67
BRANCH  54  79
ATOM     79  C   UNL A   1      36.646  33.043  30.931  1.00  0.00     0.058 A 
ATOM     80  C   UNL A   1      35.312  32.849  31.321  1.00  0.00     0.135 A 
ATOM     81  C   UNL A   1      36.895  33.932  29.873  1.00  0.00     0.135 A 
ATOM     82  F   UNL A   1      35.024  32.005  32.324  1.00  0.00    -0.206 F 
ATOM     83  C   UNL A   1      34.263  33.497  30.679  1.00  0.00     0.059 A 
ATOM     84  C   UNL A   1      35.865  34.610  29.230  1.00  0.00     0.059 A 
ATOM     85  F   UNL A   1      38.155  34.166  29.475  1.00  0.00    -0.206 F 
ATOM     86  C   UNL A   1      34.551  34.379  29.636  1.00  0.00     0.060 A 
BRANCH  86  87
ATOM     87  S   UNL A   1      33.187  35.262  28.847  1.00  0.00     0.124 S 
ATOM     88  O   UNL A   1      32.410  35.695  30.002  1.00  0.00    -0.237 OA
ATOM     89  O   UNL A   1      33.885  36.314  28.115  1.00  0.00    -0.237 OA
ATOM     90  O   UNL A   1      32.566  34.237  28.012  1.00  0.00    -0.744 OA
ENDBRANCH  86  87
ENDBRANCH  54  79
BRANCH  66  91
ATOM     91  C   UNL A   1      39.896  34.089  37.000  1.00  0.00     0.058 A 
ATOM     92  C   UNL A   1      39.163  33.838  38.171  1.00  0.00     0.135 A 
ATOM     93  C   UNL A   1      40.483  35.356  36.855  1.00  0.00     0.135 A 
ATOM     94  F   UNL A   1      38.577  32.644  38.358  1.00  0.00    -0.206 F 
ATOM     95  C   UNL A   1      38.985  34.818  39.143  1.00  0.00     0.059 A 
ATOM     96  C   UNL A   1      40.340  36.343  37.825  1.00  0.00     0.059 A 
ATOM     97  F   UNL A   1      41.203  35.646  35.760  1.00  0.00    -0.206 F 
ATOM     98  C   UNL A   1      39.571  36.070  38.957  1.00  0.00     0.060 A 
BRANCH  98  99
ATOM     99  S   UNL A   1      39.330  37.338  40.220  1.00  0.00     0.124 S 
ATOM    100  O   UNL A   1      38.594  36.597  41.241  1.00  0.00    -0.237 OA
ATOM    101  O   UNL A   1      40.701  37.702  40.566  1.00  0.00    -0.237 OA
ATOM    102  O   UNL A   1      38.570  38.371  39.523  1.00  0.00    -0.744 OA
ENDBRANCH  98  99
ENDBRANCH  66  91
ENDBRANCH  40  41
ENDBRANCH  32  35
ENDBRANCH  30  31
ENDBRANCH   1  30
TORSDOF 18
ENDMDL
