MODEL 1
REMARK VINA RESULT:     -13.0      0.000      0.000
REMARK SMILES Cc1c(C#N)c2ccccc2n1CC(=O)N1CC[C@H](O)C[C@@H]1C(=O)NCCCNC(=O)c1ccc(-c2c3nc(c(-c4c(F)cc(S(=O)(=O)[O-])cc4F)c4ccc([nH]4)c(-c4c(F)cc(S(=O)(=O)[O-])cc4F)c4nc(c(-c5c(F)cc(S(=O)(=O)[O-])cc5F)c5ccc2[nH]5)C=C4)C=C3)cc1
REMARK SMILES IDX 26 1 25 2 23 3 24 4 22 6 16 7 17 8 18 9 21 10 19 11 14 12
REMARK SMILES IDX 15 13 13 14 12 15 1 16 2 17 3 18 6 19 11 20 7 21 10 22 8 23
REMARK SMILES IDX 9 24 4 25 5 26 20 27 27 29 28 30 29 31 30 32 31 34 32 35
REMARK SMILES IDX 33 36 97 37 34 38 96 39 35 40 36 41 37 42 90 43 38 44 95 45
REMARK SMILES IDX 89 46 91 47 39 48 94 49 88 50 87 51 40 53 74 54 53 55 73 56
REMARK SMILES IDX 54 57 57 58 72 59 92 60 55 61 56 62 71 64 93 65 58 66 41 67
REMARK SMILES IDX 42 68 51 69 43 70 44 71 50 72 52 73 45 74 46 75 47 76 48 77
REMARK SMILES IDX 49 78 75 79 76 80 85 81 77 82 78 83 84 84 86 85 79 86 80 87
REMARK SMILES IDX 81 88 82 89 83 90 59 91 60 92 69 93 61 94 62 95 68 96 70 97
REMARK SMILES IDX 63 98 64 99 65 100 66 101 67 102
REMARK H PARENT 25 5 20 28 29 33 91 52 57 63
REMARK Flexibility Score: inf
ROOT
ATOM      1  C   UNL A   1      33.282  27.618  25.926  1.00  0.00     0.117 C 
ENDROOT
BRANCH   1   2
ATOM      2  N   UNL A   1      33.508  27.144  24.579  1.00  0.00    -0.354 N 
ATOM      3  C   UNL A   1      33.584  25.866  24.119  1.00  0.00     0.242 C 
ATOM      4  O   UNL A   1      33.769  25.745  22.901  1.00  0.00    -0.273 OA
ATOM      5  H   UNL A   1      33.624  27.845  23.898  1.00  0.00     0.163 HD
BRANCH   3   6
ATOM      6  C   UNL A   1      33.503  24.626  25.069  1.00  0.00     0.177 C 
ATOM      7  N   UNL A   1      34.539  23.644  24.638  1.00  0.00    -0.329 N 
ATOM      8  C   UNL A   1      34.258  23.000  23.349  1.00  0.00     0.123 C 
ATOM      9  C   UNL A   1      32.906  22.289  23.366  1.00  0.00     0.053 C 
ATOM     10  C   UNL A   1      32.175  23.870  25.167  1.00  0.00     0.067 C 
ATOM     11  C   UNL A   1      31.787  23.196  23.856  1.00  0.00     0.118 C 
BRANCH   7  12
ATOM     12  C   UNL A   1      35.600  23.395  25.493  1.00  0.00     0.243 C 
ATOM     13  O   UNL A   1      35.388  22.970  26.637  1.00  0.00    -0.273 OA
BRANCH  12  14
ATOM     14  C   UNL A   1      37.033  23.784  25.158  1.00  0.00     0.222 C 
BRANCH  14  15
ATOM     15  N   UNL A   1      38.116  23.054  25.802  1.00  0.00    -0.334 N 
ATOM     16  C   UNL A   1      37.648  20.825  24.702  1.00  0.00     0.066 C 
ATOM     17  C   UNL A   1      38.452  21.733  25.573  1.00  0.00     0.034 A 
ATOM     18  C   UNL A   1      39.642  21.499  26.248  1.00  0.00     0.080 A 
ATOM     19  C   UNL A   1      39.999  22.683  26.956  1.00  0.00     0.018 A 
ATOM     20  C   UNL A   1      39.005  23.630  26.703  1.00  0.00     0.050 A 
ATOM     21  C   UNL A   1      41.097  23.050  27.765  1.00  0.00     0.012 A 
ATOM     22  C   UNL A   1      39.065  24.928  27.240  1.00  0.00     0.027 A 
ATOM     23  C   UNL A   1      41.168  24.343  28.292  1.00  0.00     0.001 A 
ATOM     24  C   UNL A   1      40.163  25.268  28.034  1.00  0.00     0.002 A 
BRANCH  18  25
ATOM     25  C   UNL A   1      40.398  20.289  26.209  1.00  0.00     0.102 C 
ATOM     26  N   UNL A   1      41.019  19.301  26.194  1.00  0.00    -0.192 NA
ENDBRANCH  18  25
ENDBRANCH  14  15
ENDBRANCH  12  14
ENDBRANCH   7  12
BRANCH  11  27
ATOM     27  O   UNL A   1      31.426  24.159  22.871  1.00  0.00    -0.393 OA
ATOM     28  H   UNL A   1      31.365  23.728  22.005  1.00  0.00     0.210 HD
ENDBRANCH  11  27
ENDBRANCH   3   6
ENDBRANCH   1   2
BRANCH   1  29
ATOM     29  C   UNL A   1      33.563  29.101  26.116  1.00  0.00     0.042 C 
BRANCH  29  30
ATOM     30  C   UNL A   1      33.558  29.601  27.556  1.00  0.00     0.118 C 
BRANCH  30  31
ATOM     31  N   UNL A   1      33.971  30.976  27.726  1.00  0.00    -0.352 N 
ATOM     32  C   UNL A   1      35.193  31.583  27.825  1.00  0.00     0.251 C 
ATOM     33  H   UNL A   1      33.216  31.606  27.782  1.00  0.00     0.163 HD
ATOM     34  O   UNL A   1      35.216  32.787  27.551  1.00  0.00    -0.269 OA
BRANCH  32  35
ATOM     35  C   UNL A   1      36.432  30.943  28.347  1.00  0.00     0.039 A 
ATOM     36  C   UNL A   1      37.464  31.587  29.028  1.00  0.00     0.014 A 
ATOM     37  C   UNL A   1      36.615  29.597  27.973  1.00  0.00     0.014 A 
ATOM     38  C   UNL A   1      38.713  30.972  29.132  1.00  0.00     0.010 A 
ATOM     39  C   UNL A   1      37.842  28.965  28.119  1.00  0.00     0.010 A 
ATOM     40  C   UNL A   1      38.921  29.688  28.601  1.00  0.00    -0.014 A 
BRANCH  40  41
ATOM     41  C   UNL A   1      40.229  29.041  28.754  1.00  0.00     0.031 A 
ATOM     42  C   UNL A   1      40.497  28.733  30.185  1.00  0.00     0.074 A 
ATOM     43  C   UNL A   1      41.054  28.693  27.732  1.00  0.00     0.049 A 
ATOM     44  N   UNL A   1      41.294  29.376  30.973  1.00  0.00    -0.248 NA
ATOM     45  C   UNL A   1      39.609  27.795  30.896  1.00  0.00     0.031 C 
ATOM     46  C   UNL A   1      40.801  28.784  26.288  1.00  0.00     0.029 A 
ATOM     47  N   UNL A   1      42.308  28.130  27.767  1.00  0.00    -0.354 N 
ATOM     48  C   UNL A   1      41.229  28.718  32.198  1.00  0.00     0.074 A 
ATOM     49  C   UNL A   1      40.039  27.916  32.156  1.00  0.00     0.031 C 
ATOM     50  C   UNL A   1      41.749  28.094  25.602  1.00  0.00     0.029 A 
ATOM     51  C   UNL A   1      42.767  27.636  26.530  1.00  0.00     0.049 A 
ATOM     52  H   UNL A   1      42.844  28.077  28.592  1.00  0.00     0.167 HD
ATOM     53  C   UNL A   1      42.333  28.666  32.997  1.00  0.00     0.037 A 
ATOM     54  C   UNL A   1      43.936  26.969  26.287  1.00  0.00     0.037 A 
ATOM     55  C   UNL A   1      43.302  29.638  32.555  1.00  0.00     0.049 A 
ATOM     56  C   UNL A   1      44.847  27.344  27.390  1.00  0.00     0.074 A 
ATOM     57  C   UNL A   1      43.446  31.007  32.612  1.00  0.00     0.029 A 
ATOM     58  N   UNL A   1      44.069  29.186  31.515  1.00  0.00    -0.354 N 
ATOM     59  N   UNL A   1      45.316  28.551  27.545  1.00  0.00    -0.248 NA
ATOM     60  C   UNL A   1      44.905  26.483  28.561  1.00  0.00     0.031 C 
ATOM     61  C   UNL A   1      44.181  31.373  31.443  1.00  0.00     0.029 A 
ATOM     62  C   UNL A   1      44.546  30.216  30.757  1.00  0.00     0.049 A 
ATOM     63  H   UNL A   1      44.254  28.235  31.336  1.00  0.00     0.167 HD
ATOM     64  C   UNL A   1      45.315  28.739  28.914  1.00  0.00     0.074 A 
ATOM     65  C   UNL A   1      45.194  27.399  29.488  1.00  0.00     0.031 C 
ATOM     66  C   UNL A   1      45.085  29.977  29.437  1.00  0.00     0.037 A 
BRANCH  53  67
ATOM     67  C   UNL A   1      42.766  27.437  33.779  1.00  0.00     0.058 A 
ATOM     68  C   UNL A   1      42.769  27.486  35.190  1.00  0.00     0.135 A 
ATOM     69  C   UNL A   1      43.454  26.339  33.216  1.00  0.00     0.135 A 
ATOM     70  F   UNL A   1      42.170  28.497  35.840  1.00  0.00    -0.206 F 
ATOM     71  C   UNL A   1      43.432  26.539  35.976  1.00  0.00     0.059 A 
ATOM     72  C   UNL A   1      44.085  25.360  33.980  1.00  0.00     0.059 A 
ATOM     73  F   UNL A   1      43.625  26.202  31.896  1.00  0.00    -0.206 F 
ATOM     74  C   UNL A   1      44.090  25.479  35.359  1.00  0.00     0.060 A 
BRANCH  74  75
ATOM     75  S   UNL A   1      44.963  24.270  36.370  1.00  0.00     0.124 S 
ATOM     76  O   UNL A   1      44.480  23.012  35.812  1.00  0.00    -0.237 OA
ATOM     77  O   UNL A   1      46.356  24.600  36.091  1.00  0.00    -0.237 OA
ATOM     78  O   UNL A   1      44.513  24.575  37.725  1.00  0.00    -0.744 OA
ENDBRANCH  74  75
ENDBRANCH  53  67
BRANCH  54  79
ATOM     79  C   UNL A   1      44.205  25.725  25.489  1.00  0.00     0.058 A 
ATOM     80  C   UNL A   1      45.520  25.216  25.345  1.00  0.00     0.135 A 
ATOM     81  C   UNL A   1      43.172  24.824  25.183  1.00  0.00     0.135 A 
ATOM     82  F   UNL A   1      46.579  26.001  25.599  1.00  0.00    -0.206 F 
ATOM     83  C   UNL A   1      45.785  23.872  25.031  1.00  0.00     0.059 A 
ATOM     84  C   UNL A   1      43.412  23.482  24.868  1.00  0.00     0.059 A 
ATOM     85  F   UNL A   1      41.889  25.202  25.282  1.00  0.00    -0.206 F 
ATOM     86  C   UNL A   1      44.718  23.001  24.835  1.00  0.00     0.060 A 
BRANCH  86  87
ATOM     87  S   UNL A   1      45.031  21.220  24.673  1.00  0.00     0.124 S 
ATOM     88  O   UNL A   1      44.146  20.659  25.689  1.00  0.00    -0.237 OA
ATOM     89  O   UNL A   1      44.652  20.964  23.289  1.00  0.00    -0.237 OA
ATOM     90  O   UNL A   1      46.459  21.101  24.957  1.00  0.00    -0.744 OA
ENDBRANCH  86  87
ENDBRANCH  54  79
BRANCH  66  91
ATOM     91  C   UNL A   1      45.324  31.167  28.554  1.00  0.00     0.058 A 
ATOM     92  C   UNL A   1      46.567  31.776  28.314  1.00  0.00     0.135 A 
ATOM     93  C   UNL A   1      44.220  31.644  27.833  1.00  0.00     0.135 A 
ATOM     94  F   UNL A   1      47.681  31.329  28.912  1.00  0.00    -0.206 F 
ATOM     95  C   UNL A   1      46.698  32.834  27.408  1.00  0.00     0.059 A 
ATOM     96  C   UNL A   1      44.332  32.673  26.908  1.00  0.00     0.059 A 
ATOM     97  F   UNL A   1      43.016  31.071  27.992  1.00  0.00    -0.206 F 
ATOM     98  C   UNL A   1      45.571  33.272  26.707  1.00  0.00     0.060 A 
BRANCH  98  99
ATOM     99  S   UNL A   1      45.736  34.601  25.496  1.00  0.00     0.124 S 
ATOM    100  O   UNL A   1      45.238  35.756  26.236  1.00  0.00    -0.237 OA
ATOM    101  O   UNL A   1      47.169  34.595  25.217  1.00  0.00    -0.237 OA
ATOM    102  O   UNL A   1      44.892  34.160  24.387  1.00  0.00    -0.744 OA
ENDBRANCH  98  99
ENDBRANCH  66  91
ENDBRANCH  40  41
ENDBRANCH  32  35
ENDBRANCH  30  31
ENDBRANCH  29  30
ENDBRANCH   1  29
TORSDOF 18
ENDMDL
MODEL 2
REMARK VINA RESULT:     -12.5      1.763      2.919
REMARK SMILES Cc1c(C#N)c2ccccc2n1CC(=O)N1CC[C@H](O)C[C@@H]1C(=O)NCCCNC(=O)c1ccc(-c2c3nc(c(-c4c(F)cc(S(=O)(=O)[O-])cc4F)c4ccc([nH]4)c(-c4c(F)cc(S(=O)(=O)[O-])cc4F)c4nc(c(-c5c(F)cc(S(=O)(=O)[O-])cc5F)c5ccc2[nH]5)C=C4)C=C3)cc1
REMARK SMILES IDX 26 1 25 2 23 3 24 4 22 6 16 7 17 8 18 9 21 10 19 11 14 12
REMARK SMILES IDX 15 13 13 14 12 15 1 16 2 17 3 18 6 19 11 20 7 21 10 22 8 23
REMARK SMILES IDX 9 24 4 25 5 26 20 27 27 29 28 30 29 31 30 32 31 34 32 35
REMARK SMILES IDX 33 36 97 37 34 38 96 39 35 40 36 41 37 42 90 43 38 44 95 45
REMARK SMILES IDX 89 46 91 47 39 48 94 49 88 50 87 51 40 53 74 54 53 55 73 56
REMARK SMILES IDX 54 57 57 58 72 59 92 60 55 61 56 62 71 64 93 65 58 66 41 67
REMARK SMILES IDX 42 68 51 69 43 70 44 71 50 72 52 73 45 74 46 75 47 76 48 77
REMARK SMILES IDX 49 78 75 79 76 80 85 81 77 82 78 83 84 84 86 85 79 86 80 87
REMARK SMILES IDX 81 88 82 89 83 90 59 91 60 92 69 93 61 94 62 95 68 96 70 97
REMARK SMILES IDX 63 98 64 99 65 100 66 101 67 102
REMARK H PARENT 25 5 20 28 29 33 91 52 57 63
REMARK Flexibility Score: inf
ROOT
ATOM      1  C   UNL A   1      33.583  29.264  26.065  1.00  0.00     0.117 C 
ENDROOT
BRANCH   1   2
ATOM      2  N   UNL A   1      32.612  29.092  25.008  1.00  0.00    -0.354 N 
ATOM      3  C   UNL A   1      32.350  27.991  24.253  1.00  0.00     0.242 C 
ATOM      4  O   UNL A   1      31.441  28.116  23.421  1.00  0.00    -0.273 OA
ATOM      5  H   UNL A   1      32.061  29.882  24.807  1.00  0.00     0.163 HD
BRANCH   3   6
ATOM      6  C   UNL A   1      33.179  26.670  24.378  1.00  0.00     0.177 C 
ATOM      7  N   UNL A   1      32.577  25.658  23.463  1.00  0.00    -0.329 N 
ATOM      8  C   UNL A   1      31.258  25.175  23.886  1.00  0.00     0.123 C 
ATOM      9  C   UNL A   1      31.307  24.576  25.290  1.00  0.00     0.053 C 
ATOM     10  C   UNL A   1      33.303  26.018  25.758  1.00  0.00     0.067 C 
ATOM     11  C   UNL A   1      31.966  25.515  26.290  1.00  0.00     0.118 C 
BRANCH   7  12
ATOM     12  C   UNL A   1      33.322  25.237  22.373  1.00  0.00     0.243 C 
ATOM     13  O   UNL A   1      33.758  26.066  21.562  1.00  0.00    -0.273 OA
BRANCH  12  14
ATOM     14  C   UNL A   1      33.494  23.767  22.016  1.00  0.00     0.222 C 
BRANCH  14  15
ATOM     15  N   UNL A   1      33.615  22.802  23.100  1.00  0.00    -0.334 N 
ATOM     16  C   UNL A   1      31.478  21.546  22.600  1.00  0.00     0.066 C 
ATOM     17  C   UNL A   1      32.750  21.754  23.354  1.00  0.00     0.034 A 
ATOM     18  C   UNL A   1      33.332  20.986  24.352  1.00  0.00     0.080 A 
ATOM     19  C   UNL A   1      34.542  21.618  24.759  1.00  0.00     0.018 A 
ATOM     20  C   UNL A   1      34.676  22.780  23.997  1.00  0.00     0.050 A 
ATOM     21  C   UNL A   1      35.556  21.292  25.686  1.00  0.00     0.012 A 
ATOM     22  C   UNL A   1      35.786  23.633  24.138  1.00  0.00     0.027 A 
ATOM     23  C   UNL A   1      36.668  22.130  25.822  1.00  0.00     0.001 A 
ATOM     24  C   UNL A   1      36.777  23.287  25.059  1.00  0.00     0.002 A 
BRANCH  18  25
ATOM     25  C   UNL A   1      32.823  19.752  24.857  1.00  0.00     0.102 C 
ATOM     26  N   UNL A   1      32.392  18.747  25.264  1.00  0.00    -0.192 NA
ENDBRANCH  18  25
ENDBRANCH  14  15
ENDBRANCH  12  14
ENDBRANCH   7  12
BRANCH  11  27
ATOM     27  O   UNL A   1      31.109  26.601  26.630  1.00  0.00    -0.393 OA
ATOM     28  H   UNL A   1      30.199  26.279  26.717  1.00  0.00     0.210 HD
ENDBRANCH  11  27
ENDBRANCH   3   6
ENDBRANCH   1   2
BRANCH   1  29
ATOM     29  C   UNL A   1      33.069  30.062  27.254  1.00  0.00     0.042 C 
BRANCH  29  30
ATOM     30  C   UNL A   1      33.695  31.437  27.455  1.00  0.00     0.118 C 
BRANCH  30  31
ATOM     31  N   UNL A   1      34.041  31.757  28.821  1.00  0.00    -0.352 N 
ATOM     32  C   UNL A   1      35.231  31.860  29.488  1.00  0.00     0.251 C 
ATOM     33  H   UNL A   1      33.258  31.938  29.390  1.00  0.00     0.163 HD
ATOM     34  O   UNL A   1      35.210  32.541  30.518  1.00  0.00    -0.269 OA
BRANCH  32  35
ATOM     35  C   UNL A   1      36.480  31.127  29.138  1.00  0.00     0.039 A 
ATOM     36  C   UNL A   1      36.563  29.798  28.728  1.00  0.00     0.014 A 
ATOM     37  C   UNL A   1      37.677  31.823  29.398  1.00  0.00     0.014 A 
ATOM     38  C   UNL A   1      37.788  29.131  28.792  1.00  0.00     0.010 A 
ATOM     39  C   UNL A   1      38.903  31.175  29.415  1.00  0.00     0.010 A 
ATOM     40  C   UNL A   1      38.946  29.805  29.216  1.00  0.00    -0.014 A 
BRANCH  40  41
ATOM     41  C   UNL A   1      40.231  29.098  29.239  1.00  0.00     0.031 A 
ATOM     42  C   UNL A   1      40.678  28.869  30.640  1.00  0.00     0.074 A 
ATOM     43  C   UNL A   1      40.891  28.639  28.144  1.00  0.00     0.049 A 
ATOM     44  N   UNL A   1      41.604  29.517  31.266  1.00  0.00    -0.248 NA
ATOM     45  C   UNL A   1      39.855  28.030  31.529  1.00  0.00     0.031 C 
ATOM     46  C   UNL A   1      40.448  28.650  26.744  1.00  0.00     0.029 A 
ATOM     47  N   UNL A   1      42.112  28.011  28.051  1.00  0.00    -0.354 N 
ATOM     48  C   UNL A   1      41.677  28.945  32.534  1.00  0.00     0.074 A 
ATOM     49  C   UNL A   1      40.458  28.208  32.708  1.00  0.00     0.031 C 
ATOM     50  C   UNL A   1      41.259  27.866  25.989  1.00  0.00     0.029 A 
ATOM     51  C   UNL A   1      42.373  27.414  26.803  1.00  0.00     0.049 A 
ATOM     52  H   UNL A   1      42.752  27.983  28.799  1.00  0.00     0.167 HD
ATOM     53  C   UNL A   1      42.877  28.883  33.179  1.00  0.00     0.037 A 
ATOM     54  C   UNL A   1      43.466  26.669  26.454  1.00  0.00     0.037 A 
ATOM     55  C   UNL A   1      43.820  29.769  32.543  1.00  0.00     0.049 A 
ATOM     56  C   UNL A   1      44.536  27.064  27.396  1.00  0.00     0.074 A 
ATOM     57  C   UNL A   1      44.033  31.129  32.482  1.00  0.00     0.029 A 
ATOM     58  N   UNL A   1      44.416  29.209  31.445  1.00  0.00    -0.354 N 
ATOM     59  N   UNL A   1      45.076  28.251  27.400  1.00  0.00    -0.248 NA
ATOM     60  C   UNL A   1      44.714  26.279  28.608  1.00  0.00     0.031 C 
ATOM     61  C   UNL A   1      44.617  31.378  31.202  1.00  0.00     0.029 A 
ATOM     62  C   UNL A   1      44.831  30.160  30.558  1.00  0.00     0.049 A 
ATOM     63  H   UNL A   1      44.531  28.240  31.311  1.00  0.00     0.167 HD
ATOM     64  C   UNL A   1      45.272  28.527  28.739  1.00  0.00     0.074 A 
ATOM     65  C   UNL A   1      45.169  27.235  29.419  1.00  0.00     0.031 C 
ATOM     66  C   UNL A   1      45.173  29.807  29.199  1.00  0.00     0.037 A 
BRANCH  53  67
ATOM     67  C   UNL A   1      43.357  27.686  33.982  1.00  0.00     0.058 A 
ATOM     68  C   UNL A   1      43.732  27.868  35.331  1.00  0.00     0.135 A 
ATOM     69  C   UNL A   1      43.745  26.452  33.414  1.00  0.00     0.135 A 
ATOM     70  F   UNL A   1      43.442  29.012  35.973  1.00  0.00    -0.206 F 
ATOM     71  C   UNL A   1      44.465  26.916  36.045  1.00  0.00     0.059 A 
ATOM     72  C   UNL A   1      44.438  25.471  34.119  1.00  0.00     0.059 A 
ATOM     73  F   UNL A   1      43.550  26.166  32.122  1.00  0.00    -0.206 F 
ATOM     74  C   UNL A   1      44.815  25.719  35.428  1.00  0.00     0.060 A 
BRANCH  74  75
ATOM     75  S   UNL A   1      45.778  24.500  36.340  1.00  0.00     0.124 S 
ATOM     76  O   UNL A   1      46.104  25.229  37.559  1.00  0.00    -0.237 OA
ATOM     77  O   UNL A   1      44.818  23.410  36.483  1.00  0.00    -0.237 OA
ATOM     78  O   UNL A   1      46.901  24.222  35.449  1.00  0.00    -0.744 OA
ENDBRANCH  74  75
ENDBRANCH  53  67
BRANCH  54  79
ATOM     79  C   UNL A   1      43.566  25.363  25.719  1.00  0.00     0.058 A 
ATOM     80  C   UNL A   1      44.748  24.999  25.027  1.00  0.00     0.135 A 
ATOM     81  C   UNL A   1      42.676  24.311  25.990  1.00  0.00     0.135 A 
ATOM     82  F   UNL A   1      45.656  25.934  24.706  1.00  0.00    -0.206 F 
ATOM     83  C   UNL A   1      45.075  23.665  24.729  1.00  0.00     0.059 A 
ATOM     84  C   UNL A   1      42.980  22.975  25.703  1.00  0.00     0.059 A 
ATOM     85  F   UNL A   1      41.525  24.543  26.638  1.00  0.00    -0.206 F 
ATOM     86  C   UNL A   1      44.199  22.654  25.112  1.00  0.00     0.060 A 
BRANCH  86  87
ATOM     87  S   UNL A   1      44.711  20.918  24.960  1.00  0.00     0.124 S 
ATOM     88  O   UNL A   1      43.687  20.228  25.737  1.00  0.00    -0.237 OA
ATOM     89  O   UNL A   1      44.664  20.707  23.518  1.00  0.00    -0.237 OA
ATOM     90  O   UNL A   1      46.049  20.909  25.545  1.00  0.00    -0.744 OA
ENDBRANCH  86  87
ENDBRANCH  54  79
BRANCH  66  91
ATOM     91  C   UNL A   1      45.342  30.922  28.209  1.00  0.00     0.058 A 
ATOM     92  C   UNL A   1      44.330  31.462  27.398  1.00  0.00     0.135 A 
ATOM     93  C   UNL A   1      46.600  31.539  28.169  1.00  0.00     0.135 A 
ATOM     94  F   UNL A   1      43.082  30.972  27.434  1.00  0.00    -0.206 F 
ATOM     95  C   UNL A   1      44.571  32.559  26.563  1.00  0.00     0.059 A 
ATOM     96  C   UNL A   1      46.854  32.646  27.371  1.00  0.00     0.059 A 
ATOM     97  F   UNL A   1      47.593  31.091  28.955  1.00  0.00    -0.206 F 
ATOM     98  C   UNL A   1      45.839  33.146  26.561  1.00  0.00     0.060 A 
BRANCH  98  99
ATOM     99  S   UNL A   1      46.149  34.595  25.529  1.00  0.00     0.124 S 
ATOM    100  O   UNL A   1      45.316  34.326  24.362  1.00  0.00    -0.237 OA
ATOM    101  O   UNL A   1      45.706  35.691  26.386  1.00  0.00    -0.237 OA
ATOM    102  O   UNL A   1      47.590  34.543  25.291  1.00  0.00    -0.744 OA
ENDBRANCH  98  99
ENDBRANCH  66  91
ENDBRANCH  40  41
ENDBRANCH  32  35
ENDBRANCH  30  31
ENDBRANCH  29  30
ENDBRANCH   1  29
TORSDOF 18
ENDMDL
MODEL 3
REMARK VINA RESULT:     -12.4      2.839      9.781
REMARK SMILES Cc1c(C#N)c2ccccc2n1CC(=O)N1CC[C@H](O)C[C@@H]1C(=O)NCCCNC(=O)c1ccc(-c2c3nc(c(-c4c(F)cc(S(=O)(=O)[O-])cc4F)c4ccc([nH]4)c(-c4c(F)cc(S(=O)(=O)[O-])cc4F)c4nc(c(-c5c(F)cc(S(=O)(=O)[O-])cc5F)c5ccc2[nH]5)C=C4)C=C3)cc1
REMARK SMILES IDX 26 1 25 2 23 3 24 4 22 6 16 7 17 8 18 9 21 10 19 11 14 12
REMARK SMILES IDX 15 13 13 14 12 15 1 16 2 17 3 18 6 19 11 20 7 21 10 22 8 23
REMARK SMILES IDX 9 24 4 25 5 26 20 27 27 29 28 30 29 31 30 32 31 34 32 35
REMARK SMILES IDX 33 36 97 37 34 38 96 39 35 40 36 41 37 42 90 43 38 44 95 45
REMARK SMILES IDX 89 46 91 47 39 48 94 49 88 50 87 51 40 53 74 54 53 55 73 56
REMARK SMILES IDX 54 57 57 58 72 59 92 60 55 61 56 62 71 64 93 65 58 66 41 67
REMARK SMILES IDX 42 68 51 69 43 70 44 71 50 72 52 73 45 74 46 75 47 76 48 77
REMARK SMILES IDX 49 78 75 79 76 80 85 81 77 82 78 83 84 84 86 85 79 86 80 87
REMARK SMILES IDX 81 88 82 89 83 90 59 91 60 92 69 93 61 94 62 95 68 96 70 97
REMARK SMILES IDX 63 98 64 99 65 100 66 101 67 102
REMARK H PARENT 25 5 20 28 29 33 91 52 57 63
REMARK Flexibility Score: inf
ROOT
ATOM      1  C   UNL A   1      37.438  22.975  25.634  1.00  0.00     0.117 C 
ENDROOT
BRANCH   1   2
ATOM      2  N   UNL A   1      36.432  22.952  26.673  1.00  0.00    -0.354 N 
ATOM      3  C   UNL A   1      35.080  23.050  26.561  1.00  0.00     0.242 C 
ATOM      4  O   UNL A   1      34.448  22.980  27.625  1.00  0.00    -0.273 OA
ATOM      5  H   UNL A   1      36.774  22.850  27.590  1.00  0.00     0.163 HD
BRANCH   3   6
ATOM      6  C   UNL A   1      34.366  23.296  25.192  1.00  0.00     0.177 C 
ATOM      7  N   UNL A   1      32.904  23.437  25.451  1.00  0.00    -0.329 N 
ATOM      8  C   UNL A   1      32.245  22.193  25.865  1.00  0.00     0.123 C 
ATOM      9  C   UNL A   1      32.440  21.088  24.829  1.00  0.00     0.053 C 
ATOM     10  C   UNL A   1      34.532  22.250  24.087  1.00  0.00     0.067 C 
ATOM     11  C   UNL A   1      33.904  20.910  24.449  1.00  0.00     0.118 C 
BRANCH   7  12
ATOM     12  C   UNL A   1      32.315  24.670  25.223  1.00  0.00     0.243 C 
ATOM     13  O   UNL A   1      31.162  24.890  25.619  1.00  0.00    -0.273 OA
BRANCH  12  14
ATOM     14  C   UNL A   1      32.956  25.735  24.343  1.00  0.00     0.222 C 
BRANCH  14  15
ATOM     15  N   UNL A   1      32.453  27.099  24.432  1.00  0.00    -0.334 N 
ATOM     16  C   UNL A   1      30.815  26.920  22.514  1.00  0.00     0.066 C 
ATOM     17  C   UNL A   1      31.447  27.644  23.656  1.00  0.00     0.034 A 
ATOM     18  C   UNL A   1      31.162  28.893  24.189  1.00  0.00     0.080 A 
ATOM     19  C   UNL A   1      32.059  29.138  25.268  1.00  0.00     0.018 A 
ATOM     20  C   UNL A   1      32.892  28.023  25.373  1.00  0.00     0.050 A 
ATOM     21  C   UNL A   1      32.220  30.195  26.190  1.00  0.00     0.012 A 
ATOM     22  C   UNL A   1      33.888  27.933  26.362  1.00  0.00     0.027 A 
ATOM     23  C   UNL A   1      33.201  30.106  27.184  1.00  0.00     0.001 A 
ATOM     24  C   UNL A   1      34.025  28.990  27.265  1.00  0.00     0.002 A 
BRANCH  18  25
ATOM     25  C   UNL A   1      30.121  29.767  23.754  1.00  0.00     0.102 C 
ATOM     26  N   UNL A   1      29.280  30.488  23.386  1.00  0.00    -0.192 NA
ENDBRANCH  18  25
ENDBRANCH  14  15
ENDBRANCH  12  14
ENDBRANCH   7  12
BRANCH  11  27
ATOM     27  O   UNL A   1      34.637  20.263  25.484  1.00  0.00    -0.393 OA
ATOM     28  H   UNL A   1      34.136  19.497  25.805  1.00  0.00     0.210 HD
ENDBRANCH  11  27
ENDBRANCH   3   6
ENDBRANCH   1   2
BRANCH   1  29
ATOM     29  C   UNL A   1      38.488  21.881  25.764  1.00  0.00     0.042 C 
BRANCH  29  30
ATOM     30  C   UNL A   1      39.752  22.259  26.529  1.00  0.00     0.118 C 
BRANCH  30  31
ATOM     31  N   UNL A   1      40.950  22.335  25.725  1.00  0.00    -0.352 N 
ATOM     32  C   UNL A   1      42.079  23.105  25.795  1.00  0.00     0.251 C 
ATOM     33  H   UNL A   1      40.956  21.702  24.971  1.00  0.00     0.163 HD
ATOM     34  O   UNL A   1      43.073  22.650  25.223  1.00  0.00    -0.269 OA
BRANCH  32  35
ATOM     35  C   UNL A   1      42.154  24.471  26.386  1.00  0.00     0.039 A 
ATOM     36  C   UNL A   1      42.896  24.840  27.507  1.00  0.00     0.014 A 
ATOM     37  C   UNL A   1      41.270  25.415  25.829  1.00  0.00     0.014 A 
ATOM     38  C   UNL A   1      42.597  26.030  28.172  1.00  0.00     0.010 A 
ATOM     39  C   UNL A   1      41.006  26.622  26.461  1.00  0.00     0.010 A 
ATOM     40  C   UNL A   1      41.590  26.883  27.689  1.00  0.00    -0.014 A 
BRANCH  40  41
ATOM     41  C   UNL A   1      41.317  28.148  28.379  1.00  0.00     0.031 A 
ATOM     42  C   UNL A   1      42.379  29.148  28.081  1.00  0.00     0.074 A 
ATOM     43  C   UNL A   1      40.211  28.411  29.122  1.00  0.00     0.049 A 
ATOM     44  N   UNL A   1      43.333  29.514  28.871  1.00  0.00    -0.248 NA
ATOM     45  C   UNL A   1      42.574  29.595  26.690  1.00  0.00     0.031 C 
ATOM     46  C   UNL A   1      39.027  27.565  29.323  1.00  0.00     0.029 A 
ATOM     47  N   UNL A   1      39.881  29.537  29.841  1.00  0.00    -0.354 N 
ATOM     48  C   UNL A   1      44.062  30.470  28.169  1.00  0.00     0.074 A 
ATOM     49  C   UNL A   1      43.694  30.317  26.790  1.00  0.00     0.031 C 
ATOM     50  C   UNL A   1      38.031  28.281  29.904  1.00  0.00     0.029 A 
ATOM     51  C   UNL A   1      38.538  29.594  30.264  1.00  0.00     0.049 A 
ATOM     52  H   UNL A   1      40.533  30.246  30.045  1.00  0.00     0.167 HD
ATOM     53  C   UNL A   1      44.656  31.495  28.844  1.00  0.00     0.037 A 
ATOM     54  C   UNL A   1      37.922  30.618  30.928  1.00  0.00     0.037 A 
ATOM     55  C   UNL A   1      44.706  31.190  30.252  1.00  0.00     0.049 A 
ATOM     56  C   UNL A   1      39.006  31.373  31.593  1.00  0.00     0.074 A 
ATOM     57  C   UNL A   1      45.436  30.357  31.072  1.00  0.00     0.029 A 
ATOM     58  N   UNL A   1      43.535  31.483  30.899  1.00  0.00    -0.354 N 
ATOM     59  N   UNL A   1      39.718  30.882  32.568  1.00  0.00    -0.248 NA
ATOM     60  C   UNL A   1      39.578  32.517  30.898  1.00  0.00     0.031 C 
ATOM     61  C   UNL A   1      44.568  30.013  32.153  1.00  0.00     0.029 A 
ATOM     62  C   UNL A   1      43.371  30.714  32.015  1.00  0.00     0.049 A 
ATOM     63  H   UNL A   1      42.891  32.164  30.596  1.00  0.00     0.167 HD
ATOM     64  C   UNL A   1      40.992  31.358  32.326  1.00  0.00     0.074 A 
ATOM     65  C   UNL A   1      40.820  32.463  31.383  1.00  0.00     0.031 C 
ATOM     66  C   UNL A   1      42.081  30.606  32.657  1.00  0.00     0.037 A 
BRANCH  53  67
ATOM     67  C   UNL A   1      44.685  32.935  28.360  1.00  0.00     0.058 A 
ATOM     68  C   UNL A   1      45.926  33.527  28.034  1.00  0.00     0.135 A 
ATOM     69  C   UNL A   1      43.606  33.838  28.486  1.00  0.00     0.135 A 
ATOM     70  F   UNL A   1      47.031  32.774  27.912  1.00  0.00    -0.206 F 
ATOM     71  C   UNL A   1      46.086  34.907  27.884  1.00  0.00     0.059 A 
ATOM     72  C   UNL A   1      43.734  35.212  28.299  1.00  0.00     0.059 A 
ATOM     73  F   UNL A   1      42.390  33.448  28.884  1.00  0.00    -0.206 F 
ATOM     74  C   UNL A   1      44.982  35.743  28.020  1.00  0.00     0.060 A 
BRANCH  74  75
ATOM     75  S   UNL A   1      45.192  37.524  27.847  1.00  0.00     0.124 S 
ATOM     76  O   UNL A   1      45.947  37.853  29.050  1.00  0.00    -0.237 OA
ATOM     77  O   UNL A   1      45.922  37.616  26.588  1.00  0.00    -0.237 OA
ATOM     78  O   UNL A   1      43.820  38.022  27.805  1.00  0.00    -0.744 OA
ENDBRANCH  74  75
ENDBRANCH  53  67
BRANCH  54  79
ATOM     79  C   UNL A   1      36.591  31.276  30.694  1.00  0.00     0.058 A 
ATOM     80  C   UNL A   1      35.922  31.967  31.733  1.00  0.00     0.135 A 
ATOM     81  C   UNL A   1      36.144  31.560  29.393  1.00  0.00     0.135 A 
ATOM     82  F   UNL A   1      36.264  31.755  33.014  1.00  0.00    -0.206 F 
ATOM     83  C   UNL A   1      34.956  32.958  31.489  1.00  0.00     0.059 A 
ATOM     84  C   UNL A   1      35.184  32.542  29.125  1.00  0.00     0.059 A 
ATOM     85  F   UNL A   1      36.705  30.958  28.334  1.00  0.00    -0.206 F 
ATOM     86  C   UNL A   1      34.624  33.267  30.173  1.00  0.00     0.060 A 
BRANCH  86  87
ATOM     87  S   UNL A   1      33.568  34.704  29.827  1.00  0.00     0.124 S 
ATOM     88  O   UNL A   1      33.064  35.040  31.154  1.00  0.00    -0.237 OA
ATOM     89  O   UNL A   1      34.515  35.651  29.249  1.00  0.00    -0.237 OA
ATOM     90  O   UNL A   1      32.574  34.176  28.898  1.00  0.00    -0.744 OA
ENDBRANCH  86  87
ENDBRANCH  54  79
BRANCH  66  91
ATOM     91  C   UNL A   1      41.905  29.535  33.694  1.00  0.00     0.058 A 
ATOM     92  C   UNL A   1      41.452  28.226  33.454  1.00  0.00     0.135 A 
ATOM     93  C   UNL A   1      42.325  29.846  34.994  1.00  0.00     0.135 A 
ATOM     94  F   UNL A   1      41.101  27.832  32.221  1.00  0.00    -0.206 F 
ATOM     95  C   UNL A   1      41.400  27.274  34.478  1.00  0.00     0.059 A 
ATOM     96  C   UNL A   1      42.309  28.909  36.018  1.00  0.00     0.059 A 
ATOM     97  F   UNL A   1      42.806  31.069  35.270  1.00  0.00    -0.206 F 
ATOM     98  C   UNL A   1      41.835  27.628  35.758  1.00  0.00     0.060 A 
BRANCH  98  99
ATOM     99  S   UNL A   1      41.823  26.393  37.076  1.00  0.00     0.124 S 
ATOM    100  O   UNL A   1      42.943  26.820  37.908  1.00  0.00    -0.237 OA
ATOM    101  O   UNL A   1      40.496  26.571  37.659  1.00  0.00    -0.237 OA
ATOM    102  O   UNL A   1      42.019  25.132  36.365  1.00  0.00    -0.744 OA
ENDBRANCH  98  99
ENDBRANCH  66  91
ENDBRANCH  40  41
ENDBRANCH  32  35
ENDBRANCH  30  31
ENDBRANCH  29  30
ENDBRANCH   1  29
TORSDOF 18
ENDMDL
