MODEL 1
REMARK VINA RESULT:     -11.0      0.000      0.000
REMARK SMILES CCOC(=O)[C@H]1CCCN(C(=O)N[C@](C)(CC)C(=O)NCCCNC(=O)c2ccc(-c3c4nc(c(-c5c(F)cc(S(=O)(=O)[O-])cc5F)c5ccc([nH]5)c(-c5c(F)cc(S(=O)(=O)[O-])cc5F)c5nc(c(-c6c(F)cc(S(=O)(=O)[O-])cc6F)c6ccc3[nH]6)C=C5)C=C4)cc2)C1
REMARK SMILES IDX 21 1 20 2 18 3 19 4 14 6 15 7 13 8 11 9 12 10 10 12 6 13
REMARK SMILES IDX 7 14 93 15 8 16 9 17 4 18 5 19 3 20 2 21 1 22 16 23 17 24
REMARK SMILES IDX 22 25 23 26 24 27 25 28 26 30 27 31 28 32 92 33 29 34 91 35
REMARK SMILES IDX 30 36 31 37 32 38 85 39 33 40 90 41 84 42 86 43 34 44 89 45
REMARK SMILES IDX 83 46 82 47 35 49 69 50 48 51 68 52 49 53 52 54 67 55 87 56
REMARK SMILES IDX 50 57 51 58 66 60 88 61 53 62 36 63 37 64 46 65 38 66 39 67
REMARK SMILES IDX 45 68 47 69 40 70 41 71 42 72 43 73 44 74 70 75 71 76 80 77
REMARK SMILES IDX 72 78 73 79 79 80 81 81 74 82 75 83 76 84 77 85 78 86 54 87
REMARK SMILES IDX 55 88 64 89 56 90 57 91 63 92 65 93 58 94 59 95 60 96 61 97
REMARK SMILES IDX 62 98
REMARK H PARENT 20 5 13 11 24 29 86 48 52 59
REMARK Flexibility Score: inf
ROOT
ATOM      1  C   UNL A   1      34.106  25.999  25.701  1.00  0.00     0.117 C 
ENDROOT
BRANCH   1   2
ATOM      2  N   UNL A   1      33.233  24.887  26.020  1.00  0.00    -0.354 N 
ATOM      3  C   UNL A   1      33.042  23.661  25.469  1.00  0.00     0.245 C 
ATOM      4  O   UNL A   1      32.133  23.008  26.005  1.00  0.00    -0.272 OA
ATOM      5  H   UNL A   1      32.656  25.057  26.799  1.00  0.00     0.163 HD
BRANCH   3   6
ATOM      6  C   UNL A   1      33.727  23.147  24.144  1.00  0.00     0.117 C 
ATOM      7  C   UNL A   1      35.259  23.012  24.430  1.00  0.00     0.045 C 
BRANCH   6   8
ATOM      8  N   UNL A   1      33.640  24.159  23.038  1.00  0.00    -0.324 N 
ATOM      9  C   UNL A   1      32.961  25.119  22.413  1.00  0.00     0.318 C 
ATOM     10  O   UNL A   1      33.673  25.712  21.587  1.00  0.00    -0.249 OA
ATOM     11  H   UNL A   1      34.483  24.070  22.538  1.00  0.00     0.166 HD
BRANCH   9  12
ATOM     12  N   UNL A   1      31.679  25.508  22.612  1.00  0.00    -0.324 N 
ATOM     13  C   UNL A   1      30.657  27.687  23.302  1.00  0.00     0.119 C 
ATOM     14  C   UNL A   1      29.708  26.897  24.226  1.00  0.00     0.019 C 
ATOM     15  C   UNL A   1      31.292  26.853  22.171  1.00  0.00     0.136 C 
ATOM     16  C   UNL A   1      30.118  25.444  24.449  1.00  0.00     0.023 C 
ATOM     17  C   UNL A   1      30.520  24.807  23.131  1.00  0.00     0.121 C 
BRANCH  13  18
ATOM     18  C   UNL A   1      29.883  28.822  22.664  1.00  0.00     0.310 C 
ATOM     19  O   UNL A   1      30.196  29.377  21.614  1.00  0.00    -0.252 OA
BRANCH  18  20
ATOM     20  O   UNL A   1      28.773  29.117  23.392  1.00  0.00    -0.466 OA
BRANCH  20  21
ATOM     21  C   UNL A   1      27.812  29.952  22.727  1.00  0.00     0.229 C 
ATOM     22  C   UNL A   1      27.607  31.245  23.496  1.00  0.00     0.049 C 
ENDBRANCH  20  21
ENDBRANCH  18  20
ENDBRANCH  13  18
ENDBRANCH   9  12
ENDBRANCH   6   8
BRANCH   6  23
ATOM     23  C   UNL A   1      33.160  21.761  23.816  1.00  0.00     0.035 C 
ATOM     24  C   UNL A   1      32.190  21.631  22.649  1.00  0.00     0.007 C 
ENDBRANCH   6  23
ENDBRANCH   3   6
ENDBRANCH   1   2
BRANCH   1  25
ATOM     25  C   UNL A   1      33.535  27.333  26.159  1.00  0.00     0.042 C 
BRANCH  25  26
ATOM     26  C   UNL A   1      34.161  28.559  25.507  1.00  0.00     0.118 C 
BRANCH  26  27
ATOM     27  N   UNL A   1      33.722  29.803  26.119  1.00  0.00    -0.352 N 
ATOM     28  C   UNL A   1      34.158  30.486  27.226  1.00  0.00     0.251 C 
ATOM     29  H   UNL A   1      32.971  30.236  25.651  1.00  0.00     0.163 HD
ATOM     30  O   UNL A   1      33.459  31.409  27.643  1.00  0.00    -0.269 OA
BRANCH  28  31
ATOM     31  C   UNL A   1      35.419  30.148  27.935  1.00  0.00     0.039 A 
ATOM     32  C   UNL A   1      36.631  30.426  27.290  1.00  0.00     0.014 A 
ATOM     33  C   UNL A   1      35.446  29.495  29.169  1.00  0.00     0.014 A 
ATOM     34  C   UNL A   1      37.846  30.091  27.895  1.00  0.00     0.010 A 
ATOM     35  C   UNL A   1      36.661  29.257  29.820  1.00  0.00     0.010 A 
ATOM     36  C   UNL A   1      37.877  29.534  29.184  1.00  0.00    -0.014 A 
BRANCH  36  37
ATOM     37  C   UNL A   1      39.175  29.240  29.852  1.00  0.00     0.031 A 
ATOM     38  C   UNL A   1      39.607  30.002  31.079  1.00  0.00     0.074 A 
ATOM     39  C   UNL A   1      39.979  28.286  29.339  1.00  0.00     0.049 A 
ATOM     40  N   UNL A   1      40.688  29.857  31.804  1.00  0.00    -0.248 NA
ATOM     41  C   UNL A   1      38.723  31.085  31.544  1.00  0.00     0.031 C 
ATOM     42  C   UNL A   1      39.708  27.520  28.120  1.00  0.00     0.029 A 
ATOM     43  N   UNL A   1      41.182  27.789  29.778  1.00  0.00    -0.354 N 
ATOM     44  C   UNL A   1      40.617  30.826  32.800  1.00  0.00     0.074 A 
ATOM     45  C   UNL A   1      39.419  31.595  32.551  1.00  0.00     0.031 C 
ATOM     46  C   UNL A   1      40.687  26.621  27.936  1.00  0.00     0.029 A 
ATOM     47  C   UNL A   1      41.677  26.771  28.996  1.00  0.00     0.049 A 
ATOM     48  H   UNL A   1      41.645  28.130  30.577  1.00  0.00     0.167 HD
ATOM     49  C   UNL A   1      41.457  31.038  33.843  1.00  0.00     0.037 A 
ATOM     50  C   UNL A   1      42.801  26.038  29.120  1.00  0.00     0.037 A 
ATOM     51  C   UNL A   1      42.641  30.256  34.098  1.00  0.00     0.049 A 
ATOM     52  C   UNL A   1      43.711  26.288  30.291  1.00  0.00     0.074 A 
ATOM     53  C   UNL A   1      43.527  30.355  35.158  1.00  0.00     0.029 A 
ATOM     54  N   UNL A   1      43.107  29.231  33.286  1.00  0.00    -0.354 N 
ATOM     55  N   UNL A   1      43.586  27.161  31.262  1.00  0.00    -0.248 NA
ATOM     56  C   UNL A   1      44.908  25.443  30.390  1.00  0.00     0.031 C 
ATOM     57  C   UNL A   1      44.556  29.427  34.959  1.00  0.00     0.029 A 
ATOM     58  C   UNL A   1      44.280  28.708  33.807  1.00  0.00     0.049 A 
ATOM     59  H   UNL A   1      42.668  28.922  32.462  1.00  0.00     0.167 HD
ATOM     60  C   UNL A   1      44.679  26.957  32.097  1.00  0.00     0.074 A 
ATOM     61  C   UNL A   1      45.434  25.857  31.533  1.00  0.00     0.031 C 
ATOM     62  C   UNL A   1      45.029  27.621  33.228  1.00  0.00     0.037 A 
BRANCH  49  63
ATOM     63  C   UNL A   1      41.125  32.156  34.798  1.00  0.00     0.058 A 
ATOM     64  C   UNL A   1      40.311  31.948  35.924  1.00  0.00     0.135 A 
ATOM     65  C   UNL A   1      41.668  33.438  34.617  1.00  0.00     0.135 A 
ATOM     66  F   UNL A   1      39.752  30.746  36.143  1.00  0.00    -0.206 F 
ATOM     67  C   UNL A   1      40.028  32.974  36.820  1.00  0.00     0.059 A 
ATOM     68  C   UNL A   1      41.423  34.473  35.517  1.00  0.00     0.059 A 
ATOM     69  F   UNL A   1      42.453  33.697  33.558  1.00  0.00    -0.206 F 
ATOM     70  C   UNL A   1      40.592  34.233  36.610  1.00  0.00     0.060 A 
BRANCH  70  71
ATOM     71  S   UNL A   1      40.229  35.547  37.793  1.00  0.00     0.124 S 
ATOM     72  O   UNL A   1      39.885  36.653  36.904  1.00  0.00    -0.237 OA
ATOM     73  O   UNL A   1      39.122  34.981  38.557  1.00  0.00    -0.237 OA
ATOM     74  O   UNL A   1      41.481  35.701  38.527  1.00  0.00    -0.744 OA
ENDBRANCH  70  71
ENDBRANCH  49  63
BRANCH  50  75
ATOM     75  C   UNL A   1      43.116  24.982  28.118  1.00  0.00     0.058 A 
ATOM     76  C   UNL A   1      42.829  23.633  28.370  1.00  0.00     0.135 A 
ATOM     77  C   UNL A   1      43.709  25.304  26.886  1.00  0.00     0.135 A 
ATOM     78  F   UNL A   1      42.267  23.273  29.535  1.00  0.00    -0.206 F 
ATOM     79  C   UNL A   1      43.139  22.635  27.452  1.00  0.00     0.059 A 
ATOM     80  C   UNL A   1      44.000  24.328  25.938  1.00  0.00     0.059 A 
ATOM     81  F   UNL A   1      43.987  26.581  26.586  1.00  0.00    -0.206 F 
ATOM     82  C   UNL A   1      43.724  22.995  26.236  1.00  0.00     0.060 A 
BRANCH  82  83
ATOM     83  S   UNL A   1      44.084  21.700  25.030  1.00  0.00     0.124 S 
ATOM     84  O   UNL A   1      43.924  22.417  23.771  1.00  0.00    -0.237 OA
ATOM     85  O   UNL A   1      45.448  21.323  25.383  1.00  0.00    -0.237 OA
ATOM     86  O   UNL A   1      43.070  20.688  25.315  1.00  0.00    -0.744 OA
ENDBRANCH  82  83
ENDBRANCH  50  75
BRANCH  62  87
ATOM     87  C   UNL A   1      46.274  27.156  33.935  1.00  0.00     0.058 A 
ATOM     88  C   UNL A   1      46.234  26.156  34.921  1.00  0.00     0.135 A 
ATOM     89  C   UNL A   1      47.523  27.717  33.624  1.00  0.00     0.135 A 
ATOM     90  F   UNL A   1      45.067  25.586  35.258  1.00  0.00    -0.206 F 
ATOM     91  C   UNL A   1      47.378  25.768  35.610  1.00  0.00     0.059 A 
ATOM     92  C   UNL A   1      48.686  27.320  34.277  1.00  0.00     0.059 A 
ATOM     93  F   UNL A   1      47.623  28.666  32.680  1.00  0.00    -0.206 F 
ATOM     94  C   UNL A   1      48.600  26.362  35.286  1.00  0.00     0.060 A 
BRANCH  94  95
ATOM     95  S   UNL A   1      50.073  25.865  36.200  1.00  0.00     0.124 S 
ATOM     96  O   UNL A   1      50.209  24.468  35.800  1.00  0.00    -0.237 OA
ATOM     97  O   UNL A   1      51.088  26.775  35.677  1.00  0.00    -0.237 OA
ATOM     98  O   UNL A   1      49.701  26.085  37.594  1.00  0.00    -0.744 OA
ENDBRANCH  94  95
ENDBRANCH  62  87
ENDBRANCH  36  37
ENDBRANCH  28  31
ENDBRANCH  26  27
ENDBRANCH  25  26
ENDBRANCH   1  25
TORSDOF 19
ENDMDL
MODEL 2
REMARK VINA RESULT:     -11.0      3.179      8.513
REMARK SMILES CCOC(=O)[C@H]1CCCN(C(=O)N[C@](C)(CC)C(=O)NCCCNC(=O)c2ccc(-c3c4nc(c(-c5c(F)cc(S(=O)(=O)[O-])cc5F)c5ccc([nH]5)c(-c5c(F)cc(S(=O)(=O)[O-])cc5F)c5nc(c(-c6c(F)cc(S(=O)(=O)[O-])cc6F)c6ccc3[nH]6)C=C5)C=C4)cc2)C1
REMARK SMILES IDX 21 1 20 2 18 3 19 4 14 6 15 7 13 8 11 9 12 10 10 12 6 13
REMARK SMILES IDX 7 14 93 15 8 16 9 17 4 18 5 19 3 20 2 21 1 22 16 23 17 24
REMARK SMILES IDX 22 25 23 26 24 27 25 28 26 30 27 31 28 32 92 33 29 34 91 35
REMARK SMILES IDX 30 36 31 37 32 38 85 39 33 40 90 41 84 42 86 43 34 44 89 45
REMARK SMILES IDX 83 46 82 47 35 49 69 50 48 51 68 52 49 53 52 54 67 55 87 56
REMARK SMILES IDX 50 57 51 58 66 60 88 61 53 62 36 63 37 64 46 65 38 66 39 67
REMARK SMILES IDX 45 68 47 69 40 70 41 71 42 72 43 73 44 74 70 75 71 76 80 77
REMARK SMILES IDX 72 78 73 79 79 80 81 81 74 82 75 83 76 84 77 85 78 86 54 87
REMARK SMILES IDX 55 88 64 89 56 90 57 91 63 92 65 93 58 94 59 95 60 96 61 97
REMARK SMILES IDX 62 98
REMARK H PARENT 20 5 13 11 24 29 86 48 52 59
REMARK Flexibility Score: inf
ROOT
ATOM      1  C   UNL A   1      34.035  26.771  24.695  1.00  0.00     0.117 C 
ENDROOT
BRANCH   1   2
ATOM      2  N   UNL A   1      33.464  25.730  25.525  1.00  0.00    -0.354 N 
ATOM      3  C   UNL A   1      33.384  24.379  25.407  1.00  0.00     0.245 C 
ATOM      4  O   UNL A   1      32.742  23.835  26.320  1.00  0.00    -0.272 OA
ATOM      5  H   UNL A   1      33.044  26.074  26.347  1.00  0.00     0.163 HD
BRANCH   3   6
ATOM      6  C   UNL A   1      33.852  23.551  24.150  1.00  0.00     0.117 C 
ATOM      7  C   UNL A   1      35.415  23.480  24.191  1.00  0.00     0.045 C 
BRANCH   6   8
ATOM      8  N   UNL A   1      33.543  24.261  22.863  1.00  0.00    -0.324 N 
ATOM      9  C   UNL A   1      32.741  25.053  22.154  1.00  0.00     0.318 C 
ATOM     10  O   UNL A   1      33.278  25.408  21.093  1.00  0.00    -0.249 OA
ATOM     11  H   UNL A   1      34.283  24.032  22.256  1.00  0.00     0.166 HD
BRANCH   9  12
ATOM     12  N   UNL A   1      31.507  25.508  22.481  1.00  0.00    -0.324 N 
ATOM     13  C   UNL A   1      30.670  27.748  23.220  1.00  0.00     0.119 C 
ATOM     14  C   UNL A   1      29.791  27.025  24.262  1.00  0.00     0.019 C 
ATOM     15  C   UNL A   1      31.138  26.861  22.050  1.00  0.00     0.136 C 
ATOM     16  C   UNL A   1      30.155  25.558  24.476  1.00  0.00     0.023 C 
ATOM     17  C   UNL A   1      30.380  24.876  23.139  1.00  0.00     0.121 C 
BRANCH  13  18
ATOM     18  C   UNL A   1      29.884  28.907  22.640  1.00  0.00     0.310 C 
ATOM     19  O   UNL A   1      30.173  29.495  21.602  1.00  0.00    -0.252 OA
BRANCH  18  20
ATOM     20  O   UNL A   1      28.794  29.181  23.407  1.00  0.00    -0.466 OA
BRANCH  20  21
ATOM     21  C   UNL A   1      27.804  30.013  22.782  1.00  0.00     0.229 C 
ATOM     22  C   UNL A   1      27.559  31.262  23.610  1.00  0.00     0.049 C 
ENDBRANCH  20  21
ENDBRANCH  18  20
ENDBRANCH  13  18
ENDBRANCH   9  12
ENDBRANCH   6   8
BRANCH   6  23
ATOM     23  C   UNL A   1      33.287  22.131  24.271  1.00  0.00     0.035 C 
ATOM     24  C   UNL A   1      34.235  21.003  24.656  1.00  0.00     0.007 C 
ENDBRANCH   6  23
ENDBRANCH   3   6
ENDBRANCH   1   2
BRANCH   1  25
ATOM     25  C   UNL A   1      33.862  28.156  25.304  1.00  0.00     0.042 C 
BRANCH  25  26
ATOM     26  C   UNL A   1      33.836  28.192  26.826  1.00  0.00     0.118 C 
BRANCH  26  27
ATOM     27  N   UNL A   1      33.675  29.538  27.350  1.00  0.00    -0.352 N 
ATOM     28  C   UNL A   1      34.500  30.336  28.103  1.00  0.00     0.251 C 
ATOM     29  H   UNL A   1      32.812  29.956  27.122  1.00  0.00     0.163 HD
ATOM     30  O   UNL A   1      34.020  31.358  28.592  1.00  0.00    -0.269 OA
BRANCH  28  31
ATOM     31  C   UNL A   1      35.927  30.007  28.354  1.00  0.00     0.039 A 
ATOM     32  C   UNL A   1      36.832  30.156  27.296  1.00  0.00     0.014 A 
ATOM     33  C   UNL A   1      36.385  29.482  29.564  1.00  0.00     0.014 A 
ATOM     34  C   UNL A   1      38.179  29.823  27.465  1.00  0.00     0.010 A 
ATOM     35  C   UNL A   1      37.749  29.250  29.766  1.00  0.00     0.010 A 
ATOM     36  C   UNL A   1      38.661  29.398  28.714  1.00  0.00    -0.014 A 
BRANCH  36  37
ATOM     37  C   UNL A   1      40.109  29.108  28.909  1.00  0.00     0.031 A 
ATOM     38  C   UNL A   1      40.683  27.756  28.564  1.00  0.00     0.074 A 
ATOM     39  C   UNL A   1      40.911  30.067  29.414  1.00  0.00     0.049 A 
ATOM     40  N   UNL A   1      41.923  27.341  28.641  1.00  0.00    -0.248 NA
ATOM     41  C   UNL A   1      39.742  26.727  28.091  1.00  0.00     0.031 C 
ATOM     42  C   UNL A   1      40.469  31.395  29.848  1.00  0.00     0.029 A 
ATOM     43  N   UNL A   1      42.265  30.081  29.642  1.00  0.00    -0.354 N 
ATOM     44  C   UNL A   1      41.910  26.011  28.235  1.00  0.00     0.074 A 
ATOM     45  C   UNL A   1      40.530  25.667  27.971  1.00  0.00     0.031 C 
ATOM     46  C   UNL A   1      41.535  32.107  30.243  1.00  0.00     0.029 A 
ATOM     47  C   UNL A   1      42.730  31.279  30.132  1.00  0.00     0.049 A 
ATOM     48  H   UNL A   1      42.848  29.306  29.471  1.00  0.00     0.167 HD
ATOM     49  C   UNL A   1      42.953  25.161  28.069  1.00  0.00     0.037 A 
ATOM     50  C   UNL A   1      43.979  31.671  30.453  1.00  0.00     0.037 A 
ATOM     51  C   UNL A   1      44.328  25.514  28.314  1.00  0.00     0.049 A 
ATOM     52  C   UNL A   1      45.119  30.711  30.251  1.00  0.00     0.074 A 
ATOM     53  C   UNL A   1      45.463  24.743  28.123  1.00  0.00     0.029 A 
ATOM     54  N   UNL A   1      44.759  26.739  28.805  1.00  0.00    -0.354 N 
ATOM     55  N   UNL A   1      45.092  29.481  29.796  1.00  0.00    -0.248 NA
ATOM     56  C   UNL A   1      46.462  31.198  30.593  1.00  0.00     0.031 C 
ATOM     57  C   UNL A   1      46.573  25.481  28.548  1.00  0.00     0.029 A 
ATOM     58  C   UNL A   1      46.138  26.735  28.948  1.00  0.00     0.049 A 
ATOM     59  H   UNL A   1      44.172  27.497  29.021  1.00  0.00     0.167 HD
ATOM     60  C   UNL A   1      46.416  29.054  29.780  1.00  0.00     0.074 A 
ATOM     61  C   UNL A   1      47.218  30.169  30.240  1.00  0.00     0.031 C 
ATOM     62  C   UNL A   1      46.924  27.848  29.420  1.00  0.00     0.037 A 
BRANCH  49  63
ATOM     63  C   UNL A   1      42.652  23.764  27.589  1.00  0.00     0.058 A 
ATOM     64  C   UNL A   1      42.579  23.453  26.220  1.00  0.00     0.135 A 
ATOM     65  C   UNL A   1      42.489  22.711  28.504  1.00  0.00     0.135 A 
ATOM     66  F   UNL A   1      42.714  24.420  25.298  1.00  0.00    -0.206 F 
ATOM     67  C   UNL A   1      42.330  22.157  25.779  1.00  0.00     0.059 A 
ATOM     68  C   UNL A   1      42.268  21.402  28.085  1.00  0.00     0.059 A 
ATOM     69  F   UNL A   1      42.548  22.948  29.824  1.00  0.00    -0.206 F 
ATOM     70  C   UNL A   1      42.179  21.137  26.719  1.00  0.00     0.060 A 
BRANCH  70  71
ATOM     71  S   UNL A   1      41.875  19.459  26.127  1.00  0.00     0.124 S 
ATOM     72  O   UNL A   1      40.448  19.511  25.824  1.00  0.00    -0.237 OA
ATOM     73  O   UNL A   1      42.765  19.369  24.974  1.00  0.00    -0.237 OA
ATOM     74  O   UNL A   1      42.242  18.623  27.266  1.00  0.00    -0.744 OA
ENDBRANCH  70  71
ENDBRANCH  49  63
BRANCH  50  75
ATOM     75  C   UNL A   1      44.219  33.043  30.979  1.00  0.00     0.058 A 
ATOM     76  C   UNL A   1      44.459  34.120  30.114  1.00  0.00     0.135 A 
ATOM     77  C   UNL A   1      44.209  33.304  32.358  1.00  0.00     0.135 A 
ATOM     78  F   UNL A   1      44.483  33.922  28.786  1.00  0.00    -0.206 F 
ATOM     79  C   UNL A   1      44.706  35.402  30.594  1.00  0.00     0.059 A 
ATOM     80  C   UNL A   1      44.422  34.583  32.863  1.00  0.00     0.059 A 
ATOM     81  F   UNL A   1      43.965  32.313  33.230  1.00  0.00    -0.206 F 
ATOM     82  C   UNL A   1      44.684  35.623  31.972  1.00  0.00     0.060 A 
BRANCH  82  83
ATOM     83  S   UNL A   1      44.962  37.298  32.587  1.00  0.00     0.124 S 
ATOM     84  O   UNL A   1      44.698  37.137  34.011  1.00  0.00    -0.237 OA
ATOM     85  O   UNL A   1      46.353  37.534  32.216  1.00  0.00    -0.237 OA
ATOM     86  O   UNL A   1      43.983  38.092  31.848  1.00  0.00    -0.744 OA
ENDBRANCH  82  83
ENDBRANCH  50  75
BRANCH  62  87
ATOM     87  C   UNL A   1      48.419  27.687  29.493  1.00  0.00     0.058 A 
ATOM     88  C   UNL A   1      49.252  28.027  28.415  1.00  0.00     0.135 A 
ATOM     89  C   UNL A   1      49.026  27.185  30.655  1.00  0.00     0.135 A 
ATOM     90  F   UNL A   1      48.725  28.509  27.279  1.00  0.00    -0.206 F 
ATOM     91  C   UNL A   1      50.627  27.824  28.466  1.00  0.00     0.059 A 
ATOM     92  C   UNL A   1      50.403  27.007  30.742  1.00  0.00     0.059 A 
ATOM     93  F   UNL A   1      48.280  26.858  31.723  1.00  0.00    -0.206 F 
ATOM     94  C   UNL A   1      51.193  27.307  29.633  1.00  0.00     0.060 A 
BRANCH  94  95
ATOM     95  S   UNL A   1      52.976  27.031  29.682  1.00  0.00     0.124 S 
ATOM     96  O   UNL A   1      53.215  26.431  28.374  1.00  0.00    -0.237 OA
ATOM     97  O   UNL A   1      53.497  28.382  29.864  1.00  0.00    -0.237 OA
ATOM     98  O   UNL A   1      53.151  26.139  30.823  1.00  0.00    -0.744 OA
ENDBRANCH  94  95
ENDBRANCH  62  87
ENDBRANCH  36  37
ENDBRANCH  28  31
ENDBRANCH  26  27
ENDBRANCH  25  26
ENDBRANCH   1  25
TORSDOF 19
ENDMDL
MODEL 3
REMARK VINA RESULT:     -10.8      5.312     10.095
REMARK SMILES CCOC(=O)[C@H]1CCCN(C(=O)N[C@](C)(CC)C(=O)NCCCNC(=O)c2ccc(-c3c4nc(c(-c5c(F)cc(S(=O)(=O)[O-])cc5F)c5ccc([nH]5)c(-c5c(F)cc(S(=O)(=O)[O-])cc5F)c5nc(c(-c6c(F)cc(S(=O)(=O)[O-])cc6F)c6ccc3[nH]6)C=C5)C=C4)cc2)C1
REMARK SMILES IDX 21 1 20 2 18 3 19 4 14 6 15 7 13 8 11 9 12 10 10 12 6 13
REMARK SMILES IDX 7 14 93 15 8 16 9 17 4 18 5 19 3 20 2 21 1 22 16 23 17 24
REMARK SMILES IDX 22 25 23 26 24 27 25 28 26 30 27 31 28 32 92 33 29 34 91 35
REMARK SMILES IDX 30 36 31 37 32 38 85 39 33 40 90 41 84 42 86 43 34 44 89 45
REMARK SMILES IDX 83 46 82 47 35 49 69 50 48 51 68 52 49 53 52 54 67 55 87 56
REMARK SMILES IDX 50 57 51 58 66 60 88 61 53 62 36 63 37 64 46 65 38 66 39 67
REMARK SMILES IDX 45 68 47 69 40 70 41 71 42 72 43 73 44 74 70 75 71 76 80 77
REMARK SMILES IDX 72 78 73 79 79 80 81 81 74 82 75 83 76 84 77 85 78 86 54 87
REMARK SMILES IDX 55 88 64 89 56 90 57 91 63 92 65 93 58 94 59 95 60 96 61 97
REMARK SMILES IDX 62 98
REMARK H PARENT 20 5 13 11 24 29 86 48 52 59
REMARK Flexibility Score: inf
ROOT
ATOM      1  C   UNL A   1      36.697  20.584  24.922  1.00  0.00     0.117 C 
ENDROOT
BRANCH   1   2
ATOM      2  N   UNL A   1      35.505  19.763  24.986  1.00  0.00    -0.354 N 
ATOM      3  C   UNL A   1      34.176  20.043  25.013  1.00  0.00     0.245 C 
ATOM      4  O   UNL A   1      33.457  19.041  25.139  1.00  0.00    -0.272 OA
ATOM      5  H   UNL A   1      35.699  18.798  25.018  1.00  0.00     0.163 HD
BRANCH   3   6
ATOM      6  C   UNL A   1      33.558  21.492  25.098  1.00  0.00     0.117 C 
ATOM      7  C   UNL A   1      32.005  21.347  24.968  1.00  0.00     0.045 C 
BRANCH   6   8
ATOM      8  N   UNL A   1      33.955  22.341  23.924  1.00  0.00    -0.324 N 
ATOM      9  C   UNL A   1      33.801  23.455  23.210  1.00  0.00     0.318 C 
ATOM     10  O   UNL A   1      34.711  23.587  22.377  1.00  0.00    -0.249 OA
ATOM     11  H   UNL A   1      34.664  21.836  23.466  1.00  0.00     0.166 HD
BRANCH   9  12
ATOM     12  N   UNL A   1      32.842  24.403  23.330  1.00  0.00    -0.324 N 
ATOM     13  C   UNL A   1      31.713  25.427  25.317  1.00  0.00     0.119 C 
ATOM     14  C   UNL A   1      30.377  25.328  24.551  1.00  0.00     0.019 C 
ATOM     15  C   UNL A   1      32.969  25.373  24.424  1.00  0.00     0.136 C 
ATOM     16  C   UNL A   1      30.430  24.437  23.314  1.00  0.00     0.023 C 
ATOM     17  C   UNL A   1      31.688  24.729  22.515  1.00  0.00     0.121 C 
BRANCH  13  18
ATOM     18  C   UNL A   1      31.741  26.736  26.081  1.00  0.00     0.310 C 
ATOM     19  O   UNL A   1      31.397  26.867  27.252  1.00  0.00    -0.252 OA
BRANCH  18  20
ATOM     20  O   UNL A   1      32.235  27.736  25.303  1.00  0.00    -0.466 OA
BRANCH  20  21
ATOM     21  C   UNL A   1      31.419  28.918  25.240  1.00  0.00     0.229 C 
ATOM     22  C   UNL A   1      32.134  30.093  25.881  1.00  0.00     0.049 C 
ENDBRANCH  20  21
ENDBRANCH  18  20
ENDBRANCH  13  18
ENDBRANCH   9  12
ENDBRANCH   6   8
BRANCH   6  23
ATOM     23  C   UNL A   1      33.888  22.076  26.475  1.00  0.00     0.035 C 
ATOM     24  C   UNL A   1      32.746  22.600  27.335  1.00  0.00     0.007 C 
ENDBRANCH   6  23
ENDBRANCH   3   6
ENDBRANCH   1   2
BRANCH   1  25
ATOM     25  C   UNL A   1      37.973  19.761  25.018  1.00  0.00     0.042 C 
BRANCH  25  26
ATOM     26  C   UNL A   1      39.123  20.440  25.752  1.00  0.00     0.118 C 
BRANCH  26  27
ATOM     27  N   UNL A   1      40.207  19.522  26.061  1.00  0.00    -0.352 N 
ATOM     28  C   UNL A   1      41.529  19.731  26.365  1.00  0.00     0.251 C 
ATOM     29  H   UNL A   1      39.944  18.573  26.051  1.00  0.00     0.163 HD
ATOM     30  O   UNL A   1      42.278  18.755  26.371  1.00  0.00    -0.269 OA
BRANCH  28  31
ATOM     31  C   UNL A   1      42.081  21.076  26.671  1.00  0.00     0.039 A 
ATOM     32  C   UNL A   1      42.287  21.960  25.604  1.00  0.00     0.014 A 
ATOM     33  C   UNL A   1      42.478  21.462  27.953  1.00  0.00     0.014 A 
ATOM     34  C   UNL A   1      42.841  23.223  25.830  1.00  0.00     0.010 A 
ATOM     35  C   UNL A   1      42.933  22.762  28.194  1.00  0.00     0.010 A 
ATOM     36  C   UNL A   1      43.139  23.653  27.133  1.00  0.00    -0.014 A 
BRANCH  36  37
ATOM     37  C   UNL A   1      43.668  25.025  27.377  1.00  0.00     0.031 A 
ATOM     38  C   UNL A   1      45.114  25.358  27.107  1.00  0.00     0.074 A 
ATOM     39  C   UNL A   1      42.840  25.974  27.858  1.00  0.00     0.049 A 
ATOM     40  N   UNL A   1      45.735  26.505  27.234  1.00  0.00    -0.248 NA
ATOM     41  C   UNL A   1      45.986  24.260  26.658  1.00  0.00     0.031 C 
ATOM     42  C   UNL A   1      41.436  25.764  28.221  1.00  0.00     0.029 A 
ATOM     43  N   UNL A   1      43.051  27.306  28.119  1.00  0.00    -0.354 N 
ATOM     44  C   UNL A   1      47.061  26.265  26.888  1.00  0.00     0.074 A 
ATOM     45  C   UNL A   1      47.171  24.852  26.606  1.00  0.00     0.031 C 
ATOM     46  C   UNL A   1      40.902  26.932  28.610  1.00  0.00     0.029 A 
ATOM     47  C   UNL A   1      41.930  27.965  28.566  1.00  0.00     0.049 A 
ATOM     48  H   UNL A   1      43.924  27.746  27.998  1.00  0.00     0.167 HD
ATOM     49  C   UNL A   1      48.086  27.146  26.786  1.00  0.00     0.037 A 
ATOM     50  C   UNL A   1      41.747  29.258  28.900  1.00  0.00     0.037 A 
ATOM     51  C   UNL A   1      47.967  28.558  27.049  1.00  0.00     0.049 A 
ATOM     52  C   UNL A   1      42.899  30.216  28.770  1.00  0.00     0.074 A 
ATOM     53  C   UNL A   1      48.933  29.543  26.921  1.00  0.00     0.029 A 
ATOM     54  N   UNL A   1      46.814  29.189  27.496  1.00  0.00    -0.354 N 
ATOM     55  N   UNL A   1      44.127  29.981  28.370  1.00  0.00    -0.248 NA
ATOM     56  C   UNL A   1      42.638  31.617  29.123  1.00  0.00     0.031 C 
ATOM     57  C   UNL A   1      48.379  30.758  27.340  1.00  0.00     0.029 A 
ATOM     58  C   UNL A   1      47.051  30.543  27.672  1.00  0.00     0.049 A 
ATOM     59  H   UNL A   1      45.955  28.740  27.662  1.00  0.00     0.167 HD
ATOM     60  C   UNL A   1      44.778  31.209  28.406  1.00  0.00     0.074 A 
ATOM     61  C   UNL A   1      43.799  32.187  28.836  1.00  0.00     0.031 C 
ATOM     62  C   UNL A   1      46.070  31.504  28.113  1.00  0.00     0.037 A 
BRANCH  49  63
ATOM     63  C   UNL A   1      49.432  26.613  26.362  1.00  0.00     0.058 A 
ATOM     64  C   UNL A   1      49.893  26.740  25.040  1.00  0.00     0.135 A 
ATOM     65  C   UNL A   1      50.293  26.017  27.297  1.00  0.00     0.135 A 
ATOM     66  F   UNL A   1      49.108  27.289  24.099  1.00  0.00    -0.206 F 
ATOM     67  C   UNL A   1      51.146  26.273  24.658  1.00  0.00     0.059 A 
ATOM     68  C   UNL A   1      51.564  25.570  26.942  1.00  0.00     0.059 A 
ATOM     69  F   UNL A   1      49.906  25.869  28.574  1.00  0.00    -0.206 F 
ATOM     70  C   UNL A   1      51.976  25.692  25.617  1.00  0.00     0.060 A 
BRANCH  70  71
ATOM     71  S   UNL A   1      53.607  25.109  25.105  1.00  0.00     0.124 S 
ATOM     72  O   UNL A   1      53.671  25.594  23.730  1.00  0.00    -0.237 OA
ATOM     73  O   UNL A   1      54.489  25.778  26.055  1.00  0.00    -0.237 OA
ATOM     74  O   UNL A   1      53.513  23.660  25.253  1.00  0.00    -0.744 OA
ENDBRANCH  70  71
ENDBRANCH  49  63
BRANCH  50  75
ATOM     75  C   UNL A   1      40.414  29.726  29.370  1.00  0.00     0.058 A 
ATOM     76  C   UNL A   1      40.175  29.996  30.725  1.00  0.00     0.135 A 
ATOM     77  C   UNL A   1      39.353  29.917  28.470  1.00  0.00     0.135 A 
ATOM     78  F   UNL A   1      41.155  29.824  31.626  1.00  0.00    -0.206 F 
ATOM     79  C   UNL A   1      38.928  30.413  31.179  1.00  0.00     0.059 A 
ATOM     80  C   UNL A   1      38.105  30.364  28.894  1.00  0.00     0.059 A 
ATOM     81  F   UNL A   1      39.533  29.693  27.160  1.00  0.00    -0.206 F 
ATOM     82  C   UNL A   1      37.899  30.596  30.253  1.00  0.00     0.060 A 
BRANCH  82  83
ATOM     83  S   UNL A   1      36.296  31.180  30.843  1.00  0.00     0.124 S 
ATOM     84  O   UNL A   1      35.902  30.102  31.742  1.00  0.00    -0.237 OA
ATOM     85  O   UNL A   1      36.644  32.447  31.476  1.00  0.00    -0.237 OA
ATOM     86  O   UNL A   1      35.511  31.298  29.616  1.00  0.00    -0.744 OA
ENDBRANCH  82  83
ENDBRANCH  50  75
BRANCH  62  87
ATOM     87  C   UNL A   1      46.486  32.946  28.231  1.00  0.00     0.058 A 
ATOM     88  C   UNL A   1      47.030  33.463  29.418  1.00  0.00     0.135 A 
ATOM     89  C   UNL A   1      46.337  33.822  27.144  1.00  0.00     0.135 A 
ATOM     90  F   UNL A   1      47.193  32.670  30.489  1.00  0.00    -0.206 F 
ATOM     91  C   UNL A   1      47.361  34.808  29.540  1.00  0.00     0.059 A 
ATOM     92  C   UNL A   1      46.695  35.164  27.232  1.00  0.00     0.059 A 
ATOM     93  F   UNL A   1      45.838  33.379  25.980  1.00  0.00    -0.206 F 
ATOM     94  C   UNL A   1      47.183  35.653  28.443  1.00  0.00     0.060 A 
BRANCH  94  95
ATOM     95  S   UNL A   1      47.599  37.400  28.619  1.00  0.00     0.124 S 
ATOM     96  O   UNL A   1      47.005  37.713  29.914  1.00  0.00    -0.237 OA
ATOM     97  O   UNL A   1      49.058  37.380  28.579  1.00  0.00    -0.237 OA
ATOM     98  O   UNL A   1      46.955  38.021  27.467  1.00  0.00    -0.744 OA
ENDBRANCH  94  95
ENDBRANCH  62  87
ENDBRANCH  36  37
ENDBRANCH  28  31
ENDBRANCH  26  27
ENDBRANCH  25  26
ENDBRANCH   1  25
TORSDOF 19
ENDMDL
