MODEL 1
REMARK VINA RESULT:     -13.2      0.000      0.000
REMARK SMILES O=C(N/N=C\c1ccccc1C(=O)NCCCNC(=O)c1ccc(-c2c3nc(c(-c4c(F)cc(S(=O)(=O)[O-])cc4F)c4ccc([nH]4)c(-c4c(F)cc(S(=O)(=O)[O-])cc4F)c4nc(c(-c5c(F)cc(S(=O)(=O)[O-])cc5F)c5ccc2[nH]5)C=C4)C=C3)cc1)C(=O)N1CCCCC1
REMARK SMILES IDX 16 1 15 2 14 3 12 4 13 5 11 7 6 8 7 9 8 10 10 11 9 12 5 13
REMARK SMILES IDX 4 14 3 15 1 16 2 17 87 19 88 20 89 21 90 22 94 23 91 24
REMARK SMILES IDX 93 25 92 26 17 27 18 28 19 29 20 31 21 32 22 33 86 34 23 35
REMARK SMILES IDX 85 36 24 37 25 38 26 39 79 40 27 41 84 42 78 43 80 44 28 45
REMARK SMILES IDX 83 46 77 47 76 48 29 50 63 51 42 52 62 53 43 54 46 55 61 56
REMARK SMILES IDX 81 57 44 58 45 59 60 61 82 62 47 63 30 64 31 65 40 66 32 67
REMARK SMILES IDX 33 68 39 69 41 70 34 71 35 72 36 73 37 74 38 75 64 76 65 77
REMARK SMILES IDX 74 78 66 79 67 80 73 81 75 82 68 83 69 84 70 85 71 86 72 87
REMARK SMILES IDX 48 88 49 89 58 90 50 91 51 92 57 93 59 94 52 95 53 96 54 97
REMARK SMILES IDX 55 98 56 99
REMARK H PARENT 14 6 3 18 18 30 80 49 46 60
REMARK Flexibility Score: inf
ROOT
ATOM      1  C   UNL A   1      32.439  28.084  27.240  1.00  0.00     0.042 C 
ENDROOT
BRANCH   1   2
ATOM      2  C   UNL A   1      32.593  26.797  26.460  1.00  0.00     0.118 C 
BRANCH   2   3
ATOM      3  N   UNL A   1      31.832  25.728  27.001  1.00  0.00    -0.352 N 
ATOM      4  C   UNL A   1      31.808  24.410  26.711  1.00  0.00     0.251 C 
ATOM      5  O   UNL A   1      30.962  23.741  27.307  1.00  0.00    -0.269 OA
ATOM      6  H   UNL A   1      31.209  25.997  27.714  1.00  0.00     0.163 HD
BRANCH   4   7
ATOM      7  C   UNL A   1      32.696  23.712  25.753  1.00  0.00     0.048 A 
ATOM      8  C   UNL A   1      32.414  23.209  24.022  1.00  0.00     0.007 A 
ATOM      9  C   UNL A   1      33.846  22.876  22.896  1.00  0.00     0.010 A 
ATOM     10  C   UNL A   1      35.519  22.859  23.564  1.00  0.00     0.001 A 
ATOM     11  C   UNL A   1      34.405  23.802  26.351  1.00  0.00     0.014 A 
ATOM     12  C   UNL A   1      35.812  23.294  25.293  1.00  0.00     0.001 A 
BRANCH   8  13
ATOM     13  C   UNL A   1      31.222  23.290  23.231  1.00  0.00     0.142 C 
ATOM     14  N   UNL A   1      30.980  24.402  22.651  1.00  0.00    -0.180 NA
BRANCH  14  15
ATOM     15  N   UNL A   1      31.863  25.388  22.954  1.00  0.00    -0.239 N 
ATOM     16  O   UNL A   1      32.867  27.312  23.066  1.00  0.00    -0.262 OA
ATOM     17  C   UNL A   1      31.750  26.771  23.183  1.00  0.00     0.329 C 
ATOM     18  H   UNL A   1      32.789  25.062  23.028  1.00  0.00     0.194 HD
BRANCH  17  19
ATOM     19  C   UNL A   1      30.407  27.816  23.621  1.00  0.00     0.313 C 
ATOM     20  O   UNL A   1      30.006  27.042  24.571  1.00  0.00    -0.263 OA
ATOM     21  N   UNL A   1      29.749  29.608  23.036  1.00  0.00    -0.334 N 
ATOM     22  C   UNL A   1      29.132  30.961  23.886  1.00  0.00     0.120 C 
ATOM     23  C   UNL A   1      29.640  30.367  21.490  1.00  0.00     0.120 C 
ATOM     24  C   UNL A   1      27.726  31.395  23.444  1.00  0.00     0.022 C 
ATOM     25  C   UNL A   1      28.197  30.724  21.115  1.00  0.00     0.022 C 
ATOM     26  C   UNL A   1      27.666  31.827  21.996  1.00  0.00     0.004 C 
ENDBRANCH  17  19
ENDBRANCH  14  15
ENDBRANCH   8  13
ENDBRANCH   4   7
ENDBRANCH   2   3
ENDBRANCH   1   2
BRANCH   1  27
ATOM     27  C   UNL A   1      33.666  28.932  27.004  1.00  0.00     0.118 C 
BRANCH  27  28
ATOM     28  N   UNL A   1      33.639  30.196  27.741  1.00  0.00    -0.352 N 
ATOM     29  C   UNL A   1      34.660  30.792  28.439  1.00  0.00     0.251 C 
ATOM     30  H   UNL A   1      32.782  30.680  27.735  1.00  0.00     0.163 HD
ATOM     31  O   UNL A   1      34.477  31.843  29.042  1.00  0.00    -0.269 OA
BRANCH  29  32
ATOM     32  C   UNL A   1      35.944  30.077  28.512  1.00  0.00     0.039 A 
ATOM     33  C   UNL A   1      36.807  30.159  27.422  1.00  0.00     0.014 A 
ATOM     34  C   UNL A   1      36.352  29.504  29.716  1.00  0.00     0.014 A 
ATOM     35  C   UNL A   1      38.124  29.742  27.579  1.00  0.00     0.010 A 
ATOM     36  C   UNL A   1      37.695  29.248  29.916  1.00  0.00     0.010 A 
ATOM     37  C   UNL A   1      38.591  29.343  28.842  1.00  0.00    -0.014 A 
BRANCH  37  38
ATOM     38  C   UNL A   1      40.010  28.986  29.061  1.00  0.00     0.031 A 
ATOM     39  C   UNL A   1      40.947  30.020  29.625  1.00  0.00     0.074 A 
ATOM     40  C   UNL A   1      40.454  27.767  28.699  1.00  0.00     0.049 A 
ATOM     41  N   UNL A   1      42.231  29.936  29.838  1.00  0.00    -0.248 NA
ATOM     42  C   UNL A   1      40.372  31.338  29.956  1.00  0.00     0.031 C 
ATOM     43  C   UNL A   1      39.643  26.715  28.076  1.00  0.00     0.029 A 
ATOM     44  N   UNL A   1      41.698  27.201  28.802  1.00  0.00    -0.354 N 
ATOM     45  C   UNL A   1      42.616  31.185  30.306  1.00  0.00     0.074 A 
ATOM     46  C   UNL A   1      41.451  32.037  30.271  1.00  0.00     0.031 C 
ATOM     47  C   UNL A   1      40.400  25.622  27.895  1.00  0.00     0.029 A 
ATOM     48  C   UNL A   1      41.759  25.907  28.339  1.00  0.00     0.049 A 
ATOM     49  H   UNL A   1      42.476  27.677  29.173  1.00  0.00     0.167 HD
ATOM     50  C   UNL A   1      43.825  31.576  30.766  1.00  0.00     0.037 A 
ATOM     51  C   UNL A   1      42.800  25.054  28.276  1.00  0.00     0.037 A 
ATOM     52  C   UNL A   1      44.963  30.703  30.836  1.00  0.00     0.049 A 
ATOM     53  C   UNL A   1      44.135  25.514  28.797  1.00  0.00     0.074 A 
ATOM     54  C   UNL A   1      46.219  30.969  31.348  1.00  0.00     0.029 A 
ATOM     55  N   UNL A   1      44.982  29.392  30.379  1.00  0.00    -0.354 N 
ATOM     56  N   UNL A   1      44.462  26.674  29.317  1.00  0.00    -0.248 NA
ATOM     57  C   UNL A   1      45.242  24.552  28.730  1.00  0.00     0.031 C 
ATOM     58  C   UNL A   1      47.016  29.840  31.143  1.00  0.00     0.029 A 
ATOM     59  C   UNL A   1      46.239  28.846  30.567  1.00  0.00     0.049 A 
ATOM     60  H   UNL A   1      44.214  28.921  29.979  1.00  0.00     0.167 HD
ATOM     61  C   UNL A   1      45.804  26.572  29.663  1.00  0.00     0.074 A 
ATOM     62  C   UNL A   1      46.221  25.229  29.313  1.00  0.00     0.031 C 
ATOM     63  C   UNL A   1      46.621  27.502  30.217  1.00  0.00     0.037 A 
BRANCH  50  64
ATOM     64  C   UNL A   1      43.974  32.996  31.237  1.00  0.00     0.058 A 
ATOM     65  C   UNL A   1      44.242  34.049  30.346  1.00  0.00     0.135 A 
ATOM     66  C   UNL A   1      43.799  33.315  32.592  1.00  0.00     0.135 A 
ATOM     67  F   UNL A   1      44.445  33.797  29.042  1.00  0.00    -0.206 F 
ATOM     68  C   UNL A   1      44.346  35.363  30.784  1.00  0.00     0.059 A 
ATOM     69  C   UNL A   1      43.865  34.629  33.047  1.00  0.00     0.059 A 
ATOM     70  F   UNL A   1      43.554  32.348  33.490  1.00  0.00    -0.206 F 
ATOM     71  C   UNL A   1      44.146  35.645  32.135  1.00  0.00     0.060 A 
BRANCH  71  72
ATOM     72  S   UNL A   1      44.241  37.363  32.676  1.00  0.00     0.124 S 
ATOM     73  O   UNL A   1      45.542  37.391  33.338  1.00  0.00    -0.237 OA
ATOM     74  O   UNL A   1      44.157  38.090  31.413  1.00  0.00    -0.237 OA
ATOM     75  O   UNL A   1      43.087  37.508  33.558  1.00  0.00    -0.744 OA
ENDBRANCH  71  72
ENDBRANCH  50  64
BRANCH  51  76
ATOM     76  C   UNL A   1      42.621  23.688  27.711  1.00  0.00     0.058 A 
ATOM     77  C   UNL A   1      42.395  22.581  28.541  1.00  0.00     0.135 A 
ATOM     78  C   UNL A   1      42.680  23.461  26.326  1.00  0.00     0.135 A 
ATOM     79  F   UNL A   1      42.331  22.741  29.872  1.00  0.00    -0.206 F 
ATOM     80  C   UNL A   1      42.265  21.294  28.025  1.00  0.00     0.059 A 
ATOM     81  C   UNL A   1      42.521  22.190  25.784  1.00  0.00     0.059 A 
ATOM     82  F   UNL A   1      42.872  24.488  25.483  1.00  0.00    -0.206 F 
ATOM     83  C   UNL A   1      42.330  21.110  26.643  1.00  0.00     0.060 A 
BRANCH  83  84
ATOM     84  S   UNL A   1      42.133  19.442  25.981  1.00  0.00     0.124 S 
ATOM     85  O   UNL A   1      42.653  18.629  27.073  1.00  0.00    -0.237 OA
ATOM     86  O   UNL A   1      40.693  19.369  25.759  1.00  0.00    -0.237 OA
ATOM     87  O   UNL A   1      42.946  19.466  24.768  1.00  0.00    -0.744 OA
ENDBRANCH  83  84
ENDBRANCH  51  76
BRANCH  63  88
ATOM     88  C   UNL A   1      48.038  27.091  30.509  1.00  0.00     0.058 A 
ATOM     89  C   UNL A   1      49.078  27.326  29.599  1.00  0.00     0.135 A 
ATOM     90  C   UNL A   1      48.364  26.511  31.746  1.00  0.00     0.135 A 
ATOM     91  F   UNL A   1      48.819  27.872  28.400  1.00  0.00    -0.206 F 
ATOM     92  C   UNL A   1      50.391  26.976  29.893  1.00  0.00     0.059 A 
ATOM     93  C   UNL A   1      49.674  26.188  32.078  1.00  0.00     0.059 A 
ATOM     94  F   UNL A   1      47.406  26.278  32.659  1.00  0.00    -0.206 F 
ATOM     95  C   UNL A   1      50.679  26.412  31.138  1.00  0.00     0.060 A 
BRANCH  95  96
ATOM     96  S   UNL A   1      52.394  26.000  31.520  1.00  0.00     0.124 S 
ATOM     97  O   UNL A   1      52.268  24.621  31.980  1.00  0.00    -0.237 OA
ATOM     98  O   UNL A   1      53.051  26.181  30.229  1.00  0.00    -0.237 OA
ATOM     99  O   UNL A   1      52.757  26.974  32.545  1.00  0.00    -0.744 OA
ENDBRANCH  95  96
ENDBRANCH  63  88
ENDBRANCH  37  38
ENDBRANCH  29  32
ENDBRANCH  27  28
ENDBRANCH   1  27
TORSDOF 16
ENDMDL
MODEL 2
REMARK VINA RESULT:     -13.0      4.688     10.062
REMARK SMILES O=C(N/N=C\c1ccccc1C(=O)NCCCNC(=O)c1ccc(-c2c3nc(c(-c4c(F)cc(S(=O)(=O)[O-])cc4F)c4ccc([nH]4)c(-c4c(F)cc(S(=O)(=O)[O-])cc4F)c4nc(c(-c5c(F)cc(S(=O)(=O)[O-])cc5F)c5ccc2[nH]5)C=C4)C=C3)cc1)C(=O)N1CCCCC1
REMARK SMILES IDX 16 1 15 2 14 3 12 4 13 5 11 7 6 8 7 9 8 10 10 11 9 12 5 13
REMARK SMILES IDX 4 14 3 15 1 16 2 17 87 19 88 20 89 21 90 22 94 23 91 24
REMARK SMILES IDX 93 25 92 26 17 27 18 28 19 29 20 31 21 32 22 33 86 34 23 35
REMARK SMILES IDX 85 36 24 37 25 38 26 39 79 40 27 41 84 42 78 43 80 44 28 45
REMARK SMILES IDX 83 46 77 47 76 48 29 50 63 51 42 52 62 53 43 54 46 55 61 56
REMARK SMILES IDX 81 57 44 58 45 59 60 61 82 62 47 63 30 64 31 65 40 66 32 67
REMARK SMILES IDX 33 68 39 69 41 70 34 71 35 72 36 73 37 74 38 75 64 76 65 77
REMARK SMILES IDX 74 78 66 79 67 80 73 81 75 82 68 83 69 84 70 85 71 86 72 87
REMARK SMILES IDX 48 88 49 89 58 90 50 91 51 92 57 93 59 94 52 95 53 96 54 97
REMARK SMILES IDX 55 98 56 99
REMARK H PARENT 14 6 3 18 18 30 80 49 46 60
REMARK Flexibility Score: inf
ROOT
ATOM      1  C   UNL A   1      37.502  23.654  25.342  1.00  0.00     0.042 C 
ENDROOT
BRANCH   1   2
ATOM      2  C   UNL A   1      37.078  22.203  25.399  1.00  0.00     0.118 C 
BRANCH   2   3
ATOM      3  N   UNL A   1      36.187  21.928  26.468  1.00  0.00    -0.352 N 
ATOM      4  C   UNL A   1      34.841  21.830  26.510  1.00  0.00     0.251 C 
ATOM      5  O   UNL A   1      34.345  21.663  27.625  1.00  0.00    -0.269 OA
ATOM      6  H   UNL A   1      36.629  21.784  27.336  1.00  0.00     0.163 HD
BRANCH   4   7
ATOM      7  C   UNL A   1      33.925  21.909  25.348  1.00  0.00     0.048 A 
ATOM      8  C   UNL A   1      33.758  23.180  24.050  1.00  0.00     0.007 A 
ATOM      9  C   UNL A   1      32.954  22.771  22.433  1.00  0.00     0.010 A 
ATOM     10  C   UNL A   1      32.159  21.169  22.215  1.00  0.00     0.001 A 
ATOM     11  C   UNL A   1      33.218  20.268  25.037  1.00  0.00     0.014 A 
ATOM     12  C   UNL A   1      32.260  19.918  23.514  1.00  0.00     0.001 A 
BRANCH   8  13
ATOM     13  C   UNL A   1      34.417  24.446  23.924  1.00  0.00     0.142 C 
ATOM     14  N   UNL A   1      33.916  25.431  24.565  1.00  0.00    -0.180 NA
BRANCH  14  15
ATOM     15  N   UNL A   1      32.758  25.141  25.210  1.00  0.00    -0.239 N 
ATOM     16  O   UNL A   1      31.032  25.249  26.527  1.00  0.00    -0.262 OA
ATOM     17  C   UNL A   1      31.684  25.910  25.695  1.00  0.00     0.329 C 
ATOM     18  H   UNL A   1      32.644  24.177  25.377  1.00  0.00     0.194 HD
BRANCH  17  19
ATOM     19  C   UNL A   1      31.099  27.526  25.335  1.00  0.00     0.313 C 
ATOM     20  O   UNL A   1      31.781  28.075  26.282  1.00  0.00    -0.263 OA
ATOM     21  N   UNL A   1      29.936  28.339  23.930  1.00  0.00    -0.334 N 
ATOM     22  C   UNL A   1      30.036  29.790  23.027  1.00  0.00     0.120 C 
ATOM     23  C   UNL A   1      28.489  27.805  23.157  1.00  0.00     0.120 C 
ATOM     24  C   UNL A   1      28.813  30.709  23.174  1.00  0.00     0.022 C 
ATOM     25  C   UNL A   1      27.313  28.760  23.395  1.00  0.00     0.022 C 
ATOM     26  C   UNL A   1      27.530  30.073  22.685  1.00  0.00     0.004 C 
ENDBRANCH  17  19
ENDBRANCH  14  15
ENDBRANCH   8  13
ENDBRANCH   4   7
ENDBRANCH   2   3
ENDBRANCH   1   2
BRANCH   1  27
ATOM     27  C   UNL A   1      38.397  23.934  26.525  1.00  0.00     0.118 C 
BRANCH  27  28
ATOM     28  N   UNL A   1      39.821  23.864  26.195  1.00  0.00    -0.352 N 
ATOM     29  C   UNL A   1      40.831  24.694  26.617  1.00  0.00     0.251 C 
ATOM     30  H   UNL A   1      40.089  23.131  25.595  1.00  0.00     0.163 HD
ATOM     31  O   UNL A   1      41.980  24.531  26.225  1.00  0.00    -0.269 OA
BRANCH  29  32
ATOM     32  C   UNL A   1      40.465  25.830  27.477  1.00  0.00     0.039 A 
ATOM     33  C   UNL A   1      39.565  25.609  28.515  1.00  0.00     0.014 A 
ATOM     34  C   UNL A   1      41.156  27.037  27.363  1.00  0.00     0.014 A 
ATOM     35  C   UNL A   1      39.430  26.579  29.502  1.00  0.00     0.010 A 
ATOM     36  C   UNL A   1      41.142  27.919  28.426  1.00  0.00     0.010 A 
ATOM     37  C   UNL A   1      40.262  27.710  29.496  1.00  0.00    -0.014 A 
BRANCH  37  38
ATOM     38  C   UNL A   1      40.208  28.711  30.584  1.00  0.00     0.031 A 
ATOM     39  C   UNL A   1      41.138  28.567  31.758  1.00  0.00     0.074 A 
ATOM     40  C   UNL A   1      39.292  29.698  30.537  1.00  0.00     0.049 A 
ATOM     41  N   UNL A   1      41.214  29.294  32.840  1.00  0.00    -0.248 NA
ATOM     42  C   UNL A   1      42.080  27.433  31.735  1.00  0.00     0.031 C 
ATOM     43  C   UNL A   1      38.294  29.884  29.477  1.00  0.00     0.029 A 
ATOM     44  N   UNL A   1      39.048  30.734  31.401  1.00  0.00    -0.354 N 
ATOM     45  C   UNL A   1      42.192  28.696  33.624  1.00  0.00     0.074 A 
ATOM     46  C   UNL A   1      42.625  27.502  32.939  1.00  0.00     0.031 C 
ATOM     47  C   UNL A   1      37.580  30.991  29.733  1.00  0.00     0.029 A 
ATOM     48  C   UNL A   1      38.029  31.565  30.996  1.00  0.00     0.049 A 
ATOM     49  H   UNL A   1      39.555  30.870  32.234  1.00  0.00     0.167 HD
ATOM     50  C   UNL A   1      42.713  29.128  34.794  1.00  0.00     0.037 A 
ATOM     51  C   UNL A   1      37.515  32.662  31.586  1.00  0.00     0.037 A 
ATOM     52  C   UNL A   1      42.300  30.342  35.441  1.00  0.00     0.049 A 
ATOM     53  C   UNL A   1      38.115  33.122  32.887  1.00  0.00     0.074 A 
ATOM     54  C   UNL A   1      42.806  30.915  36.593  1.00  0.00     0.029 A 
ATOM     55  N   UNL A   1      41.282  31.170  34.991  1.00  0.00    -0.354 N 
ATOM     56  N   UNL A   1      39.100  32.591  33.575  1.00  0.00    -0.248 NA
ATOM     57  C   UNL A   1      37.543  34.331  33.492  1.00  0.00     0.031 C 
ATOM     58  C   UNL A   1      42.051  32.057  36.874  1.00  0.00     0.029 A 
ATOM     59  C   UNL A   1      41.121  32.234  35.860  1.00  0.00     0.049 A 
ATOM     60  H   UNL A   1      40.752  31.022  34.174  1.00  0.00     0.167 HD
ATOM     61  C   UNL A   1      39.282  33.416  34.679  1.00  0.00     0.074 A 
ATOM     62  C   UNL A   1      38.319  34.493  34.554  1.00  0.00     0.031 C 
ATOM     63  C   UNL A   1      40.160  33.296  35.705  1.00  0.00     0.037 A 
BRANCH  50  64
ATOM     64  C   UNL A   1      43.786  28.295  35.437  1.00  0.00     0.058 A 
ATOM     65  C   UNL A   1      45.144  28.458  35.116  1.00  0.00     0.135 A 
ATOM     66  C   UNL A   1      43.456  27.353  36.423  1.00  0.00     0.135 A 
ATOM     67  F   UNL A   1      45.515  29.326  34.160  1.00  0.00    -0.206 F 
ATOM     68  C   UNL A   1      46.134  27.706  35.738  1.00  0.00     0.059 A 
ATOM     69  C   UNL A   1      44.433  26.613  37.083  1.00  0.00     0.059 A 
ATOM     70  F   UNL A   1      42.173  27.146  36.760  1.00  0.00    -0.206 F 
ATOM     71  C   UNL A   1      45.769  26.793  36.728  1.00  0.00     0.060 A 
BRANCH  71  72
ATOM     72  S   UNL A   1      47.072  25.859  37.555  1.00  0.00     0.124 S 
ATOM     73  O   UNL A   1      48.056  25.719  36.485  1.00  0.00    -0.237 OA
ATOM     74  O   UNL A   1      47.446  26.752  38.647  1.00  0.00    -0.237 OA
ATOM     75  O   UNL A   1      46.405  24.625  37.958  1.00  0.00    -0.744 OA
ENDBRANCH  71  72
ENDBRANCH  50  64
BRANCH  51  76
ATOM     76  C   UNL A   1      36.386  33.398  30.954  1.00  0.00     0.058 A 
ATOM     77  C   UNL A   1      36.568  34.136  29.775  1.00  0.00     0.135 A 
ATOM     78  C   UNL A   1      35.101  33.385  31.521  1.00  0.00     0.135 A 
ATOM     79  F   UNL A   1      37.776  34.183  29.192  1.00  0.00    -0.206 F 
ATOM     80  C   UNL A   1      35.528  34.859  29.197  1.00  0.00     0.059 A 
ATOM     81  C   UNL A   1      34.038  34.072  30.945  1.00  0.00     0.059 A 
ATOM     82  F   UNL A   1      34.865  32.677  32.636  1.00  0.00    -0.206 F 
ATOM     83  C   UNL A   1      34.265  34.820  29.791  1.00  0.00     0.060 A 
BRANCH  83  84
ATOM     84  S   UNL A   1      32.916  35.739  29.020  1.00  0.00     0.124 S 
ATOM     85  O   UNL A   1      32.342  34.732  28.137  1.00  0.00    -0.237 OA
ATOM     86  O   UNL A   1      32.105  36.116  30.174  1.00  0.00    -0.237 OA
ATOM     87  O   UNL A   1      33.601  36.846  28.358  1.00  0.00    -0.744 OA
ENDBRANCH  83  84
ENDBRANCH  51  76
BRANCH  63  88
ATOM     88  C   UNL A   1      40.146  34.371  36.756  1.00  0.00     0.058 A 
ATOM     89  C   UNL A   1      41.010  35.475  36.696  1.00  0.00     0.135 A 
ATOM     90  C   UNL A   1      39.208  34.326  37.800  1.00  0.00     0.135 A 
ATOM     91  F   UNL A   1      41.929  35.563  35.721  1.00  0.00    -0.206 F 
ATOM     92  C   UNL A   1      40.964  36.483  37.651  1.00  0.00     0.059 A 
ATOM     93  C   UNL A   1      39.118  35.341  38.745  1.00  0.00     0.059 A 
ATOM     94  F   UNL A   1      38.348  33.298  37.895  1.00  0.00    -0.206 F 
ATOM     95  C   UNL A   1      40.010  36.409  38.669  1.00  0.00     0.060 A 
BRANCH  95  96
ATOM     96  S   UNL A   1      39.938  37.746  39.879  1.00  0.00     0.124 S 
ATOM     97  O   UNL A   1      38.655  38.362  39.559  1.00  0.00    -0.237 OA
ATOM     98  O   UNL A   1      39.996  37.022  41.145  1.00  0.00    -0.237 OA
ATOM     99  O   UNL A   1      41.116  38.550  39.568  1.00  0.00    -0.744 OA
ENDBRANCH  95  96
ENDBRANCH  63  88
ENDBRANCH  37  38
ENDBRANCH  29  32
ENDBRANCH  27  28
ENDBRANCH   1  27
TORSDOF 16
ENDMDL
MODEL 3
REMARK VINA RESULT:     -12.8      3.024      5.322
REMARK SMILES O=C(N/N=C\c1ccccc1C(=O)NCCCNC(=O)c1ccc(-c2c3nc(c(-c4c(F)cc(S(=O)(=O)[O-])cc4F)c4ccc([nH]4)c(-c4c(F)cc(S(=O)(=O)[O-])cc4F)c4nc(c(-c5c(F)cc(S(=O)(=O)[O-])cc5F)c5ccc2[nH]5)C=C4)C=C3)cc1)C(=O)N1CCCCC1
REMARK SMILES IDX 16 1 15 2 14 3 12 4 13 5 11 7 6 8 7 9 8 10 10 11 9 12 5 13
REMARK SMILES IDX 4 14 3 15 1 16 2 17 87 19 88 20 89 21 90 22 94 23 91 24
REMARK SMILES IDX 93 25 92 26 17 27 18 28 19 29 20 31 21 32 22 33 86 34 23 35
REMARK SMILES IDX 85 36 24 37 25 38 26 39 79 40 27 41 84 42 78 43 80 44 28 45
REMARK SMILES IDX 83 46 77 47 76 48 29 50 63 51 42 52 62 53 43 54 46 55 61 56
REMARK SMILES IDX 81 57 44 58 45 59 60 61 82 62 47 63 30 64 31 65 40 66 32 67
REMARK SMILES IDX 33 68 39 69 41 70 34 71 35 72 36 73 37 74 38 75 64 76 65 77
REMARK SMILES IDX 74 78 66 79 67 80 73 81 75 82 68 83 69 84 70 85 71 86 72 87
REMARK SMILES IDX 48 88 49 89 58 90 50 91 51 92 57 93 59 94 52 95 53 96 54 97
REMARK SMILES IDX 55 98 56 99
REMARK H PARENT 14 6 3 18 18 30 80 49 46 60
REMARK Flexibility Score: inf
ROOT
ATOM      1  C   UNL A   1      34.138  29.128  27.463  1.00  0.00     0.042 C 
ENDROOT
BRANCH   1   2
ATOM      2  C   UNL A   1      33.318  29.647  26.304  1.00  0.00     0.118 C 
BRANCH   2   3
ATOM      3  N   UNL A   1      33.893  29.350  25.041  1.00  0.00    -0.352 N 
ATOM      4  C   UNL A   1      33.533  28.479  24.075  1.00  0.00     0.251 C 
ATOM      5  O   UNL A   1      34.298  28.390  23.113  1.00  0.00    -0.269 OA
ATOM      6  H   UNL A   1      34.701  29.873  24.833  1.00  0.00     0.163 HD
BRANCH   4   7
ATOM      7  C   UNL A   1      32.317  27.632  24.074  1.00  0.00     0.048 A 
ATOM      8  C   UNL A   1      31.783  26.319  25.223  1.00  0.00     0.007 A 
ATOM      9  C   UNL A   1      30.001  25.827  25.323  1.00  0.00     0.010 A 
ATOM     10  C   UNL A   1      28.821  26.510  24.144  1.00  0.00     0.001 A 
ATOM     11  C   UNL A   1      31.071  28.381  22.990  1.00  0.00     0.014 A 
ATOM     12  C   UNL A   1      29.345  27.767  22.957  1.00  0.00     0.001 A 
BRANCH   8  13
ATOM     13  C   UNL A   1      32.478  25.742  26.335  1.00  0.00     0.142 C 
ATOM     14  N   UNL A   1      33.079  24.633  26.136  1.00  0.00    -0.180 NA
BRANCH  14  15
ATOM     15  N   UNL A   1      32.887  24.112  24.897  1.00  0.00    -0.239 N 
ATOM     16  O   UNL A   1      33.167  23.026  23.036  1.00  0.00    -0.262 OA
ATOM     17  C   UNL A   1      33.241  22.902  24.274  1.00  0.00     0.329 C 
ATOM     18  H   UNL A   1      32.388  24.717  24.302  1.00  0.00     0.194 HD
BRANCH  17  19
ATOM     19  C   UNL A   1      33.704  21.321  24.885  1.00  0.00     0.313 C 
ATOM     20  O   UNL A   1      34.598  21.798  25.681  1.00  0.00    -0.263 OA
ATOM     21  N   UNL A   1      33.060  19.449  24.622  1.00  0.00    -0.334 N 
ATOM     22  C   UNL A   1      32.813  18.138  25.696  1.00  0.00     0.120 C 
ATOM     23  C   UNL A   1      32.509  18.585  23.234  1.00  0.00     0.120 C 
ATOM     24  C   UNL A   1      33.600  16.869  25.333  1.00  0.00     0.022 C 
ATOM     25  C   UNL A   1      33.380  17.363  22.923  1.00  0.00     0.022 C 
ATOM     26  C   UNL A   1      33.221  16.301  23.983  1.00  0.00     0.004 C 
ENDBRANCH  17  19
ENDBRANCH  14  15
ENDBRANCH   8  13
ENDBRANCH   4   7
ENDBRANCH   2   3
ENDBRANCH   1   2
BRANCH   1  27
ATOM     27  C   UNL A   1      35.300  30.066  27.681  1.00  0.00     0.118 C 
BRANCH  27  28
ATOM     28  N   UNL A   1      35.371  30.583  29.048  1.00  0.00    -0.352 N 
ATOM     29  C   UNL A   1      36.416  30.495  29.935  1.00  0.00     0.251 C 
ATOM     30  H   UNL A   1      34.569  31.053  29.373  1.00  0.00     0.163 HD
ATOM     31  O   UNL A   1      36.315  30.948  31.068  1.00  0.00    -0.269 OA
BRANCH  29  32
ATOM     32  C   UNL A   1      37.615  29.760  29.504  1.00  0.00     0.039 A 
ATOM     33  C   UNL A   1      37.980  29.821  28.162  1.00  0.00     0.014 A 
ATOM     34  C   UNL A   1      38.457  29.186  30.457  1.00  0.00     0.014 A 
ATOM     35  C   UNL A   1      39.247  29.383  27.792  1.00  0.00     0.010 A 
ATOM     36  C   UNL A   1      39.766  28.909  30.114  1.00  0.00     0.010 A 
ATOM     37  C   UNL A   1      40.168  28.984  28.774  1.00  0.00    -0.014 A 
BRANCH  37  38
ATOM     38  C   UNL A   1      41.554  28.605  28.420  1.00  0.00     0.031 A 
ATOM     39  C   UNL A   1      42.620  29.666  28.398  1.00  0.00     0.074 A 
ATOM     40  C   UNL A   1      41.828  27.334  28.068  1.00  0.00     0.049 A 
ATOM     41  N   UNL A   1      43.876  29.562  28.060  1.00  0.00    -0.248 NA
ATOM     42  C   UNL A   1      42.213  31.036  28.765  1.00  0.00     0.031 C 
ATOM     43  C   UNL A   1      40.850  26.242  27.986  1.00  0.00     0.029 A 
ATOM     44  N   UNL A   1      43.010  26.739  27.711  1.00  0.00    -0.354 N 
ATOM     45  C   UNL A   1      44.398  30.845  28.155  1.00  0.00     0.074 A 
ATOM     46  C   UNL A   1      43.310  31.728  28.502  1.00  0.00     0.031 C 
ATOM     47  C   UNL A   1      41.482  25.108  27.648  1.00  0.00     0.029 A 
ATOM     48  C   UNL A   1      42.896  25.396  27.439  1.00  0.00     0.049 A 
ATOM     49  H   UNL A   1      43.863  27.229  27.655  1.00  0.00     0.167 HD
ATOM     50  C   UNL A   1      45.680  31.245  28.009  1.00  0.00     0.037 A 
ATOM     51  C   UNL A   1      43.830  24.503  27.056  1.00  0.00     0.037 A 
ATOM     52  C   UNL A   1      46.759  30.346  27.707  1.00  0.00     0.049 A 
ATOM     53  C   UNL A   1      45.250  24.975  26.902  1.00  0.00     0.074 A 
ATOM     54  C   UNL A   1      48.108  30.627  27.604  1.00  0.00     0.029 A 
ATOM     55  N   UNL A   1      46.608  28.988  27.460  1.00  0.00    -0.354 N 
ATOM     56  N   UNL A   1      45.743  26.179  27.080  1.00  0.00    -0.248 NA
ATOM     57  C   UNL A   1      46.245  23.972  26.502  1.00  0.00     0.031 C 
ATOM     58  C   UNL A   1      48.766  29.453  27.232  1.00  0.00     0.029 A 
ATOM     59  C   UNL A   1      47.838  28.424  27.171  1.00  0.00     0.049 A 
ATOM     60  H   UNL A   1      45.753  28.500  27.485  1.00  0.00     0.167 HD
ATOM     61  C   UNL A   1      47.108  26.072  26.839  1.00  0.00     0.074 A 
ATOM     62  C   UNL A   1      47.364  24.680  26.525  1.00  0.00     0.031 C 
ATOM     63  C   UNL A   1      48.064  27.033  26.871  1.00  0.00     0.037 A 
BRANCH  50  64
ATOM     64  C   UNL A   1      45.986  32.707  28.184  1.00  0.00     0.058 A 
ATOM     65  C   UNL A   1      46.423  33.231  29.412  1.00  0.00     0.135 A 
ATOM     66  C   UNL A   1      45.886  33.587  27.096  1.00  0.00     0.135 A 
ATOM     67  F   UNL A   1      46.510  32.440  30.494  1.00  0.00    -0.206 F 
ATOM     68  C   UNL A   1      46.734  34.578  29.558  1.00  0.00     0.059 A 
ATOM     69  C   UNL A   1      46.225  34.932  27.211  1.00  0.00     0.059 A 
ATOM     70  F   UNL A   1      45.462  33.143  25.902  1.00  0.00    -0.206 F 
ATOM     71  C   UNL A   1      46.642  35.418  28.449  1.00  0.00     0.060 A 
BRANCH  71  72
ATOM     72  S   UNL A   1      47.093  37.154  28.648  1.00  0.00     0.124 S 
ATOM     73  O   UNL A   1      48.470  37.046  29.120  1.00  0.00    -0.237 OA
ATOM     74  O   UNL A   1      46.927  37.673  27.294  1.00  0.00    -0.237 OA
ATOM     75  O   UNL A   1      46.131  37.647  29.628  1.00  0.00    -0.744 OA
ENDBRANCH  71  72
ENDBRANCH  50  64
BRANCH  51  76
ATOM     76  C   UNL A   1      43.456  23.085  26.802  1.00  0.00     0.058 A 
ATOM     77  C   UNL A   1      43.127  22.219  27.855  1.00  0.00     0.135 A 
ATOM     78  C   UNL A   1      43.428  22.562  25.498  1.00  0.00     0.135 A 
ATOM     79  F   UNL A   1      43.138  22.666  29.120  1.00  0.00    -0.206 F 
ATOM     80  C   UNL A   1      42.814  20.881  27.631  1.00  0.00     0.059 A 
ATOM     81  C   UNL A   1      43.087  21.237  25.246  1.00  0.00     0.059 A 
ATOM     82  F   UNL A   1      43.713  23.351  24.451  1.00  0.00    -0.206 F 
ATOM     83  C   UNL A   1      42.797  20.400  26.321  1.00  0.00     0.060 A 
BRANCH  83  84
ATOM     84  S   UNL A   1      42.363  18.670  26.038  1.00  0.00     0.124 S 
ATOM     85  O   UNL A   1      40.954  18.775  25.681  1.00  0.00    -0.237 OA
ATOM     86  O   UNL A   1      43.272  18.301  24.957  1.00  0.00    -0.237 OA
ATOM     87  O   UNL A   1      42.645  18.040  27.325  1.00  0.00    -0.744 OA
ENDBRANCH  83  84
ENDBRANCH  51  76
BRANCH  63  88
ATOM     88  C   UNL A   1      49.479  26.609  26.592  1.00  0.00     0.058 A 
ATOM     89  C   UNL A   1      50.289  26.038  27.585  1.00  0.00     0.135 A 
ATOM     90  C   UNL A   1      50.006  26.718  25.295  1.00  0.00     0.135 A 
ATOM     91  F   UNL A   1      49.834  25.917  28.843  1.00  0.00    -0.206 F 
ATOM     92  C   UNL A   1      51.584  25.615  27.309  1.00  0.00     0.059 A 
ATOM     93  C   UNL A   1      51.284  26.267  24.987  1.00  0.00     0.059 A 
ATOM     94  F   UNL A   1      49.267  27.244  24.305  1.00  0.00    -0.206 F 
ATOM     95  C   UNL A   1      52.070  25.729  26.004  1.00  0.00     0.060 A 
BRANCH  95  96
ATOM     96  S   UNL A   1      53.739  25.139  25.654  1.00  0.00     0.124 S 
ATOM     97  O   UNL A   1      54.452  25.543  26.861  1.00  0.00    -0.237 OA
ATOM     98  O   UNL A   1      53.532  23.703  25.490  1.00  0.00    -0.237 OA
ATOM     99  O   UNL A   1      54.105  25.857  24.438  1.00  0.00    -0.744 OA
ENDBRANCH  95  96
ENDBRANCH  63  88
ENDBRANCH  37  38
ENDBRANCH  29  32
ENDBRANCH  27  28
ENDBRANCH   1  27
TORSDOF 16
ENDMDL
