MODEL 1
REMARK VINA RESULT:     -15.0      0.000      0.000
REMARK SMILES Cc1cccc(CNC(=O)N[C@@H](CC2=c3ccccc3=NC2)C(=O)NCCCNC(=O)c2ccc(-c3c4nc(c(-c5c(F)cc(S(=O)(=O)[O-])cc5F)c5ccc([nH]5)c(-c5c(F)cc(S(=O)(=O)[O-])cc5F)c5nc(c(-c6c(F)cc(S(=O)(=O)[O-])cc6F)c6ccc3[nH]6)C=C5)C=C4)cc2)c1
REMARK SMILES IDX 27 1 26 2 25 3 23 4 24 5 12 7 11 8 8 9 9 10 10 12 7 14 6 15
REMARK SMILES IDX 1 16 2 17 3 18 98 19 4 20 5 21 13 22 14 23 15 24 22 25 16 26
REMARK SMILES IDX 20 27 21 28 17 29 19 30 18 31 28 32 29 33 30 34 31 36 32 37
REMARK SMILES IDX 33 38 97 39 34 40 96 41 35 42 36 43 37 44 90 45 38 46 95 47
REMARK SMILES IDX 89 48 91 49 39 50 94 51 88 52 87 53 40 55 74 56 53 57 73 58
REMARK SMILES IDX 54 59 57 60 72 61 92 62 55 63 56 64 71 66 93 67 58 68 41 69
REMARK SMILES IDX 42 70 51 71 43 72 44 73 50 74 52 75 45 76 46 77 47 78 48 79
REMARK SMILES IDX 49 80 75 81 76 82 85 83 77 84 78 85 84 86 86 87 79 88 80 89
REMARK SMILES IDX 81 90 82 91 83 92 59 93 60 94 69 95 61 96 62 97 68 98 70 99
REMARK SMILES IDX 63 100 64 101 65 102 66 103 67 104
REMARK H PARENT 25 6 8 11 11 13 29 35 91 54 57 65
REMARK Flexibility Score: inf
ROOT
ATOM      1  C   UNL A   1      32.975  29.881  27.185  1.00  0.00     0.042 C 
ENDROOT
BRANCH   1   2
ATOM      2  C   UNL A   1      32.419  29.726  25.777  1.00  0.00     0.117 C 
BRANCH   2   3
ATOM      3  N   UNL A   1      33.434  29.638  24.740  1.00  0.00    -0.354 N 
ATOM      4  C   UNL A   1      33.859  28.586  23.984  1.00  0.00     0.242 C 
ATOM      5  O   UNL A   1      34.510  28.871  22.968  1.00  0.00    -0.273 OA
ATOM      6  H   UNL A   1      33.895  30.487  24.551  1.00  0.00     0.163 HD
BRANCH   4   7
ATOM      7  C   UNL A   1      33.502  27.096  24.251  1.00  0.00     0.177 C 
BRANCH   7   8
ATOM      8  N   UNL A   1      33.536  26.268  23.047  1.00  0.00    -0.326 N 
ATOM      9  N   UNL A   1      31.475  26.774  22.030  1.00  0.00    -0.334 N 
ATOM     10  C   UNL A   1      32.748  26.355  21.960  1.00  0.00     0.315 C 
ATOM     11  H   UNL A   1      31.149  27.237  21.224  1.00  0.00     0.165 HD
ATOM     12  O   UNL A   1      33.212  26.039  20.865  1.00  0.00    -0.249 OA
ATOM     13  H   UNL A   1      34.220  25.559  23.029  1.00  0.00     0.166 HD
BRANCH   9  14
ATOM     14  C   UNL A   1      30.499  26.656  23.097  1.00  0.00     0.153 C 
BRANCH  14  15
ATOM     15  C   UNL A   1      29.420  27.712  23.057  1.00  0.00    -0.028 A 
ATOM     16  C   UNL A   1      29.088  31.359  21.952  1.00  0.00     0.044 C 
ATOM     17  C   UNL A   1      28.751  29.994  22.471  1.00  0.00    -0.051 A 
ATOM     18  C   UNL A   1      27.456  29.724  22.925  1.00  0.00     0.003 A 
ATOM     19  C   UNL A   1      29.724  28.986  22.544  1.00  0.00     0.009 A 
ATOM     20  C   UNL A   1      27.132  28.460  23.413  1.00  0.00     0.001 A 
ATOM     21  C   UNL A   1      28.104  27.460  23.471  1.00  0.00     0.005 A 
ENDBRANCH  14  15
ENDBRANCH   9  14
ENDBRANCH   7   8
BRANCH   7  22
ATOM     22  C   UNL A   1      34.180  26.406  25.463  1.00  0.00     0.068 C 
BRANCH  22  23
ATOM     23  C   UNL A   1      33.934  24.949  25.651  1.00  0.00    -0.037 C 
ATOM     24  C   UNL A   1      34.834  23.979  25.520  1.00  0.00     0.001 A 
ATOM     25  C   UNL A   1      32.578  24.376  25.919  1.00  0.00     0.174 C 
ATOM     26  C   UNL A   1      36.228  23.958  25.217  1.00  0.00     0.010 A 
ATOM     27  C   UNL A   1      33.991  22.773  25.460  1.00  0.00     0.065 A 
ATOM     28  N   UNL A   1      32.725  22.918  25.719  1.00  0.00    -0.280 NA
ATOM     29  C   UNL A   1      36.748  22.831  24.711  1.00  0.00     0.001 A 
ATOM     30  C   UNL A   1      34.646  21.561  24.931  1.00  0.00     0.028 A 
ATOM     31  C   UNL A   1      35.917  21.661  24.502  1.00  0.00     0.002 A 
ENDBRANCH  22  23
ENDBRANCH   7  22
ENDBRANCH   4   7
ENDBRANCH   2   3
ENDBRANCH   1   2
BRANCH   1  32
ATOM     32  C   UNL A   1      34.491  29.679  27.252  1.00  0.00     0.118 C 
BRANCH  32  33
ATOM     33  N   UNL A   1      35.155  30.781  27.959  1.00  0.00    -0.352 N 
ATOM     34  C   UNL A   1      36.371  30.819  28.615  1.00  0.00     0.251 C 
ATOM     35  H   UNL A   1      34.654  31.629  27.967  1.00  0.00     0.163 HD
ATOM     36  O   UNL A   1      36.774  31.828  29.186  1.00  0.00    -0.269 OA
BRANCH  34  37
ATOM     37  C   UNL A   1      37.205  29.611  28.568  1.00  0.00     0.039 A 
ATOM     38  C   UNL A   1      37.358  28.868  29.743  1.00  0.00     0.014 A 
ATOM     39  C   UNL A   1      38.057  29.454  27.482  1.00  0.00     0.014 A 
ATOM     40  C   UNL A   1      38.518  28.127  29.912  1.00  0.00     0.010 A 
ATOM     41  C   UNL A   1      39.269  28.847  27.713  1.00  0.00     0.010 A 
ATOM     42  C   UNL A   1      39.514  28.228  28.947  1.00  0.00    -0.014 A 
BRANCH  42  43
ATOM     43  C   UNL A   1      40.865  27.726  29.139  1.00  0.00     0.031 A 
ATOM     44  C   UNL A   1      41.166  26.362  28.659  1.00  0.00     0.074 A 
ATOM     45  C   UNL A   1      41.809  28.529  29.675  1.00  0.00     0.049 A 
ATOM     46  N   UNL A   1      42.170  25.648  29.031  1.00  0.00    -0.248 NA
ATOM     47  C   UNL A   1      40.270  25.660  27.743  1.00  0.00     0.031 C 
ATOM     48  C   UNL A   1      43.254  28.327  29.668  1.00  0.00     0.029 A 
ATOM     49  N   UNL A   1      41.610  29.633  30.522  1.00  0.00    -0.354 N 
ATOM     50  C   UNL A   1      42.190  24.511  28.247  1.00  0.00     0.074 A 
ATOM     51  C   UNL A   1      40.956  24.544  27.503  1.00  0.00     0.031 C 
ATOM     52  C   UNL A   1      43.797  29.077  30.642  1.00  0.00     0.029 A 
ATOM     53  C   UNL A   1      42.698  29.637  31.418  1.00  0.00     0.049 A 
ATOM     54  H   UNL A   1      40.863  30.273  30.496  1.00  0.00     0.167 HD
ATOM     55  C   UNL A   1      43.312  23.738  28.218  1.00  0.00     0.037 A 
ATOM     56  C   UNL A   1      42.523  29.403  32.753  1.00  0.00     0.037 A 
ATOM     57  C   UNL A   1      44.279  24.219  29.204  1.00  0.00     0.049 A 
ATOM     58  C   UNL A   1      43.239  28.169  33.252  1.00  0.00     0.074 A 
ATOM     59  C   UNL A   1      45.353  25.089  29.106  1.00  0.00     0.029 A 
ATOM     60  N   UNL A   1      43.984  24.115  30.561  1.00  0.00    -0.354 N 
ATOM     61  N   UNL A   1      43.605  27.169  32.496  1.00  0.00    -0.248 NA
ATOM     62  C   UNL A   1      43.602  27.980  34.651  1.00  0.00     0.031 C 
ATOM     63  C   UNL A   1      45.642  25.581  30.404  1.00  0.00     0.029 A 
ATOM     64  C   UNL A   1      44.777  24.977  31.300  1.00  0.00     0.049 A 
ATOM     65  H   UNL A   1      43.305  23.513  30.943  1.00  0.00     0.167 HD
ATOM     66  C   UNL A   1      44.217  26.214  33.269  1.00  0.00     0.074 A 
ATOM     67  C   UNL A   1      44.215  26.786  34.604  1.00  0.00     0.031 C 
ATOM     68  C   UNL A   1      44.669  25.032  32.754  1.00  0.00     0.037 A 
BRANCH  55  69
ATOM     69  C   UNL A   1      43.631  22.808  27.060  1.00  0.00     0.058 A 
ATOM     70  C   UNL A   1      42.911  21.608  26.882  1.00  0.00     0.135 A 
ATOM     71  C   UNL A   1      44.696  22.986  26.152  1.00  0.00     0.135 A 
ATOM     72  F   UNL A   1      41.799  21.350  27.584  1.00  0.00    -0.206 F 
ATOM     73  C   UNL A   1      43.304  20.610  25.985  1.00  0.00     0.059 A 
ATOM     74  C   UNL A   1      45.153  21.977  25.298  1.00  0.00     0.059 A 
ATOM     75  F   UNL A   1      45.305  24.172  26.017  1.00  0.00    -0.206 F 
ATOM     76  C   UNL A   1      44.454  20.783  25.227  1.00  0.00     0.060 A 
BRANCH  76  77
ATOM     77  S   UNL A   1      45.003  19.449  24.144  1.00  0.00     0.124 S 
ATOM     78  O   UNL A   1      44.479  19.866  22.847  1.00  0.00    -0.237 OA
ATOM     79  O   UNL A   1      46.453  19.517  24.295  1.00  0.00    -0.237 OA
ATOM     80  O   UNL A   1      44.369  18.264  24.715  1.00  0.00    -0.744 OA
ENDBRANCH  76  77
ENDBRANCH  55  69
BRANCH  56  81
ATOM     81  C   UNL A   1      41.259  29.929  33.340  1.00  0.00     0.058 A 
ATOM     82  C   UNL A   1      41.143  31.305  33.602  1.00  0.00     0.135 A 
ATOM     83  C   UNL A   1      40.075  29.182  33.297  1.00  0.00     0.135 A 
ATOM     84  F   UNL A   1      42.246  32.070  33.655  1.00  0.00    -0.206 F 
ATOM     85  C   UNL A   1      39.902  31.939  33.672  1.00  0.00     0.059 A 
ATOM     86  C   UNL A   1      38.823  29.800  33.322  1.00  0.00     0.059 A 
ATOM     87  F   UNL A   1      40.122  27.858  33.087  1.00  0.00    -0.206 F 
ATOM     88  C   UNL A   1      38.755  31.187  33.430  1.00  0.00     0.060 A 
BRANCH  88  89
ATOM     89  S   UNL A   1      37.199  32.024  33.039  1.00  0.00     0.124 S 
ATOM     90  O   UNL A   1      36.421  30.980  32.379  1.00  0.00    -0.237 OA
ATOM     91  O   UNL A   1      36.740  32.391  34.376  1.00  0.00    -0.237 OA
ATOM     92  O   UNL A   1      37.630  33.125  32.185  1.00  0.00    -0.744 OA
ENDBRANCH  88  89
ENDBRANCH  56  81
BRANCH  68  93
ATOM     93  C   UNL A   1      45.132  23.827  33.550  1.00  0.00     0.058 A 
ATOM     94  C   UNL A   1      46.417  23.688  34.102  1.00  0.00     0.135 A 
ATOM     95  C   UNL A   1      44.203  22.820  33.920  1.00  0.00     0.135 A 
ATOM     96  F   UNL A   1      47.364  24.618  33.923  1.00  0.00    -0.206 F 
ATOM     97  C   UNL A   1      46.770  22.609  34.918  1.00  0.00     0.059 A 
ATOM     98  C   UNL A   1      44.516  21.777  34.786  1.00  0.00     0.059 A 
ATOM     99  F   UNL A   1      42.941  22.828  33.469  1.00  0.00    -0.206 F 
ATOM    100  C   UNL A   1      45.810  21.666  35.264  1.00  0.00     0.060 A 
BRANCH 100 101
ATOM    101  S   UNL A   1      46.226  20.337  36.406  1.00  0.00     0.124 S 
ATOM    102  O   UNL A   1      45.437  19.233  35.868  1.00  0.00    -0.237 OA
ATOM    103  O   UNL A   1      47.672  20.214  36.249  1.00  0.00    -0.237 OA
ATOM    104  O   UNL A   1      45.788  20.859  37.697  1.00  0.00    -0.744 OA
ENDBRANCH 100 101
ENDBRANCH  68  93
ENDBRANCH  42  43
ENDBRANCH  34  37
ENDBRANCH  32  33
ENDBRANCH   1  32
TORSDOF 18
ENDMDL
MODEL 2
REMARK VINA RESULT:     -14.9      4.763     11.118
REMARK SMILES Cc1cccc(CNC(=O)N[C@@H](CC2=c3ccccc3=NC2)C(=O)NCCCNC(=O)c2ccc(-c3c4nc(c(-c5c(F)cc(S(=O)(=O)[O-])cc5F)c5ccc([nH]5)c(-c5c(F)cc(S(=O)(=O)[O-])cc5F)c5nc(c(-c6c(F)cc(S(=O)(=O)[O-])cc6F)c6ccc3[nH]6)C=C5)C=C4)cc2)c1
REMARK SMILES IDX 27 1 26 2 25 3 23 4 24 5 12 7 11 8 8 9 9 10 10 12 7 14 6 15
REMARK SMILES IDX 1 16 2 17 3 18 98 19 4 20 5 21 13 22 14 23 15 24 22 25 16 26
REMARK SMILES IDX 20 27 21 28 17 29 19 30 18 31 28 32 29 33 30 34 31 36 32 37
REMARK SMILES IDX 33 38 97 39 34 40 96 41 35 42 36 43 37 44 90 45 38 46 95 47
REMARK SMILES IDX 89 48 91 49 39 50 94 51 88 52 87 53 40 55 74 56 53 57 73 58
REMARK SMILES IDX 54 59 57 60 72 61 92 62 55 63 56 64 71 66 93 67 58 68 41 69
REMARK SMILES IDX 42 70 51 71 43 72 44 73 50 74 52 75 45 76 46 77 47 78 48 79
REMARK SMILES IDX 49 80 75 81 76 82 85 83 77 84 78 85 84 86 86 87 79 88 80 89
REMARK SMILES IDX 81 90 82 91 83 92 59 93 60 94 69 95 61 96 62 97 68 98 70 99
REMARK SMILES IDX 63 100 64 101 65 102 66 103 67 104
REMARK H PARENT 25 6 8 11 11 13 29 35 91 54 57 65
REMARK Flexibility Score: inf
ROOT
ATOM      1  C   UNL A   1      37.676  22.118  25.610  1.00  0.00     0.042 C 
ENDROOT
BRANCH   1   2
ATOM      2  C   UNL A   1      36.312  21.951  26.263  1.00  0.00     0.117 C 
BRANCH   2   3
ATOM      3  N   UNL A   1      35.574  20.781  25.816  1.00  0.00    -0.354 N 
ATOM      4  C   UNL A   1      34.424  20.664  25.093  1.00  0.00     0.242 C 
ATOM      5  O   UNL A   1      34.203  19.550  24.595  1.00  0.00    -0.273 OA
ATOM      6  H   UNL A   1      35.976  19.923  26.081  1.00  0.00     0.163 HD
BRANCH   4   7
ATOM      7  C   UNL A   1      33.449  21.833  24.776  1.00  0.00     0.177 C 
BRANCH   7   8
ATOM      8  N   UNL A   1      33.776  22.541  23.539  1.00  0.00    -0.326 N 
ATOM      9  N   UNL A   1      34.977  24.405  24.329  1.00  0.00    -0.334 N 
ATOM     10  C   UNL A   1      34.678  23.524  23.362  1.00  0.00     0.315 C 
ATOM     11  H   UNL A   1      35.901  24.746  24.304  1.00  0.00     0.165 HD
ATOM     12  O   UNL A   1      35.248  23.616  22.276  1.00  0.00    -0.249 OA
ATOM     13  H   UNL A   1      33.276  22.265  22.737  1.00  0.00     0.166 HD
BRANCH   9  14
ATOM     14  C   UNL A   1      34.164  24.938  25.406  1.00  0.00     0.153 C 
BRANCH  14  15
ATOM     15  C   UNL A   1      33.726  26.367  25.189  1.00  0.00    -0.028 A 
ATOM     16  C   UNL A   1      32.244  29.207  27.281  1.00  0.00     0.044 C 
ATOM     17  C   UNL A   1      32.813  28.437  26.127  1.00  0.00    -0.051 A 
ATOM     18  C   UNL A   1      32.913  29.043  24.870  1.00  0.00     0.003 A 
ATOM     19  C   UNL A   1      33.218  27.102  26.275  1.00  0.00     0.009 A 
ATOM     20  C   UNL A   1      33.437  28.337  23.790  1.00  0.00     0.001 A 
ATOM     21  C   UNL A   1      33.847  27.012  23.950  1.00  0.00     0.005 A 
ENDBRANCH  14  15
ENDBRANCH   9  14
ENDBRANCH   7   8
BRANCH   7  22
ATOM     22  C   UNL A   1      31.930  21.553  24.912  1.00  0.00     0.068 C 
BRANCH  22  23
ATOM     23  C   UNL A   1      31.076  22.643  25.460  1.00  0.00    -0.037 C 
ATOM     24  C   UNL A   1      30.623  23.697  24.787  1.00  0.00     0.001 A 
ATOM     25  C   UNL A   1      30.698  22.738  26.904  1.00  0.00     0.174 C 
ATOM     26  C   UNL A   1      30.735  24.128  23.432  1.00  0.00     0.010 A 
ATOM     27  C   UNL A   1      30.166  24.587  25.867  1.00  0.00     0.065 A 
ATOM     28  N   UNL A   1      30.139  24.098  27.072  1.00  0.00    -0.280 NA
ATOM     29  C   UNL A   1      30.567  25.431  23.167  1.00  0.00     0.001 A 
ATOM     30  C   UNL A   1      29.963  25.999  25.489  1.00  0.00     0.028 A 
ATOM     31  C   UNL A   1      30.256  26.368  24.229  1.00  0.00     0.002 A 
ENDBRANCH  22  23
ENDBRANCH   7  22
ENDBRANCH   4   7
ENDBRANCH   2   3
ENDBRANCH   1   2
BRANCH   1  32
ATOM     32  C   UNL A   1      38.320  23.472  25.914  1.00  0.00     0.118 C 
BRANCH  32  33
ATOM     33  N   UNL A   1      39.687  23.319  26.428  1.00  0.00    -0.352 N 
ATOM     34  C   UNL A   1      40.519  24.236  27.044  1.00  0.00     0.251 C 
ATOM     35  H   UNL A   1      40.073  22.421  26.317  1.00  0.00     0.163 HD
ATOM     36  O   UNL A   1      41.659  23.950  27.394  1.00  0.00    -0.269 OA
BRANCH  34  37
ATOM     37  C   UNL A   1      39.972  25.572  27.316  1.00  0.00     0.039 A 
ATOM     38  C   UNL A   1      40.416  26.640  26.530  1.00  0.00     0.014 A 
ATOM     39  C   UNL A   1      39.320  25.770  28.526  1.00  0.00     0.014 A 
ATOM     40  C   UNL A   1      40.409  27.914  27.078  1.00  0.00     0.010 A 
ATOM     41  C   UNL A   1      39.456  27.002  29.122  1.00  0.00     0.010 A 
ATOM     42  C   UNL A   1      40.046  28.058  28.413  1.00  0.00    -0.014 A 
BRANCH  42  43
ATOM     43  C   UNL A   1      40.258  29.281  29.170  1.00  0.00     0.031 A 
ATOM     44  C   UNL A   1      39.172  30.282  29.176  1.00  0.00     0.074 A 
ATOM     45  C   UNL A   1      41.389  29.436  29.891  1.00  0.00     0.049 A 
ATOM     46  N   UNL A   1      39.305  31.521  29.496  1.00  0.00    -0.248 NA
ATOM     47  C   UNL A   1      37.822  29.946  28.731  1.00  0.00     0.031 C 
ATOM     48  C   UNL A   1      41.649  30.424  30.932  1.00  0.00     0.029 A 
ATOM     49  N   UNL A   1      42.632  28.815  29.674  1.00  0.00    -0.354 N 
ATOM     50  C   UNL A   1      38.045  32.084  29.530  1.00  0.00     0.074 A 
ATOM     51  C   UNL A   1      37.166  31.076  28.992  1.00  0.00     0.031 C 
ATOM     52  C   UNL A   1      42.978  30.539  31.092  1.00  0.00     0.029 A 
ATOM     53  C   UNL A   1      43.609  29.765  30.031  1.00  0.00     0.049 A 
ATOM     54  H   UNL A   1      42.788  27.902  29.341  1.00  0.00     0.167 HD
ATOM     55  C   UNL A   1      37.868  33.293  30.134  1.00  0.00     0.037 A 
ATOM     56  C   UNL A   1      44.449  30.309  29.100  1.00  0.00     0.037 A 
ATOM     57  C   UNL A   1      39.162  33.857  30.518  1.00  0.00     0.049 A 
ATOM     58  C   UNL A   1      44.299  31.805  28.948  1.00  0.00     0.074 A 
ATOM     59  C   UNL A   1      39.880  33.813  31.702  1.00  0.00     0.029 A 
ATOM     60  N   UNL A   1      40.062  34.243  29.529  1.00  0.00    -0.354 N 
ATOM     61  N   UNL A   1      43.232  32.480  29.280  1.00  0.00    -0.248 NA
ATOM     62  C   UNL A   1      45.356  32.652  28.411  1.00  0.00     0.031 C 
ATOM     63  C   UNL A   1      41.240  34.084  31.403  1.00  0.00     0.029 A 
ATOM     64  C   UNL A   1      41.343  34.339  30.046  1.00  0.00     0.049 A 
ATOM     65  H   UNL A   1      39.823  34.422  28.591  1.00  0.00     0.167 HD
ATOM     66  C   UNL A   1      43.428  33.809  29.000  1.00  0.00     0.074 A 
ATOM     67  C   UNL A   1      44.785  33.865  28.485  1.00  0.00     0.031 C 
ATOM     68  C   UNL A   1      42.461  34.753  29.205  1.00  0.00     0.037 A 
BRANCH  55  69
ATOM     69  C   UNL A   1      36.521  33.746  30.670  1.00  0.00     0.058 A 
ATOM     70  C   UNL A   1      35.504  34.176  29.791  1.00  0.00     0.135 A 
ATOM     71  C   UNL A   1      36.201  33.880  32.038  1.00  0.00     0.135 A 
ATOM     72  F   UNL A   1      35.607  34.001  28.467  1.00  0.00    -0.206 F 
ATOM     73  C   UNL A   1      34.340  34.815  30.228  1.00  0.00     0.059 A 
ATOM     74  C   UNL A   1      35.080  34.579  32.499  1.00  0.00     0.059 A 
ATOM     75  F   UNL A   1      36.937  33.286  32.986  1.00  0.00    -0.206 F 
ATOM     76  C   UNL A   1      34.156  35.055  31.583  1.00  0.00     0.060 A 
BRANCH  76  77
ATOM     77  S   UNL A   1      32.697  35.965  32.125  1.00  0.00     0.124 S 
ATOM     78  O   UNL A   1      31.835  34.900  32.629  1.00  0.00    -0.237 OA
ATOM     79  O   UNL A   1      33.257  36.859  33.133  1.00  0.00    -0.237 OA
ATOM     80  O   UNL A   1      32.227  36.614  30.905  1.00  0.00    -0.744 OA
ENDBRANCH  76  77
ENDBRANCH  55  69
BRANCH  56  81
ATOM     81  C   UNL A   1      44.871  29.396  28.002  1.00  0.00     0.058 A 
ATOM     82  C   UNL A   1      45.866  28.435  28.250  1.00  0.00     0.135 A 
ATOM     83  C   UNL A   1      44.073  29.214  26.864  1.00  0.00     0.135 A 
ATOM     84  F   UNL A   1      46.661  28.559  29.326  1.00  0.00    -0.206 F 
ATOM     85  C   UNL A   1      45.971  27.270  27.490  1.00  0.00     0.059 A 
ATOM     86  C   UNL A   1      44.132  28.038  26.115  1.00  0.00     0.059 A 
ATOM     87  F   UNL A   1      43.131  30.115  26.553  1.00  0.00    -0.206 F 
ATOM     88  C   UNL A   1      45.030  27.040  26.489  1.00  0.00     0.060 A 
BRANCH  88  89
ATOM     89  S   UNL A   1      44.827  25.374  25.812  1.00  0.00     0.124 S 
ATOM     90  O   UNL A   1      44.902  24.527  26.999  1.00  0.00    -0.237 OA
ATOM     91  O   UNL A   1      43.502  25.482  25.207  1.00  0.00    -0.237 OA
ATOM     92  O   UNL A   1      45.948  25.263  24.886  1.00  0.00    -0.744 OA
ENDBRANCH  88  89
ENDBRANCH  56  81
BRANCH  68  93
ATOM     93  C   UNL A   1      42.489  36.186  28.709  1.00  0.00     0.058 A 
ATOM     94  C   UNL A   1      43.076  37.255  29.407  1.00  0.00     0.135 A 
ATOM     95  C   UNL A   1      42.046  36.492  27.396  1.00  0.00     0.135 A 
ATOM     96  F   UNL A   1      43.631  37.086  30.615  1.00  0.00    -0.206 F 
ATOM     97  C   UNL A   1      43.172  38.540  28.868  1.00  0.00     0.059 A 
ATOM     98  C   UNL A   1      42.196  37.748  26.816  1.00  0.00     0.059 A 
ATOM     99  F   UNL A   1      41.469  35.568  26.615  1.00  0.00    -0.206 F 
ATOM    100  C   UNL A   1      42.742  38.775  27.567  1.00  0.00     0.060 A 
BRANCH 100 101
ATOM    101  S   UNL A   1      42.967  40.400  26.823  1.00  0.00     0.124 S 
ATOM    102  O   UNL A   1      43.954  40.111  25.788  1.00  0.00    -0.237 OA
ATOM    103  O   UNL A   1      41.627  40.726  26.345  1.00  0.00    -0.237 OA
ATOM    104  O   UNL A   1      43.439  41.213  27.940  1.00  0.00    -0.744 OA
ENDBRANCH 100 101
ENDBRANCH  68  93
ENDBRANCH  42  43
ENDBRANCH  34  37
ENDBRANCH  32  33
ENDBRANCH   1  32
TORSDOF 18
ENDMDL
MODEL 3
REMARK VINA RESULT:     -14.6      4.824     11.461
REMARK SMILES Cc1cccc(CNC(=O)N[C@@H](CC2=c3ccccc3=NC2)C(=O)NCCCNC(=O)c2ccc(-c3c4nc(c(-c5c(F)cc(S(=O)(=O)[O-])cc5F)c5ccc([nH]5)c(-c5c(F)cc(S(=O)(=O)[O-])cc5F)c5nc(c(-c6c(F)cc(S(=O)(=O)[O-])cc6F)c6ccc3[nH]6)C=C5)C=C4)cc2)c1
REMARK SMILES IDX 27 1 26 2 25 3 23 4 24 5 12 7 11 8 8 9 9 10 10 12 7 14 6 15
REMARK SMILES IDX 1 16 2 17 3 18 98 19 4 20 5 21 13 22 14 23 15 24 22 25 16 26
REMARK SMILES IDX 20 27 21 28 17 29 19 30 18 31 28 32 29 33 30 34 31 36 32 37
REMARK SMILES IDX 33 38 97 39 34 40 96 41 35 42 36 43 37 44 90 45 38 46 95 47
REMARK SMILES IDX 89 48 91 49 39 50 94 51 88 52 87 53 40 55 74 56 53 57 73 58
REMARK SMILES IDX 54 59 57 60 72 61 92 62 55 63 56 64 71 66 93 67 58 68 41 69
REMARK SMILES IDX 42 70 51 71 43 72 44 73 50 74 52 75 45 76 46 77 47 78 48 79
REMARK SMILES IDX 49 80 75 81 76 82 85 83 77 84 78 85 84 86 86 87 79 88 80 89
REMARK SMILES IDX 81 90 82 91 83 92 59 93 60 94 69 95 61 96 62 97 68 98 70 99
REMARK SMILES IDX 63 100 64 101 65 102 66 103 67 104
REMARK H PARENT 25 6 8 11 11 13 29 35 91 54 57 65
REMARK Flexibility Score: inf
ROOT
ATOM      1  C   UNL A   1      37.758  22.139  25.316  1.00  0.00     0.042 C 
ENDROOT
BRANCH   1   2
ATOM      2  C   UNL A   1      36.241  22.017  25.277  1.00  0.00     0.117 C 
BRANCH   2   3
ATOM      3  N   UNL A   1      35.601  22.098  26.579  1.00  0.00    -0.354 N 
ATOM      4  C   UNL A   1      34.493  22.773  26.997  1.00  0.00     0.242 C 
ATOM      5  O   UNL A   1      34.005  22.408  28.076  1.00  0.00    -0.273 OA
ATOM      6  H   UNL A   1      36.047  21.573  27.283  1.00  0.00     0.163 HD
BRANCH   4   7
ATOM      7  C   UNL A   1      33.760  23.874  26.178  1.00  0.00     0.177 C 
BRANCH   7   8
ATOM      8  N   UNL A   1      32.342  23.999  26.515  1.00  0.00    -0.326 N 
ATOM      9  N   UNL A   1      31.462  21.953  25.755  1.00  0.00    -0.334 N 
ATOM     10  C   UNL A   1      31.413  23.027  26.558  1.00  0.00     0.315 C 
ATOM     11  H   UNL A   1      31.076  21.133  26.140  1.00  0.00     0.165 HD
ATOM     12  O   UNL A   1      30.487  23.128  27.361  1.00  0.00    -0.249 OA
ATOM     13  H   UNL A   1      32.030  24.905  26.738  1.00  0.00     0.166 HD
BRANCH   9  14
ATOM     14  C   UNL A   1      31.991  21.801  24.412  1.00  0.00     0.153 C 
BRANCH  14  15
ATOM     15  C   UNL A   1      32.232  20.365  24.010  1.00  0.00    -0.028 A 
ATOM     16  C   UNL A   1      33.009  17.046  25.746  1.00  0.00     0.044 C 
ATOM     17  C   UNL A   1      32.704  18.058  24.683  1.00  0.00    -0.051 A 
ATOM     18  C   UNL A   1      32.666  17.666  23.341  1.00  0.00     0.003 A 
ATOM     19  C   UNL A   1      32.489  19.406  25.006  1.00  0.00     0.009 A 
ATOM     20  C   UNL A   1      32.388  18.598  22.345  1.00  0.00     0.001 A 
ATOM     21  C   UNL A   1      32.165  19.935  22.676  1.00  0.00     0.005 A 
ENDBRANCH  14  15
ENDBRANCH   9  14
ENDBRANCH   7   8
BRANCH   7  22
ATOM     22  C   UNL A   1      34.460  25.251  26.047  1.00  0.00     0.068 C 
BRANCH  22  23
ATOM     23  C   UNL A   1      33.770  26.300  25.246  1.00  0.00    -0.037 C 
ATOM     24  C   UNL A   1      33.472  27.530  25.656  1.00  0.00     0.001 A 
ATOM     25  C   UNL A   1      33.222  26.055  23.876  1.00  0.00     0.174 C 
ATOM     26  C   UNL A   1      33.699  28.251  26.866  1.00  0.00     0.010 A 
ATOM     27  C   UNL A   1      32.514  27.979  24.632  1.00  0.00     0.065 A 
ATOM     28  N   UNL A   1      32.360  27.222  23.587  1.00  0.00    -0.280 NA
ATOM     29  C   UNL A   1      32.896  29.287  27.144  1.00  0.00     0.001 A 
ATOM     30  C   UNL A   1      31.695  29.152  24.995  1.00  0.00     0.028 A 
ATOM     31  C   UNL A   1      31.843  29.675  26.225  1.00  0.00     0.002 A 
ENDBRANCH  22  23
ENDBRANCH   7  22
ENDBRANCH   4   7
ENDBRANCH   2   3
ENDBRANCH   1   2
BRANCH   1  32
ATOM     32  C   UNL A   1      38.235  23.391  26.056  1.00  0.00     0.118 C 
BRANCH  32  33
ATOM     33  N   UNL A   1      39.632  23.265  26.490  1.00  0.00    -0.352 N 
ATOM     34  C   UNL A   1      40.490  24.207  27.026  1.00  0.00     0.251 C 
ATOM     35  H   UNL A   1      40.020  22.366  26.383  1.00  0.00     0.163 HD
ATOM     36  O   UNL A   1      41.652  23.941  27.316  1.00  0.00    -0.269 OA
BRANCH  34  37
ATOM     37  C   UNL A   1      39.948  25.546  27.291  1.00  0.00     0.039 A 
ATOM     38  C   UNL A   1      40.403  26.609  26.505  1.00  0.00     0.014 A 
ATOM     39  C   UNL A   1      39.287  25.751  28.496  1.00  0.00     0.014 A 
ATOM     40  C   UNL A   1      40.397  27.885  27.050  1.00  0.00     0.010 A 
ATOM     41  C   UNL A   1      39.424  26.983  29.089  1.00  0.00     0.010 A 
ATOM     42  C   UNL A   1      40.025  28.034  28.382  1.00  0.00    -0.014 A 
BRANCH  42  43
ATOM     43  C   UNL A   1      40.237  29.259  29.137  1.00  0.00     0.031 A 
ATOM     44  C   UNL A   1      39.150  30.259  29.142  1.00  0.00     0.074 A 
ATOM     45  C   UNL A   1      41.368  29.414  29.857  1.00  0.00     0.049 A 
ATOM     46  N   UNL A   1      39.283  31.499  29.460  1.00  0.00    -0.248 NA
ATOM     47  C   UNL A   1      37.800  29.922  28.698  1.00  0.00     0.031 C 
ATOM     48  C   UNL A   1      41.628  30.404  30.898  1.00  0.00     0.029 A 
ATOM     49  N   UNL A   1      42.610  28.794  29.641  1.00  0.00    -0.354 N 
ATOM     50  C   UNL A   1      38.023  32.061  29.494  1.00  0.00     0.074 A 
ATOM     51  C   UNL A   1      37.144  31.052  28.958  1.00  0.00     0.031 C 
ATOM     52  C   UNL A   1      42.957  30.520  31.057  1.00  0.00     0.029 A 
ATOM     53  C   UNL A   1      43.588  29.745  29.996  1.00  0.00     0.049 A 
ATOM     54  H   UNL A   1      42.767  27.881  29.309  1.00  0.00     0.167 HD
ATOM     55  C   UNL A   1      37.846  33.271  30.097  1.00  0.00     0.037 A 
ATOM     56  C   UNL A   1      44.427  30.287  29.064  1.00  0.00     0.037 A 
ATOM     57  C   UNL A   1      39.139  33.836  30.480  1.00  0.00     0.049 A 
ATOM     58  C   UNL A   1      44.277  31.783  28.910  1.00  0.00     0.074 A 
ATOM     59  C   UNL A   1      39.858  33.794  31.664  1.00  0.00     0.029 A 
ATOM     60  N   UNL A   1      40.039  34.221  29.489  1.00  0.00    -0.354 N 
ATOM     61  N   UNL A   1      43.209  32.458  29.242  1.00  0.00    -0.248 NA
ATOM     62  C   UNL A   1      45.333  32.630  28.372  1.00  0.00     0.031 C 
ATOM     63  C   UNL A   1      41.218  34.065  31.363  1.00  0.00     0.029 A 
ATOM     64  C   UNL A   1      41.320  34.318  30.006  1.00  0.00     0.049 A 
ATOM     65  H   UNL A   1      39.800  34.399  28.552  1.00  0.00     0.167 HD
ATOM     66  C   UNL A   1      43.404  33.787  28.960  1.00  0.00     0.074 A 
ATOM     67  C   UNL A   1      44.762  33.843  28.445  1.00  0.00     0.031 C 
ATOM     68  C   UNL A   1      42.437  34.731  29.164  1.00  0.00     0.037 A 
BRANCH  55  69
ATOM     69  C   UNL A   1      36.498  33.725  30.633  1.00  0.00     0.058 A 
ATOM     70  C   UNL A   1      35.489  34.174  29.755  1.00  0.00     0.135 A 
ATOM     71  C   UNL A   1      36.172  33.840  32.001  1.00  0.00     0.135 A 
ATOM     72  F   UNL A   1      35.597  34.018  28.429  1.00  0.00    -0.206 F 
ATOM     73  C   UNL A   1      34.327  34.813  30.195  1.00  0.00     0.059 A 
ATOM     74  C   UNL A   1      35.053  34.539  32.466  1.00  0.00     0.059 A 
ATOM     75  F   UNL A   1      36.899  33.227  32.944  1.00  0.00    -0.206 F 
ATOM     76  C   UNL A   1      34.137  35.034  31.553  1.00  0.00     0.060 A 
BRANCH  76  77
ATOM     77  S   UNL A   1      32.680  35.945  32.101  1.00  0.00     0.124 S 
ATOM     78  O   UNL A   1      33.237  36.847  33.105  1.00  0.00    -0.237 OA
ATOM     79  O   UNL A   1      32.233  36.572  30.862  1.00  0.00    -0.237 OA
ATOM     80  O   UNL A   1      31.805  34.902  32.628  1.00  0.00    -0.744 OA
ENDBRANCH  76  77
ENDBRANCH  55  69
BRANCH  56  81
ATOM     81  C   UNL A   1      44.849  29.373  27.967  1.00  0.00     0.058 A 
ATOM     82  C   UNL A   1      45.848  28.417  28.215  1.00  0.00     0.135 A 
ATOM     83  C   UNL A   1      44.049  29.186  26.832  1.00  0.00     0.135 A 
ATOM     84  F   UNL A   1      46.646  28.547  29.288  1.00  0.00    -0.206 F 
ATOM     85  C   UNL A   1      45.955  27.250  27.458  1.00  0.00     0.059 A 
ATOM     86  C   UNL A   1      44.109  28.008  26.086  1.00  0.00     0.059 A 
ATOM     87  F   UNL A   1      43.102  30.083  26.521  1.00  0.00    -0.206 F 
ATOM     88  C   UNL A   1      45.012  27.015  26.460  1.00  0.00     0.060 A 
BRANCH  88  89
ATOM     89  S   UNL A   1      44.813  25.346  25.788  1.00  0.00     0.124 S 
ATOM     90  O   UNL A   1      44.869  24.504  26.979  1.00  0.00    -0.237 OA
ATOM     91  O   UNL A   1      43.496  25.455  25.165  1.00  0.00    -0.237 OA
ATOM     92  O   UNL A   1      45.945  25.227  24.878  1.00  0.00    -0.744 OA
ENDBRANCH  88  89
ENDBRANCH  56  81
BRANCH  68  93
ATOM     93  C   UNL A   1      42.465  36.163  28.667  1.00  0.00     0.058 A 
ATOM     94  C   UNL A   1      43.017  37.241  29.381  1.00  0.00     0.135 A 
ATOM     95  C   UNL A   1      42.061  36.463  27.340  1.00  0.00     0.135 A 
ATOM     96  F   UNL A   1      43.536  37.080  30.606  1.00  0.00    -0.206 F 
ATOM     97  C   UNL A   1      43.117  38.526  28.842  1.00  0.00     0.059 A 
ATOM     98  C   UNL A   1      42.215  37.719  26.761  1.00  0.00     0.059 A 
ATOM     99  F   UNL A   1      41.518  35.531  26.543  1.00  0.00    -0.206 F 
ATOM    100  C   UNL A   1      42.724  38.753  27.528  1.00  0.00     0.060 A 
BRANCH 100 101
ATOM    101  S   UNL A   1      42.955  40.379  26.788  1.00  0.00     0.124 S 
ATOM    102  O   UNL A   1      41.628  40.639  26.238  1.00  0.00    -0.237 OA
ATOM    103  O   UNL A   1      43.337  41.204  27.930  1.00  0.00    -0.237 OA
ATOM    104  O   UNL A   1      44.013  40.151  25.809  1.00  0.00    -0.744 OA
ENDBRANCH 100 101
ENDBRANCH  68  93
ENDBRANCH  42  43
ENDBRANCH  34  37
ENDBRANCH  32  33
ENDBRANCH   1  32
TORSDOF 18
ENDMDL
