MODEL 1
REMARK VINA RESULT:     -11.6      0.000      0.000
REMARK SMILES CC(C)NC(=O)CNC(=O)N1CCO[C@@H](CC(=O)NCCCNC(=O)c2ccc(-c3c4nc(c(-c5c(F)cc(S(=O)(=O)[O-])cc5F)c5ccc([nH]5)c(-c5c(F)cc(S(=O)(=O)[O-])cc5F)c5nc(c(-c6c(F)cc(S(=O)(=O)[O-])cc6F)c6ccc3[nH]6)C=C5)C=C4)cc2)C1
REMARK SMILES IDX 20 1 19 2 17 3 18 4 16 6 15 7 11 8 12 9 92 10 13 11 14 12
REMARK SMILES IDX 9 13 8 14 10 16 7 17 5 18 4 19 6 21 2 22 1 23 3 24 21 25
REMARK SMILES IDX 22 26 23 27 24 28 25 30 26 31 27 32 91 33 28 34 90 35 29 36
REMARK SMILES IDX 30 37 31 38 84 39 32 40 89 41 83 42 85 43 33 44 88 45 82 46
REMARK SMILES IDX 81 47 34 49 68 50 47 51 67 52 48 53 51 54 66 55 86 56 49 57
REMARK SMILES IDX 50 58 65 60 87 61 52 62 35 63 36 64 45 65 37 66 38 67 44 68
REMARK SMILES IDX 46 69 39 70 40 71 41 72 42 73 43 74 69 75 70 76 79 77 71 78
REMARK SMILES IDX 72 79 78 80 80 81 73 82 74 83 75 84 76 85 77 86 53 87 54 88
REMARK SMILES IDX 63 89 55 90 56 91 62 92 64 93 57 94 58 95 59 96 60 97 61 98
REMARK H PARENT 19 5 8 15 4 20 23 29 85 48 51 59
REMARK Flexibility Score: inf
ROOT
ATOM      1  C   UNL A   1      37.363  23.074  25.938  1.00  0.00     0.117 C 
ENDROOT
BRANCH   1   2
ATOM      2  N   UNL A   1      36.273  22.174  26.309  1.00  0.00    -0.356 N 
ATOM      3  C   UNL A   1      35.174  21.757  25.616  1.00  0.00     0.222 C 
ATOM      4  O   UNL A   1      34.382  21.005  26.189  1.00  0.00    -0.275 OA
ATOM      5  H   UNL A   1      36.344  21.805  27.218  1.00  0.00     0.163 HD
BRANCH   3   6
ATOM      6  C   UNL A   1      34.898  22.228  24.198  1.00  0.00     0.133 C 
BRANCH   6   7
ATOM      7  C   UNL A   1      33.811  23.305  24.158  1.00  0.00     0.147 C 
ATOM      8  N   UNL A   1      32.641  24.859  22.627  1.00  0.00    -0.320 N 
ATOM      9  C   UNL A   1      31.353  24.346  23.078  1.00  0.00     0.150 C 
ATOM     10  C   UNL A   1      33.725  23.916  22.762  1.00  0.00     0.154 C 
ATOM     11  C   UNL A   1      31.496  23.739  24.480  1.00  0.00     0.182 C 
ATOM     12  O   UNL A   1      32.534  22.734  24.520  1.00  0.00    -0.374 OA
BRANCH   8  13
ATOM     13  C   UNL A   1      32.779  25.828  21.668  1.00  0.00     0.318 C 
ATOM     14  N   UNL A   1      32.660  27.119  22.054  1.00  0.00    -0.329 N 
ATOM     15  H   UNL A   1      32.605  27.775  21.321  1.00  0.00     0.165 HD
ATOM     16  O   UNL A   1      33.157  25.576  20.525  1.00  0.00    -0.249 OA
BRANCH  14  17
ATOM     17  C   UNL A   1      32.604  27.675  23.396  1.00  0.00     0.217 C 
BRANCH  17  18
ATOM     18  C   UNL A   1      31.215  28.107  23.892  1.00  0.00     0.239 C 
ATOM     19  N   UNL A   1      31.027  28.715  25.098  1.00  0.00    -0.352 N 
ATOM     20  H   UNL A   1      30.091  28.942  25.300  1.00  0.00     0.163 HD
ATOM     21  O   UNL A   1      30.201  27.781  23.267  1.00  0.00    -0.273 OA
BRANCH  19  22
ATOM     22  C   UNL A   1      31.977  29.083  26.134  1.00  0.00     0.075 C 
ATOM     23  C   UNL A   1      31.985  30.592  26.345  1.00  0.00     0.030 C 
ATOM     24  C   UNL A   1      31.669  28.348  27.435  1.00  0.00     0.030 C 
ENDBRANCH  19  22
ENDBRANCH  17  18
ENDBRANCH  14  17
ENDBRANCH   8  13
ENDBRANCH   6   7
ENDBRANCH   3   6
ENDBRANCH   1   2
BRANCH   1  25
ATOM     25  C   UNL A   1      38.742  22.429  26.099  1.00  0.00     0.042 C 
BRANCH  25  26
ATOM     26  C   UNL A   1      39.729  23.217  26.946  1.00  0.00     0.118 C 
BRANCH  26  27
ATOM     27  N   UNL A   1      40.882  23.642  26.176  1.00  0.00    -0.352 N 
ATOM     28  C   UNL A   1      41.608  24.810  26.225  1.00  0.00     0.251 C 
ATOM     29  H   UNL A   1      41.197  22.988  25.510  1.00  0.00     0.163 HD
ATOM     30  O   UNL A   1      42.374  25.055  25.299  1.00  0.00    -0.269 OA
BRANCH  28  31
ATOM     31  C   UNL A   1      41.487  25.775  27.353  1.00  0.00     0.039 A 
ATOM     32  C   UNL A   1      40.399  25.643  28.226  1.00  0.00     0.014 A 
ATOM     33  C   UNL A   1      42.356  26.856  27.518  1.00  0.00     0.014 A 
ATOM     34  C   UNL A   1      40.208  26.561  29.266  1.00  0.00     0.010 A 
ATOM     35  C   UNL A   1      42.218  27.719  28.609  1.00  0.00     0.010 A 
ATOM     36  C   UNL A   1      41.128  27.598  29.485  1.00  0.00    -0.014 A 
BRANCH  36  37
ATOM     37  C   UNL A   1      40.945  28.576  30.595  1.00  0.00     0.031 A 
ATOM     38  C   UNL A   1      41.779  28.469  31.850  1.00  0.00     0.074 A 
ATOM     39  C   UNL A   1      39.999  29.533  30.502  1.00  0.00     0.049 A 
ATOM     40  N   UNL A   1      41.724  29.188  32.944  1.00  0.00    -0.248 NA
ATOM     41  C   UNL A   1      42.789  27.399  31.895  1.00  0.00     0.031 C 
ATOM     42  C   UNL A   1      39.087  29.714  29.370  1.00  0.00     0.029 A 
ATOM     43  N   UNL A   1      39.634  30.527  31.379  1.00  0.00    -0.354 N 
ATOM     44  C   UNL A   1      42.664  28.640  33.812  1.00  0.00     0.074 A 
ATOM     45  C   UNL A   1      43.252  27.507  33.133  1.00  0.00     0.031 C 
ATOM     46  C   UNL A   1      38.280  30.760  29.615  1.00  0.00     0.029 A 
ATOM     47  C   UNL A   1      38.586  31.302  30.935  1.00  0.00     0.049 A 
ATOM     48  H   UNL A   1      40.080  30.671  32.245  1.00  0.00     0.167 HD
ATOM     49  C   UNL A   1      43.017  29.054  35.052  1.00  0.00     0.037 A 
ATOM     50  C   UNL A   1      37.934  32.323  31.528  1.00  0.00     0.037 A 
ATOM     51  C   UNL A   1      42.472  30.218  35.702  1.00  0.00     0.049 A 
ATOM     52  C   UNL A   1      38.373  32.783  32.894  1.00  0.00     0.074 A 
ATOM     53  C   UNL A   1      42.841  30.774  36.914  1.00  0.00     0.029 A 
ATOM     54  N   UNL A   1      41.445  31.001  35.199  1.00  0.00    -0.354 N 
ATOM     55  N   UNL A   1      39.329  32.307  33.657  1.00  0.00    -0.248 NA
ATOM     56  C   UNL A   1      37.653  33.924  33.478  1.00  0.00     0.031 C 
ATOM     57  C   UNL A   1      42.003  31.864  37.169  1.00  0.00     0.029 A 
ATOM     58  C   UNL A   1      41.149  32.019  36.090  1.00  0.00     0.049 A 
ATOM     59  H   UNL A   1      40.993  30.856  34.336  1.00  0.00     0.167 HD
ATOM     60  C   UNL A   1      39.340  33.107  34.795  1.00  0.00     0.074 A 
ATOM     61  C   UNL A   1      38.310  34.107  34.615  1.00  0.00     0.031 C 
ATOM     62  C   UNL A   1      40.132  33.019  35.892  1.00  0.00     0.037 A 
BRANCH  49  63
ATOM     63  C   UNL A   1      44.049  28.258  35.804  1.00  0.00     0.058 A 
ATOM     64  C   UNL A   1      45.422  28.527  35.688  1.00  0.00     0.135 A 
ATOM     65  C   UNL A   1      43.652  27.276  36.727  1.00  0.00     0.135 A 
ATOM     66  F   UNL A   1      45.859  29.445  34.810  1.00  0.00    -0.206 F 
ATOM     67  C   UNL A   1      46.364  27.847  36.453  1.00  0.00     0.059 A 
ATOM     68  C   UNL A   1      44.573  26.601  37.522  1.00  0.00     0.059 A 
ATOM     69  F   UNL A   1      42.351  26.978  36.877  1.00  0.00    -0.206 F 
ATOM     70  C   UNL A   1      45.929  26.890  37.374  1.00  0.00     0.060 A 
BRANCH  70  71
ATOM     71  S   UNL A   1      47.161  26.055  38.395  1.00  0.00     0.124 S 
ATOM     72  O   UNL A   1      46.315  25.370  39.369  1.00  0.00    -0.237 OA
ATOM     73  O   UNL A   1      47.837  25.195  37.428  1.00  0.00    -0.237 OA
ATOM     74  O   UNL A   1      47.965  27.151  38.926  1.00  0.00    -0.744 OA
ENDBRANCH  70  71
ENDBRANCH  49  63
BRANCH  50  75
ATOM     75  C   UNL A   1      36.790  32.983  30.841  1.00  0.00     0.058 A 
ATOM     76  C   UNL A   1      36.996  33.904  29.802  1.00  0.00     0.135 A 
ATOM     77  C   UNL A   1      35.466  32.727  31.231  1.00  0.00     0.135 A 
ATOM     78  F   UNL A   1      38.243  34.188  29.396  1.00  0.00    -0.206 F 
ATOM     79  C   UNL A   1      35.936  34.574  29.199  1.00  0.00     0.059 A 
ATOM     80  C   UNL A   1      34.388  33.362  30.623  1.00  0.00     0.059 A 
ATOM     81  F   UNL A   1      35.210  31.842  32.207  1.00  0.00    -0.206 F 
ATOM     82  C   UNL A   1      34.634  34.298  29.620  1.00  0.00     0.060 A 
BRANCH  82  83
ATOM     83  S   UNL A   1      33.261  35.163  28.825  1.00  0.00     0.124 S 
ATOM     84  O   UNL A   1      32.687  34.106  28.001  1.00  0.00    -0.237 OA
ATOM     85  O   UNL A   1      32.460  35.588  29.970  1.00  0.00    -0.237 OA
ATOM     86  O   UNL A   1      33.923  36.243  28.099  1.00  0.00    -0.744 OA
ENDBRANCH  82  83
ENDBRANCH  50  75
BRANCH  62  87
ATOM     87  C   UNL A   1      39.950  34.054  36.968  1.00  0.00     0.058 A 
ATOM     88  C   UNL A   1      40.563  35.314  36.893  1.00  0.00     0.135 A 
ATOM     89  C   UNL A   1      39.104  33.801  38.061  1.00  0.00     0.135 A 
ATOM     90  F   UNL A   1      41.385  35.606  35.873  1.00  0.00    -0.206 F 
ATOM     91  C   UNL A   1      40.364  36.279  37.875  1.00  0.00     0.059 A 
ATOM     92  C   UNL A   1      38.866  34.761  39.039  1.00  0.00     0.059 A 
ATOM     93  F   UNL A   1      38.483  32.616  38.174  1.00  0.00    -0.206 F 
ATOM     94  C   UNL A   1      39.511  35.993  38.944  1.00  0.00     0.060 A 
BRANCH  94  95
ATOM     95  S   UNL A   1      39.234  37.265  40.195  1.00  0.00     0.124 S 
ATOM     96  O   UNL A   1      38.433  38.235  39.456  1.00  0.00    -0.237 OA
ATOM     97  O   UNL A   1      38.532  36.529  41.242  1.00  0.00    -0.237 OA
ATOM     98  O   UNL A   1      40.583  37.701  40.541  1.00  0.00    -0.744 OA
ENDBRANCH  94  95
ENDBRANCH  62  87
ENDBRANCH  36  37
ENDBRANCH  28  31
ENDBRANCH  26  27
ENDBRANCH  25  26
ENDBRANCH   1  25
TORSDOF 18
ENDMDL
MODEL 2
REMARK VINA RESULT:     -11.5      1.217      1.938
REMARK SMILES CC(C)NC(=O)CNC(=O)N1CCO[C@@H](CC(=O)NCCCNC(=O)c2ccc(-c3c4nc(c(-c5c(F)cc(S(=O)(=O)[O-])cc5F)c5ccc([nH]5)c(-c5c(F)cc(S(=O)(=O)[O-])cc5F)c5nc(c(-c6c(F)cc(S(=O)(=O)[O-])cc6F)c6ccc3[nH]6)C=C5)C=C4)cc2)C1
REMARK SMILES IDX 20 1 19 2 17 3 18 4 16 6 15 7 11 8 12 9 92 10 13 11 14 12
REMARK SMILES IDX 9 13 8 14 10 16 7 17 5 18 4 19 6 21 2 22 1 23 3 24 21 25
REMARK SMILES IDX 22 26 23 27 24 28 25 30 26 31 27 32 91 33 28 34 90 35 29 36
REMARK SMILES IDX 30 37 31 38 84 39 32 40 89 41 83 42 85 43 33 44 88 45 82 46
REMARK SMILES IDX 81 47 34 49 68 50 47 51 67 52 48 53 51 54 66 55 86 56 49 57
REMARK SMILES IDX 50 58 65 60 87 61 52 62 35 63 36 64 45 65 37 66 38 67 44 68
REMARK SMILES IDX 46 69 39 70 40 71 41 72 42 73 43 74 69 75 70 76 79 77 71 78
REMARK SMILES IDX 72 79 78 80 80 81 73 82 74 83 75 84 76 85 77 86 53 87 54 88
REMARK SMILES IDX 63 89 55 90 56 91 62 92 64 93 57 94 58 95 59 96 60 97 61 98
REMARK H PARENT 19 5 8 15 4 20 23 29 85 48 51 59
REMARK Flexibility Score: inf
ROOT
ATOM      1  C   UNL A   1      39.524  21.688  26.315  1.00  0.00     0.117 C 
ENDROOT
BRANCH   1   2
ATOM      2  N   UNL A   1      38.745  22.521  25.402  1.00  0.00    -0.356 N 
ATOM      3  C   UNL A   1      37.413  22.529  25.104  1.00  0.00     0.222 C 
ATOM      4  O   UNL A   1      37.017  23.333  24.257  1.00  0.00    -0.275 OA
ATOM      5  H   UNL A   1      39.274  23.195  24.917  1.00  0.00     0.163 HD
BRANCH   3   6
ATOM      6  C   UNL A   1      36.444  21.558  25.755  1.00  0.00     0.133 C 
BRANCH   6   7
ATOM      7  C   UNL A   1      34.990  22.003  25.580  1.00  0.00     0.147 C 
ATOM      8  N   UNL A   1      32.895  21.444  24.385  1.00  0.00    -0.320 N 
ATOM      9  C   UNL A   1      32.167  21.433  25.649  1.00  0.00     0.150 C 
ATOM     10  C   UNL A   1      34.301  21.149  24.518  1.00  0.00     0.154 C 
ATOM     11  C   UNL A   1      32.903  22.298  26.680  1.00  0.00     0.182 C 
ATOM     12  O   UNL A   1      34.281  21.886  26.833  1.00  0.00    -0.374 OA
BRANCH   8  13
ATOM     13  C   UNL A   1      32.315  21.169  23.174  1.00  0.00     0.318 C 
ATOM     14  N   UNL A   1      32.123  22.199  22.319  1.00  0.00    -0.329 N 
ATOM     15  H   UNL A   1      31.565  21.997  21.533  1.00  0.00     0.165 HD
ATOM     16  O   UNL A   1      32.117  20.020  22.783  1.00  0.00    -0.249 OA
BRANCH  14  17
ATOM     17  C   UNL A   1      32.623  23.562  22.395  1.00  0.00     0.217 C 
BRANCH  17  18
ATOM     18  C   UNL A   1      31.700  24.586  23.073  1.00  0.00     0.239 C 
ATOM     19  N   UNL A   1      32.178  25.691  23.711  1.00  0.00    -0.352 N 
ATOM     20  H   UNL A   1      31.486  26.269  24.106  1.00  0.00     0.163 HD
ATOM     21  O   UNL A   1      30.491  24.356  23.185  1.00  0.00    -0.273 OA
BRANCH  19  22
ATOM     22  C   UNL A   1      33.540  26.159  23.907  1.00  0.00     0.075 C 
ATOM     23  C   UNL A   1      33.589  27.683  23.916  1.00  0.00     0.030 C 
ATOM     24  C   UNL A   1      34.130  25.582  25.190  1.00  0.00     0.030 C 
ENDBRANCH  19  22
ENDBRANCH  17  18
ENDBRANCH  14  17
ENDBRANCH   8  13
ENDBRANCH   6   7
ENDBRANCH   3   6
ENDBRANCH   1   2
BRANCH   1  25
ATOM     25  C   UNL A   1      40.089  22.478  27.499  1.00  0.00     0.042 C 
BRANCH  25  26
ATOM     26  C   UNL A   1      41.577  22.780  27.423  1.00  0.00     0.118 C 
BRANCH  26  27
ATOM     27  N   UNL A   1      41.902  23.602  26.273  1.00  0.00    -0.352 N 
ATOM     28  C   UNL A   1      41.847  24.967  26.105  1.00  0.00     0.251 C 
ATOM     29  H   UNL A   1      42.215  23.102  25.484  1.00  0.00     0.163 HD
ATOM     30  O   UNL A   1      41.915  25.413  24.965  1.00  0.00    -0.269 OA
BRANCH  28  31
ATOM     31  C   UNL A   1      41.701  25.903  27.254  1.00  0.00     0.039 A 
ATOM     32  C   UNL A   1      40.513  25.867  27.995  1.00  0.00     0.014 A 
ATOM     33  C   UNL A   1      42.657  26.874  27.562  1.00  0.00     0.014 A 
ATOM     34  C   UNL A   1      40.304  26.767  29.048  1.00  0.00     0.010 A 
ATOM     35  C   UNL A   1      42.489  27.712  28.668  1.00  0.00     0.010 A 
ATOM     36  C   UNL A   1      41.300  27.687  29.412  1.00  0.00    -0.014 A 
BRANCH  36  37
ATOM     37  C   UNL A   1      41.097  28.643  30.537  1.00  0.00     0.031 A 
ATOM     38  C   UNL A   1      41.940  28.540  31.787  1.00  0.00     0.074 A 
ATOM     39  C   UNL A   1      40.126  29.577  30.462  1.00  0.00     0.049 A 
ATOM     40  N   UNL A   1      41.872  29.242  32.891  1.00  0.00    -0.248 NA
ATOM     41  C   UNL A   1      42.977  27.495  31.811  1.00  0.00     0.031 C 
ATOM     42  C   UNL A   1      39.204  29.751  29.337  1.00  0.00     0.029 A 
ATOM     43  N   UNL A   1      39.740  30.549  31.355  1.00  0.00    -0.354 N 
ATOM     44  C   UNL A   1      42.829  28.706  33.746  1.00  0.00     0.074 A 
ATOM     45  C   UNL A   1      43.443  27.597  33.049  1.00  0.00     0.031 C 
ATOM     46  C   UNL A   1      38.371  30.772  29.601  1.00  0.00     0.029 A 
ATOM     47  C   UNL A   1      38.671  31.302  30.927  1.00  0.00     0.049 A 
ATOM     48  H   UNL A   1      40.186  30.692  32.221  1.00  0.00     0.167 HD
ATOM     49  C   UNL A   1      43.178  29.110  34.991  1.00  0.00     0.037 A 
ATOM     50  C   UNL A   1      37.996  32.298  31.537  1.00  0.00     0.037 A 
ATOM     51  C   UNL A   1      42.606  30.250  35.660  1.00  0.00     0.049 A 
ATOM     52  C   UNL A   1      38.429  32.749  32.908  1.00  0.00     0.074 A 
ATOM     53  C   UNL A   1      42.967  30.798  36.879  1.00  0.00     0.029 A 
ATOM     54  N   UNL A   1      41.557  31.014  35.173  1.00  0.00    -0.354 N 
ATOM     55  N   UNL A   1      39.400  32.287  33.660  1.00  0.00    -0.248 NA
ATOM     56  C   UNL A   1      37.683  33.863  33.512  1.00  0.00     0.031 C 
ATOM     57  C   UNL A   1      42.103  31.862  37.153  1.00  0.00     0.029 A 
ATOM     58  C   UNL A   1      41.239  32.011  36.081  1.00  0.00     0.049 A 
ATOM     59  H   UNL A   1      41.105  30.869  34.311  1.00  0.00     0.167 HD
ATOM     60  C   UNL A   1      39.397  33.071  34.810  1.00  0.00     0.074 A 
ATOM     61  C   UNL A   1      38.341  34.046  34.649  1.00  0.00     0.031 C 
ATOM     62  C   UNL A   1      40.196  32.987  35.901  1.00  0.00     0.037 A 
BRANCH  49  63
ATOM     63  C   UNL A   1      44.234  28.331  35.727  1.00  0.00     0.058 A 
ATOM     64  C   UNL A   1      45.598  28.640  35.612  1.00  0.00     0.135 A 
ATOM     65  C   UNL A   1      43.866  27.323  36.633  1.00  0.00     0.135 A 
ATOM     66  F   UNL A   1      46.007  29.584  34.750  1.00  0.00    -0.206 F 
ATOM     67  C   UNL A   1      46.561  27.973  36.363  1.00  0.00     0.059 A 
ATOM     68  C   UNL A   1      44.808  26.660  37.414  1.00  0.00     0.059 A 
ATOM     69  F   UNL A   1      42.575  26.986  36.781  1.00  0.00    -0.206 F 
ATOM     70  C   UNL A   1      46.156  26.989  37.268  1.00  0.00     0.060 A 
BRANCH  70  71
ATOM     71  S   UNL A   1      47.412  26.170  38.272  1.00  0.00     0.124 S 
ATOM     72  O   UNL A   1      48.158  27.312  38.793  1.00  0.00    -0.237 OA
ATOM     73  O   UNL A   1      46.607  25.441  39.247  1.00  0.00    -0.237 OA
ATOM     74  O   UNL A   1      48.130  25.340  37.310  1.00  0.00    -0.744 OA
ENDBRANCH  70  71
ENDBRANCH  49  63
BRANCH  50  75
ATOM     75  C   UNL A   1      36.831  32.938  30.866  1.00  0.00     0.058 A 
ATOM     76  C   UNL A   1      37.009  33.875  29.836  1.00  0.00     0.135 A 
ATOM     77  C   UNL A   1      35.516  32.646  31.261  1.00  0.00     0.135 A 
ATOM     78  F   UNL A   1      38.246  34.194  29.425  1.00  0.00    -0.206 F 
ATOM     79  C   UNL A   1      35.929  34.527  29.247  1.00  0.00     0.059 A 
ATOM     80  C   UNL A   1      34.419  33.262  30.667  1.00  0.00     0.059 A 
ATOM     81  F   UNL A   1      35.288  31.744  32.228  1.00  0.00    -0.206 F 
ATOM     82  C   UNL A   1      34.636  34.215  29.673  1.00  0.00     0.060 A 
BRANCH  82  83
ATOM     83  S   UNL A   1      33.238  35.055  28.897  1.00  0.00     0.124 S 
ATOM     84  O   UNL A   1      32.769  34.040  27.961  1.00  0.00    -0.237 OA
ATOM     85  O   UNL A   1      32.367  35.324  30.038  1.00  0.00    -0.237 OA
ATOM     86  O   UNL A   1      33.851  36.236  28.297  1.00  0.00    -0.744 OA
ENDBRANCH  82  83
ENDBRANCH  50  75
BRANCH  62  87
ATOM     87  C   UNL A   1      39.993  34.002  36.993  1.00  0.00     0.058 A 
ATOM     88  C   UNL A   1      40.574  35.278  36.934  1.00  0.00     0.135 A 
ATOM     89  C   UNL A   1      39.158  33.712  38.086  1.00  0.00     0.135 A 
ATOM     90  F   UNL A   1      41.383  35.605  35.915  1.00  0.00    -0.206 F 
ATOM     91  C   UNL A   1      40.354  36.223  37.931  1.00  0.00     0.059 A 
ATOM     92  C   UNL A   1      38.901  34.651  39.079  1.00  0.00     0.059 A 
ATOM     93  F   UNL A   1      38.568  32.510  38.184  1.00  0.00    -0.206 F 
ATOM     94  C   UNL A   1      39.514  35.900  38.999  1.00  0.00     0.060 A 
BRANCH  94  95
ATOM     95  S   UNL A   1      39.210  37.147  40.269  1.00  0.00     0.124 S 
ATOM     96  O   UNL A   1      38.430  36.391  41.243  1.00  0.00    -0.237 OA
ATOM     97  O   UNL A   1      40.562  37.509  40.683  1.00  0.00    -0.237 OA
ATOM     98  O   UNL A   1      38.481  38.190  39.554  1.00  0.00    -0.744 OA
ENDBRANCH  94  95
ENDBRANCH  62  87
ENDBRANCH  36  37
ENDBRANCH  28  31
ENDBRANCH  26  27
ENDBRANCH  25  26
ENDBRANCH   1  25
TORSDOF 18
ENDMDL
MODEL 3
REMARK VINA RESULT:     -11.4      1.500      8.531
REMARK SMILES CC(C)NC(=O)CNC(=O)N1CCO[C@@H](CC(=O)NCCCNC(=O)c2ccc(-c3c4nc(c(-c5c(F)cc(S(=O)(=O)[O-])cc5F)c5ccc([nH]5)c(-c5c(F)cc(S(=O)(=O)[O-])cc5F)c5nc(c(-c6c(F)cc(S(=O)(=O)[O-])cc6F)c6ccc3[nH]6)C=C5)C=C4)cc2)C1
REMARK SMILES IDX 20 1 19 2 17 3 18 4 16 6 15 7 11 8 12 9 92 10 13 11 14 12
REMARK SMILES IDX 9 13 8 14 10 16 7 17 5 18 4 19 6 21 2 22 1 23 3 24 21 25
REMARK SMILES IDX 22 26 23 27 24 28 25 30 26 31 27 32 91 33 28 34 90 35 29 36
REMARK SMILES IDX 30 37 31 38 84 39 32 40 89 41 83 42 85 43 33 44 88 45 82 46
REMARK SMILES IDX 81 47 34 49 68 50 47 51 67 52 48 53 51 54 66 55 86 56 49 57
REMARK SMILES IDX 50 58 65 60 87 61 52 62 35 63 36 64 45 65 37 66 38 67 44 68
REMARK SMILES IDX 46 69 39 70 40 71 41 72 42 73 43 74 69 75 70 76 79 77 71 78
REMARK SMILES IDX 72 79 78 80 80 81 73 82 74 83 75 84 76 85 77 86 53 87 54 88
REMARK SMILES IDX 63 89 55 90 56 91 62 92 64 93 57 94 58 95 59 96 60 97 61 98
REMARK H PARENT 19 5 8 15 4 20 23 29 85 48 51 59
REMARK Flexibility Score: inf
ROOT
ATOM      1  C   UNL A   1      39.628  22.161  26.476  1.00  0.00     0.117 C 
ENDROOT
BRANCH   1   2
ATOM      2  N   UNL A   1      38.518  23.108  26.421  1.00  0.00    -0.356 N 
ATOM      3  C   UNL A   1      37.347  23.084  25.720  1.00  0.00     0.222 C 
ATOM      4  O   UNL A   1      36.585  24.047  25.837  1.00  0.00    -0.275 OA
ATOM      5  H   UNL A   1      38.635  23.904  26.989  1.00  0.00     0.163 HD
BRANCH   3   6
ATOM      6  C   UNL A   1      36.997  21.935  24.791  1.00  0.00     0.133 C 
BRANCH   6   7
ATOM      7  C   UNL A   1      35.549  21.475  24.975  1.00  0.00     0.147 C 
ATOM      8  N   UNL A   1      33.279  21.701  24.013  1.00  0.00    -0.320 N 
ATOM      9  C   UNL A   1      33.156  20.249  23.942  1.00  0.00     0.150 C 
ATOM     10  C   UNL A   1      34.641  22.175  23.966  1.00  0.00     0.154 C 
ATOM     11  C   UNL A   1      34.091  19.597  24.968  1.00  0.00     0.182 C 
ATOM     12  O   UNL A   1      35.457  20.044  24.803  1.00  0.00    -0.374 OA
BRANCH   8  13
ATOM     13  C   UNL A   1      32.306  22.566  23.585  1.00  0.00     0.318 C 
ATOM     14  N   UNL A   1      31.259  22.795  24.410  1.00  0.00    -0.329 N 
ATOM     15  H   UNL A   1      30.508  23.291  24.010  1.00  0.00     0.165 HD
ATOM     16  O   UNL A   1      32.431  23.249  22.570  1.00  0.00    -0.249 OA
BRANCH  14  17
ATOM     17  C   UNL A   1      31.085  22.415  25.802  1.00  0.00     0.217 C 
BRANCH  17  18
ATOM     18  C   UNL A   1      30.418  23.458  26.712  1.00  0.00     0.239 C 
ATOM     19  N   UNL A   1      30.777  24.773  26.701  1.00  0.00    -0.352 N 
ATOM     20  H   UNL A   1      30.275  25.340  27.330  1.00  0.00     0.163 HD
ATOM     21  O   UNL A   1      29.629  23.102  27.594  1.00  0.00    -0.273 OA
BRANCH  19  22
ATOM     22  C   UNL A   1      31.775  25.478  25.915  1.00  0.00     0.075 C 
ATOM     23  C   UNL A   1      31.600  26.986  26.050  1.00  0.00     0.030 C 
ATOM     24  C   UNL A   1      33.182  25.049  26.320  1.00  0.00     0.030 C 
ENDBRANCH  19  22
ENDBRANCH  17  18
ENDBRANCH  14  17
ENDBRANCH   8  13
ENDBRANCH   6   7
ENDBRANCH   3   6
ENDBRANCH   1   2
BRANCH   1  25
ATOM     25  C   UNL A   1      40.544  22.394  27.681  1.00  0.00     0.042 C 
BRANCH  25  26
ATOM     26  C   UNL A   1      41.867  23.074  27.365  1.00  0.00     0.118 C 
BRANCH  26  27
ATOM     27  N   UNL A   1      41.760  23.956  26.218  1.00  0.00    -0.352 N 
ATOM     28  C   UNL A   1      41.360  25.270  26.135  1.00  0.00     0.251 C 
ATOM     29  H   UNL A   1      42.016  23.547  25.359  1.00  0.00     0.163 HD
ATOM     30  O   UNL A   1      41.096  25.726  25.028  1.00  0.00    -0.269 OA
BRANCH  28  31
ATOM     31  C   UNL A   1      41.234  26.139  27.338  1.00  0.00     0.039 A 
ATOM     32  C   UNL A   1      40.111  25.979  28.159  1.00  0.00     0.014 A 
ATOM     33  C   UNL A   1      42.138  27.164  27.625  1.00  0.00     0.014 A 
ATOM     34  C   UNL A   1      39.918  26.812  29.268  1.00  0.00     0.010 A 
ATOM     35  C   UNL A   1      41.994  27.936  28.782  1.00  0.00     0.010 A 
ATOM     36  C   UNL A   1      40.869  27.787  29.607  1.00  0.00    -0.014 A 
BRANCH  36  37
ATOM     37  C   UNL A   1      40.683  28.674  30.791  1.00  0.00     0.031 A 
ATOM     38  C   UNL A   1      39.593  29.720  30.796  1.00  0.00     0.074 A 
ATOM     39  C   UNL A   1      41.519  28.574  31.846  1.00  0.00     0.049 A 
ATOM     40  N   UNL A   1      39.314  30.619  31.707  1.00  0.00    -0.248 NA
ATOM     41  C   UNL A   1      38.720  29.784  29.613  1.00  0.00     0.031 C 
ATOM     42  C   UNL A   1      42.646  27.645  31.947  1.00  0.00     0.029 A 
ATOM     43  N   UNL A   1      41.561  29.272  33.030  1.00  0.00    -0.354 N 
ATOM     44  C   UNL A   1      38.260  31.370  31.196  1.00  0.00     0.074 A 
ATOM     45  C   UNL A   1      37.970  30.846  29.879  1.00  0.00     0.031 C 
ATOM     46  C   UNL A   1      43.259  27.821  33.130  1.00  0.00     0.029 A 
ATOM     47  C   UNL A   1      42.596  28.899  33.857  1.00  0.00     0.049 A 
ATOM     48  H   UNL A   1      40.912  29.974  33.264  1.00  0.00     0.167 HD
ATOM     49  C   UNL A   1      37.584  32.390  31.776  1.00  0.00     0.037 A 
ATOM     50  C   UNL A   1      42.979  29.379  35.058  1.00  0.00     0.037 A 
ATOM     51  C   UNL A   1      37.836  32.872  33.109  1.00  0.00     0.049 A 
ATOM     52  C   UNL A   1      42.186  30.492  35.693  1.00  0.00     0.074 A 
ATOM     53  C   UNL A   1      37.137  33.831  33.820  1.00  0.00     0.029 A 
ATOM     54  N   UNL A   1      38.864  32.436  33.931  1.00  0.00    -0.354 N 
ATOM     55  N   UNL A   1      41.134  31.123  35.230  1.00  0.00    -0.248 NA
ATOM     56  C   UNL A   1      42.625  30.952  37.019  1.00  0.00     0.031 C 
ATOM     57  C   UNL A   1      37.772  34.013  35.053  1.00  0.00     0.029 A 
ATOM     58  C   UNL A   1      38.834  33.128  35.130  1.00  0.00     0.049 A 
ATOM     59  H   UNL A   1      39.518  31.739  33.697  1.00  0.00     0.167 HD
ATOM     60  C   UNL A   1      40.772  32.034  36.217  1.00  0.00     0.074 A 
ATOM     61  C   UNL A   1      41.704  31.860  37.310  1.00  0.00     0.031 C 
ATOM     62  C   UNL A   1      39.758  32.934  36.218  1.00  0.00     0.037 A 
BRANCH  49  63
ATOM     63  C   UNL A   1      36.494  33.065  30.988  1.00  0.00     0.058 A 
ATOM     64  C   UNL A   1      35.137  32.894  31.304  1.00  0.00     0.135 A 
ATOM     65  C   UNL A   1      36.817  33.970  29.964  1.00  0.00     0.135 A 
ATOM     66  F   UNL A   1      34.770  32.030  32.264  1.00  0.00    -0.206 F 
ATOM     67  C   UNL A   1      34.140  33.590  30.629  1.00  0.00     0.059 A 
ATOM     68  C   UNL A   1      35.839  34.697  29.292  1.00  0.00     0.059 A 
ATOM     69  F   UNL A   1      38.100  34.171  29.620  1.00  0.00    -0.206 F 
ATOM     70  C   UNL A   1      34.501  34.496  29.628  1.00  0.00     0.060 A 
BRANCH  70  71
ATOM     71  S   UNL A   1      33.198  35.429  28.798  1.00  0.00     0.124 S 
ATOM     72  O   UNL A   1      33.977  36.390  28.022  1.00  0.00    -0.237 OA
ATOM     73  O   UNL A   1      32.517  34.394  28.026  1.00  0.00    -0.237 OA
ATOM     74  O   UNL A   1      32.427  35.994  29.901  1.00  0.00    -0.744 OA
ENDBRANCH  70  71
ENDBRANCH  49  63
BRANCH  50  75
ATOM     75  C   UNL A   1      44.177  28.820  35.743  1.00  0.00     0.058 A 
ATOM     76  C   UNL A   1      44.062  27.779  36.678  1.00  0.00     0.135 A 
ATOM     77  C   UNL A   1      45.459  29.335  35.496  1.00  0.00     0.135 A 
ATOM     78  F   UNL A   1      42.857  27.256  36.954  1.00  0.00    -0.206 F 
ATOM     79  C   UNL A   1      45.167  27.294  37.371  1.00  0.00     0.059 A 
ATOM     80  C   UNL A   1      46.583  28.847  36.155  1.00  0.00     0.059 A 
ATOM     81  F   UNL A   1      45.629  30.318  34.598  1.00  0.00    -0.206 F 
ATOM     82  C   UNL A   1      46.425  27.838  37.104  1.00  0.00     0.060 A 
BRANCH  82  83
ATOM     83  S   UNL A   1      47.858  27.197  37.998  1.00  0.00     0.124 S 
ATOM     84  O   UNL A   1      48.327  26.156  37.092  1.00  0.00    -0.237 OA
ATOM     85  O   UNL A   1      48.707  28.379  38.109  1.00  0.00    -0.237 OA
ATOM     86  O   UNL A   1      47.283  26.730  39.256  1.00  0.00    -0.744 OA
ENDBRANCH  82  83
ENDBRANCH  50  75
BRANCH  62  87
ATOM     87  C   UNL A   1      39.573  33.774  37.451  1.00  0.00     0.058 A 
ATOM     88  C   UNL A   1      38.730  33.373  38.499  1.00  0.00     0.135 A 
ATOM     89  C   UNL A   1      40.293  34.970  37.611  1.00  0.00     0.135 A 
ATOM     90  F   UNL A   1      38.015  32.242  38.396  1.00  0.00    -0.206 F 
ATOM     91  C   UNL A   1      38.589  34.139  39.652  1.00  0.00     0.059 A 
ATOM     92  C   UNL A   1      40.190  35.737  38.766  1.00  0.00     0.059 A 
ATOM     93  F   UNL A   1      41.123  35.393  36.643  1.00  0.00    -0.206 F 
ATOM     94  C   UNL A   1      39.325  35.320  39.777  1.00  0.00     0.060 A 
BRANCH  94  95
ATOM     95  S   UNL A   1      39.159  36.288  41.292  1.00  0.00     0.124 S 
ATOM     96  O   UNL A   1      38.911  37.624  40.762  1.00  0.00    -0.237 OA
ATOM     97  O   UNL A   1      38.026  35.646  41.952  1.00  0.00    -0.237 OA
ATOM     98  O   UNL A   1      40.447  36.105  41.955  1.00  0.00    -0.744 OA
ENDBRANCH  94  95
ENDBRANCH  62  87
ENDBRANCH  36  37
ENDBRANCH  28  31
ENDBRANCH  26  27
ENDBRANCH  25  26
ENDBRANCH   1  25
TORSDOF 18
ENDMDL
