MODEL 1
REMARK VINA RESULT:     -12.1      0.000      0.000
REMARK SMILES CC(=O)Nc1cccc(NC(=O)N[C@H](C(=O)NCCCNC(=O)c2ccc(-c3c4nc(c(-c5c(F)cc(S(=O)(=O)[O-])cc5F)c5ccc([nH]5)c(-c5c(F)cc(S(=O)(=O)[O-])cc5F)c5nc(c(-c6c(F)cc(S(=O)(=O)[O-])cc6F)c6ccc3[nH]6)C=C5)C=C4)cc2)C(C)C)c1
REMARK SMILES IDX 19 1 18 2 17 3 15 4 16 5 14 7 13 8 10 9 11 10 12 12 9 14
REMARK SMILES IDX 5 15 6 16 93 17 7 18 8 19 4 20 1 21 2 22 3 23 90 25 91 26
REMARK SMILES IDX 92 27 20 28 21 29 22 30 23 32 24 33 25 34 89 35 26 36 88 37
REMARK SMILES IDX 27 38 28 39 29 40 82 41 30 42 87 43 81 44 83 45 31 46 86 47
REMARK SMILES IDX 80 48 79 49 32 51 66 52 45 53 65 54 46 55 49 56 64 57 84 58
REMARK SMILES IDX 47 59 48 60 63 62 85 63 50 64 33 65 34 66 43 67 35 68 36 69
REMARK SMILES IDX 42 70 44 71 37 72 38 73 39 74 40 75 41 76 67 77 68 78 77 79
REMARK SMILES IDX 69 80 70 81 76 82 78 83 71 84 72 85 73 86 74 87 75 88 51 89
REMARK SMILES IDX 52 90 61 91 53 92 54 93 60 94 62 95 55 96 56 97 57 98 58 99
REMARK SMILES IDX 59 100
REMARK H PARENT 17 6 10 11 13 13 4 24 21 31 83 50 49 61
REMARK Flexibility Score: inf
ROOT
ATOM      1  C   UNL A   1      38.538  19.564  25.034  1.00  0.00     0.042 C 
ENDROOT
BRANCH   1   2
ATOM      2  C   UNL A   1      37.495  20.628  24.723  1.00  0.00     0.117 C 
BRANCH   2   3
ATOM      3  N   UNL A   1      37.753  21.795  25.528  1.00  0.00    -0.354 N 
ATOM      4  C   UNL A   1      37.035  22.941  25.591  1.00  0.00     0.242 C 
ATOM      5  O   UNL A   1      37.614  23.930  26.059  1.00  0.00    -0.273 OA
ATOM      6  H   UNL A   1      38.550  21.753  26.104  1.00  0.00     0.163 HD
BRANCH   4   7
ATOM      7  C   UNL A   1      35.505  22.962  25.393  1.00  0.00     0.175 C 
BRANCH   7   8
ATOM      8  N   UNL A   1      34.537  22.738  26.503  1.00  0.00    -0.326 N 
ATOM      9  N   UNL A   1      32.803  21.019  26.400  1.00  0.00    -0.308 N 
ATOM     10  C   UNL A   1      33.524  22.002  26.941  1.00  0.00     0.319 C 
ATOM     11  H   UNL A   1      31.986  20.933  26.942  1.00  0.00     0.171 HD
ATOM     12  O   UNL A   1      33.087  22.385  28.041  1.00  0.00    -0.248 OA
ATOM     13  H   UNL A   1      34.728  23.411  27.195  1.00  0.00     0.166 HD
BRANCH   9  14
ATOM     14  C   UNL A   1      32.718  20.048  25.377  1.00  0.00     0.044 A 
ATOM     15  C   UNL A   1      32.495  17.647  24.901  1.00  0.00     0.043 A 
ATOM     16  C   UNL A   1      32.342  17.937  23.544  1.00  0.00     0.026 A 
ATOM     17  C   UNL A   1      32.660  18.707  25.802  1.00  0.00     0.052 A 
ATOM     18  C   UNL A   1      32.520  19.236  23.092  1.00  0.00     0.004 A 
ATOM     19  C   UNL A   1      32.809  20.252  24.007  1.00  0.00     0.026 A 
BRANCH  15  20
ATOM     20  N   UNL A   1      32.556  16.281  25.227  1.00  0.00    -0.326 N 
ATOM     21  C   UNL A   1      35.003  15.823  25.375  1.00  0.00     0.114 C 
ATOM     22  C   UNL A   1      33.572  15.380  25.314  1.00  0.00     0.221 C 
ATOM     23  O   UNL A   1      33.282  14.183  25.376  1.00  0.00    -0.275 OA
ATOM     24  H   UNL A   1      31.676  15.894  25.435  1.00  0.00     0.169 HD
ENDBRANCH  15  20
ENDBRANCH   9  14
ENDBRANCH   7   8
BRANCH   7  25
ATOM     25  C   UNL A   1      35.111  24.138  24.521  1.00  0.00     0.015 C 
ATOM     26  C   UNL A   1      34.457  23.919  23.158  1.00  0.00     0.010 C 
ATOM     27  C   UNL A   1      34.457  25.232  25.364  1.00  0.00     0.010 C 
ENDBRANCH   7  25
ENDBRANCH   4   7
ENDBRANCH   2   3
ENDBRANCH   1   2
BRANCH   1  28
ATOM     28  C   UNL A   1      39.505  20.012  26.125  1.00  0.00     0.118 C 
BRANCH  28  29
ATOM     29  N   UNL A   1      40.727  19.214  26.134  1.00  0.00    -0.352 N 
ATOM     30  C   UNL A   1      42.035  19.639  26.133  1.00  0.00     0.251 C 
ATOM     31  H   UNL A   1      40.597  18.238  26.141  1.00  0.00     0.163 HD
ATOM     32  O   UNL A   1      42.941  18.863  25.888  1.00  0.00    -0.269 OA
BRANCH  30  33
ATOM     33  C   UNL A   1      42.302  21.061  26.423  1.00  0.00     0.039 A 
ATOM     34  C   UNL A   1      42.616  21.450  27.724  1.00  0.00     0.014 A 
ATOM     35  C   UNL A   1      42.306  21.987  25.376  1.00  0.00     0.014 A 
ATOM     36  C   UNL A   1      43.009  22.767  27.961  1.00  0.00     0.010 A 
ATOM     37  C   UNL A   1      42.804  23.260  25.596  1.00  0.00     0.010 A 
ATOM     38  C   UNL A   1      43.148  23.669  26.893  1.00  0.00    -0.014 A 
BRANCH  38  39
ATOM     39  C   UNL A   1      43.630  25.058  27.102  1.00  0.00     0.031 A 
ATOM     40  C   UNL A   1      45.081  25.380  26.868  1.00  0.00     0.074 A 
ATOM     41  C   UNL A   1      42.786  25.995  27.575  1.00  0.00     0.049 A 
ATOM     42  N   UNL A   1      45.724  26.496  27.090  1.00  0.00    -0.248 NA
ATOM     43  C   UNL A   1      45.934  24.293  26.354  1.00  0.00     0.031 C 
ATOM     44  C   UNL A   1      41.372  25.782  27.901  1.00  0.00     0.029 A 
ATOM     45  N   UNL A   1      42.995  27.317  27.881  1.00  0.00    -0.354 N 
ATOM     46  C   UNL A   1      47.051  26.238  26.767  1.00  0.00     0.074 A 
ATOM     47  C   UNL A   1      47.137  24.844  26.397  1.00  0.00     0.031 C 
ATOM     48  C   UNL A   1      40.838  26.935  28.332  1.00  0.00     0.029 A 
ATOM     49  C   UNL A   1      41.877  27.960  28.359  1.00  0.00     0.049 A 
ATOM     50  H   UNL A   1      43.865  27.764  27.767  1.00  0.00     0.167 HD
ATOM     51  C   UNL A   1      48.098  27.095  26.752  1.00  0.00     0.037 A 
ATOM     52  C   UNL A   1      41.713  29.227  28.785  1.00  0.00     0.037 A 
ATOM     53  C   UNL A   1      47.991  28.491  27.079  1.00  0.00     0.049 A 
ATOM     54  C   UNL A   1      42.892  30.164  28.744  1.00  0.00     0.074 A 
ATOM     55  C   UNL A   1      48.973  29.463  27.021  1.00  0.00     0.029 A 
ATOM     56  N   UNL A   1      46.834  29.113  27.522  1.00  0.00    -0.354 N 
ATOM     57  N   UNL A   1      44.124  29.922  28.362  1.00  0.00    -0.248 NA
ATOM     58  C   UNL A   1      42.660  31.546  29.184  1.00  0.00     0.031 C 
ATOM     59  C   UNL A   1      48.423  30.663  27.481  1.00  0.00     0.029 A 
ATOM     60  C   UNL A   1      47.083  30.453  27.765  1.00  0.00     0.049 A 
ATOM     61  H   UNL A   1      45.963  28.668  27.645  1.00  0.00     0.167 HD
ATOM     62  C   UNL A   1      44.804  31.128  28.485  1.00  0.00     0.074 A 
ATOM     63  C   UNL A   1      43.844  32.101  28.965  1.00  0.00     0.031 C 
ATOM     64  C   UNL A   1      46.106  31.407  28.227  1.00  0.00     0.037 A 
BRANCH  51  65
ATOM     65  C   UNL A   1      49.445  26.554  26.356  1.00  0.00     0.058 A 
ATOM     66  C   UNL A   1      49.914  26.632  25.035  1.00  0.00     0.135 A 
ATOM     67  C   UNL A   1      50.300  25.998  27.321  1.00  0.00     0.135 A 
ATOM     68  F   UNL A   1      49.131  27.134  24.066  1.00  0.00    -0.206 F 
ATOM     69  C   UNL A   1      51.174  26.161  24.681  1.00  0.00     0.059 A 
ATOM     70  C   UNL A   1      51.576  25.550  26.997  1.00  0.00     0.059 A 
ATOM     71  F   UNL A   1      49.900  25.893  28.599  1.00  0.00    -0.206 F 
ATOM     72  C   UNL A   1      52.001  25.629  25.672  1.00  0.00     0.060 A 
BRANCH  72  73
ATOM     73  S   UNL A   1      53.647  25.057  25.200  1.00  0.00     0.124 S 
ATOM     74  O   UNL A   1      53.456  23.610  25.173  1.00  0.00    -0.237 OA
ATOM     75  O   UNL A   1      53.836  25.694  23.902  1.00  0.00    -0.237 OA
ATOM     76  O   UNL A   1      54.501  25.556  26.272  1.00  0.00    -0.744 OA
ENDBRANCH  72  73
ENDBRANCH  51  65
BRANCH  52  77
ATOM     77  C   UNL A   1      40.386  29.690  29.274  1.00  0.00     0.058 A 
ATOM     78  C   UNL A   1      39.322  29.912  28.387  1.00  0.00     0.135 A 
ATOM     79  C   UNL A   1      40.155  29.928  30.639  1.00  0.00     0.135 A 
ATOM     80  F   UNL A   1      39.492  29.702  27.072  1.00  0.00    -0.206 F 
ATOM     81  C   UNL A   1      38.088  30.381  28.827  1.00  0.00     0.059 A 
ATOM     82  C   UNL A   1      38.921  30.368  31.107  1.00  0.00     0.059 A 
ATOM     83  F   UNL A   1      41.131  29.713  31.535  1.00  0.00    -0.206 F 
ATOM     84  C   UNL A   1      37.898  30.608  30.191  1.00  0.00     0.060 A 
BRANCH  84  85
ATOM     85  S   UNL A   1      36.285  31.195  30.754  1.00  0.00     0.124 S 
ATOM     86  O   UNL A   1      35.936  30.185  31.746  1.00  0.00    -0.237 OA
ATOM     87  O   UNL A   1      36.608  32.519  31.276  1.00  0.00    -0.237 OA
ATOM     88  O   UNL A   1      35.481  31.187  29.535  1.00  0.00    -0.744 OA
ENDBRANCH  84  85
ENDBRANCH  52  77
BRANCH  64  89
ATOM     89  C   UNL A   1      46.563  32.828  28.410  1.00  0.00     0.058 A 
ATOM     90  C   UNL A   1      46.488  33.770  27.372  1.00  0.00     0.135 A 
ATOM     91  C   UNL A   1      47.017  33.268  29.665  1.00  0.00     0.135 A 
ATOM     92  F   UNL A   1      46.067  33.400  26.153  1.00  0.00    -0.206 F 
ATOM     93  C   UNL A   1      46.866  35.094  27.567  1.00  0.00     0.059 A 
ATOM     94  C   UNL A   1      47.369  34.593  29.890  1.00  0.00     0.059 A 
ATOM     95  F   UNL A   1      47.097  32.408  30.694  1.00  0.00    -0.206 F 
ATOM     96  C   UNL A   1      47.300  35.497  28.832  1.00  0.00     0.060 A 
BRANCH  96  97
ATOM     97  S   UNL A   1      47.743  37.229  29.081  1.00  0.00     0.124 S 
ATOM     98  O   UNL A   1      47.781  37.315  30.537  1.00  0.00    -0.237 OA
ATOM     99  O   UNL A   1      49.035  37.319  28.407  1.00  0.00    -0.237 OA
ATOM    100  O   UNL A   1      46.653  37.956  28.437  1.00  0.00    -0.744 OA
ENDBRANCH  96  97
ENDBRANCH  64  89
ENDBRANCH  38  39
ENDBRANCH  30  33
ENDBRANCH  28  29
ENDBRANCH   1  28
TORSDOF 17
ENDMDL
MODEL 2
REMARK VINA RESULT:     -12.1      0.580      8.246
REMARK SMILES CC(=O)Nc1cccc(NC(=O)N[C@H](C(=O)NCCCNC(=O)c2ccc(-c3c4nc(c(-c5c(F)cc(S(=O)(=O)[O-])cc5F)c5ccc([nH]5)c(-c5c(F)cc(S(=O)(=O)[O-])cc5F)c5nc(c(-c6c(F)cc(S(=O)(=O)[O-])cc6F)c6ccc3[nH]6)C=C5)C=C4)cc2)C(C)C)c1
REMARK SMILES IDX 19 1 18 2 17 3 15 4 16 5 14 7 13 8 10 9 11 10 12 12 9 14
REMARK SMILES IDX 5 15 6 16 93 17 7 18 8 19 4 20 1 21 2 22 3 23 90 25 91 26
REMARK SMILES IDX 92 27 20 28 21 29 22 30 23 32 24 33 25 34 89 35 26 36 88 37
REMARK SMILES IDX 27 38 28 39 29 40 82 41 30 42 87 43 81 44 83 45 31 46 86 47
REMARK SMILES IDX 80 48 79 49 32 51 66 52 45 53 65 54 46 55 49 56 64 57 84 58
REMARK SMILES IDX 47 59 48 60 63 62 85 63 50 64 33 65 34 66 43 67 35 68 36 69
REMARK SMILES IDX 42 70 44 71 37 72 38 73 39 74 40 75 41 76 67 77 68 78 77 79
REMARK SMILES IDX 69 80 70 81 76 82 78 83 71 84 72 85 73 86 74 87 75 88 51 89
REMARK SMILES IDX 52 90 61 91 53 92 54 93 60 94 62 95 55 96 56 97 57 98 58 99
REMARK SMILES IDX 59 100
REMARK H PARENT 17 6 10 11 13 13 4 24 21 31 83 50 49 61
REMARK Flexibility Score: inf
ROOT
ATOM      1  C   UNL A   1      38.525  19.541  25.092  1.00  0.00     0.042 C 
ENDROOT
BRANCH   1   2
ATOM      2  C   UNL A   1      37.402  20.550  24.895  1.00  0.00     0.117 C 
BRANCH   2   3
ATOM      3  N   UNL A   1      37.721  21.761  25.608  1.00  0.00    -0.354 N 
ATOM      4  C   UNL A   1      37.039  22.929  25.617  1.00  0.00     0.242 C 
ATOM      5  O   UNL A   1      37.662  23.929  25.996  1.00  0.00    -0.273 OA
ATOM      6  H   UNL A   1      38.537  21.734  26.159  1.00  0.00     0.163 HD
BRANCH   4   7
ATOM      7  C   UNL A   1      35.504  22.983  25.470  1.00  0.00     0.175 C 
BRANCH   7   8
ATOM      8  N   UNL A   1      34.568  22.736  26.603  1.00  0.00    -0.326 N 
ATOM      9  N   UNL A   1      32.843  21.008  26.522  1.00  0.00    -0.308 N 
ATOM     10  C   UNL A   1      33.571  21.988  27.058  1.00  0.00     0.319 C 
ATOM     11  H   UNL A   1      32.041  20.909  27.085  1.00  0.00     0.171 HD
ATOM     12  O   UNL A   1      33.163  22.351  28.175  1.00  0.00    -0.248 OA
ATOM     13  H   UNL A   1      34.774  23.401  27.299  1.00  0.00     0.166 HD
BRANCH   9  14
ATOM     14  C   UNL A   1      32.735  20.051  25.488  1.00  0.00     0.044 A 
ATOM     15  C   UNL A   1      32.537  17.654  24.981  1.00  0.00     0.043 A 
ATOM     16  C   UNL A   1      32.327  17.963  23.636  1.00  0.00     0.026 A 
ATOM     17  C   UNL A   1      32.718  18.703  25.893  1.00  0.00     0.052 A 
ATOM     18  C   UNL A   1      32.463  19.272  23.199  1.00  0.00     0.004 A 
ATOM     19  C   UNL A   1      32.769  20.279  24.118  1.00  0.00     0.026 A 
BRANCH  15  20
ATOM     20  N   UNL A   1      32.636  16.285  25.283  1.00  0.00    -0.326 N 
ATOM     21  C   UNL A   1      35.094  15.865  25.298  1.00  0.00     0.114 C 
ATOM     22  C   UNL A   1      33.669  15.399  25.304  1.00  0.00     0.221 C 
ATOM     23  O   UNL A   1      33.402  14.197  25.361  1.00  0.00    -0.275 OA
ATOM     24  H   UNL A   1      31.774  15.881  25.530  1.00  0.00     0.169 HD
ENDBRANCH  15  20
ENDBRANCH   9  14
ENDBRANCH   7   8
BRANCH   7  25
ATOM     25  C   UNL A   1      35.103  24.196  24.653  1.00  0.00     0.015 C 
ATOM     26  C   UNL A   1      34.508  24.038  23.255  1.00  0.00     0.010 C 
ATOM     27  C   UNL A   1      34.381  25.217  25.532  1.00  0.00     0.010 C 
ENDBRANCH   7  25
ENDBRANCH   4   7
ENDBRANCH   2   3
ENDBRANCH   1   2
BRANCH   1  28
ATOM     28  C   UNL A   1      39.576  20.039  26.078  1.00  0.00     0.118 C 
BRANCH  28  29
ATOM     29  N   UNL A   1      40.737  19.157  26.132  1.00  0.00    -0.352 N 
ATOM     30  C   UNL A   1      42.071  19.489  26.182  1.00  0.00     0.251 C 
ATOM     31  H   UNL A   1      40.539  18.193  26.132  1.00  0.00     0.163 HD
ATOM     32  O   UNL A   1      42.929  18.651  25.969  1.00  0.00    -0.269 OA
BRANCH  30  33
ATOM     33  C   UNL A   1      42.426  20.889  26.485  1.00  0.00     0.039 A 
ATOM     34  C   UNL A   1      42.610  21.280  27.810  1.00  0.00     0.014 A 
ATOM     35  C   UNL A   1      42.642  21.786  25.435  1.00  0.00     0.014 A 
ATOM     36  C   UNL A   1      43.086  22.563  28.078  1.00  0.00     0.010 A 
ATOM     37  C   UNL A   1      43.221  23.016  25.700  1.00  0.00     0.010 A 
ATOM     38  C   UNL A   1      43.437  23.424  27.024  1.00  0.00    -0.014 A 
BRANCH  38  39
ATOM     39  C   UNL A   1      44.011  24.770  27.275  1.00  0.00     0.031 A 
ATOM     40  C   UNL A   1      43.107  25.891  27.711  1.00  0.00     0.074 A 
ATOM     41  C   UNL A   1      45.318  24.996  27.034  1.00  0.00     0.049 A 
ATOM     42  N   UNL A   1      43.385  27.156  27.882  1.00  0.00    -0.248 NA
ATOM     43  C   UNL A   1      41.691  25.555  27.947  1.00  0.00     0.031 C 
ATOM     44  C   UNL A   1      46.278  24.001  26.546  1.00  0.00     0.029 A 
ATOM     45  N   UNL A   1      46.065  26.141  27.151  1.00  0.00    -0.354 N 
ATOM     46  C   UNL A   1      42.183  27.765  28.220  1.00  0.00     0.074 A 
ATOM     47  C   UNL A   1      41.159  26.748  28.167  1.00  0.00     0.031 C 
ATOM     48  C   UNL A   1      47.488  24.571  26.434  1.00  0.00     0.029 A 
ATOM     49  C   UNL A   1      47.385  25.981  26.795  1.00  0.00     0.049 A 
ATOM     50  H   UNL A   1      45.693  26.997  27.463  1.00  0.00     0.167 HD
ATOM     51  C   UNL A   1      41.958  29.052  28.572  1.00  0.00     0.037 A 
ATOM     52  C   UNL A   1      48.392  26.874  26.752  1.00  0.00     0.037 A 
ATOM     53  C   UNL A   1      42.993  30.046  28.666  1.00  0.00     0.049 A 
ATOM     54  C   UNL A   1      48.118  28.297  27.164  1.00  0.00     0.074 A 
ATOM     55  C   UNL A   1      42.887  31.358  29.088  1.00  0.00     0.029 A 
ATOM     56  N   UNL A   1      44.324  29.836  28.335  1.00  0.00    -0.354 N 
ATOM     57  N   UNL A   1      46.989  28.839  27.556  1.00  0.00    -0.248 NA
ATOM     58  C   UNL A   1      49.252  29.230  27.135  1.00  0.00     0.031 C 
ATOM     59  C   UNL A   1      44.143  31.958  28.962  1.00  0.00     0.029 A 
ATOM     60  C   UNL A   1      45.045  31.003  28.520  1.00  0.00     0.049 A 
ATOM     61  H   UNL A   1      44.700  28.984  28.015  1.00  0.00     0.167 HD
ATOM     62  C   UNL A   1      47.284  30.165  27.850  1.00  0.00     0.074 A 
ATOM     63  C   UNL A   1      48.701  30.341  27.604  1.00  0.00     0.031 C 
ATOM     64  C   UNL A   1      46.459  31.150  28.284  1.00  0.00     0.037 A 
BRANCH  51  65
ATOM     65  C   UNL A   1      40.547  29.457  28.899  1.00  0.00     0.058 A 
ATOM     66  C   UNL A   1      39.566  29.592  27.903  1.00  0.00     0.135 A 
ATOM     67  C   UNL A   1      40.156  29.661  30.232  1.00  0.00     0.135 A 
ATOM     68  F   UNL A   1      39.888  29.429  26.609  1.00  0.00    -0.206 F 
ATOM     69  C   UNL A   1      38.255  29.933  28.215  1.00  0.00     0.059 A 
ATOM     70  C   UNL A   1      38.843  29.972  30.570  1.00  0.00     0.059 A 
ATOM     71  F   UNL A   1      41.054  29.551  31.225  1.00  0.00    -0.206 F 
ATOM     72  C   UNL A   1      37.901  30.114  29.553  1.00  0.00     0.060 A 
BRANCH  72  73
ATOM     73  S   UNL A   1      36.186  30.521  29.940  1.00  0.00     0.124 S 
ATOM     74  O   UNL A   1      35.985  29.784  31.183  1.00  0.00    -0.237 OA
ATOM     75  O   UNL A   1      36.232  31.973  30.065  1.00  0.00    -0.237 OA
ATOM     76  O   UNL A   1      35.448  30.016  28.786  1.00  0.00    -0.744 OA
ENDBRANCH  72  73
ENDBRANCH  51  65
BRANCH  52  77
ATOM     77  C   UNL A   1      49.752  26.454  26.316  1.00  0.00     0.058 A 
ATOM     78  C   UNL A   1      50.642  25.839  27.209  1.00  0.00     0.135 A 
ATOM     79  C   UNL A   1      50.192  26.664  24.999  1.00  0.00     0.135 A 
ATOM     80  F   UNL A   1      50.271  25.618  28.479  1.00  0.00    -0.206 F 
ATOM     81  C   UNL A   1      51.929  25.475  26.823  1.00  0.00     0.059 A 
ATOM     82  C   UNL A   1      51.463  26.282  24.582  1.00  0.00     0.059 A 
ATOM     83  F   UNL A   1      49.374  27.230  24.097  1.00  0.00    -0.206 F 
ATOM     84  C   UNL A   1      52.331  25.703  25.506  1.00  0.00     0.060 A 
BRANCH  84  85
ATOM     85  S   UNL A   1      53.996  25.207  25.011  1.00  0.00     0.124 S 
ATOM     86  O   UNL A   1      53.856  23.758  24.923  1.00  0.00    -0.237 OA
ATOM     87  O   UNL A   1      54.161  25.912  23.744  1.00  0.00    -0.237 OA
ATOM     88  O   UNL A   1      54.830  25.695  26.106  1.00  0.00    -0.744 OA
ENDBRANCH  84  85
ENDBRANCH  52  77
BRANCH  64  89
ATOM     89  C   UNL A   1      47.070  32.495  28.567  1.00  0.00     0.058 A 
ATOM     90  C   UNL A   1      47.612  32.812  29.822  1.00  0.00     0.135 A 
ATOM     91  C   UNL A   1      47.175  33.452  27.544  1.00  0.00     0.135 A 
ATOM     92  F   UNL A   1      47.532  31.935  30.835  1.00  0.00    -0.206 F 
ATOM     93  C   UNL A   1      48.220  34.041  30.059  1.00  0.00     0.059 A 
ATOM     94  C   UNL A   1      47.807  34.673  27.750  1.00  0.00     0.059 A 
ATOM     95  F   UNL A   1      46.682  33.193  26.322  1.00  0.00    -0.206 F 
ATOM     96  C   UNL A   1      48.317  34.963  29.014  1.00  0.00     0.060 A 
BRANCH  96  97
ATOM     97  S   UNL A   1      49.149  36.533  29.323  1.00  0.00     0.124 S 
ATOM     98  O   UNL A   1      48.016  37.429  29.533  1.00  0.00    -0.237 OA
ATOM     99  O   UNL A   1      49.949  36.234  30.507  1.00  0.00    -0.237 OA
ATOM    100  O   UNL A   1      49.912  36.762  28.099  1.00  0.00    -0.744 OA
ENDBRANCH  96  97
ENDBRANCH  64  89
ENDBRANCH  38  39
ENDBRANCH  30  33
ENDBRANCH  28  29
ENDBRANCH   1  28
TORSDOF 17
ENDMDL
MODEL 3
REMARK VINA RESULT:     -12.0      6.662      9.189
REMARK SMILES CC(=O)Nc1cccc(NC(=O)N[C@H](C(=O)NCCCNC(=O)c2ccc(-c3c4nc(c(-c5c(F)cc(S(=O)(=O)[O-])cc5F)c5ccc([nH]5)c(-c5c(F)cc(S(=O)(=O)[O-])cc5F)c5nc(c(-c6c(F)cc(S(=O)(=O)[O-])cc6F)c6ccc3[nH]6)C=C5)C=C4)cc2)C(C)C)c1
REMARK SMILES IDX 19 1 18 2 17 3 15 4 16 5 14 7 13 8 10 9 11 10 12 12 9 14
REMARK SMILES IDX 5 15 6 16 93 17 7 18 8 19 4 20 1 21 2 22 3 23 90 25 91 26
REMARK SMILES IDX 92 27 20 28 21 29 22 30 23 32 24 33 25 34 89 35 26 36 88 37
REMARK SMILES IDX 27 38 28 39 29 40 82 41 30 42 87 43 81 44 83 45 31 46 86 47
REMARK SMILES IDX 80 48 79 49 32 51 66 52 45 53 65 54 46 55 49 56 64 57 84 58
REMARK SMILES IDX 47 59 48 60 63 62 85 63 50 64 33 65 34 66 43 67 35 68 36 69
REMARK SMILES IDX 42 70 44 71 37 72 38 73 39 74 40 75 41 76 67 77 68 78 77 79
REMARK SMILES IDX 69 80 70 81 76 82 78 83 71 84 72 85 73 86 74 87 75 88 51 89
REMARK SMILES IDX 52 90 61 91 53 92 54 93 60 94 62 95 55 96 56 97 57 98 58 99
REMARK SMILES IDX 59 100
REMARK H PARENT 17 6 10 11 13 13 4 24 21 31 83 50 49 61
REMARK Flexibility Score: inf
ROOT
ATOM      1  C   UNL A   1      37.541  22.961  26.168  1.00  0.00     0.042 C 
ENDROOT
BRANCH   1   2
ATOM      2  C   UNL A   1      36.336  23.081  25.246  1.00  0.00     0.117 C 
BRANCH   2   3
ATOM      3  N   UNL A   1      35.690  24.348  25.470  1.00  0.00    -0.354 N 
ATOM      4  C   UNL A   1      34.469  24.749  25.048  1.00  0.00     0.242 C 
ATOM      5  O   UNL A   1      34.260  25.970  25.041  1.00  0.00    -0.273 OA
ATOM      6  H   UNL A   1      36.201  25.004  25.998  1.00  0.00     0.163 HD
BRANCH   4   7
ATOM      7  C   UNL A   1      33.294  23.763  24.882  1.00  0.00     0.175 C 
BRANCH   7   8
ATOM      8  N   UNL A   1      32.158  23.680  25.843  1.00  0.00    -0.326 N 
ATOM      9  N   UNL A   1      31.096  25.667  26.789  1.00  0.00    -0.308 N 
ATOM     10  C   UNL A   1      31.281  24.365  26.564  1.00  0.00     0.319 C 
ATOM     11  H   UNL A   1      30.521  25.739  27.585  1.00  0.00     0.171 HD
ATOM     12  O   UNL A   1      30.550  23.637  27.259  1.00  0.00    -0.248 OA
ATOM     13  H   UNL A   1      31.990  22.724  26.011  1.00  0.00     0.166 HD
BRANCH   9  14
ATOM     14  C   UNL A   1      31.379  26.985  26.369  1.00  0.00     0.044 A 
ATOM     15  C   UNL A   1      31.112  28.613  24.547  1.00  0.00     0.043 A 
ATOM     16  C   UNL A   1      31.645  29.609  25.367  1.00  0.00     0.026 A 
ATOM     17  C   UNL A   1      30.966  27.320  25.065  1.00  0.00     0.052 A 
ATOM     18  C   UNL A   1      32.170  29.274  26.607  1.00  0.00     0.004 A 
ATOM     19  C   UNL A   1      32.122  27.947  27.041  1.00  0.00     0.026 A 
BRANCH  15  20
ATOM     20  N   UNL A   1      30.847  28.996  23.221  1.00  0.00    -0.326 N 
ATOM     21  C   UNL A   1      28.877  30.510  23.430  1.00  0.00     0.114 C 
ATOM     22  C   UNL A   1      29.836  29.687  22.625  1.00  0.00     0.221 C 
ATOM     23  O   UNL A   1      29.750  29.645  21.396  1.00  0.00    -0.275 OA
ATOM     24  H   UNL A   1      31.539  28.699  22.588  1.00  0.00     0.169 HD
ENDBRANCH  15  20
ENDBRANCH   9  14
ENDBRANCH   7   8
BRANCH   7  25
ATOM     25  C   UNL A   1      32.824  23.755  23.441  1.00  0.00     0.015 C 
ATOM     26  C   UNL A   1      31.900  24.849  22.911  1.00  0.00     0.010 C 
ATOM     27  C   UNL A   1      33.979  23.400  22.505  1.00  0.00     0.010 C 
ENDBRANCH   7  25
ENDBRANCH   4   7
ENDBRANCH   2   3
ENDBRANCH   1   2
BRANCH   1  28
ATOM     28  C   UNL A   1      38.376  24.237  26.188  1.00  0.00     0.118 C 
BRANCH  28  29
ATOM     29  N   UNL A   1      39.802  23.959  26.053  1.00  0.00    -0.352 N 
ATOM     30  C   UNL A   1      40.871  24.698  26.504  1.00  0.00     0.251 C 
ATOM     31  H   UNL A   1      40.031  23.130  25.573  1.00  0.00     0.163 HD
ATOM     32  O   UNL A   1      41.998  24.473  26.100  1.00  0.00    -0.269 OA
BRANCH  30  33
ATOM     33  C   UNL A   1      40.608  25.776  27.476  1.00  0.00     0.039 A 
ATOM     34  C   UNL A   1      39.654  25.584  28.474  1.00  0.00     0.014 A 
ATOM     35  C   UNL A   1      41.367  26.949  27.425  1.00  0.00     0.014 A 
ATOM     36  C   UNL A   1      39.516  26.547  29.473  1.00  0.00     0.010 A 
ATOM     37  C   UNL A   1      41.305  27.845  28.479  1.00  0.00     0.010 A 
ATOM     38  C   UNL A   1      40.369  27.663  29.507  1.00  0.00    -0.014 A 
BRANCH  38  39
ATOM     39  C   UNL A   1      40.294  28.670  30.595  1.00  0.00     0.031 A 
ATOM     40  C   UNL A   1      41.175  28.520  31.806  1.00  0.00     0.074 A 
ATOM     41  C   UNL A   1      39.383  29.661  30.527  1.00  0.00     0.049 A 
ATOM     42  N   UNL A   1      41.193  29.224  32.906  1.00  0.00    -0.248 NA
ATOM     43  C   UNL A   1      42.138  27.404  31.797  1.00  0.00     0.031 C 
ATOM     44  C   UNL A   1      38.431  29.869  29.432  1.00  0.00     0.029 A 
ATOM     45  N   UNL A   1      39.098  30.676  31.406  1.00  0.00    -0.354 N 
ATOM     46  C   UNL A   1      42.144  28.626  33.723  1.00  0.00     0.074 A 
ATOM     47  C   UNL A   1      42.637  27.462  33.022  1.00  0.00     0.031 C 
ATOM     48  C   UNL A   1      37.689  30.957  29.691  1.00  0.00     0.029 A 
ATOM     49  C   UNL A   1      38.076  31.499  30.990  1.00  0.00     0.049 A 
ATOM     50  H   UNL A   1      39.580  30.805  32.255  1.00  0.00     0.167 HD
ATOM     51  C   UNL A   1      42.589  29.028  34.935  1.00  0.00     0.037 A 
ATOM     52  C   UNL A   1      37.509  32.561  31.594  1.00  0.00     0.037 A 
ATOM     53  C   UNL A   1      42.123  30.214  35.603  1.00  0.00     0.049 A 
ATOM     54  C   UNL A   1      38.033  32.997  32.938  1.00  0.00     0.074 A 
ATOM     55  C   UNL A   1      42.562  30.754  36.797  1.00  0.00     0.029 A 
ATOM     56  N   UNL A   1      41.116  31.043  35.132  1.00  0.00    -0.354 N 
ATOM     57  N   UNL A   1      38.988  32.463  33.662  1.00  0.00    -0.248 NA
ATOM     58  C   UNL A   1      37.409  34.179  33.544  1.00  0.00     0.031 C 
ATOM     59  C   UNL A   1      41.783  31.881  37.076  1.00  0.00     0.029 A 
ATOM     60  C   UNL A   1      40.901  32.078  36.025  1.00  0.00     0.049 A 
ATOM     61  H   UNL A   1      40.625  30.914  34.287  1.00  0.00     0.167 HD
ATOM     62  C   UNL A   1      39.101  33.264  34.793  1.00  0.00     0.074 A 
ATOM     63  C   UNL A   1      38.126  34.325  34.651  1.00  0.00     0.031 C 
ATOM     64  C   UNL A   1      39.935  33.134  35.854  1.00  0.00     0.037 A 
BRANCH  51  65
ATOM     65  C   UNL A   1      43.640  28.193  35.613  1.00  0.00     0.058 A 
ATOM     66  C   UNL A   1      43.306  27.172  36.518  1.00  0.00     0.135 A 
ATOM     67  C   UNL A   1      44.999  28.381  35.313  1.00  0.00     0.135 A 
ATOM     68  F   UNL A   1      42.024  26.962  36.858  1.00  0.00    -0.206 F 
ATOM     69  C   UNL A   1      44.281  26.381  37.115  1.00  0.00     0.059 A 
ATOM     70  C   UNL A   1      45.989  27.580  35.873  1.00  0.00     0.059 A 
ATOM     71  F   UNL A   1      45.377  29.346  34.459  1.00  0.00    -0.206 F 
ATOM     72  C   UNL A   1      45.621  26.588  36.780  1.00  0.00     0.060 A 
BRANCH  72  73
ATOM     73  S   UNL A   1      46.868  25.526  37.538  1.00  0.00     0.124 S 
ATOM     74  O   UNL A   1      48.047  25.846  36.739  1.00  0.00    -0.237 OA
ATOM     75  O   UNL A   1      46.888  26.006  38.915  1.00  0.00    -0.237 OA
ATOM     76  O   UNL A   1      46.331  24.183  37.351  1.00  0.00    -0.744 OA
ENDBRANCH  72  73
ENDBRANCH  51  65
BRANCH  52  77
ATOM     77  C   UNL A   1      36.394  33.294  30.935  1.00  0.00     0.058 A 
ATOM     78  C   UNL A   1      36.622  34.112  29.819  1.00  0.00     0.135 A 
ATOM     79  C   UNL A   1      35.076  33.197  31.412  1.00  0.00     0.135 A 
ATOM     80  F   UNL A   1      37.863  34.241  29.326  1.00  0.00    -0.206 F 
ATOM     81  C   UNL A   1      35.594  34.831  29.217  1.00  0.00     0.059 A 
ATOM     82  C   UNL A   1      34.026  33.882  30.809  1.00  0.00     0.059 A 
ATOM     83  F   UNL A   1      34.797  32.412  32.465  1.00  0.00    -0.206 F 
ATOM     84  C   UNL A   1      34.298  34.711  29.722  1.00  0.00     0.060 A 
BRANCH  84  85
ATOM     85  S   UNL A   1      32.968  35.632  28.919  1.00  0.00     0.124 S 
ATOM     86  O   UNL A   1      33.713  36.670  28.215  1.00  0.00    -0.237 OA
ATOM     87  O   UNL A   1      32.349  34.610  28.082  1.00  0.00    -0.237 OA
ATOM     88  O   UNL A   1      32.154  36.091  30.042  1.00  0.00    -0.744 OA
ENDBRANCH  84  85
ENDBRANCH  52  77
BRANCH  64  89
ATOM     89  C   UNL A   1      39.867  34.186  36.926  1.00  0.00     0.058 A 
ATOM     90  C   UNL A   1      40.491  35.435  36.779  1.00  0.00     0.135 A 
ATOM     91  C   UNL A   1      39.106  33.965  38.086  1.00  0.00     0.135 A 
ATOM     92  F   UNL A   1      41.235  35.695  35.692  1.00  0.00    -0.206 F 
ATOM     93  C   UNL A   1      40.379  36.420  37.754  1.00  0.00     0.059 A 
ATOM     94  C   UNL A   1      38.954  34.947  39.058  1.00  0.00     0.059 A 
ATOM     95  F   UNL A   1      38.479  32.791  38.270  1.00  0.00    -0.206 F 
ATOM     96  C   UNL A   1      39.604  36.168  38.888  1.00  0.00     0.060 A 
BRANCH  96  97
ATOM     97  S   UNL A   1      39.431  37.472  40.123  1.00  0.00     0.124 S 
ATOM     98  O   UNL A   1      38.873  36.736  41.252  1.00  0.00    -0.237 OA
ATOM     99  O   UNL A   1      40.807  37.933  40.284  1.00  0.00    -0.237 OA
ATOM    100  O   UNL A   1      38.527  38.427  39.486  1.00  0.00    -0.744 OA
ENDBRANCH  96  97
ENDBRANCH  64  89
ENDBRANCH  38  39
ENDBRANCH  30  33
ENDBRANCH  28  29
ENDBRANCH   1  28
TORSDOF 17
ENDMDL
