MODEL 1
REMARK VINA RESULT:     -11.2      0.000      0.000
REMARK SMILES O=C(C[N@@H+](C[C@@H]1COc2ccccc2O1)CC(F)(F)F)NCCCNC(=O)c1ccc(-c2c3nc(c(-c4c(F)cc(S(=O)(=O)[O-])cc4F)c4ccc([nH]4)c(-c4c(F)cc(S(=O)(=O)[O-])cc4F)c4nc(c(-c5c(F)cc(S(=O)(=O)[O-])cc5F)c5ccc2[nH]5)C=C4)C=C3)cc1
REMARK SMILES IDX 23 1 22 2 21 3 1 4 2 5 3 7 4 8 5 10 6 11 7 12 15 13 8 14
REMARK SMILES IDX 14 15 9 16 13 17 10 18 12 19 11 20 16 21 17 22 18 23 19 24
REMARK SMILES IDX 20 25 24 26 25 27 26 28 27 30 28 31 29 32 93 33 30 34 92 35
REMARK SMILES IDX 31 36 32 37 33 38 86 39 34 40 91 41 85 42 87 43 35 44 90 45
REMARK SMILES IDX 84 46 83 47 36 49 70 50 49 51 69 52 50 53 53 54 68 55 88 56
REMARK SMILES IDX 51 57 52 58 67 60 89 61 54 62 37 63 38 64 47 65 39 66 40 67
REMARK SMILES IDX 46 68 48 69 41 70 42 71 43 72 44 73 45 74 71 75 72 76 81 77
REMARK SMILES IDX 73 78 74 79 80 80 82 81 75 82 76 83 77 84 78 85 79 86 55 87
REMARK SMILES IDX 56 88 65 89 57 90 58 91 64 92 66 93 59 94 60 95 61 96 62 97
REMARK SMILES IDX 63 98
REMARK H PARENT 21 6 4 9 25 29 87 48 53 59
REMARK Flexibility Score: inf
ROOT
ATOM      1  C   UNL A   1      32.447  28.036  26.108  1.00  0.00     0.042 C 
ENDROOT
BRANCH   1   2
ATOM      2  C   UNL A   1      31.646  26.846  26.612  1.00  0.00     0.118 C 
BRANCH   2   3
ATOM      3  N   UNL A   1      31.647  25.726  25.696  1.00  0.00    -0.351 N 
ATOM      4  O   UNL A   1      31.080  24.138  27.252  1.00  0.00    -0.269 OA
ATOM      5  C   UNL A   1      31.274  24.458  26.084  1.00  0.00     0.275 C 
ATOM      6  H   UNL A   1      31.924  25.876  24.763  1.00  0.00     0.163 HD
BRANCH   5   7
ATOM      7  C   UNL A   1      31.133  23.460  24.926  1.00  0.00     0.363 C 
BRANCH   7   8
ATOM      8  N   UNL A   1      32.275  22.520  24.846  1.00  0.00    -0.316 N 
ATOM      9  H   UNL A   1      32.415  22.383  23.845  1.00  0.00     0.348 HD
BRANCH   8  10
ATOM     10  C   UNL A   1      33.527  23.104  25.375  1.00  0.00     0.312 C 
BRANCH  10  11
ATOM     11  C   UNL A   1      34.404  23.985  24.439  1.00  0.00     0.265 C 
ATOM     12  C   UNL A   1      34.894  23.214  23.209  1.00  0.00     0.281 C 
ATOM     13  O   UNL A   1      35.533  24.533  25.136  1.00  0.00    -0.477 OA
ATOM     14  O   UNL A   1      35.730  22.107  23.568  1.00  0.00    -0.486 OA
ATOM     15  C   UNL A   1      36.570  23.644  25.255  1.00  0.00     0.162 A 
ATOM     16  C   UNL A   1      36.654  22.463  24.516  1.00  0.00     0.161 A 
ATOM     17  C   UNL A   1      37.550  23.947  26.200  1.00  0.00     0.050 A 
ATOM     18  C   UNL A   1      37.689  21.561  24.760  1.00  0.00     0.050 A 
ATOM     19  C   UNL A   1      38.583  23.044  26.448  1.00  0.00     0.004 A 
ATOM     20  C   UNL A   1      38.649  21.849  25.733  1.00  0.00     0.004 A 
ENDBRANCH  10  11
ENDBRANCH   8  10
BRANCH   8  21
ATOM     21  C   UNL A   1      32.009  21.130  25.326  1.00  0.00     0.379 C 
BRANCH  21  22
ATOM     22  C   UNL A   1      32.621  19.840  24.713  1.00  0.00     0.438 C 
ATOM     23  F   UNL A   1      32.398  18.734  25.448  1.00  0.00    -0.165 F 
ATOM     24  F   UNL A   1      32.099  19.623  23.479  1.00  0.00    -0.165 F 
ATOM     25  F   UNL A   1      33.958  19.950  24.545  1.00  0.00    -0.165 F 
ENDBRANCH  21  22
ENDBRANCH   8  21
ENDBRANCH   7   8
ENDBRANCH   5   7
ENDBRANCH   2   3
ENDBRANCH   1   2
BRANCH   1  26
ATOM     26  C   UNL A   1      33.602  28.437  27.018  1.00  0.00     0.118 C 
BRANCH  26  27
ATOM     27  N   UNL A   1      33.509  29.814  27.491  1.00  0.00    -0.352 N 
ATOM     28  C   UNL A   1      34.436  30.582  28.157  1.00  0.00     0.251 C 
ATOM     29  H   UNL A   1      32.653  30.262  27.304  1.00  0.00     0.163 HD
ATOM     30  O   UNL A   1      34.116  31.682  28.588  1.00  0.00    -0.269 OA
BRANCH  28  31
ATOM     31  C   UNL A   1      35.808  30.067  28.375  1.00  0.00     0.039 A 
ATOM     32  C   UNL A   1      36.721  30.106  27.318  1.00  0.00     0.014 A 
ATOM     33  C   UNL A   1      36.192  29.549  29.613  1.00  0.00     0.014 A 
ATOM     34  C   UNL A   1      38.043  29.700  27.526  1.00  0.00     0.010 A 
ATOM     35  C   UNL A   1      37.524  29.212  29.839  1.00  0.00     0.010 A 
ATOM     36  C   UNL A   1      38.465  29.289  28.800  1.00  0.00    -0.014 A 
BRANCH  36  37
ATOM     37  C   UNL A   1      39.880  28.934  29.085  1.00  0.00     0.031 A 
ATOM     38  C   UNL A   1      40.824  29.982  29.609  1.00  0.00     0.074 A 
ATOM     39  C   UNL A   1      40.340  27.705  28.777  1.00  0.00     0.049 A 
ATOM     40  N   UNL A   1      42.120  29.928  29.762  1.00  0.00    -0.248 NA
ATOM     41  C   UNL A   1      40.229  31.277  29.981  1.00  0.00     0.031 C 
ATOM     42  C   UNL A   1      39.534  26.609  28.233  1.00  0.00     0.029 A 
ATOM     43  N   UNL A   1      41.605  27.176  28.854  1.00  0.00    -0.354 N 
ATOM     44  C   UNL A   1      42.502  31.183  30.219  1.00  0.00     0.074 A 
ATOM     45  C   UNL A   1      41.303  31.991  30.283  1.00  0.00     0.031 C 
ATOM     46  C   UNL A   1      40.323  25.540  28.033  1.00  0.00     0.029 A 
ATOM     47  C   UNL A   1      41.694  25.885  28.388  1.00  0.00     0.049 A 
ATOM     48  H   UNL A   1      42.376  27.676  29.211  1.00  0.00     0.167 HD
ATOM     49  C   UNL A   1      43.736  31.617  30.571  1.00  0.00     0.037 A 
ATOM     50  C   UNL A   1      42.764  25.078  28.245  1.00  0.00     0.037 A 
ATOM     51  C   UNL A   1      44.919  30.798  30.536  1.00  0.00     0.049 A 
ATOM     52  C   UNL A   1      44.125  25.582  28.643  1.00  0.00     0.074 A 
ATOM     53  C   UNL A   1      46.207  31.130  30.919  1.00  0.00     0.029 A 
ATOM     54  N   UNL A   1      44.959  29.482  30.099  1.00  0.00    -0.354 N 
ATOM     55  N   UNL A   1      44.463  26.760  29.111  1.00  0.00    -0.248 NA
ATOM     56  C   UNL A   1      45.251  24.646  28.499  1.00  0.00     0.031 C 
ATOM     57  C   UNL A   1      47.033  30.026  30.680  1.00  0.00     0.029 A 
ATOM     58  C   UNL A   1      46.251  28.991  30.192  1.00  0.00     0.049 A 
ATOM     59  H   UNL A   1      44.184  28.971  29.771  1.00  0.00     0.167 HD
ATOM     60  C   UNL A   1      45.831  26.696  29.350  1.00  0.00     0.074 A 
ATOM     61  C   UNL A   1      46.259  25.363  28.977  1.00  0.00     0.031 C 
ATOM     62  C   UNL A   1      46.657  27.653  29.839  1.00  0.00     0.037 A 
BRANCH  49  63
ATOM     63  C   UNL A   1      43.869  33.045  31.023  1.00  0.00     0.058 A 
ATOM     64  C   UNL A   1      44.132  34.085  30.116  1.00  0.00     0.135 A 
ATOM     65  C   UNL A   1      43.704  33.384  32.376  1.00  0.00     0.135 A 
ATOM     66  F   UNL A   1      44.313  33.815  28.813  1.00  0.00    -0.206 F 
ATOM     67  C   UNL A   1      44.258  35.404  30.538  1.00  0.00     0.059 A 
ATOM     68  C   UNL A   1      43.798  34.701  32.817  1.00  0.00     0.059 A 
ATOM     69  F   UNL A   1      43.451  32.431  33.286  1.00  0.00    -0.206 F 
ATOM     70  C   UNL A   1      44.092  35.702  31.891  1.00  0.00     0.060 A 
BRANCH  70  71
ATOM     71  S   UNL A   1      44.263  37.418  32.423  1.00  0.00     0.124 S 
ATOM     72  O   UNL A   1      43.270  37.492  33.490  1.00  0.00    -0.237 OA
ATOM     73  O   UNL A   1      45.657  37.478  32.849  1.00  0.00    -0.237 OA
ATOM     74  O   UNL A   1      43.946  38.180  31.219  1.00  0.00    -0.744 OA
ENDBRANCH  70  71
ENDBRANCH  49  63
BRANCH  50  75
ATOM     75  C   UNL A   1      42.589  23.700  27.712  1.00  0.00     0.058 A 
ATOM     76  C   UNL A   1      42.571  23.461  26.331  1.00  0.00     0.135 A 
ATOM     77  C   UNL A   1      42.448  22.597  28.569  1.00  0.00     0.135 A 
ATOM     78  F   UNL A   1      42.696  24.483  25.472  1.00  0.00    -0.206 F 
ATOM     79  C   UNL A   1      42.405  22.179  25.814  1.00  0.00     0.059 A 
ATOM     80  C   UNL A   1      42.304  21.303  28.077  1.00  0.00     0.059 A 
ATOM     81  F   UNL A   1      42.474  22.772  29.899  1.00  0.00    -0.206 F 
ATOM     82  C   UNL A   1      42.273  21.106  26.697  1.00  0.00     0.060 A 
BRANCH  82  83
ATOM     83  S   UNL A   1      42.103  19.442  26.016  1.00  0.00     0.124 S 
ATOM     84  O   UNL A   1      42.931  19.529  24.819  1.00  0.00    -0.237 OA
ATOM     85  O   UNL A   1      42.627  18.612  27.096  1.00  0.00    -0.237 OA
ATOM     86  O   UNL A   1      40.666  19.321  25.784  1.00  0.00    -0.744 OA
ENDBRANCH  82  83
ENDBRANCH  50  75
BRANCH  62  87
ATOM     87  C   UNL A   1      48.098  27.287  30.057  1.00  0.00     0.058 A 
ATOM     88  C   UNL A   1      49.075  27.506  29.075  1.00  0.00     0.135 A 
ATOM     89  C   UNL A   1      48.515  26.775  31.297  1.00  0.00     0.135 A 
ATOM     90  F   UNL A   1      48.728  27.987  27.871  1.00  0.00    -0.206 F 
ATOM     91  C   UNL A   1      50.416  27.218  29.310  1.00  0.00     0.059 A 
ATOM     92  C   UNL A   1      49.853  26.504  31.562  1.00  0.00     0.059 A 
ATOM     93  F   UNL A   1      47.620  26.555  32.272  1.00  0.00    -0.206 F 
ATOM     94  C   UNL A   1      50.796  26.722  30.559  1.00  0.00     0.060 A 
BRANCH  94  95
ATOM     95  S   UNL A   1      52.546  26.403  30.870  1.00  0.00     0.124 S 
ATOM     96  O   UNL A   1      52.937  27.602  31.605  1.00  0.00    -0.237 OA
ATOM     97  O   UNL A   1      52.508  25.167  31.646  1.00  0.00    -0.237 OA
ATOM     98  O   UNL A   1      53.111  26.276  29.529  1.00  0.00    -0.744 OA
ENDBRANCH  94  95
ENDBRANCH  62  87
ENDBRANCH  36  37
ENDBRANCH  28  31
ENDBRANCH  26  27
ENDBRANCH   1  26
TORSDOF 18
ENDMDL
MODEL 2
REMARK VINA RESULT:     -11.1      1.316      2.235
REMARK SMILES O=C(C[N@@H+](C[C@@H]1COc2ccccc2O1)CC(F)(F)F)NCCCNC(=O)c1ccc(-c2c3nc(c(-c4c(F)cc(S(=O)(=O)[O-])cc4F)c4ccc([nH]4)c(-c4c(F)cc(S(=O)(=O)[O-])cc4F)c4nc(c(-c5c(F)cc(S(=O)(=O)[O-])cc5F)c5ccc2[nH]5)C=C4)C=C3)cc1
REMARK SMILES IDX 23 1 22 2 21 3 1 4 2 5 3 7 4 8 5 10 6 11 7 12 15 13 8 14
REMARK SMILES IDX 14 15 9 16 13 17 10 18 12 19 11 20 16 21 17 22 18 23 19 24
REMARK SMILES IDX 20 25 24 26 25 27 26 28 27 30 28 31 29 32 93 33 30 34 92 35
REMARK SMILES IDX 31 36 32 37 33 38 86 39 34 40 91 41 85 42 87 43 35 44 90 45
REMARK SMILES IDX 84 46 83 47 36 49 70 50 49 51 69 52 50 53 53 54 68 55 88 56
REMARK SMILES IDX 51 57 52 58 67 60 89 61 54 62 37 63 38 64 47 65 39 66 40 67
REMARK SMILES IDX 46 68 48 69 41 70 42 71 43 72 44 73 45 74 71 75 72 76 81 77
REMARK SMILES IDX 73 78 74 79 80 80 82 81 75 82 76 83 77 84 78 85 79 86 55 87
REMARK SMILES IDX 56 88 65 89 57 90 58 91 64 92 66 93 59 94 60 95 61 96 62 97
REMARK SMILES IDX 63 98
REMARK H PARENT 21 6 4 9 25 29 87 48 53 59
REMARK Flexibility Score: inf
ROOT
ATOM      1  C   UNL A   1      32.360  27.846  26.317  1.00  0.00     0.042 C 
ENDROOT
BRANCH   1   2
ATOM      2  C   UNL A   1      31.340  27.005  27.068  1.00  0.00     0.118 C 
BRANCH   2   3
ATOM      3  N   UNL A   1      31.215  25.660  26.551  1.00  0.00    -0.351 N 
ATOM      4  O   UNL A   1      29.699  26.171  24.905  1.00  0.00    -0.269 OA
ATOM      5  C   UNL A   1      30.456  25.366  25.438  1.00  0.00     0.275 C 
ATOM      6  H   UNL A   1      31.689  24.929  27.010  1.00  0.00     0.163 HD
BRANCH   5   7
ATOM      7  C   UNL A   1      30.624  23.931  24.922  1.00  0.00     0.363 C 
BRANCH   7   8
ATOM      8  N   UNL A   1      32.036  23.599  24.618  1.00  0.00    -0.316 N 
ATOM      9  H   UNL A   1      32.566  24.077  25.347  1.00  0.00     0.348 HD
BRANCH   8  10
ATOM     10  C   UNL A   1      32.321  22.155  24.761  1.00  0.00     0.312 C 
BRANCH  10  11
ATOM     11  C   UNL A   1      32.869  21.624  26.116  1.00  0.00     0.265 C 
ATOM     12  C   UNL A   1      33.076  22.747  27.138  1.00  0.00     0.281 C 
ATOM     13  O   UNL A   1      34.102  20.907  25.943  1.00  0.00    -0.477 OA
ATOM     14  O   UNL A   1      34.046  23.703  26.694  1.00  0.00    -0.486 OA
ATOM     15  C   UNL A   1      35.190  21.735  25.839  1.00  0.00     0.162 A 
ATOM     16  C   UNL A   1      35.158  23.089  26.179  1.00  0.00     0.161 A 
ATOM     17  C   UNL A   1      36.358  21.172  25.325  1.00  0.00     0.050 A 
ATOM     18  C   UNL A   1      36.277  23.889  25.955  1.00  0.00     0.050 A 
ATOM     19  C   UNL A   1      37.476  21.973  25.096  1.00  0.00     0.004 A 
ATOM     20  C   UNL A   1      37.433  23.332  25.406  1.00  0.00     0.004 A 
ENDBRANCH  10  11
ENDBRANCH   8  10
BRANCH   8  21
ATOM     21  C   UNL A   1      32.591  24.203  23.369  1.00  0.00     0.379 C 
BRANCH  21  22
ATOM     22  C   UNL A   1      33.872  25.080  23.292  1.00  0.00     0.438 C 
ATOM     23  F   UNL A   1      34.998  24.375  23.076  1.00  0.00    -0.165 F 
ATOM     24  F   UNL A   1      33.754  25.981  22.284  1.00  0.00    -0.165 F 
ATOM     25  F   UNL A   1      34.056  25.799  24.422  1.00  0.00    -0.165 F 
ENDBRANCH  21  22
ENDBRANCH   8  21
ENDBRANCH   7   8
ENDBRANCH   5   7
ENDBRANCH   2   3
ENDBRANCH   1   2
BRANCH   1  26
ATOM     26  C   UNL A   1      33.512  28.345  27.183  1.00  0.00     0.118 C 
BRANCH  26  27
ATOM     27  N   UNL A   1      33.448  29.777  27.451  1.00  0.00    -0.352 N 
ATOM     28  C   UNL A   1      34.399  30.616  27.987  1.00  0.00     0.251 C 
ATOM     29  H   UNL A   1      32.597  30.210  27.212  1.00  0.00     0.163 HD
ATOM     30  O   UNL A   1      34.104  31.773  28.258  1.00  0.00    -0.269 OA
BRANCH  28  31
ATOM     31  C   UNL A   1      35.765  30.112  28.261  1.00  0.00     0.039 A 
ATOM     32  C   UNL A   1      36.700  30.095  27.223  1.00  0.00     0.014 A 
ATOM     33  C   UNL A   1      36.121  29.659  29.532  1.00  0.00     0.014 A 
ATOM     34  C   UNL A   1      38.016  29.701  27.480  1.00  0.00     0.010 A 
ATOM     35  C   UNL A   1      37.448  29.333  29.803  1.00  0.00     0.010 A 
ATOM     36  C   UNL A   1      38.411  29.356  28.782  1.00  0.00    -0.014 A 
BRANCH  36  37
ATOM     37  C   UNL A   1      39.819  29.015  29.114  1.00  0.00     0.031 A 
ATOM     38  C   UNL A   1      40.727  30.068  29.690  1.00  0.00     0.074 A 
ATOM     39  C   UNL A   1      40.307  27.797  28.805  1.00  0.00     0.049 A 
ATOM     40  N   UNL A   1      42.018  30.028  29.891  1.00  0.00    -0.248 NA
ATOM     41  C   UNL A   1      40.101  31.348  30.059  1.00  0.00     0.031 C 
ATOM     42  C   UNL A   1      39.538  26.700  28.215  1.00  0.00     0.029 A 
ATOM     43  N   UNL A   1      41.576  27.285  28.923  1.00  0.00    -0.354 N 
ATOM     44  C   UNL A   1      42.365  31.281  30.382  1.00  0.00     0.074 A 
ATOM     45  C   UNL A   1      41.153  32.072  30.412  1.00  0.00     0.031 C 
ATOM     46  C   UNL A   1      40.348  25.645  28.028  1.00  0.00     0.029 A 
ATOM     47  C   UNL A   1      41.700  26.002  28.441  1.00  0.00     0.049 A 
ATOM     48  H   UNL A   1      42.325  27.788  29.316  1.00  0.00     0.167 HD
ATOM     49  C   UNL A   1      43.578  31.725  30.786  1.00  0.00     0.037 A 
ATOM     50  C   UNL A   1      42.786  25.212  28.325  1.00  0.00     0.037 A 
ATOM     51  C   UNL A   1      44.773  30.923  30.785  1.00  0.00     0.049 A 
ATOM     52  C   UNL A   1      44.123  25.727  28.783  1.00  0.00     0.074 A 
ATOM     53  C   UNL A   1      46.041  31.266  31.221  1.00  0.00     0.029 A 
ATOM     54  N   UNL A   1      44.848  29.614  30.329  1.00  0.00    -0.354 N 
ATOM     55  N   UNL A   1      44.427  26.902  29.281  1.00  0.00    -0.248 NA
ATOM     56  C   UNL A   1      45.267  24.809  28.668  1.00  0.00     0.031 C 
ATOM     57  C   UNL A   1      46.891  30.177  30.996  1.00  0.00     0.029 A 
ATOM     58  C   UNL A   1      46.142  29.139  30.463  1.00  0.00     0.049 A 
ATOM     59  H   UNL A   1      44.093  29.099  29.964  1.00  0.00     0.167 HD
ATOM     60  C   UNL A   1      45.786  26.853  29.570  1.00  0.00     0.074 A 
ATOM     61  C   UNL A   1      46.246  25.532  29.194  1.00  0.00     0.031 C 
ATOM     62  C   UNL A   1      46.580  27.813  30.105  1.00  0.00     0.037 A 
BRANCH  49  63
ATOM     63  C   UNL A   1      43.675  33.148  31.265  1.00  0.00     0.058 A 
ATOM     64  C   UNL A   1      43.467  33.488  32.612  1.00  0.00     0.135 A 
ATOM     65  C   UNL A   1      44.008  34.181  30.374  1.00  0.00     0.135 A 
ATOM     66  F   UNL A   1      43.131  32.543  33.504  1.00  0.00    -0.206 F 
ATOM     67  C   UNL A   1      43.553  34.806  33.051  1.00  0.00     0.059 A 
ATOM     68  C   UNL A   1      44.129  35.501  30.796  1.00  0.00     0.059 A 
ATOM     69  F   UNL A   1      44.219  33.911  29.076  1.00  0.00    -0.206 F 
ATOM     70  C   UNL A   1      43.882  35.805  32.134  1.00  0.00     0.060 A 
BRANCH  70  71
ATOM     71  S   UNL A   1      43.987  37.510  32.720  1.00  0.00     0.124 S 
ATOM     72  O   UNL A   1      43.709  38.255  31.496  1.00  0.00    -0.237 OA
ATOM     73  O   UNL A   1      42.945  37.556  33.740  1.00  0.00    -0.237 OA
ATOM     74  O   UNL A   1      45.354  37.614  33.220  1.00  0.00    -0.744 OA
ENDBRANCH  70  71
ENDBRANCH  49  63
BRANCH  50  75
ATOM     75  C   UNL A   1      42.650  23.840  27.766  1.00  0.00     0.058 A 
ATOM     76  C   UNL A   1      42.726  23.617  26.384  1.00  0.00     0.135 A 
ATOM     77  C   UNL A   1      42.454  22.727  28.598  1.00  0.00     0.135 A 
ATOM     78  F   UNL A   1      42.906  24.651  25.547  1.00  0.00    -0.206 F 
ATOM     79  C   UNL A   1      42.598  22.342  25.841  1.00  0.00     0.059 A 
ATOM     80  C   UNL A   1      42.346  21.438  28.082  1.00  0.00     0.059 A 
ATOM     81  F   UNL A   1      42.390  22.885  29.929  1.00  0.00    -0.206 F 
ATOM     82  C   UNL A   1      42.409  21.258  26.700  1.00  0.00     0.060 A 
BRANCH  82  83
ATOM     83  S   UNL A   1      42.288  19.603  25.989  1.00  0.00     0.124 S 
ATOM     84  O   UNL A   1      43.217  19.696  24.869  1.00  0.00    -0.237 OA
ATOM     85  O   UNL A   1      42.713  18.758  27.102  1.00  0.00    -0.237 OA
ATOM     86  O   UNL A   1      40.877  19.494  25.632  1.00  0.00    -0.744 OA
ENDBRANCH  82  83
ENDBRANCH  50  75
BRANCH  62  87
ATOM     87  C   UNL A   1      48.017  27.462  30.372  1.00  0.00     0.058 A 
ATOM     88  C   UNL A   1      48.437  26.945  31.605  1.00  0.00     0.135 A 
ATOM     89  C   UNL A   1      48.972  27.581  29.349  1.00  0.00     0.135 A 
ATOM     90  F   UNL A   1      47.565  26.818  32.618  1.00  0.00    -0.206 F 
ATOM     91  C   UNL A   1      49.759  26.568  31.821  1.00  0.00     0.059 A 
ATOM     92  C   UNL A   1      50.293  27.187  29.534  1.00  0.00     0.059 A 
ATOM     93  F   UNL A   1      48.618  28.062  28.147  1.00  0.00    -0.206 F 
ATOM     94  C   UNL A   1      50.679  26.688  30.776  1.00  0.00     0.060 A 
BRANCH  94  95
ATOM     95  S   UNL A   1      52.379  26.145  31.052  1.00  0.00     0.124 S 
ATOM     96  O   UNL A   1      52.894  26.086  29.687  1.00  0.00    -0.237 OA
ATOM     97  O   UNL A   1      52.919  27.214  31.887  1.00  0.00    -0.237 OA
ATOM     98  O   UNL A   1      52.220  24.857  31.720  1.00  0.00    -0.744 OA
ENDBRANCH  94  95
ENDBRANCH  62  87
ENDBRANCH  36  37
ENDBRANCH  28  31
ENDBRANCH  26  27
ENDBRANCH   1  26
TORSDOF 18
ENDMDL
MODEL 3
REMARK VINA RESULT:     -10.9      1.193      2.777
REMARK SMILES O=C(C[N@@H+](C[C@@H]1COc2ccccc2O1)CC(F)(F)F)NCCCNC(=O)c1ccc(-c2c3nc(c(-c4c(F)cc(S(=O)(=O)[O-])cc4F)c4ccc([nH]4)c(-c4c(F)cc(S(=O)(=O)[O-])cc4F)c4nc(c(-c5c(F)cc(S(=O)(=O)[O-])cc5F)c5ccc2[nH]5)C=C4)C=C3)cc1
REMARK SMILES IDX 23 1 22 2 21 3 1 4 2 5 3 7 4 8 5 10 6 11 7 12 15 13 8 14
REMARK SMILES IDX 14 15 9 16 13 17 10 18 12 19 11 20 16 21 17 22 18 23 19 24
REMARK SMILES IDX 20 25 24 26 25 27 26 28 27 30 28 31 29 32 93 33 30 34 92 35
REMARK SMILES IDX 31 36 32 37 33 38 86 39 34 40 91 41 85 42 87 43 35 44 90 45
REMARK SMILES IDX 84 46 83 47 36 49 70 50 49 51 69 52 50 53 53 54 68 55 88 56
REMARK SMILES IDX 51 57 52 58 67 60 89 61 54 62 37 63 38 64 47 65 39 66 40 67
REMARK SMILES IDX 46 68 48 69 41 70 42 71 43 72 44 73 45 74 71 75 72 76 81 77
REMARK SMILES IDX 73 78 74 79 80 80 82 81 75 82 76 83 77 84 78 85 79 86 55 87
REMARK SMILES IDX 56 88 65 89 57 90 58 91 64 92 66 93 59 94 60 95 61 96 62 97
REMARK SMILES IDX 63 98
REMARK H PARENT 21 6 4 9 25 29 87 48 53 59
REMARK Flexibility Score: inf
ROOT
ATOM      1  C   UNL A   1      32.466  27.952  26.264  1.00  0.00     0.042 C 
ENDROOT
BRANCH   1   2
ATOM      2  C   UNL A   1      33.002  27.184  25.066  1.00  0.00     0.118 C 
BRANCH   2   3
ATOM      3  N   UNL A   1      33.869  26.085  25.432  1.00  0.00    -0.351 N 
ATOM      4  O   UNL A   1      34.059  25.210  23.319  1.00  0.00    -0.269 OA
ATOM      5  C   UNL A   1      34.403  25.226  24.496  1.00  0.00     0.275 C 
ATOM      6  H   UNL A   1      34.086  25.947  26.383  1.00  0.00     0.163 HD
BRANCH   5   7
ATOM      7  C   UNL A   1      35.464  24.267  25.054  1.00  0.00     0.363 C 
BRANCH   7   8
ATOM      8  N   UNL A   1      34.932  22.903  25.281  1.00  0.00    -0.316 N 
ATOM      9  H   UNL A   1      34.224  23.029  26.005  1.00  0.00     0.348 HD
BRANCH   8  10
ATOM     10  C   UNL A   1      34.234  22.363  24.094  1.00  0.00     0.312 C 
BRANCH  10  11
ATOM     11  C   UNL A   1      32.938  21.526  24.295  1.00  0.00     0.265 C 
ATOM     12  C   UNL A   1      32.050  21.524  23.047  1.00  0.00     0.281 C 
ATOM     13  O   UNL A   1      32.177  21.996  25.419  1.00  0.00    -0.477 OA
ATOM     14  O   UNL A   1      31.594  22.839  22.711  1.00  0.00    -0.486 OA
ATOM     15  C   UNL A   1      31.410  23.094  25.123  1.00  0.00     0.162 A 
ATOM     16  C   UNL A   1      31.148  23.515  23.818  1.00  0.00     0.161 A 
ATOM     17  C   UNL A   1      30.920  23.825  26.204  1.00  0.00     0.050 A 
ATOM     18  C   UNL A   1      30.441  24.695  23.597  1.00  0.00     0.050 A 
ATOM     19  C   UNL A   1      30.216  25.009  25.984  1.00  0.00     0.004 A 
ATOM     20  C   UNL A   1      29.982  25.446  24.680  1.00  0.00     0.004 A 
ENDBRANCH  10  11
ENDBRANCH   8  10
BRANCH   8  21
ATOM     21  C   UNL A   1      35.875  21.934  25.918  1.00  0.00     0.379 C 
BRANCH  21  22
ATOM     22  C   UNL A   1      37.088  21.270  25.210  1.00  0.00     0.438 C 
ATOM     23  F   UNL A   1      37.321  21.749  23.973  1.00  0.00    -0.165 F 
ATOM     24  F   UNL A   1      38.214  21.466  25.942  1.00  0.00    -0.165 F 
ATOM     25  F   UNL A   1      36.935  19.931  25.102  1.00  0.00    -0.165 F 
ENDBRANCH  21  22
ENDBRANCH   8  21
ENDBRANCH   7   8
ENDBRANCH   5   7
ENDBRANCH   2   3
ENDBRANCH   1   2
BRANCH   1  26
ATOM     26  C   UNL A   1      33.537  28.369  27.266  1.00  0.00     0.118 C 
BRANCH  26  27
ATOM     27  N   UNL A   1      33.475  29.783  27.614  1.00  0.00    -0.352 N 
ATOM     28  C   UNL A   1      34.436  30.595  28.175  1.00  0.00     0.251 C 
ATOM     29  H   UNL A   1      32.618  30.225  27.418  1.00  0.00     0.163 HD
ATOM     30  O   UNL A   1      34.144  31.734  28.516  1.00  0.00    -0.269 OA
BRANCH  28  31
ATOM     31  C   UNL A   1      35.808  30.082  28.390  1.00  0.00     0.039 A 
ATOM     32  C   UNL A   1      36.711  30.099  27.324  1.00  0.00     0.014 A 
ATOM     33  C   UNL A   1      36.203  29.588  29.635  1.00  0.00     0.014 A 
ATOM     34  C   UNL A   1      38.035  29.695  27.528  1.00  0.00     0.010 A 
ATOM     35  C   UNL A   1      37.537  29.253  29.855  1.00  0.00     0.010 A 
ATOM     36  C   UNL A   1      38.468  29.308  28.806  1.00  0.00    -0.014 A 
BRANCH  36  37
ATOM     37  C   UNL A   1      39.885  28.956  29.084  1.00  0.00     0.031 A 
ATOM     38  C   UNL A   1      40.827  30.005  29.611  1.00  0.00     0.074 A 
ATOM     39  C   UNL A   1      40.348  27.730  28.767  1.00  0.00     0.049 A 
ATOM     40  N   UNL A   1      42.124  29.954  29.759  1.00  0.00    -0.248 NA
ATOM     41  C   UNL A   1      40.229  31.296  29.992  1.00  0.00     0.031 C 
ATOM     42  C   UNL A   1      39.544  26.635  28.220  1.00  0.00     0.029 A 
ATOM     43  N   UNL A   1      41.616  27.206  28.838  1.00  0.00    -0.354 N 
ATOM     44  C   UNL A   1      42.503  31.208  30.223  1.00  0.00     0.074 A 
ATOM     45  C   UNL A   1      41.302  32.011  30.295  1.00  0.00     0.031 C 
ATOM     46  C   UNL A   1      40.336  25.570  28.011  1.00  0.00     0.029 A 
ATOM     47  C   UNL A   1      41.708  25.918  28.364  1.00  0.00     0.049 A 
ATOM     48  H   UNL A   1      42.385  27.706  29.195  1.00  0.00     0.167 HD
ATOM     49  C   UNL A   1      43.736  31.643  30.573  1.00  0.00     0.037 A 
ATOM     50  C   UNL A   1      42.780  25.115  28.213  1.00  0.00     0.037 A 
ATOM     51  C   UNL A   1      44.922  30.829  30.531  1.00  0.00     0.049 A 
ATOM     52  C   UNL A   1      44.140  25.621  28.610  1.00  0.00     0.074 A 
ATOM     53  C   UNL A   1      46.210  31.163  30.911  1.00  0.00     0.029 A 
ATOM     54  N   UNL A   1      44.966  29.515  30.086  1.00  0.00    -0.354 N 
ATOM     55  N   UNL A   1      44.475  26.798  29.083  1.00  0.00    -0.248 NA
ATOM     56  C   UNL A   1      45.268  24.690  28.457  1.00  0.00     0.031 C 
ATOM     57  C   UNL A   1      47.039  30.063  30.663  1.00  0.00     0.029 A 
ATOM     58  C   UNL A   1      46.259  29.029  30.172  1.00  0.00     0.049 A 
ATOM     59  H   UNL A   1      44.191  29.004  29.757  1.00  0.00     0.167 HD
ATOM     60  C   UNL A   1      45.844  26.737  29.317  1.00  0.00     0.074 A 
ATOM     61  C   UNL A   1      46.275  25.408  28.935  1.00  0.00     0.031 C 
ATOM     62  C   UNL A   1      46.669  27.694  29.810  1.00  0.00     0.037 A 
BRANCH  49  63
ATOM     63  C   UNL A   1      43.866  33.070  31.033  1.00  0.00     0.058 A 
ATOM     64  C   UNL A   1      44.128  34.114  30.132  1.00  0.00     0.135 A 
ATOM     65  C   UNL A   1      43.699  33.401  32.388  1.00  0.00     0.135 A 
ATOM     66  F   UNL A   1      44.311  33.852  28.828  1.00  0.00    -0.206 F 
ATOM     67  C   UNL A   1      44.251  35.432  30.561  1.00  0.00     0.059 A 
ATOM     68  C   UNL A   1      43.790  34.716  32.836  1.00  0.00     0.059 A 
ATOM     69  F   UNL A   1      43.447  32.442  33.292  1.00  0.00    -0.206 F 
ATOM     70  C   UNL A   1      44.083  35.722  31.916  1.00  0.00     0.060 A 
BRANCH  70  71
ATOM     71  S   UNL A   1      44.250  37.436  32.457  1.00  0.00     0.124 S 
ATOM     72  O   UNL A   1      45.656  37.482  32.847  1.00  0.00    -0.237 OA
ATOM     73  O   UNL A   1      43.902  38.181  31.252  1.00  0.00    -0.237 OA
ATOM     74  O   UNL A   1      43.291  37.541  33.553  1.00  0.00    -0.744 OA
ENDBRANCH  70  71
ENDBRANCH  49  63
BRANCH  50  75
ATOM     75  C   UNL A   1      42.607  23.740  27.673  1.00  0.00     0.058 A 
ATOM     76  C   UNL A   1      42.520  22.636  28.533  1.00  0.00     0.135 A 
ATOM     77  C   UNL A   1      42.513  23.502  26.293  1.00  0.00     0.135 A 
ATOM     78  F   UNL A   1      42.611  22.812  29.860  1.00  0.00    -0.206 F 
ATOM     79  C   UNL A   1      42.362  21.342  28.047  1.00  0.00     0.059 A 
ATOM     80  C   UNL A   1      42.330  22.220  25.782  1.00  0.00     0.059 A 
ATOM     81  F   UNL A   1      42.574  24.526  25.428  1.00  0.00    -0.206 F 
ATOM     82  C   UNL A   1      42.267  21.144  26.668  1.00  0.00     0.060 A 
BRANCH  82  83
ATOM     83  S   UNL A   1      42.017  19.466  26.051  1.00  0.00     0.124 S 
ATOM     84  O   UNL A   1      42.479  18.666  27.178  1.00  0.00    -0.237 OA
ATOM     85  O   UNL A   1      40.579  19.442  25.798  1.00  0.00    -0.237 OA
ATOM     86  O   UNL A   1      42.856  19.420  24.857  1.00  0.00    -0.744 OA
ENDBRANCH  82  83
ENDBRANCH  50  75
BRANCH  62  87
ATOM     87  C   UNL A   1      48.112  27.331  30.021  1.00  0.00     0.058 A 
ATOM     88  C   UNL A   1      49.091  27.589  29.051  1.00  0.00     0.135 A 
ATOM     89  C   UNL A   1      48.528  26.782  31.245  1.00  0.00     0.135 A 
ATOM     90  F   UNL A   1      48.744  28.107  27.861  1.00  0.00    -0.206 F 
ATOM     91  C   UNL A   1      50.433  27.304  29.281  1.00  0.00     0.059 A 
ATOM     92  C   UNL A   1      49.867  26.513  31.507  1.00  0.00     0.059 A 
ATOM     93  F   UNL A   1      47.631  26.525  32.210  1.00  0.00    -0.206 F 
ATOM     94  C   UNL A   1      50.812  26.770  30.515  1.00  0.00     0.060 A 
BRANCH  94  95
ATOM     95  S   UNL A   1      52.563  26.454  30.822  1.00  0.00     0.124 S 
ATOM     96  O   UNL A   1      53.072  26.275  29.465  1.00  0.00    -0.237 OA
ATOM     97  O   UNL A   1      52.988  27.674  31.502  1.00  0.00    -0.237 OA
ATOM     98  O   UNL A   1      52.552  25.253  31.652  1.00  0.00    -0.744 OA
ENDBRANCH  94  95
ENDBRANCH  62  87
ENDBRANCH  36  37
ENDBRANCH  28  31
ENDBRANCH  26  27
ENDBRANCH   1  26
TORSDOF 18
ENDMDL
