MODEL 1
REMARK VINA RESULT:     -12.1      0.000      0.000
REMARK SMILES C[C@@H](C(=O)NCCCNC(=O)c1ccc(-c2c3nc(c(-c4c(F)cc(S(=O)(=O)[O-])cc4F)c4ccc([nH]4)c(-c4c(F)cc(S(=O)(=O)[O-])cc4F)c4nc(c(-c5c(F)cc(S(=O)(=O)[O-])cc5F)c5ccc2[nH]5)C=C4)C=C3)cc1)c1ccc(C[C@@H]2CCC[C@@H]2O)cc1
REMARK SMILES IDX 6 1 5 2 3 3 4 4 2 6 1 7 78 8 79 9 90 10 80 11 89 12 81 13
REMARK SMILES IDX 82 14 83 15 84 16 87 17 85 18 86 19 88 20 7 22 8 23 9 24
REMARK SMILES IDX 10 25 11 27 12 28 13 29 77 30 14 31 76 32 15 33 16 34 17 35
REMARK SMILES IDX 70 36 18 37 75 38 69 39 71 40 19 41 74 42 68 43 67 44 20 46
REMARK SMILES IDX 54 47 33 48 53 49 34 50 37 51 52 52 72 53 35 54 36 55 51 57
REMARK SMILES IDX 73 58 38 59 21 60 22 61 31 62 23 63 24 64 30 65 32 66 25 67
REMARK SMILES IDX 26 68 27 69 28 70 29 71 55 72 56 73 65 74 57 75 58 76 64 77
REMARK SMILES IDX 66 78 59 79 60 80 61 81 62 82 63 83 39 84 40 85 49 86 41 87
REMARK SMILES IDX 42 88 48 89 50 90 43 91 44 92 45 93 46 94 47 95
REMARK H PARENT 5 5 88 21 9 26 71 45 37 56
REMARK Flexibility Score: inf
ROOT
ATOM      1  C   UNL A   1      36.040  24.019  24.724  1.00  0.00     0.117 C 
ENDROOT
BRANCH   1   2
ATOM      2  N   UNL A   1      35.159  24.767  25.597  1.00  0.00    -0.356 N 
ATOM      3  C   UNL A   1      33.940  25.335  25.362  1.00  0.00     0.227 C 
ATOM      4  O   UNL A   1      33.576  26.147  26.212  1.00  0.00    -0.274 OA
ATOM      5  H   UNL A   1      35.495  24.885  26.515  1.00  0.00     0.163 HD
BRANCH   3   6
ATOM      6  C   UNL A   1      33.141  24.948  24.104  1.00  0.00     0.105 C 
ATOM      7  C   UNL A   1      31.885  25.825  23.999  1.00  0.00     0.023 C 
BRANCH   6   8
ATOM      8  C   UNL A   1      32.720  23.480  23.945  1.00  0.00    -0.036 A 
ATOM      9  C   UNL A   1      32.508  22.717  25.109  1.00  0.00     0.005 A 
ATOM     10  C   UNL A   1      32.630  22.814  22.719  1.00  0.00     0.005 A 
ATOM     11  C   UNL A   1      32.319  21.333  25.050  1.00  0.00     0.004 A 
ATOM     12  C   UNL A   1      32.441  21.431  22.658  1.00  0.00     0.004 A 
ATOM     13  C   UNL A   1      32.341  20.668  23.823  1.00  0.00    -0.048 A 
BRANCH  13  14
ATOM     14  C   UNL A   1      32.321  19.164  23.733  1.00  0.00     0.041 C 
BRANCH  14  15
ATOM     15  C   UNL A   1      33.531  18.389  24.310  1.00  0.00     0.022 C 
ATOM     16  C   UNL A   1      34.035  17.239  23.431  1.00  0.00     0.007 C 
ATOM     17  C   UNL A   1      33.365  17.711  25.676  1.00  0.00     0.117 C 
ATOM     18  C   UNL A   1      33.486  15.943  24.037  1.00  0.00     0.003 C 
ATOM     19  C   UNL A   1      32.832  16.322  25.362  1.00  0.00     0.032 C 
BRANCH  17  20
ATOM     20  O   UNL A   1      32.534  18.414  26.575  1.00  0.00    -0.393 OA
ATOM     21  H   UNL A   1      31.641  18.480  26.205  1.00  0.00     0.210 HD
ENDBRANCH  17  20
ENDBRANCH  14  15
ENDBRANCH  13  14
ENDBRANCH   6   8
ENDBRANCH   3   6
ENDBRANCH   1   2
BRANCH   1  22
ATOM     22  C   UNL A   1      37.170  23.353  25.511  1.00  0.00     0.042 C 
BRANCH  22  23
ATOM     23  C   UNL A   1      38.094  24.325  26.239  1.00  0.00     0.118 C 
BRANCH  23  24
ATOM     24  N   UNL A   1      39.499  23.975  26.100  1.00  0.00    -0.352 N 
ATOM     25  C   UNL A   1      40.610  24.592  26.613  1.00  0.00     0.251 C 
ATOM     26  H   UNL A   1      39.678  23.175  25.555  1.00  0.00     0.163 HD
ATOM     27  O   UNL A   1      41.726  24.253  26.216  1.00  0.00    -0.269 OA
BRANCH  25  28
ATOM     28  C   UNL A   1      40.479  25.670  27.617  1.00  0.00     0.039 A 
ATOM     29  C   UNL A   1      39.516  25.541  28.621  1.00  0.00     0.014 A 
ATOM     30  C   UNL A   1      41.281  26.814  27.562  1.00  0.00     0.014 A 
ATOM     31  C   UNL A   1      39.401  26.527  29.603  1.00  0.00     0.010 A 
ATOM     32  C   UNL A   1      41.217  27.758  28.585  1.00  0.00     0.010 A 
ATOM     33  C   UNL A   1      40.274  27.628  29.615  1.00  0.00    -0.014 A 
BRANCH  33  34
ATOM     34  C   UNL A   1      40.220  28.641  30.703  1.00  0.00     0.031 A 
ATOM     35  C   UNL A   1      41.105  28.506  31.913  1.00  0.00     0.074 A 
ATOM     36  C   UNL A   1      39.329  29.650  30.626  1.00  0.00     0.049 A 
ATOM     37  N   UNL A   1      41.154  29.254  32.986  1.00  0.00    -0.248 NA
ATOM     38  C   UNL A   1      42.038  27.368  31.934  1.00  0.00     0.031 C 
ATOM     39  C   UNL A   1      38.382  29.860  29.529  1.00  0.00     0.029 A 
ATOM     40  N   UNL A   1      39.063  30.682  31.493  1.00  0.00    -0.354 N 
ATOM     41  C   UNL A   1      42.107  28.671  33.812  1.00  0.00     0.074 A 
ATOM     42  C   UNL A   1      42.578  27.480  33.139  1.00  0.00     0.031 C 
ATOM     43  C   UNL A   1      37.656  30.961  29.778  1.00  0.00     0.029 A 
ATOM     44  C   UNL A   1      38.052  31.512  31.071  1.00  0.00     0.049 A 
ATOM     45  H   UNL A   1      39.552  30.815  32.337  1.00  0.00     0.167 HD
ATOM     46  C   UNL A   1      42.561  29.100  35.015  1.00  0.00     0.037 A 
ATOM     47  C   UNL A   1      37.494  32.587  31.660  1.00  0.00     0.037 A 
ATOM     48  C   UNL A   1      42.104  30.301  35.668  1.00  0.00     0.049 A 
ATOM     49  C   UNL A   1      38.020  33.048  32.993  1.00  0.00     0.074 A 
ATOM     50  C   UNL A   1      42.552  30.856  36.853  1.00  0.00     0.029 A 
ATOM     51  N   UNL A   1      41.094  31.126  35.198  1.00  0.00    -0.354 N 
ATOM     52  N   UNL A   1      38.971  32.524  33.728  1.00  0.00    -0.248 NA
ATOM     53  C   UNL A   1      37.405  34.249  33.572  1.00  0.00     0.031 C 
ATOM     54  C   UNL A   1      41.776  31.987  37.128  1.00  0.00     0.029 A 
ATOM     55  C   UNL A   1      40.886  32.172  36.083  1.00  0.00     0.049 A 
ATOM     56  H   UNL A   1      40.598  30.990  34.358  1.00  0.00     0.167 HD
ATOM     57  C   UNL A   1      39.085  33.345  34.845  1.00  0.00     0.074 A 
ATOM     58  C   UNL A   1      38.115  34.408  34.680  1.00  0.00     0.031 C 
ATOM     59  C   UNL A   1      39.919  33.228  35.908  1.00  0.00     0.037 A 
BRANCH  46  60
ATOM     60  C   UNL A   1      43.606  28.269  35.711  1.00  0.00     0.058 A 
ATOM     61  C   UNL A   1      44.979  28.486  35.508  1.00  0.00     0.135 A 
ATOM     62  C   UNL A   1      43.231  27.281  36.634  1.00  0.00     0.135 A 
ATOM     63  F   UNL A   1      45.396  29.407  34.626  1.00  0.00    -0.206 F 
ATOM     64  C   UNL A   1      45.941  27.739  36.180  1.00  0.00     0.059 A 
ATOM     65  C   UNL A   1      44.176  26.541  37.340  1.00  0.00     0.059 A 
ATOM     66  F   UNL A   1      41.932  27.030  36.867  1.00  0.00    -0.206 F 
ATOM     67  C   UNL A   1      45.529  26.770  37.098  1.00  0.00     0.060 A 
BRANCH  67  68
ATOM     68  S   UNL A   1      46.792  25.826  37.978  1.00  0.00     0.124 S 
ATOM     69  O   UNL A   1      46.376  24.454  37.701  1.00  0.00    -0.237 OA
ATOM     70  O   UNL A   1      48.019  26.260  37.320  1.00  0.00    -0.237 OA
ATOM     71  O   UNL A   1      46.638  26.260  39.363  1.00  0.00    -0.744 OA
ENDBRANCH  67  68
ENDBRANCH  46  60
BRANCH  47  72
ATOM     72  C   UNL A   1      36.384  33.309  30.982  1.00  0.00     0.058 A 
ATOM     73  C   UNL A   1      35.073  33.252  31.477  1.00  0.00     0.135 A 
ATOM     74  C   UNL A   1      36.617  34.096  29.843  1.00  0.00     0.135 A 
ATOM     75  F   UNL A   1      34.796  32.507  32.559  1.00  0.00    -0.206 F 
ATOM     76  C   UNL A   1      34.031  33.941  30.864  1.00  0.00     0.059 A 
ATOM     77  C   UNL A   1      35.598  34.816  29.228  1.00  0.00     0.059 A 
ATOM     78  F   UNL A   1      37.857  34.198  29.338  1.00  0.00    -0.206 F 
ATOM     79  C   UNL A   1      34.305  34.726  29.743  1.00  0.00     0.060 A 
BRANCH  79  80
ATOM     80  S   UNL A   1      32.958  35.669  28.996  1.00  0.00     0.124 S 
ATOM     81  O   UNL A   1      32.349  34.672  28.124  1.00  0.00    -0.237 OA
ATOM     82  O   UNL A   1      32.176  36.062  30.164  1.00  0.00    -0.237 OA
ATOM     83  O   UNL A   1      33.649  36.762  28.318  1.00  0.00    -0.744 OA
ENDBRANCH  79  80
ENDBRANCH  47  72
BRANCH  59  84
ATOM     84  C   UNL A   1      39.849  34.294  36.968  1.00  0.00     0.058 A 
ATOM     85  C   UNL A   1      40.432  35.557  36.786  1.00  0.00     0.135 A 
ATOM     86  C   UNL A   1      39.138  34.066  38.157  1.00  0.00     0.135 A 
ATOM     87  F   UNL A   1      41.128  35.828  35.670  1.00  0.00    -0.206 F 
ATOM     88  C   UNL A   1      40.335  36.549  37.757  1.00  0.00     0.059 A 
ATOM     89  C   UNL A   1      39.002  35.053  39.128  1.00  0.00     0.059 A 
ATOM     90  F   UNL A   1      38.551  32.879  38.378  1.00  0.00    -0.206 F 
ATOM     91  C   UNL A   1      39.613  36.288  38.924  1.00  0.00     0.060 A 
BRANCH  91  92
ATOM     92  S   UNL A   1      39.466  37.594  40.161  1.00  0.00     0.124 S 
ATOM     93  O   UNL A   1      40.850  38.040  40.284  1.00  0.00    -0.237 OA
ATOM     94  O   UNL A   1      38.553  38.533  39.516  1.00  0.00    -0.237 OA
ATOM     95  O   UNL A   1      38.924  36.902  41.326  1.00  0.00    -0.744 OA
ENDBRANCH  91  92
ENDBRANCH  59  84
ENDBRANCH  33  34
ENDBRANCH  25  28
ENDBRANCH  23  24
ENDBRANCH  22  23
ENDBRANCH   1  22
TORSDOF 17
ENDMDL
MODEL 2
REMARK VINA RESULT:     -12.0      5.252      8.674
REMARK SMILES C[C@@H](C(=O)NCCCNC(=O)c1ccc(-c2c3nc(c(-c4c(F)cc(S(=O)(=O)[O-])cc4F)c4ccc([nH]4)c(-c4c(F)cc(S(=O)(=O)[O-])cc4F)c4nc(c(-c5c(F)cc(S(=O)(=O)[O-])cc5F)c5ccc2[nH]5)C=C4)C=C3)cc1)c1ccc(C[C@@H]2CCC[C@@H]2O)cc1
REMARK SMILES IDX 6 1 5 2 3 3 4 4 2 6 1 7 78 8 79 9 90 10 80 11 89 12 81 13
REMARK SMILES IDX 82 14 83 15 84 16 87 17 85 18 86 19 88 20 7 22 8 23 9 24
REMARK SMILES IDX 10 25 11 27 12 28 13 29 77 30 14 31 76 32 15 33 16 34 17 35
REMARK SMILES IDX 70 36 18 37 75 38 69 39 71 40 19 41 74 42 68 43 67 44 20 46
REMARK SMILES IDX 54 47 33 48 53 49 34 50 37 51 52 52 72 53 35 54 36 55 51 57
REMARK SMILES IDX 73 58 38 59 21 60 22 61 31 62 23 63 24 64 30 65 32 66 25 67
REMARK SMILES IDX 26 68 27 69 28 70 29 71 55 72 56 73 65 74 57 75 58 76 64 77
REMARK SMILES IDX 66 78 59 79 60 80 61 81 62 82 63 83 39 84 40 85 49 86 41 87
REMARK SMILES IDX 42 88 48 89 50 90 43 91 44 92 45 93 46 94 47 95
REMARK H PARENT 5 5 88 21 9 26 71 45 37 56
REMARK Flexibility Score: inf
ROOT
ATOM      1  C   UNL A   1      42.346  20.191  26.518  1.00  0.00     0.117 C 
ENDROOT
BRANCH   1   2
ATOM      2  N   UNL A   1      43.298  20.587  25.501  1.00  0.00    -0.356 N 
ATOM      3  C   UNL A   1      43.618  21.818  25.007  1.00  0.00     0.227 C 
ATOM      4  O   UNL A   1      44.249  21.803  23.951  1.00  0.00    -0.274 OA
ATOM      5  H   UNL A   1      43.801  19.842  25.099  1.00  0.00     0.163 HD
BRANCH   3   6
ATOM      6  C   UNL A   1      43.180  23.087  25.762  1.00  0.00     0.105 C 
ATOM      7  C   UNL A   1      43.689  24.332  25.020  1.00  0.00     0.023 C 
BRANCH   6   8
ATOM      8  C   UNL A   1      43.570  23.213  27.241  1.00  0.00    -0.036 A 
ATOM      9  C   UNL A   1      42.540  23.335  28.194  1.00  0.00     0.005 A 
ATOM     10  C   UNL A   1      44.885  23.317  27.705  1.00  0.00     0.005 A 
ATOM     11  C   UNL A   1      42.814  23.651  29.528  1.00  0.00     0.004 A 
ATOM     12  C   UNL A   1      45.160  23.632  29.038  1.00  0.00     0.004 A 
ATOM     13  C   UNL A   1      44.128  23.860  29.950  1.00  0.00    -0.048 A 
BRANCH  13  14
ATOM     14  C   UNL A   1      44.449  24.375  31.329  1.00  0.00     0.041 C 
BRANCH  14  15
ATOM     15  C   UNL A   1      45.323  25.648  31.440  1.00  0.00     0.022 C 
ATOM     16  C   UNL A   1      46.493  25.540  32.424  1.00  0.00     0.007 C 
ATOM     17  C   UNL A   1      44.642  26.951  31.878  1.00  0.00     0.117 C 
ATOM     18  C   UNL A   1      46.064  26.265  33.704  1.00  0.00     0.003 C 
ATOM     19  C   UNL A   1      44.738  26.951  33.396  1.00  0.00     0.032 C 
BRANCH  17  20
ATOM     20  O   UNL A   1      43.314  27.093  31.424  1.00  0.00    -0.393 OA
ATOM     21  H   UNL A   1      43.272  26.888  30.478  1.00  0.00     0.210 HD
ENDBRANCH  17  20
ENDBRANCH  14  15
ENDBRANCH  13  14
ENDBRANCH   6   8
ENDBRANCH   3   6
ENDBRANCH   1   2
BRANCH   1  22
ATOM     22  C   UNL A   1      40.909  20.462  26.072  1.00  0.00     0.042 C 
BRANCH  22  23
ATOM     23  C   UNL A   1      40.157  21.473  26.934  1.00  0.00     0.118 C 
BRANCH  23  24
ATOM     24  N   UNL A   1      38.948  21.967  26.295  1.00  0.00    -0.352 N 
ATOM     25  C   UNL A   1      38.410  23.228  26.295  1.00  0.00     0.251 C 
ATOM     26  H   UNL A   1      38.439  21.295  25.787  1.00  0.00     0.163 HD
ATOM     27  O   UNL A   1      37.272  23.398  25.856  1.00  0.00    -0.269 OA
BRANCH  25  28
ATOM     28  C   UNL A   1      39.174  24.374  26.834  1.00  0.00     0.039 A 
ATOM     29  C   UNL A   1      39.979  25.115  25.965  1.00  0.00     0.014 A 
ATOM     30  C   UNL A   1      39.118  24.710  28.190  1.00  0.00     0.014 A 
ATOM     31  C   UNL A   1      40.678  26.225  26.443  1.00  0.00     0.010 A 
ATOM     32  C   UNL A   1      39.753  25.861  28.649  1.00  0.00     0.010 A 
ATOM     33  C   UNL A   1      40.544  26.630  27.782  1.00  0.00    -0.014 A 
BRANCH  33  34
ATOM     34  C   UNL A   1      41.213  27.860  28.284  1.00  0.00     0.031 A 
ATOM     35  C   UNL A   1      42.715  27.963  28.287  1.00  0.00     0.074 A 
ATOM     36  C   UNL A   1      40.467  28.860  28.793  1.00  0.00     0.049 A 
ATOM     37  N   UNL A   1      43.474  28.927  28.741  1.00  0.00    -0.248 NA
ATOM     38  C   UNL A   1      43.463  26.822  27.733  1.00  0.00     0.031 C 
ATOM     39  C   UNL A   1      39.005  28.859  28.892  1.00  0.00     0.029 A 
ATOM     40  N   UNL A   1      40.832  30.068  29.336  1.00  0.00    -0.354 N 
ATOM     41  C   UNL A   1      44.784  28.506  28.541  1.00  0.00     0.074 A 
ATOM     42  C   UNL A   1      44.717  27.178  27.970  1.00  0.00     0.031 C 
ATOM     43  C   UNL A   1      38.599  30.014  29.442  1.00  0.00     0.029 A 
ATOM     44  C   UNL A   1      39.769  30.822  29.774  1.00  0.00     0.049 A 
ATOM     45  H   UNL A   1      41.768  30.366  29.405  1.00  0.00     0.167 HD
ATOM     46  C   UNL A   1      45.936  29.172  28.796  1.00  0.00     0.037 A 
ATOM     47  C   UNL A   1      39.736  32.022  30.385  1.00  0.00     0.037 A 
ATOM     48  C   UNL A   1      45.993  30.504  29.342  1.00  0.00     0.049 A 
ATOM     49  C   UNL A   1      41.028  32.746  30.651  1.00  0.00     0.074 A 
ATOM     50  C   UNL A   1      47.108  31.291  29.570  1.00  0.00     0.029 A 
ATOM     51  N   UNL A   1      44.893  31.244  29.751  1.00  0.00    -0.354 N 
ATOM     52  N   UNL A   1      42.254  32.361  30.392  1.00  0.00    -0.248 NA
ATOM     53  C   UNL A   1      40.933  34.069  31.282  1.00  0.00     0.031 C 
ATOM     54  C   UNL A   1      46.688  32.483  30.169  1.00  0.00     0.029 A 
ATOM     55  C   UNL A   1      45.305  32.466  30.256  1.00  0.00     0.049 A 
ATOM     56  H   UNL A   1      43.957  30.944  29.692  1.00  0.00     0.167 HD
ATOM     57  C   UNL A   1      43.076  33.405  30.806  1.00  0.00     0.074 A 
ATOM     58  C   UNL A   1      42.205  34.441  31.320  1.00  0.00     0.031 C 
ATOM     59  C   UNL A   1      44.429  33.494  30.763  1.00  0.00     0.037 A 
BRANCH  46  60
ATOM     60  C   UNL A   1      47.235  28.477  28.488  1.00  0.00     0.058 A 
ATOM     61  C   UNL A   1      48.006  27.870  29.493  1.00  0.00     0.135 A 
ATOM     62  C   UNL A   1      47.686  28.368  27.163  1.00  0.00     0.135 A 
ATOM     63  F   UNL A   1      47.631  27.955  30.778  1.00  0.00    -0.206 F 
ATOM     64  C   UNL A   1      49.188  27.199  29.197  1.00  0.00     0.059 A 
ATOM     65  C   UNL A   1      48.851  27.676  26.841  1.00  0.00     0.059 A 
ATOM     66  F   UNL A   1      46.990  28.930  26.162  1.00  0.00    -0.206 F 
ATOM     67  C   UNL A   1      49.601  27.104  27.867  1.00  0.00     0.060 A 
BRANCH  67  68
ATOM     68  S   UNL A   1      51.126  26.209  27.500  1.00  0.00     0.124 S 
ATOM     69  O   UNL A   1      50.644  24.833  27.421  1.00  0.00    -0.237 OA
ATOM     70  O   UNL A   1      51.541  26.808  26.236  1.00  0.00    -0.237 OA
ATOM     71  O   UNL A   1      51.981  26.509  28.644  1.00  0.00    -0.744 OA
ENDBRANCH  67  68
ENDBRANCH  46  60
BRANCH  47  72
ATOM     72  C   UNL A   1      38.429  32.618  30.773  1.00  0.00     0.058 A 
ATOM     73  C   UNL A   1      37.639  33.305  29.839  1.00  0.00     0.135 A 
ATOM     74  C   UNL A   1      37.927  32.484  32.077  1.00  0.00     0.135 A 
ATOM     75  F   UNL A   1      38.078  33.467  28.581  1.00  0.00    -0.206 F 
ATOM     76  C   UNL A   1      36.405  33.847  30.185  1.00  0.00     0.059 A 
ATOM     77  C   UNL A   1      36.685  32.993  32.441  1.00  0.00     0.059 A 
ATOM     78  F   UNL A   1      38.636  31.820  33.005  1.00  0.00    -0.206 F 
ATOM     79  C   UNL A   1      35.934  33.679  31.487  1.00  0.00     0.060 A 
BRANCH  79  80
ATOM     80  S   UNL A   1      34.300  34.327  31.907  1.00  0.00     0.124 S 
ATOM     81  O   UNL A   1      33.709  34.511  30.588  1.00  0.00    -0.237 OA
ATOM     82  O   UNL A   1      33.742  33.247  32.714  1.00  0.00    -0.237 OA
ATOM     83  O   UNL A   1      34.604  35.553  32.640  1.00  0.00    -0.744 OA
ENDBRANCH  79  80
ENDBRANCH  47  72
BRANCH  59  84
ATOM     84  C   UNL A   1      45.057  34.770  31.253  1.00  0.00     0.058 A 
ATOM     85  C   UNL A   1      45.480  34.924  32.583  1.00  0.00     0.135 A 
ATOM     86  C   UNL A   1      45.293  35.832  30.365  1.00  0.00     0.135 A 
ATOM     87  F   UNL A   1      45.276  33.943  33.476  1.00  0.00    -0.206 F 
ATOM     88  C   UNL A   1      46.091  36.095  33.020  1.00  0.00     0.059 A 
ATOM     89  C   UNL A   1      45.929  36.999  30.773  1.00  0.00     0.059 A 
ATOM     90  F   UNL A   1      44.918  35.734  29.079  1.00  0.00    -0.206 F 
ATOM     91  C   UNL A   1      46.315  37.126  32.106  1.00  0.00     0.060 A 
BRANCH  91  92
ATOM     92  S   UNL A   1      47.139  38.627  32.678  1.00  0.00     0.124 S 
ATOM     93  O   UNL A   1      48.493  38.143  32.924  1.00  0.00    -0.237 OA
ATOM     94  O   UNL A   1      46.984  39.523  31.537  1.00  0.00    -0.237 OA
ATOM     95  O   UNL A   1      46.381  38.999  33.869  1.00  0.00    -0.744 OA
ENDBRANCH  91  92
ENDBRANCH  59  84
ENDBRANCH  33  34
ENDBRANCH  25  28
ENDBRANCH  23  24
ENDBRANCH  22  23
ENDBRANCH   1  22
TORSDOF 17
ENDMDL
MODEL 3
REMARK VINA RESULT:     -11.9      5.636     12.343
REMARK SMILES C[C@@H](C(=O)NCCCNC(=O)c1ccc(-c2c3nc(c(-c4c(F)cc(S(=O)(=O)[O-])cc4F)c4ccc([nH]4)c(-c4c(F)cc(S(=O)(=O)[O-])cc4F)c4nc(c(-c5c(F)cc(S(=O)(=O)[O-])cc5F)c5ccc2[nH]5)C=C4)C=C3)cc1)c1ccc(C[C@@H]2CCC[C@@H]2O)cc1
REMARK SMILES IDX 6 1 5 2 3 3 4 4 2 6 1 7 78 8 79 9 90 10 80 11 89 12 81 13
REMARK SMILES IDX 82 14 83 15 84 16 87 17 85 18 86 19 88 20 7 22 8 23 9 24
REMARK SMILES IDX 10 25 11 27 12 28 13 29 77 30 14 31 76 32 15 33 16 34 17 35
REMARK SMILES IDX 70 36 18 37 75 38 69 39 71 40 19 41 74 42 68 43 67 44 20 46
REMARK SMILES IDX 54 47 33 48 53 49 34 50 37 51 52 52 72 53 35 54 36 55 51 57
REMARK SMILES IDX 73 58 38 59 21 60 22 61 31 62 23 63 24 64 30 65 32 66 25 67
REMARK SMILES IDX 26 68 27 69 28 70 29 71 55 72 56 73 65 74 57 75 58 76 64 77
REMARK SMILES IDX 66 78 59 79 60 80 61 81 62 82 63 83 39 84 40 85 49 86 41 87
REMARK SMILES IDX 42 88 48 89 50 90 43 91 44 92 45 93 46 94 47 95
REMARK H PARENT 5 5 88 21 9 26 71 45 37 56
REMARK Flexibility Score: inf
ROOT
ATOM      1  C   UNL A   1      36.016  33.502  30.310  1.00  0.00     0.117 C 
ENDROOT
BRANCH   1   2
ATOM      2  N   UNL A   1      35.778  34.329  31.476  1.00  0.00    -0.356 N 
ATOM      3  C   UNL A   1      36.579  34.624  32.540  1.00  0.00     0.227 C 
ATOM      4  O   UNL A   1      35.996  35.113  33.507  1.00  0.00    -0.274 OA
ATOM      5  H   UNL A   1      34.888  34.749  31.505  1.00  0.00     0.163 HD
BRANCH   3   6
ATOM      6  C   UNL A   1      38.090  34.332  32.470  1.00  0.00     0.105 C 
ATOM      7  C   UNL A   1      38.601  34.593  31.046  1.00  0.00     0.023 C 
BRANCH   6   8
ATOM      8  C   UNL A   1      38.573  32.943  32.910  1.00  0.00    -0.036 A 
ATOM      9  C   UNL A   1      39.849  32.838  33.499  1.00  0.00     0.005 A 
ATOM     10  C   UNL A   1      37.877  31.754  32.677  1.00  0.00     0.005 A 
ATOM     11  C   UNL A   1      40.438  31.593  33.742  1.00  0.00     0.004 A 
ATOM     12  C   UNL A   1      38.465  30.510  32.920  1.00  0.00     0.004 A 
ATOM     13  C   UNL A   1      39.773  30.415  33.400  1.00  0.00    -0.048 A 
BRANCH  13  14
ATOM     14  C   UNL A   1      40.444  29.069  33.481  1.00  0.00     0.041 C 
BRANCH  14  15
ATOM     15  C   UNL A   1      41.872  29.009  34.075  1.00  0.00     0.022 C 
ATOM     16  C   UNL A   1      42.903  28.287  33.199  1.00  0.00     0.007 C 
ATOM     17  C   UNL A   1      42.057  28.321  35.434  1.00  0.00     0.117 C 
ATOM     18  C   UNL A   1      43.081  26.884  33.787  1.00  0.00     0.003 C 
ATOM     19  C   UNL A   1      42.310  26.858  35.102  1.00  0.00     0.032 C 
BRANCH  17  20
ATOM     20  O   UNL A   1      40.974  28.490  36.322  1.00  0.00    -0.393 OA
ATOM     21  H   UNL A   1      40.296  29.043  35.903  1.00  0.00     0.210 HD
ENDBRANCH  17  20
ENDBRANCH  14  15
ENDBRANCH  13  14
ENDBRANCH   6   8
ENDBRANCH   3   6
ENDBRANCH   1   2
BRANCH   1  22
ATOM     22  C   UNL A   1      34.756  32.739  29.902  1.00  0.00     0.042 C 
BRANCH  22  23
ATOM     23  C   UNL A   1      34.635  32.469  28.404  1.00  0.00     0.118 C 
BRANCH  23  24
ATOM     24  N   UNL A   1      34.019  31.184  28.113  1.00  0.00    -0.352 N 
ATOM     25  C   UNL A   1      34.600  29.955  27.936  1.00  0.00     0.251 C 
ATOM     26  H   UNL A   1      33.039  31.200  28.030  1.00  0.00     0.163 HD
ATOM     27  O   UNL A   1      33.920  29.025  27.501  1.00  0.00    -0.269 OA
BRANCH  25  28
ATOM     28  C   UNL A   1      36.032  29.746  28.242  1.00  0.00     0.039 A 
ATOM     29  C   UNL A   1      36.391  29.319  29.523  1.00  0.00     0.014 A 
ATOM     30  C   UNL A   1      37.021  29.987  27.284  1.00  0.00     0.014 A 
ATOM     31  C   UNL A   1      37.733  29.076  29.823  1.00  0.00     0.010 A 
ATOM     32  C   UNL A   1      38.349  29.672  27.560  1.00  0.00     0.010 A 
ATOM     33  C   UNL A   1      38.722  29.216  28.834  1.00  0.00    -0.014 A 
BRANCH  33  34
ATOM     34  C   UNL A   1      40.143  28.878  29.114  1.00  0.00     0.031 A 
ATOM     35  C   UNL A   1      41.069  29.910  29.700  1.00  0.00     0.074 A 
ATOM     36  C   UNL A   1      40.612  27.659  28.783  1.00  0.00     0.049 A 
ATOM     37  N   UNL A   1      42.350  29.818  29.954  1.00  0.00    -0.248 NA
ATOM     38  C   UNL A   1      40.489  31.225  30.017  1.00  0.00     0.031 C 
ATOM     39  C   UNL A   1      39.826  26.591  28.163  1.00  0.00     0.029 A 
ATOM     40  N   UNL A   1      41.867  27.114  28.908  1.00  0.00    -0.354 N 
ATOM     41  C   UNL A   1      42.730  31.062  30.445  1.00  0.00     0.074 A 
ATOM     42  C   UNL A   1      41.556  31.907  30.408  1.00  0.00     0.031 C 
ATOM     43  C   UNL A   1      40.609  25.516  27.981  1.00  0.00     0.029 A 
ATOM     44  C   UNL A   1      41.962  25.829  28.430  1.00  0.00     0.049 A 
ATOM     45  H   UNL A   1      42.627  27.599  29.304  1.00  0.00     0.167 HD
ATOM     46  C   UNL A   1      43.943  31.457  30.901  1.00  0.00     0.037 A 
ATOM     47  C   UNL A   1      43.020  24.998  28.348  1.00  0.00     0.037 A 
ATOM     48  C   UNL A   1      45.101  30.602  30.958  1.00  0.00     0.049 A 
ATOM     49  C   UNL A   1      44.355  25.458  28.868  1.00  0.00     0.074 A 
ATOM     50  C   UNL A   1      46.355  30.889  31.467  1.00  0.00     0.029 A 
ATOM     51  N   UNL A   1      45.152  29.299  30.484  1.00  0.00    -0.354 N 
ATOM     52  N   UNL A   1      44.679  26.614  29.393  1.00  0.00    -0.248 NA
ATOM     53  C   UNL A   1      45.465  24.499  28.793  1.00  0.00     0.031 C 
ATOM     54  C   UNL A   1      47.180  29.779  31.252  1.00  0.00     0.029 A 
ATOM     55  C   UNL A   1      46.423  28.778  30.665  1.00  0.00     0.049 A 
ATOM     56  H   UNL A   1      44.396  28.816  30.079  1.00  0.00     0.167 HD
ATOM     57  C   UNL A   1      46.025  26.514  29.733  1.00  0.00     0.074 A 
ATOM     58  C   UNL A   1      46.448  25.178  29.366  1.00  0.00     0.031 C 
ATOM     59  C   UNL A   1      46.834  27.444  30.299  1.00  0.00     0.037 A 
BRANCH  46  60
ATOM     60  C   UNL A   1      44.088  32.878  31.378  1.00  0.00     0.058 A 
ATOM     61  C   UNL A   1      43.927  33.225  32.730  1.00  0.00     0.135 A 
ATOM     62  C   UNL A   1      44.447  33.896  30.481  1.00  0.00     0.135 A 
ATOM     63  F   UNL A   1      43.570  32.296  33.630  1.00  0.00    -0.206 F 
ATOM     64  C   UNL A   1      44.097  34.533  33.170  1.00  0.00     0.059 A 
ATOM     65  C   UNL A   1      44.651  35.207  30.904  1.00  0.00     0.059 A 
ATOM     66  F   UNL A   1      44.613  33.622  29.177  1.00  0.00    -0.206 F 
ATOM     67  C   UNL A   1      44.462  35.518  32.249  1.00  0.00     0.060 A 
BRANCH  67  68
ATOM     68  S   UNL A   1      44.700  37.207  32.843  1.00  0.00     0.124 S 
ATOM     69  O   UNL A   1      43.382  37.786  32.608  1.00  0.00    -0.237 OA
ATOM     70  O   UNL A   1      45.059  36.996  34.242  1.00  0.00    -0.237 OA
ATOM     71  O   UNL A   1      45.772  37.718  31.994  1.00  0.00    -0.744 OA
ENDBRANCH  67  68
ENDBRANCH  46  60
BRANCH  47  72
ATOM     72  C   UNL A   1      42.849  23.641  27.763  1.00  0.00     0.058 A 
ATOM     73  C   UNL A   1      42.628  22.522  28.580  1.00  0.00     0.135 A 
ATOM     74  C   UNL A   1      42.872  23.440  26.374  1.00  0.00     0.135 A 
ATOM     75  F   UNL A   1      42.605  22.660  29.914  1.00  0.00    -0.206 F 
ATOM     76  C   UNL A   1      42.445  21.252  28.042  1.00  0.00     0.059 A 
ATOM     77  C   UNL A   1      42.665  22.185  25.811  1.00  0.00     0.059 A 
ATOM     78  F   UNL A   1      43.064  24.481  25.547  1.00  0.00    -0.206 F 
ATOM     79  C   UNL A   1      42.458  21.095  26.656  1.00  0.00     0.060 A 
BRANCH  79  80
ATOM     80  S   UNL A   1      42.152  19.453  25.967  1.00  0.00     0.124 S 
ATOM     81  O   UNL A   1      40.717  19.502  25.715  1.00  0.00    -0.237 OA
ATOM     82  O   UNL A   1      43.010  19.453  24.786  1.00  0.00    -0.237 OA
ATOM     83  O   UNL A   1      42.575  18.556  27.038  1.00  0.00    -0.744 OA
ENDBRANCH  79  80
ENDBRANCH  47  72
BRANCH  59  84
ATOM     84  C   UNL A   1      48.254  27.045  30.591  1.00  0.00     0.058 A 
ATOM     85  C   UNL A   1      49.302  27.336  29.704  1.00  0.00     0.135 A 
ATOM     86  C   UNL A   1      48.579  26.415  31.803  1.00  0.00     0.135 A 
ATOM     87  F   UNL A   1      49.048  27.932  28.529  1.00  0.00    -0.206 F 
ATOM     88  C   UNL A   1      50.618  26.993  29.998  1.00  0.00     0.059 A 
ATOM     89  C   UNL A   1      49.892  26.091  32.131  1.00  0.00     0.059 A 
ATOM     90  F   UNL A   1      47.616  26.124  32.693  1.00  0.00    -0.206 F 
ATOM     91  C   UNL A   1      50.904  26.374  31.216  1.00  0.00     0.060 A 
BRANCH  91  92
ATOM     92  S   UNL A   1      52.620  25.966  31.599  1.00  0.00     0.124 S 
ATOM     93  O   UNL A   1      53.254  26.105  30.292  1.00  0.00    -0.237 OA
ATOM     94  O   UNL A   1      52.970  26.983  32.585  1.00  0.00    -0.237 OA
ATOM     95  O   UNL A   1      52.539  24.603  32.114  1.00  0.00    -0.744 OA
ENDBRANCH  91  92
ENDBRANCH  59  84
ENDBRANCH  33  34
ENDBRANCH  25  28
ENDBRANCH  23  24
ENDBRANCH  22  23
ENDBRANCH   1  22
TORSDOF 17
ENDMDL
