MODEL 1
REMARK VINA RESULT:     -13.4      0.000      0.000
REMARK SMILES Cc1ccccc1-c1nc(CC(=O)NCCCNC(=O)c2ccc(-c3c4nc(c(-c5c(F)cc(S(=O)(=O)[O-])cc5F)c5ccc([nH]5)c(-c5c(F)cc(S(=O)(=O)[O-])cc5F)c5nc(c(-c6c(F)cc(S(=O)(=O)[O-])cc6F)c6ccc3[nH]6)C=C5)C=C4)cc2)cs1
REMARK SMILES IDX 16 1 15 2 14 3 12 4 13 5 11 7 10 8 8 9 9 10 88 11 87 12 7 13
REMARK SMILES IDX 1 14 2 15 3 16 4 17 6 18 5 19 17 20 18 21 19 22 20 24 21 25
REMARK SMILES IDX 22 26 86 27 23 28 85 29 24 30 25 31 26 32 79 33 27 34 84 35
REMARK SMILES IDX 78 36 80 37 28 38 83 39 77 40 76 41 29 43 63 44 42 45 62 46
REMARK SMILES IDX 43 47 46 48 61 49 81 50 44 51 45 52 60 54 82 55 47 56 30 57
REMARK SMILES IDX 31 58 40 59 32 60 33 61 39 62 41 63 34 64 35 65 36 66 37 67
REMARK SMILES IDX 38 68 64 69 65 70 74 71 66 72 67 73 73 74 75 75 68 76 69 77
REMARK SMILES IDX 70 78 71 79 72 80 48 81 49 82 58 83 50 84 51 85 57 86 59 87
REMARK SMILES IDX 52 88 53 89 54 90 55 91 56 92
REMARK H PARENT 14 6 18 23 80 42 46 53
REMARK Flexibility Score: inf
ROOT
ATOM      1  C   UNL A   1      32.826  29.663  26.962  1.00  0.00     0.042 C 
ENDROOT
BRANCH   1   2
ATOM      2  C   UNL A   1      32.250  29.613  25.551  1.00  0.00     0.117 C 
BRANCH   2   3
ATOM      3  N   UNL A   1      33.286  29.588  24.525  1.00  0.00    -0.356 N 
ATOM      4  C   UNL A   1      33.527  28.638  23.570  1.00  0.00     0.226 C 
ATOM      5  O   UNL A   1      34.489  28.784  22.813  1.00  0.00    -0.275 OA
ATOM      6  H   UNL A   1      33.896  30.361  24.519  1.00  0.00     0.163 HD
BRANCH   4   7
ATOM      7  C   UNL A   1      32.616  27.431  23.439  1.00  0.00     0.157 C 
BRANCH   7   8
ATOM      8  C   UNL A   1      32.972  26.359  24.411  1.00  0.00     0.061 A 
ATOM      9  C   UNL A   1      34.258  24.678  25.089  1.00  0.00     0.123 A 
ATOM     10  N   UNL A   1      34.160  25.666  24.223  1.00  0.00    -0.241 NA
ATOM     11  S   UNL A   1      32.997  24.609  26.259  1.00  0.00    -0.122 S 
ATOM     12  C   UNL A   1      32.229  25.938  25.499  1.00  0.00     0.091 A 
BRANCH   9  13
ATOM     13  C   UNL A   1      35.339  23.685  25.097  1.00  0.00     0.013 A 
ATOM     14  C   UNL A   1      33.881  21.944  23.910  1.00  0.00     0.045 C 
ATOM     15  C   UNL A   1      35.167  22.395  24.550  1.00  0.00    -0.041 A 
ATOM     16  C   UNL A   1      36.216  21.464  24.646  1.00  0.00     0.004 A 
ATOM     17  C   UNL A   1      37.422  21.799  25.260  1.00  0.00     0.000 A 
ATOM     18  C   UNL A   1      36.562  24.003  25.720  1.00  0.00     0.011 A 
ATOM     19  C   UNL A   1      37.596  23.070  25.798  1.00  0.00     0.001 A 
ENDBRANCH   9  13
ENDBRANCH   7   8
ENDBRANCH   4   7
ENDBRANCH   2   3
ENDBRANCH   1   2
BRANCH   1  20
ATOM     20  C   UNL A   1      34.345  29.610  27.005  1.00  0.00     0.118 C 
BRANCH  20  21
ATOM     21  N   UNL A   1      34.972  30.876  27.364  1.00  0.00    -0.352 N 
ATOM     22  C   UNL A   1      36.201  31.093  27.969  1.00  0.00     0.251 C 
ATOM     23  H   UNL A   1      34.455  31.685  27.148  1.00  0.00     0.163 HD
ATOM     24  O   UNL A   1      36.533  32.215  28.308  1.00  0.00    -0.269 OA
BRANCH  22  25
ATOM     25  C   UNL A   1      37.112  29.937  28.155  1.00  0.00     0.039 A 
ATOM     26  C   UNL A   1      37.030  29.185  29.333  1.00  0.00     0.014 A 
ATOM     27  C   UNL A   1      38.137  29.707  27.246  1.00  0.00     0.014 A 
ATOM     28  C   UNL A   1      38.084  28.337  29.687  1.00  0.00     0.010 A 
ATOM     29  C   UNL A   1      39.223  28.958  27.643  1.00  0.00     0.010 A 
ATOM     30  C   UNL A   1      39.217  28.291  28.878  1.00  0.00    -0.014 A 
BRANCH  30  31
ATOM     31  C   UNL A   1      40.487  27.657  29.225  1.00  0.00     0.031 A 
ATOM     32  C   UNL A   1      40.776  26.268  28.784  1.00  0.00     0.074 A 
ATOM     33  C   UNL A   1      41.487  28.421  29.713  1.00  0.00     0.049 A 
ATOM     34  N   UNL A   1      41.822  25.587  29.114  1.00  0.00    -0.248 NA
ATOM     35  C   UNL A   1      39.857  25.508  27.944  1.00  0.00     0.031 C 
ATOM     36  C   UNL A   1      42.921  28.169  29.591  1.00  0.00     0.029 A 
ATOM     37  N   UNL A   1      41.413  29.516  30.562  1.00  0.00    -0.354 N 
ATOM     38  C   UNL A   1      41.871  24.456  28.324  1.00  0.00     0.074 A 
ATOM     39  C   UNL A   1      40.586  24.424  27.668  1.00  0.00     0.031 C 
ATOM     40  C   UNL A   1      43.579  28.929  30.479  1.00  0.00     0.029 A 
ATOM     41  C   UNL A   1      42.584  29.554  31.332  1.00  0.00     0.049 A 
ATOM     42  H   UNL A   1      40.667  30.155  30.616  1.00  0.00     0.167 HD
ATOM     43  C   UNL A   1      43.044  23.761  28.233  1.00  0.00     0.037 A 
ATOM     44  C   UNL A   1      42.551  29.400  32.691  1.00  0.00     0.037 A 
ATOM     45  C   UNL A   1      44.031  24.289  29.179  1.00  0.00     0.049 A 
ATOM     46  C   UNL A   1      43.298  28.187  33.201  1.00  0.00     0.074 A 
ATOM     47  C   UNL A   1      45.104  25.153  29.037  1.00  0.00     0.029 A 
ATOM     48  N   UNL A   1      43.815  24.150  30.546  1.00  0.00    -0.354 N 
ATOM     49  N   UNL A   1      43.641  27.173  32.457  1.00  0.00    -0.248 NA
ATOM     50  C   UNL A   1      43.700  28.015  34.594  1.00  0.00     0.031 C 
ATOM     51  C   UNL A   1      45.499  25.579  30.330  1.00  0.00     0.029 A 
ATOM     52  C   UNL A   1      44.677  24.961  31.259  1.00  0.00     0.049 A 
ATOM     53  H   UNL A   1      43.141  23.557  30.949  1.00  0.00     0.167 HD
ATOM     54  C   UNL A   1      44.241  26.214  33.231  1.00  0.00     0.074 A 
ATOM     55  C   UNL A   1      44.287  26.805  34.556  1.00  0.00     0.031 C 
ATOM     56  C   UNL A   1      44.631  25.010  32.714  1.00  0.00     0.037 A 
BRANCH  43  57
ATOM     57  C   UNL A   1      43.415  22.786  27.118  1.00  0.00     0.058 A 
ATOM     58  C   UNL A   1      42.811  21.505  27.052  1.00  0.00     0.135 A 
ATOM     59  C   UNL A   1      44.395  23.002  26.129  1.00  0.00     0.135 A 
ATOM     60  F   UNL A   1      41.790  21.168  27.849  1.00  0.00    -0.206 F 
ATOM     61  C   UNL A   1      43.226  20.502  26.170  1.00  0.00     0.059 A 
ATOM     62  C   UNL A   1      44.857  22.003  25.264  1.00  0.00     0.059 A 
ATOM     63  F   UNL A   1      44.917  24.211  25.903  1.00  0.00    -0.206 F 
ATOM     64  C   UNL A   1      44.278  20.746  25.301  1.00  0.00     0.060 A 
BRANCH  64  65
ATOM     65  S   UNL A   1      44.856  19.426  24.220  1.00  0.00     0.124 S 
ATOM     66  O   UNL A   1      44.446  19.908  22.904  1.00  0.00    -0.237 OA
ATOM     67  O   UNL A   1      46.291  19.424  24.479  1.00  0.00    -0.237 OA
ATOM     68  O   UNL A   1      44.133  18.251  24.700  1.00  0.00    -0.744 OA
ENDBRANCH  64  65
ENDBRANCH  43  57
BRANCH  44  69
ATOM     69  C   UNL A   1      41.319  29.958  33.313  1.00  0.00     0.058 A 
ATOM     70  C   UNL A   1      41.290  31.342  33.557  1.00  0.00     0.135 A 
ATOM     71  C   UNL A   1      40.093  29.285  33.202  1.00  0.00     0.135 A 
ATOM     72  F   UNL A   1      42.439  32.025  33.692  1.00  0.00    -0.206 F 
ATOM     73  C   UNL A   1      40.105  32.063  33.498  1.00  0.00     0.059 A 
ATOM     74  C   UNL A   1      38.889  29.989  33.151  1.00  0.00     0.059 A 
ATOM     75  F   UNL A   1      40.063  27.962  32.982  1.00  0.00    -0.206 F 
ATOM     76  C   UNL A   1      38.921  31.382  33.218  1.00  0.00     0.060 A 
BRANCH  76  77
ATOM     77  S   UNL A   1      37.493  32.367  32.709  1.00  0.00     0.124 S 
ATOM     78  O   UNL A   1      36.925  31.553  31.641  1.00  0.00    -0.237 OA
ATOM     79  O   UNL A   1      36.723  32.415  33.949  1.00  0.00    -0.237 OA
ATOM     80  O   UNL A   1      38.087  33.633  32.294  1.00  0.00    -0.744 OA
ENDBRANCH  76  77
ENDBRANCH  44  69
BRANCH  56  81
ATOM     81  C   UNL A   1      45.087  23.802  33.505  1.00  0.00     0.058 A 
ATOM     82  C   UNL A   1      46.391  23.628  34.000  1.00  0.00     0.135 A 
ATOM     83  C   UNL A   1      44.152  22.817  33.908  1.00  0.00     0.135 A 
ATOM     84  F   UNL A   1      47.344  24.549  33.802  1.00  0.00    -0.206 F 
ATOM     85  C   UNL A   1      46.763  22.519  34.766  1.00  0.00     0.059 A 
ATOM     86  C   UNL A   1      44.488  21.734  34.719  1.00  0.00     0.059 A 
ATOM     87  F   UNL A   1      42.864  22.879  33.537  1.00  0.00    -0.206 F 
ATOM     88  C   UNL A   1      45.806  21.575  35.119  1.00  0.00     0.060 A 
BRANCH  88  89
ATOM     89  S   UNL A   1      46.263  20.170  36.150  1.00  0.00     0.124 S 
ATOM     90  O   UNL A   1      45.522  19.087  35.511  1.00  0.00    -0.237 OA
ATOM     91  O   UNL A   1      47.715  20.113  35.999  1.00  0.00    -0.237 OA
ATOM     92  O   UNL A   1      45.795  20.563  37.475  1.00  0.00    -0.744 OA
ENDBRANCH  88  89
ENDBRANCH  56  81
ENDBRANCH  30  31
ENDBRANCH  22  25
ENDBRANCH  20  21
ENDBRANCH   1  20
TORSDOF 15
ENDMDL
MODEL 2
REMARK VINA RESULT:     -12.9      4.769     11.453
REMARK SMILES Cc1ccccc1-c1nc(CC(=O)NCCCNC(=O)c2ccc(-c3c4nc(c(-c5c(F)cc(S(=O)(=O)[O-])cc5F)c5ccc([nH]5)c(-c5c(F)cc(S(=O)(=O)[O-])cc5F)c5nc(c(-c6c(F)cc(S(=O)(=O)[O-])cc6F)c6ccc3[nH]6)C=C5)C=C4)cc2)cs1
REMARK SMILES IDX 16 1 15 2 14 3 12 4 13 5 11 7 10 8 8 9 9 10 88 11 87 12 7 13
REMARK SMILES IDX 1 14 2 15 3 16 4 17 6 18 5 19 17 20 18 21 19 22 20 24 21 25
REMARK SMILES IDX 22 26 86 27 23 28 85 29 24 30 25 31 26 32 79 33 27 34 84 35
REMARK SMILES IDX 78 36 80 37 28 38 83 39 77 40 76 41 29 43 63 44 42 45 62 46
REMARK SMILES IDX 43 47 46 48 61 49 81 50 44 51 45 52 60 54 82 55 47 56 30 57
REMARK SMILES IDX 31 58 40 59 32 60 33 61 39 62 41 63 34 64 35 65 36 66 37 67
REMARK SMILES IDX 38 68 64 69 65 70 74 71 66 72 67 73 73 74 75 75 68 76 69 77
REMARK SMILES IDX 70 78 71 79 72 80 48 81 49 82 58 83 50 84 51 85 57 86 59 87
REMARK SMILES IDX 52 88 53 89 54 90 55 91 56 92
REMARK H PARENT 14 6 18 23 80 42 46 53
REMARK Flexibility Score: inf
ROOT
ATOM      1  C   UNL A   1      36.495  22.697  25.963  1.00  0.00     0.042 C 
ENDROOT
BRANCH   1   2
ATOM      2  C   UNL A   1      36.011  22.033  24.678  1.00  0.00     0.117 C 
BRANCH   2   3
ATOM      3  N   UNL A   1      34.582  21.741  24.703  1.00  0.00    -0.356 N 
ATOM      4  C   UNL A   1      33.600  22.182  23.860  1.00  0.00     0.226 C 
ATOM      5  O   UNL A   1      32.433  21.850  24.077  1.00  0.00    -0.275 OA
ATOM      6  H   UNL A   1      34.284  21.144  25.428  1.00  0.00     0.163 HD
BRANCH   4   7
ATOM      7  C   UNL A   1      33.945  23.057  22.669  1.00  0.00     0.157 C 
BRANCH   7   8
ATOM      8  C   UNL A   1      33.501  24.465  22.867  1.00  0.00     0.061 A 
ATOM      9  C   UNL A   1      33.068  26.219  24.162  1.00  0.00     0.123 A 
ATOM     10  N   UNL A   1      33.618  25.022  24.133  1.00  0.00    -0.241 NA
ATOM     11  S   UNL A   1      32.500  26.795  22.643  1.00  0.00    -0.122 S 
ATOM     12  C   UNL A   1      32.945  25.307  21.920  1.00  0.00     0.091 A 
BRANCH   9  13
ATOM     13  C   UNL A   1      32.924  27.038  25.373  1.00  0.00     0.013 A 
ATOM     14  C   UNL A   1      30.549  26.174  25.794  1.00  0.00     0.045 C 
ATOM     15  C   UNL A   1      31.740  27.027  26.141  1.00  0.00    -0.041 A 
ATOM     16  C   UNL A   1      31.636  27.882  27.252  1.00  0.00     0.004 A 
ATOM     17  C   UNL A   1      32.685  28.727  27.611  1.00  0.00     0.000 A 
ATOM     18  C   UNL A   1      33.971  27.904  25.746  1.00  0.00     0.011 A 
ATOM     19  C   UNL A   1      33.854  28.739  26.857  1.00  0.00     0.001 A 
ENDBRANCH   9  13
ENDBRANCH   7   8
ENDBRANCH   4   7
ENDBRANCH   2   3
ENDBRANCH   1   2
BRANCH   1  20
ATOM     20  C   UNL A   1      37.783  23.488  25.795  1.00  0.00     0.118 C 
BRANCH  20  21
ATOM     21  N   UNL A   1      38.894  22.986  26.593  1.00  0.00    -0.352 N 
ATOM     22  C   UNL A   1      39.793  23.700  27.373  1.00  0.00     0.251 C 
ATOM     23  H   UNL A   1      39.025  22.011  26.577  1.00  0.00     0.163 HD
ATOM     24  O   UNL A   1      40.742  23.140  27.891  1.00  0.00    -0.269 OA
BRANCH  22  25
ATOM     25  C   UNL A   1      39.546  25.146  27.591  1.00  0.00     0.039 A 
ATOM     26  C   UNL A   1      40.024  26.070  26.653  1.00  0.00     0.014 A 
ATOM     27  C   UNL A   1      38.993  25.585  28.788  1.00  0.00     0.014 A 
ATOM     28  C   UNL A   1      40.120  27.421  27.000  1.00  0.00     0.010 A 
ATOM     29  C   UNL A   1      39.187  26.894  29.171  1.00  0.00     0.010 A 
ATOM     30  C   UNL A   1      39.778  27.814  28.292  1.00  0.00    -0.014 A 
BRANCH  30  31
ATOM     31  C   UNL A   1      40.049  29.122  28.884  1.00  0.00     0.031 A 
ATOM     32  C   UNL A   1      39.001  30.177  28.884  1.00  0.00     0.074 A 
ATOM     33  C   UNL A   1      41.146  29.276  29.656  1.00  0.00     0.049 A 
ATOM     34  N   UNL A   1      39.168  31.389  29.295  1.00  0.00    -0.248 NA
ATOM     35  C   UNL A   1      37.659  29.943  28.364  1.00  0.00     0.031 C 
ATOM     36  C   UNL A   1      41.319  30.225  30.753  1.00  0.00     0.029 A 
ATOM     37  N   UNL A   1      42.402  28.705  29.508  1.00  0.00    -0.354 N 
ATOM     38  C   UNL A   1      37.930  31.993  29.379  1.00  0.00     0.074 A 
ATOM     39  C   UNL A   1      37.037  31.071  28.719  1.00  0.00     0.031 C 
ATOM     40  C   UNL A   1      42.625  30.330  31.043  1.00  0.00     0.029 A 
ATOM     41  C   UNL A   1      43.352  29.599  30.021  1.00  0.00     0.049 A 
ATOM     42  H   UNL A   1      42.593  27.826  29.111  1.00  0.00     0.167 HD
ATOM     43  C   UNL A   1      37.800  33.141  30.110  1.00  0.00     0.037 A 
ATOM     44  C   UNL A   1      44.304  30.169  29.219  1.00  0.00     0.037 A 
ATOM     45  C   UNL A   1      39.113  33.624  30.549  1.00  0.00     0.049 A 
ATOM     46  C   UNL A   1      44.221  31.676  29.126  1.00  0.00     0.074 A 
ATOM     47  C   UNL A   1      39.802  33.524  31.746  1.00  0.00     0.029 A 
ATOM     48  N   UNL A   1      40.027  34.082  29.605  1.00  0.00    -0.354 N 
ATOM     49  N   UNL A   1      43.169  32.373  29.454  1.00  0.00    -0.248 NA
ATOM     50  C   UNL A   1      45.312  32.515  28.639  1.00  0.00     0.031 C 
ATOM     51  C   UNL A   1      41.154  33.873  31.505  1.00  0.00     0.029 A 
ATOM     52  C   UNL A   1      41.284  34.201  30.165  1.00  0.00     0.049 A 
ATOM     53  H   UNL A   1      39.808  34.292  28.669  1.00  0.00     0.167 HD
ATOM     54  C   UNL A   1      43.393  33.700  29.190  1.00  0.00     0.074 A 
ATOM     55  C   UNL A   1      44.764  33.740  28.715  1.00  0.00     0.031 C 
ATOM     56  C   UNL A   1      42.421  34.644  29.369  1.00  0.00     0.037 A 
BRANCH  43  57
ATOM     57  C   UNL A   1      36.493  33.695  30.670  1.00  0.00     0.058 A 
ATOM     58  C   UNL A   1      35.490  34.192  29.799  1.00  0.00     0.135 A 
ATOM     59  C   UNL A   1      36.178  33.838  32.035  1.00  0.00     0.135 A 
ATOM     60  F   UNL A   1      35.578  34.045  28.471  1.00  0.00    -0.206 F 
ATOM     61  C   UNL A   1      34.350  34.870  30.243  1.00  0.00     0.059 A 
ATOM     62  C   UNL A   1      35.067  34.548  32.505  1.00  0.00     0.059 A 
ATOM     63  F   UNL A   1      36.896  33.244  32.992  1.00  0.00    -0.206 F 
ATOM     64  C   UNL A   1      34.163  35.078  31.600  1.00  0.00     0.060 A 
BRANCH  64  65
ATOM     65  S   UNL A   1      32.731  36.016  32.161  1.00  0.00     0.124 S 
ATOM     66  O   UNL A   1      31.802  34.957  32.543  1.00  0.00    -0.237 OA
ATOM     67  O   UNL A   1      33.288  36.801  33.257  1.00  0.00    -0.237 OA
ATOM     68  O   UNL A   1      32.342  36.783  30.980  1.00  0.00    -0.744 OA
ENDBRANCH  64  65
ENDBRANCH  43  57
BRANCH  44  69
ATOM     69  C   UNL A   1      44.747  29.276  28.115  1.00  0.00     0.058 A 
ATOM     70  C   UNL A   1      45.700  28.289  28.426  1.00  0.00     0.135 A 
ATOM     71  C   UNL A   1      43.937  29.074  26.987  1.00  0.00     0.135 A 
ATOM     72  F   UNL A   1      46.512  28.449  29.483  1.00  0.00    -0.206 F 
ATOM     73  C   UNL A   1      45.716  27.066  27.768  1.00  0.00     0.059 A 
ATOM     74  C   UNL A   1      43.945  27.856  26.306  1.00  0.00     0.059 A 
ATOM     75  F   UNL A   1      43.022  29.989  26.638  1.00  0.00    -0.206 F 
ATOM     76  C   UNL A   1      44.781  26.836  26.760  1.00  0.00     0.060 A 
BRANCH  76  77
ATOM     77  S   UNL A   1      44.523  25.125  26.237  1.00  0.00     0.124 S 
ATOM     78  O   UNL A   1      45.171  24.377  27.308  1.00  0.00    -0.237 OA
ATOM     79  O   UNL A   1      43.065  25.053  26.205  1.00  0.00    -0.237 OA
ATOM     80  O   UNL A   1      45.180  25.067  24.936  1.00  0.00    -0.744 OA
ENDBRANCH  76  77
ENDBRANCH  44  69
BRANCH  56  81
ATOM     81  C   UNL A   1      42.475  36.083  28.901  1.00  0.00     0.058 A 
ATOM     82  C   UNL A   1      43.221  37.093  29.533  1.00  0.00     0.135 A 
ATOM     83  C   UNL A   1      41.856  36.463  27.684  1.00  0.00     0.135 A 
ATOM     84  F   UNL A   1      43.960  36.839  30.622  1.00  0.00    -0.206 F 
ATOM     85  C   UNL A   1      43.283  38.401  29.045  1.00  0.00     0.059 A 
ATOM     86  C   UNL A   1      41.952  37.747  27.149  1.00  0.00     0.059 A 
ATOM     87  F   UNL A   1      41.142  35.590  26.958  1.00  0.00    -0.206 F 
ATOM     88  C   UNL A   1      42.643  38.721  27.853  1.00  0.00     0.060 A 
BRANCH  88  89
ATOM     89  S   UNL A   1      42.759  40.390  27.187  1.00  0.00     0.124 S 
ATOM     90  O   UNL A   1      43.681  40.196  26.073  1.00  0.00    -0.237 OA
ATOM     91  O   UNL A   1      41.378  40.690  26.815  1.00  0.00    -0.237 OA
ATOM     92  O   UNL A   1      43.275  41.162  28.312  1.00  0.00    -0.744 OA
ENDBRANCH  88  89
ENDBRANCH  56  81
ENDBRANCH  30  31
ENDBRANCH  22  25
ENDBRANCH  20  21
ENDBRANCH   1  20
TORSDOF 15
ENDMDL
MODEL 3
REMARK VINA RESULT:     -12.0      4.405     10.963
REMARK SMILES Cc1ccccc1-c1nc(CC(=O)NCCCNC(=O)c2ccc(-c3c4nc(c(-c5c(F)cc(S(=O)(=O)[O-])cc5F)c5ccc([nH]5)c(-c5c(F)cc(S(=O)(=O)[O-])cc5F)c5nc(c(-c6c(F)cc(S(=O)(=O)[O-])cc6F)c6ccc3[nH]6)C=C5)C=C4)cc2)cs1
REMARK SMILES IDX 16 1 15 2 14 3 12 4 13 5 11 7 10 8 8 9 9 10 88 11 87 12 7 13
REMARK SMILES IDX 1 14 2 15 3 16 4 17 6 18 5 19 17 20 18 21 19 22 20 24 21 25
REMARK SMILES IDX 22 26 86 27 23 28 85 29 24 30 25 31 26 32 79 33 27 34 84 35
REMARK SMILES IDX 78 36 80 37 28 38 83 39 77 40 76 41 29 43 63 44 42 45 62 46
REMARK SMILES IDX 43 47 46 48 61 49 81 50 44 51 45 52 60 54 82 55 47 56 30 57
REMARK SMILES IDX 31 58 40 59 32 60 33 61 39 62 41 63 34 64 35 65 36 66 37 67
REMARK SMILES IDX 38 68 64 69 65 70 74 71 66 72 67 73 73 74 75 75 68 76 69 77
REMARK SMILES IDX 70 78 71 79 72 80 48 81 49 82 58 83 50 84 51 85 57 86 59 87
REMARK SMILES IDX 52 88 53 89 54 90 55 91 56 92
REMARK H PARENT 14 6 18 23 80 42 46 53
REMARK Flexibility Score: inf
ROOT
ATOM      1  C   UNL A   1      36.783  22.140  24.496  1.00  0.00     0.042 C 
ENDROOT
BRANCH   1   2
ATOM      2  C   UNL A   1      36.109  20.814  24.832  1.00  0.00     0.117 C 
BRANCH   2   3
ATOM      3  N   UNL A   1      35.268  20.899  26.021  1.00  0.00    -0.356 N 
ATOM      4  C   UNL A   1      33.962  21.291  26.124  1.00  0.00     0.226 C 
ATOM      5  O   UNL A   1      33.437  21.333  27.239  1.00  0.00    -0.275 OA
ATOM      6  H   UNL A   1      35.702  20.639  26.866  1.00  0.00     0.163 HD
BRANCH   4   7
ATOM      7  C   UNL A   1      33.169  21.655  24.882  1.00  0.00     0.157 C 
BRANCH   7   8
ATOM      8  C   UNL A   1      33.284  23.104  24.555  1.00  0.00     0.061 A 
ATOM      9  C   UNL A   1      33.150  25.254  25.106  1.00  0.00     0.123 A 
ATOM     10  N   UNL A   1      33.147  24.026  25.584  1.00  0.00    -0.241 NA
ATOM     11  S   UNL A   1      33.452  25.374  23.415  1.00  0.00    -0.122 S 
ATOM     12  C   UNL A   1      33.495  23.666  23.308  1.00  0.00     0.091 A 
BRANCH   9  13
ATOM     13  C   UNL A   1      32.917  26.460  25.910  1.00  0.00     0.013 A 
ATOM     14  C   UNL A   1      30.406  25.980  26.081  1.00  0.00     0.045 C 
ATOM     15  C   UNL A   1      31.629  26.811  26.367  1.00  0.00    -0.041 A 
ATOM     16  C   UNL A   1      31.456  28.012  27.077  1.00  0.00     0.004 A 
ATOM     17  C   UNL A   1      32.538  28.850  27.346  1.00  0.00     0.000 A 
ATOM     18  C   UNL A   1      33.996  27.322  26.185  1.00  0.00     0.011 A 
ATOM     19  C   UNL A   1      33.809  28.507  26.899  1.00  0.00     0.001 A 
ENDBRANCH   9  13
ENDBRANCH   7   8
ENDBRANCH   4   7
ENDBRANCH   2   3
ENDBRANCH   1   2
BRANCH   1  20
ATOM     20  C   UNL A   1      37.377  22.848  25.705  1.00  0.00     0.118 C 
BRANCH  20  21
ATOM     21  N   UNL A   1      38.569  22.205  26.241  1.00  0.00    -0.352 N 
ATOM     22  C   UNL A   1      39.685  22.794  26.819  1.00  0.00     0.251 C 
ATOM     23  H   UNL A   1      38.586  21.223  26.185  1.00  0.00     0.163 HD
ATOM     24  O   UNL A   1      40.655  22.120  27.115  1.00  0.00    -0.269 OA
BRANCH  22  25
ATOM     25  C   UNL A   1      39.650  24.249  27.102  1.00  0.00     0.039 A 
ATOM     26  C   UNL A   1      40.220  25.138  26.183  1.00  0.00     0.014 A 
ATOM     27  C   UNL A   1      39.204  24.706  28.336  1.00  0.00     0.014 A 
ATOM     28  C   UNL A   1      40.516  26.447  26.578  1.00  0.00     0.010 A 
ATOM     29  C   UNL A   1      39.592  25.958  28.762  1.00  0.00     0.010 A 
ATOM     30  C   UNL A   1      40.275  26.826  27.896  1.00  0.00    -0.014 A 
BRANCH  30  31
ATOM     31  C   UNL A   1      40.746  28.057  28.527  1.00  0.00     0.031 A 
ATOM     32  C   UNL A   1      39.831  29.218  28.680  1.00  0.00     0.074 A 
ATOM     33  C   UNL A   1      41.917  28.041  29.200  1.00  0.00     0.049 A 
ATOM     34  N   UNL A   1      40.172  30.377  29.137  1.00  0.00    -0.248 NA
ATOM     35  C   UNL A   1      38.430  29.166  28.277  1.00  0.00     0.031 C 
ATOM     36  C   UNL A   1      42.293  28.895  30.323  1.00  0.00     0.029 A 
ATOM     37  N   UNL A   1      43.080  27.346  28.905  1.00  0.00    -0.354 N 
ATOM     38  C   UNL A   1      39.024  31.106  29.368  1.00  0.00     0.074 A 
ATOM     39  C   UNL A   1      37.976  30.331  28.747  1.00  0.00     0.031 C 
ATOM     40  C   UNL A   1      43.623  28.837  30.495  1.00  0.00     0.029 A 
ATOM     41  C   UNL A   1      44.169  28.096  29.372  1.00  0.00     0.049 A 
ATOM     42  H   UNL A   1      43.133  26.477  28.447  1.00  0.00     0.167 HD
ATOM     43  C   UNL A   1      39.092  32.214  30.166  1.00  0.00     0.037 A 
ATOM     44  C   UNL A   1      45.106  28.606  28.516  1.00  0.00     0.037 A 
ATOM     45  C   UNL A   1      40.484  32.522  30.504  1.00  0.00     0.049 A 
ATOM     46  C   UNL A   1      45.189  30.116  28.509  1.00  0.00     0.074 A 
ATOM     47  C   UNL A   1      41.260  32.273  31.625  1.00  0.00     0.029 A 
ATOM     48  N   UNL A   1      41.359  32.934  29.504  1.00  0.00    -0.354 N 
ATOM     49  N   UNL A   1      44.257  30.903  28.969  1.00  0.00    -0.248 NA
ATOM     50  C   UNL A   1      46.324  30.858  27.966  1.00  0.00     0.031 C 
ATOM     51  C   UNL A   1      42.617  32.485  31.276  1.00  0.00     0.029 A 
ATOM     52  C   UNL A   1      42.665  32.879  29.948  1.00  0.00     0.049 A 
ATOM     53  H   UNL A   1      41.084  33.225  28.605  1.00  0.00     0.167 HD
ATOM     54  C   UNL A   1      44.609  32.211  28.755  1.00  0.00     0.074 A 
ATOM     55  C   UNL A   1      45.929  32.129  28.156  1.00  0.00     0.031 C 
ATOM     56  C   UNL A   1      43.772  33.244  29.074  1.00  0.00     0.037 A 
BRANCH  43  57
ATOM     57  C   UNL A   1      37.910  32.873  30.874  1.00  0.00     0.058 A 
ATOM     58  C   UNL A   1      37.546  32.476  32.186  1.00  0.00     0.135 A 
ATOM     59  C   UNL A   1      37.052  33.840  30.316  1.00  0.00     0.135 A 
ATOM     60  F   UNL A   1      38.308  31.644  32.905  1.00  0.00    -0.206 F 
ATOM     61  C   UNL A   1      36.378  32.907  32.825  1.00  0.00     0.059 A 
ATOM     62  C   UNL A   1      35.857  34.255  30.916  1.00  0.00     0.059 A 
ATOM     63  F   UNL A   1      37.353  34.484  29.185  1.00  0.00    -0.206 F 
ATOM     64  C   UNL A   1      35.517  33.771  32.167  1.00  0.00     0.060 A 
BRANCH  64  65
ATOM     65  S   UNL A   1      33.980  34.263  32.967  1.00  0.00     0.124 S 
ATOM     66  O   UNL A   1      34.454  35.163  34.014  1.00  0.00    -0.237 OA
ATOM     67  O   UNL A   1      33.251  34.891  31.870  1.00  0.00    -0.237 OA
ATOM     68  O   UNL A   1      33.424  33.000  33.444  1.00  0.00    -0.744 OA
ENDBRANCH  64  65
ENDBRANCH  43  57
BRANCH  44  69
ATOM     69  C   UNL A   1      45.345  27.740  27.329  1.00  0.00     0.058 A 
ATOM     70  C   UNL A   1      46.240  26.666  27.485  1.00  0.00     0.135 A 
ATOM     71  C   UNL A   1      44.400  27.662  26.296  1.00  0.00     0.135 A 
ATOM     72  F   UNL A   1      47.176  26.705  28.446  1.00  0.00    -0.206 F 
ATOM     73  C   UNL A   1      46.079  25.481  26.778  1.00  0.00     0.059 A 
ATOM     74  C   UNL A   1      44.228  26.486  25.566  1.00  0.00     0.059 A 
ATOM     75  F   UNL A   1      43.531  28.664  26.095  1.00  0.00    -0.206 F 
ATOM     76  C   UNL A   1      45.020  25.380  25.876  1.00  0.00     0.060 A 
BRANCH  76  77
ATOM     77  S   UNL A   1      44.561  23.724  25.313  1.00  0.00     0.124 S 
ATOM     78  O   UNL A   1      43.135  23.875  25.051  1.00  0.00    -0.237 OA
ATOM     79  O   UNL A   1      45.411  23.578  24.134  1.00  0.00    -0.237 OA
ATOM     80  O   UNL A   1      44.912  22.873  26.444  1.00  0.00    -0.744 OA
ENDBRANCH  76  77
ENDBRANCH  44  69
BRANCH  56  81
ATOM     81  C   UNL A   1      43.950  34.694  28.678  1.00  0.00     0.058 A 
ATOM     82  C   UNL A   1      43.687  35.201  27.394  1.00  0.00     0.135 A 
ATOM     83  C   UNL A   1      44.280  35.667  29.654  1.00  0.00     0.135 A 
ATOM     84  F   UNL A   1      43.242  34.410  26.407  1.00  0.00    -0.206 F 
ATOM     85  C   UNL A   1      43.821  36.555  27.077  1.00  0.00     0.059 A 
ATOM     86  C   UNL A   1      44.362  37.030  29.374  1.00  0.00     0.059 A 
ATOM     87  F   UNL A   1      44.521  35.326  30.929  1.00  0.00    -0.206 F 
ATOM     88  C   UNL A   1      44.162  37.464  28.073  1.00  0.00     0.060 A 
BRANCH  88  89
ATOM     89  S   UNL A   1      44.285  39.219  27.688  1.00  0.00     0.124 S 
ATOM     90  O   UNL A   1      44.623  39.780  28.992  1.00  0.00    -0.237 OA
ATOM     91  O   UNL A   1      45.352  39.260  26.691  1.00  0.00    -0.237 OA
ATOM     92  O   UNL A   1      42.956  39.544  27.183  1.00  0.00    -0.744 OA
ENDBRANCH  88  89
ENDBRANCH  56  81
ENDBRANCH  30  31
ENDBRANCH  22  25
ENDBRANCH  20  21
ENDBRANCH   1  20
TORSDOF 15
ENDMDL
