MODEL 1
REMARK VINA RESULT:     -11.2      0.000      0.000
REMARK SMILES O=C(Cn1cc(C(=O)C(F)(F)F)c2ccccc21)NCCCNC(=O)c1ccc(-c2c3nc(c(-c4c(F)cc(S(=O)(=O)[O-])cc4F)c4ccc([nH]4)c(-c4c(F)cc(S(=O)(=O)[O-])cc4F)c4nc(c(-c5c(F)cc(S(=O)(=O)[O-])cc5F)c5ccc2[nH]5)C=C4)C=C3)cc1
REMARK SMILES IDX 21 1 20 2 19 3 1 4 2 5 3 7 4 8 5 9 18 10 6 11 13 12 17 13
REMARK SMILES IDX 14 14 16 15 15 16 7 17 8 18 9 19 10 20 11 21 12 22 22 23
REMARK SMILES IDX 23 24 24 25 25 27 26 28 27 29 91 30 28 31 90 32 29 33 30 34
REMARK SMILES IDX 31 35 84 36 32 37 89 38 83 39 85 40 33 41 88 42 82 43 81 44
REMARK SMILES IDX 34 46 68 47 47 48 67 49 48 50 51 51 66 52 86 53 49 54 50 55
REMARK SMILES IDX 65 57 87 58 52 59 35 60 36 61 45 62 37 63 38 64 44 65 46 66
REMARK SMILES IDX 39 67 40 68 41 69 42 70 43 71 69 72 70 73 79 74 71 75 72 76
REMARK SMILES IDX 78 77 80 78 73 79 74 80 75 81 76 82 77 83 53 84 54 85 63 86
REMARK SMILES IDX 55 87 56 88 62 89 64 90 57 91 58 92 59 93 60 94 61 95
REMARK H PARENT 19 6 23 26 85 45 51 56
REMARK Flexibility Score: inf
ROOT
ATOM      1  C   UNL A   1      41.911  19.566  27.542  1.00  0.00     0.042 C 
ENDROOT
BRANCH   1   2
ATOM      2  C   UNL A   1      42.489  19.384  26.143  1.00  0.00     0.117 C 
BRANCH   2   3
ATOM      3  N   UNL A   1      43.721  20.125  25.928  1.00  0.00    -0.354 N 
ATOM      4  O   UNL A   1      42.736  21.975  24.992  1.00  0.00    -0.273 OA
ATOM      5  C   UNL A   1      43.729  21.421  25.457  1.00  0.00     0.239 C 
ATOM      6  H   UNL A   1      44.579  19.686  26.126  1.00  0.00     0.163 HD
BRANCH   5   7
ATOM      7  C   UNL A   1      45.066  22.126  25.491  1.00  0.00     0.222 C 
BRANCH   7   8
ATOM      8  N   UNL A   1      45.076  23.496  26.014  1.00  0.00    -0.337 N 
ATOM      9  C   UNL A   1      45.201  24.591  25.184  1.00  0.00     0.099 A 
ATOM     10  C   UNL A   1      44.929  23.919  27.319  1.00  0.00     0.049 A 
ATOM     11  C   UNL A   1      45.187  25.743  25.950  1.00  0.00     0.053 A 
ATOM     12  C   UNL A   1      45.054  25.315  27.312  1.00  0.00     0.011 A 
ATOM     13  C   UNL A   1      44.707  23.214  28.517  1.00  0.00     0.027 A 
ATOM     14  C   UNL A   1      45.008  26.005  28.546  1.00  0.00     0.011 A 
ATOM     15  C   UNL A   1      44.687  23.921  29.721  1.00  0.00     0.002 A 
ATOM     16  C   UNL A   1      44.841  25.298  29.740  1.00  0.00     0.001 A 
BRANCH  11  17
ATOM     17  C   UNL A   1      45.273  27.126  25.455  1.00  0.00     0.268 C 
ATOM     18  O   UNL A   1      44.336  27.630  24.828  1.00  0.00    -0.284 OA
BRANCH  17  19
ATOM     19  C   UNL A   1      46.557  27.906  25.728  1.00  0.00     0.454 C 
ATOM     20  F   UNL A   1      46.692  28.998  24.921  1.00  0.00    -0.163 F 
ATOM     21  F   UNL A   1      46.624  28.377  27.009  1.00  0.00    -0.163 F 
ATOM     22  F   UNL A   1      47.688  27.165  25.547  1.00  0.00    -0.163 F 
ENDBRANCH  17  19
ENDBRANCH  11  17
ENDBRANCH   7   8
ENDBRANCH   5   7
ENDBRANCH   2   3
ENDBRANCH   1   2
BRANCH   1  23
ATOM     23  C   UNL A   1      41.386  20.972  27.835  1.00  0.00     0.118 C 
BRANCH  23  24
ATOM     24  N   UNL A   1      40.209  21.358  27.081  1.00  0.00    -0.352 N 
ATOM     25  C   UNL A   1      39.739  22.543  26.582  1.00  0.00     0.251 C 
ATOM     26  H   UNL A   1      39.616  20.598  26.882  1.00  0.00     0.163 HD
ATOM     27  O   UNL A   1      38.854  22.451  25.727  1.00  0.00    -0.269 OA
BRANCH  25  28
ATOM     28  C   UNL A   1      40.150  23.895  27.050  1.00  0.00     0.039 A 
ATOM     29  C   UNL A   1      41.295  24.175  27.793  1.00  0.00     0.014 A 
ATOM     30  C   UNL A   1      39.235  24.940  26.805  1.00  0.00     0.014 A 
ATOM     31  C   UNL A   1      41.458  25.423  28.382  1.00  0.00     0.010 A 
ATOM     32  C   UNL A   1      39.403  26.196  27.377  1.00  0.00     0.010 A 
ATOM     33  C   UNL A   1      40.488  26.417  28.215  1.00  0.00    -0.014 A 
BRANCH  33  34
ATOM     34  C   UNL A   1      40.700  27.680  28.913  1.00  0.00     0.031 A 
ATOM     35  C   UNL A   1      41.814  28.516  28.389  1.00  0.00     0.074 A 
ATOM     36  C   UNL A   1      39.940  28.109  29.942  1.00  0.00     0.049 A 
ATOM     37  N   UNL A   1      42.929  28.807  28.975  1.00  0.00    -0.248 NA
ATOM     38  C   UNL A   1      41.732  28.981  26.998  1.00  0.00     0.031 C 
ATOM     39  C   UNL A   1      38.677  27.562  30.437  1.00  0.00     0.029 A 
ATOM     40  N   UNL A   1      40.122  29.212  30.720  1.00  0.00    -0.354 N 
ATOM     41  C   UNL A   1      43.621  29.645  28.104  1.00  0.00     0.074 A 
ATOM     42  C   UNL A   1      42.902  29.605  26.856  1.00  0.00     0.031 C 
ATOM     43  C   UNL A   1      38.099  28.463  31.264  1.00  0.00     0.029 A 
ATOM     44  C   UNL A   1      39.006  29.583  31.456  1.00  0.00     0.049 A 
ATOM     45  H   UNL A   1      40.973  29.705  30.757  1.00  0.00     0.167 HD
ATOM     46  C   UNL A   1      44.637  30.447  28.531  1.00  0.00     0.037 A 
ATOM     47  C   UNL A   1      38.819  30.762  32.102  1.00  0.00     0.037 A 
ATOM     48  C   UNL A   1      45.134  30.030  29.816  1.00  0.00     0.049 A 
ATOM     49  C   UNL A   1      40.168  31.326  32.384  1.00  0.00     0.074 A 
ATOM     50  C   UNL A   1      45.703  28.866  30.300  1.00  0.00     0.029 A 
ATOM     51  N   UNL A   1      44.757  30.746  30.927  1.00  0.00    -0.354 N 
ATOM     52  N   UNL A   1      41.024  30.780  33.208  1.00  0.00    -0.248 NA
ATOM     53  C   UNL A   1      40.748  32.231  31.401  1.00  0.00     0.031 C 
ATOM     54  C   UNL A   1      45.172  28.719  31.614  1.00  0.00     0.029 A 
ATOM     55  C   UNL A   1      44.366  29.829  31.870  1.00  0.00     0.049 A 
ATOM     56  H   UNL A   1      44.766  31.726  31.028  1.00  0.00     0.167 HD
ATOM     57  C   UNL A   1      42.258  30.921  32.586  1.00  0.00     0.074 A 
ATOM     58  C   UNL A   1      42.035  31.894  31.518  1.00  0.00     0.031 C 
ATOM     59  C   UNL A   1      43.282  30.041  32.805  1.00  0.00     0.037 A 
BRANCH  46  60
ATOM     60  C   UNL A   1      44.979  31.792  27.936  1.00  0.00     0.058 A 
ATOM     61  C   UNL A   1      46.276  32.020  27.428  1.00  0.00     0.135 A 
ATOM     62  C   UNL A   1      44.181  32.942  28.108  1.00  0.00     0.135 A 
ATOM     63  F   UNL A   1      47.122  30.997  27.226  1.00  0.00    -0.206 F 
ATOM     64  C   UNL A   1      46.770  33.303  27.191  1.00  0.00     0.059 A 
ATOM     65  C   UNL A   1      44.635  34.226  27.826  1.00  0.00     0.059 A 
ATOM     66  F   UNL A   1      42.958  32.887  28.650  1.00  0.00    -0.206 F 
ATOM     67  C   UNL A   1      45.946  34.401  27.414  1.00  0.00     0.060 A 
BRANCH  67  68
ATOM     68  S   UNL A   1      46.622  36.061  27.240  1.00  0.00     0.124 S 
ATOM     69  O   UNL A   1      46.355  36.338  25.833  1.00  0.00    -0.237 OA
ATOM     70  O   UNL A   1      45.825  36.815  28.203  1.00  0.00    -0.237 OA
ATOM     71  O   UNL A   1      48.027  35.891  27.594  1.00  0.00    -0.744 OA
ENDBRANCH  67  68
ENDBRANCH  46  60
BRANCH  47  72
ATOM     72  C   UNL A   1      37.564  31.572  32.109  1.00  0.00     0.058 A 
ATOM     73  C   UNL A   1      36.934  31.952  33.309  1.00  0.00     0.135 A 
ATOM     74  C   UNL A   1      37.090  32.207  30.941  1.00  0.00     0.135 A 
ATOM     75  F   UNL A   1      37.337  31.430  34.477  1.00  0.00    -0.206 F 
ATOM     76  C   UNL A   1      35.922  32.923  33.348  1.00  0.00     0.059 A 
ATOM     77  C   UNL A   1      36.076  33.162  30.954  1.00  0.00     0.059 A 
ATOM     78  F   UNL A   1      37.660  31.989  29.747  1.00  0.00    -0.206 F 
ATOM     79  C   UNL A   1      35.510  33.534  32.164  1.00  0.00     0.060 A 
BRANCH  79  80
ATOM     80  S   UNL A   1      34.313  34.889  32.215  1.00  0.00     0.124 S 
ATOM     81  O   UNL A   1      33.181  34.269  32.891  1.00  0.00    -0.237 OA
ATOM     82  O   UNL A   1      35.033  35.905  32.975  1.00  0.00    -0.237 OA
ATOM     83  O   UNL A   1      34.099  35.207  30.805  1.00  0.00    -0.744 OA
ENDBRANCH  79  80
ENDBRANCH  47  72
BRANCH  59  84
ATOM     84  C   UNL A   1      43.168  29.040  33.928  1.00  0.00     0.058 A 
ATOM     85  C   UNL A   1      43.437  29.334  35.277  1.00  0.00     0.135 A 
ATOM     86  C   UNL A   1      42.566  27.801  33.655  1.00  0.00     0.135 A 
ATOM     87  F   UNL A   1      43.910  30.534  35.642  1.00  0.00    -0.206 F 
ATOM     88  C   UNL A   1      43.148  28.429  36.300  1.00  0.00     0.059 A 
ATOM     89  C   UNL A   1      42.238  26.896  34.662  1.00  0.00     0.059 A 
ATOM     90  F   UNL A   1      42.224  27.483  32.395  1.00  0.00    -0.206 F 
ATOM     91  C   UNL A   1      42.540  27.215  35.985  1.00  0.00     0.060 A 
BRANCH  91  92
ATOM     92  S   UNL A   1      42.071  26.092  37.319  1.00  0.00     0.124 S 
ATOM     93  O   UNL A   1      43.085  26.380  38.332  1.00  0.00    -0.237 OA
ATOM     94  O   UNL A   1      40.715  26.536  37.641  1.00  0.00    -0.237 OA
ATOM     95  O   UNL A   1      42.158  24.774  36.709  1.00  0.00    -0.744 OA
ENDBRANCH  91  92
ENDBRANCH  59  84
ENDBRANCH  33  34
ENDBRANCH  25  28
ENDBRANCH  23  24
ENDBRANCH   1  23
TORSDOF 16
ENDMDL
MODEL 2
REMARK VINA RESULT:     -10.8      4.367      6.633
REMARK SMILES O=C(Cn1cc(C(=O)C(F)(F)F)c2ccccc21)NCCCNC(=O)c1ccc(-c2c3nc(c(-c4c(F)cc(S(=O)(=O)[O-])cc4F)c4ccc([nH]4)c(-c4c(F)cc(S(=O)(=O)[O-])cc4F)c4nc(c(-c5c(F)cc(S(=O)(=O)[O-])cc5F)c5ccc2[nH]5)C=C4)C=C3)cc1
REMARK SMILES IDX 21 1 20 2 19 3 1 4 2 5 3 7 4 8 5 9 18 10 6 11 13 12 17 13
REMARK SMILES IDX 14 14 16 15 15 16 7 17 8 18 9 19 10 20 11 21 12 22 22 23
REMARK SMILES IDX 23 24 24 25 25 27 26 28 27 29 91 30 28 31 90 32 29 33 30 34
REMARK SMILES IDX 31 35 84 36 32 37 89 38 83 39 85 40 33 41 88 42 82 43 81 44
REMARK SMILES IDX 34 46 68 47 47 48 67 49 48 50 51 51 66 52 86 53 49 54 50 55
REMARK SMILES IDX 65 57 87 58 52 59 35 60 36 61 45 62 37 63 38 64 44 65 46 66
REMARK SMILES IDX 39 67 40 68 41 69 42 70 43 71 69 72 70 73 79 74 71 75 72 76
REMARK SMILES IDX 78 77 80 78 73 79 74 80 75 81 76 82 77 83 53 84 54 85 63 86
REMARK SMILES IDX 55 87 56 88 62 89 64 90 57 91 58 92 59 93 60 94 61 95
REMARK H PARENT 19 6 23 26 85 45 51 56
REMARK Flexibility Score: inf
ROOT
ATOM      1  C   UNL A   1      39.501  23.331  27.218  1.00  0.00     0.042 C 
ENDROOT
BRANCH   1   2
ATOM      2  C   UNL A   1      38.599  23.878  26.118  1.00  0.00     0.117 C 
BRANCH   2   3
ATOM      3  N   UNL A   1      37.189  23.602  26.337  1.00  0.00    -0.354 N 
ATOM      4  O   UNL A   1      37.062  21.807  24.912  1.00  0.00    -0.273 OA
ATOM      5  C   UNL A   1      36.556  22.509  25.784  1.00  0.00     0.239 C 
ATOM      6  H   UNL A   1      36.668  24.218  26.901  1.00  0.00     0.163 HD
BRANCH   5   7
ATOM      7  C   UNL A   1      35.152  22.242  26.278  1.00  0.00     0.222 C 
BRANCH   7   8
ATOM      8  N   UNL A   1      34.313  21.379  25.442  1.00  0.00    -0.337 N 
ATOM      9  C   UNL A   1      34.161  20.033  25.706  1.00  0.00     0.099 A 
ATOM     10  C   UNL A   1      33.541  21.725  24.351  1.00  0.00     0.049 A 
ATOM     11  C   UNL A   1      33.325  19.476  24.755  1.00  0.00     0.053 A 
ATOM     12  C   UNL A   1      32.962  20.543  23.868  1.00  0.00     0.011 A 
ATOM     13  C   UNL A   1      33.299  22.963  23.726  1.00  0.00     0.027 A 
ATOM     14  C   UNL A   1      32.167  20.607  22.701  1.00  0.00     0.011 A 
ATOM     15  C   UNL A   1      32.526  22.990  22.563  1.00  0.00     0.002 A 
ATOM     16  C   UNL A   1      31.971  21.828  22.051  1.00  0.00     0.001 A 
BRANCH  11  17
ATOM     17  C   UNL A   1      32.888  18.073  24.685  1.00  0.00     0.268 C 
ATOM     18  O   UNL A   1      32.007  17.650  25.441  1.00  0.00    -0.284 OA
BRANCH  17  19
ATOM     19  C   UNL A   1      33.566  17.161  23.665  1.00  0.00     0.454 C 
ATOM     20  F   UNL A   1      34.927  17.259  23.693  1.00  0.00    -0.163 F 
ATOM     21  F   UNL A   1      33.282  15.840  23.870  1.00  0.00    -0.163 F 
ATOM     22  F   UNL A   1      33.199  17.424  22.378  1.00  0.00    -0.163 F 
ENDBRANCH  17  19
ENDBRANCH  11  17
ENDBRANCH   7   8
ENDBRANCH   5   7
ENDBRANCH   2   3
ENDBRANCH   1   2
BRANCH   1  23
ATOM     23  C   UNL A   1      40.372  22.147  26.798  1.00  0.00     0.118 C 
BRANCH  23  24
ATOM     24  N   UNL A   1      41.323  22.429  25.740  1.00  0.00    -0.352 N 
ATOM     25  C   UNL A   1      42.277  23.391  25.543  1.00  0.00     0.251 C 
ATOM     26  H   UNL A   1      41.271  21.785  24.997  1.00  0.00     0.163 HD
ATOM     27  O   UNL A   1      43.111  23.148  24.667  1.00  0.00    -0.269 OA
BRANCH  25  28
ATOM     28  C   UNL A   1      42.323  24.709  26.234  1.00  0.00     0.039 A 
ATOM     29  C   UNL A   1      42.893  24.943  27.483  1.00  0.00     0.014 A 
ATOM     30  C   UNL A   1      41.631  25.764  25.603  1.00  0.00     0.014 A 
ATOM     31  C   UNL A   1      42.670  26.148  28.140  1.00  0.00     0.010 A 
ATOM     32  C   UNL A   1      41.420  26.978  26.248  1.00  0.00     0.010 A 
ATOM     33  C   UNL A   1      41.892  27.145  27.543  1.00  0.00    -0.014 A 
BRANCH  33  34
ATOM     34  C   UNL A   1      41.652  28.357  28.318  1.00  0.00     0.031 A 
ATOM     35  C   UNL A   1      42.747  29.364  28.279  1.00  0.00     0.074 A 
ATOM     36  C   UNL A   1      40.517  28.599  29.007  1.00  0.00     0.049 A 
ATOM     37  N   UNL A   1      43.519  29.732  29.247  1.00  0.00    -0.248 NA
ATOM     38  C   UNL A   1      43.109  29.937  26.975  1.00  0.00     0.031 C 
ATOM     39  C   UNL A   1      39.254  27.863  28.975  1.00  0.00     0.029 A 
ATOM     40  N   UNL A   1      40.245  29.641  29.839  1.00  0.00    -0.354 N 
ATOM     41  C   UNL A   1      44.351  30.722  28.729  1.00  0.00     0.074 A 
ATOM     42  C   UNL A   1      44.149  30.708  27.302  1.00  0.00     0.031 C 
ATOM     43  C   UNL A   1      38.292  28.611  29.563  1.00  0.00     0.029 A 
ATOM     44  C   UNL A   1      38.896  29.809  30.122  1.00  0.00     0.049 A 
ATOM     45  H   UNL A   1      40.944  30.228  30.209  1.00  0.00     0.167 HD
ATOM     46  C   UNL A   1      45.017  31.598  29.533  1.00  0.00     0.037 A 
ATOM     47  C   UNL A   1      38.319  30.895  30.697  1.00  0.00     0.037 A 
ATOM     48  C   UNL A   1      45.068  31.131  30.894  1.00  0.00     0.049 A 
ATOM     49  C   UNL A   1      39.378  31.589  31.482  1.00  0.00     0.074 A 
ATOM     50  C   UNL A   1      45.585  30.005  31.508  1.00  0.00     0.029 A 
ATOM     51  N   UNL A   1      44.215  31.694  31.812  1.00  0.00    -0.354 N 
ATOM     52  N   UNL A   1      39.947  31.077  32.543  1.00  0.00    -0.248 NA
ATOM     53  C   UNL A   1      40.139  32.640  30.821  1.00  0.00     0.031 C 
ATOM     54  C   UNL A   1      44.641  29.678  32.524  1.00  0.00     0.029 A 
ATOM     55  C   UNL A   1      43.646  30.656  32.506  1.00  0.00     0.049 A 
ATOM     56  H   UNL A   1      44.046  32.655  31.947  1.00  0.00     0.167 HD
ATOM     57  C   UNL A   1      41.288  31.420  32.430  1.00  0.00     0.074 A 
ATOM     58  C   UNL A   1      41.329  32.451  31.395  1.00  0.00     0.031 C 
ATOM     59  C   UNL A   1      42.278  30.652  32.979  1.00  0.00     0.037 A 
BRANCH  46  60
ATOM     60  C   UNL A   1      45.354  33.022  29.161  1.00  0.00     0.058 A 
ATOM     61  C   UNL A   1      44.324  33.899  28.761  1.00  0.00     0.135 A 
ATOM     62  C   UNL A   1      46.668  33.467  28.905  1.00  0.00     0.135 A 
ATOM     63  F   UNL A   1      43.035  33.576  28.954  1.00  0.00    -0.206 F 
ATOM     64  C   UNL A   1      44.580  35.090  28.080  1.00  0.00     0.059 A 
ATOM     65  C   UNL A   1      46.947  34.676  28.278  1.00  0.00     0.059 A 
ATOM     66  F   UNL A   1      47.741  32.708  29.162  1.00  0.00    -0.206 F 
ATOM     67  C   UNL A   1      45.897  35.459  27.826  1.00  0.00     0.060 A 
BRANCH  67  68
ATOM     68  S   UNL A   1      46.227  36.923  26.831  1.00  0.00     0.124 S 
ATOM     69  O   UNL A   1      47.167  37.646  27.681  1.00  0.00    -0.237 OA
ATOM     70  O   UNL A   1      46.782  36.342  25.613  1.00  0.00    -0.237 OA
ATOM     71  O   UNL A   1      44.910  37.534  26.684  1.00  0.00    -0.744 OA
ENDBRANCH  67  68
ENDBRANCH  46  60
BRANCH  47  72
ATOM     72  C   UNL A   1      37.045  31.545  30.270  1.00  0.00     0.058 A 
ATOM     73  C   UNL A   1      36.061  31.932  31.199  1.00  0.00     0.135 A 
ATOM     74  C   UNL A   1      36.871  32.032  28.956  1.00  0.00     0.135 A 
ATOM     75  F   UNL A   1      36.157  31.547  32.482  1.00  0.00    -0.206 F 
ATOM     76  C   UNL A   1      34.994  32.773  30.853  1.00  0.00     0.059 A 
ATOM     77  C   UNL A   1      35.810  32.855  28.586  1.00  0.00     0.059 A 
ATOM     78  F   UNL A   1      37.779  31.799  27.998  1.00  0.00    -0.206 F 
ATOM     79  C   UNL A   1      34.886  33.242  29.545  1.00  0.00     0.060 A 
BRANCH  79  80
ATOM     80  S   UNL A   1      33.601  34.442  29.118  1.00  0.00     0.124 S 
ATOM     81  O   UNL A   1      33.057  34.783  30.427  1.00  0.00    -0.237 OA
ATOM     82  O   UNL A   1      34.369  35.489  28.453  1.00  0.00    -0.237 OA
ATOM     83  O   UNL A   1      32.704  33.685  28.248  1.00  0.00    -0.744 OA
ENDBRANCH  79  80
ENDBRANCH  47  72
BRANCH  59  84
ATOM     84  C   UNL A   1      41.910  29.549  33.940  1.00  0.00     0.058 A 
ATOM     85  C   UNL A   1      41.579  28.240  33.548  1.00  0.00     0.135 A 
ATOM     86  C   UNL A   1      42.102  29.774  35.313  1.00  0.00     0.135 A 
ATOM     87  F   UNL A   1      41.483  27.908  32.254  1.00  0.00    -0.206 F 
ATOM     88  C   UNL A   1      41.419  27.211  34.479  1.00  0.00     0.059 A 
ATOM     89  C   UNL A   1      41.980  28.756  36.256  1.00  0.00     0.059 A 
ATOM     90  F   UNL A   1      42.481  30.987  35.749  1.00  0.00    -0.206 F 
ATOM     91  C   UNL A   1      41.630  27.476  35.831  1.00  0.00     0.060 A 
BRANCH  91  92
ATOM     92  S   UNL A   1      41.527  26.121  37.021  1.00  0.00     0.124 S 
ATOM     93  O   UNL A   1      40.287  26.432  37.731  1.00  0.00    -0.237 OA
ATOM     94  O   UNL A   1      41.477  24.944  36.153  1.00  0.00    -0.237 OA
ATOM     95  O   UNL A   1      42.744  26.256  37.805  1.00  0.00    -0.744 OA
ENDBRANCH  91  92
ENDBRANCH  59  84
ENDBRANCH  33  34
ENDBRANCH  25  28
ENDBRANCH  23  24
ENDBRANCH   1  23
TORSDOF 16
ENDMDL
MODEL 3
REMARK VINA RESULT:     -10.8      1.072      2.020
REMARK SMILES O=C(Cn1cc(C(=O)C(F)(F)F)c2ccccc21)NCCCNC(=O)c1ccc(-c2c3nc(c(-c4c(F)cc(S(=O)(=O)[O-])cc4F)c4ccc([nH]4)c(-c4c(F)cc(S(=O)(=O)[O-])cc4F)c4nc(c(-c5c(F)cc(S(=O)(=O)[O-])cc5F)c5ccc2[nH]5)C=C4)C=C3)cc1
REMARK SMILES IDX 21 1 20 2 19 3 1 4 2 5 3 7 4 8 5 9 18 10 6 11 13 12 17 13
REMARK SMILES IDX 14 14 16 15 15 16 7 17 8 18 9 19 10 20 11 21 12 22 22 23
REMARK SMILES IDX 23 24 24 25 25 27 26 28 27 29 91 30 28 31 90 32 29 33 30 34
REMARK SMILES IDX 31 35 84 36 32 37 89 38 83 39 85 40 33 41 88 42 82 43 81 44
REMARK SMILES IDX 34 46 68 47 47 48 67 49 48 50 51 51 66 52 86 53 49 54 50 55
REMARK SMILES IDX 65 57 87 58 52 59 35 60 36 61 45 62 37 63 38 64 44 65 46 66
REMARK SMILES IDX 39 67 40 68 41 69 42 70 43 71 69 72 70 73 79 74 71 75 72 76
REMARK SMILES IDX 78 77 80 78 73 79 74 80 75 81 76 82 77 83 53 84 54 85 63 86
REMARK SMILES IDX 55 87 56 88 62 89 64 90 57 91 58 92 59 93 60 94 61 95
REMARK H PARENT 19 6 23 26 85 45 51 56
REMARK Flexibility Score: inf
ROOT
ATOM      1  C   UNL A   1      42.216  19.529  26.384  1.00  0.00     0.042 C 
ENDROOT
BRANCH   1   2
ATOM      2  C   UNL A   1      43.347  19.259  25.398  1.00  0.00     0.117 C 
BRANCH   2   3
ATOM      3  N   UNL A   1      44.502  20.117  25.598  1.00  0.00    -0.354 N 
ATOM      4  O   UNL A   1      44.497  21.035  23.494  1.00  0.00    -0.273 OA
ATOM      5  C   UNL A   1      44.923  21.023  24.646  1.00  0.00     0.239 C 
ATOM      6  H   UNL A   1      45.003  20.050  26.443  1.00  0.00     0.163 HD
BRANCH   5   7
ATOM      7  C   UNL A   1      46.001  21.988  25.086  1.00  0.00     0.222 C 
BRANCH   7   8
ATOM      8  N   UNL A   1      45.632  22.962  26.118  1.00  0.00    -0.337 N 
ATOM      9  C   UNL A   1      45.186  22.571  27.364  1.00  0.00     0.099 A 
ATOM     10  C   UNL A   1      45.699  24.340  26.063  1.00  0.00     0.049 A 
ATOM     11  C   UNL A   1      44.908  23.696  28.119  1.00  0.00     0.053 A 
ATOM     12  C   UNL A   1      45.195  24.822  27.279  1.00  0.00     0.011 A 
ATOM     13  C   UNL A   1      46.142  25.220  25.058  1.00  0.00     0.027 A 
ATOM     14  C   UNL A   1      45.089  26.220  27.460  1.00  0.00     0.011 A 
ATOM     15  C   UNL A   1      46.006  26.595  25.259  1.00  0.00     0.002 A 
ATOM     16  C   UNL A   1      45.480  27.092  26.441  1.00  0.00     0.001 A 
BRANCH  11  17
ATOM     17  C   UNL A   1      44.430  23.722  29.510  1.00  0.00     0.268 C 
ATOM     18  O   UNL A   1      43.673  22.842  29.933  1.00  0.00    -0.284 OA
BRANCH  17  19
ATOM     19  C   UNL A   1      44.888  24.871  30.404  1.00  0.00     0.454 C 
ATOM     20  F   UNL A   1      46.163  25.275  30.132  1.00  0.00    -0.163 F 
ATOM     21  F   UNL A   1      44.108  25.985  30.271  1.00  0.00    -0.163 F 
ATOM     22  F   UNL A   1      44.870  24.563  31.732  1.00  0.00    -0.163 F 
ENDBRANCH  17  19
ENDBRANCH  11  17
ENDBRANCH   7   8
ENDBRANCH   5   7
ENDBRANCH   2   3
ENDBRANCH   1   2
BRANCH   1  23
ATOM     23  C   UNL A   1      41.826  21.001  26.519  1.00  0.00     0.118 C 
BRANCH  23  24
ATOM     24  N   UNL A   1      40.400  21.261  26.513  1.00  0.00    -0.352 N 
ATOM     25  C   UNL A   1      39.635  22.396  26.549  1.00  0.00     0.251 C 
ATOM     26  H   UNL A   1      39.860  20.438  26.472  1.00  0.00     0.163 HD
ATOM     27  O   UNL A   1      38.453  22.257  26.221  1.00  0.00    -0.269 OA
BRANCH  25  28
ATOM     28  C   UNL A   1      40.096  23.728  27.027  1.00  0.00     0.039 A 
ATOM     29  C   UNL A   1      41.128  23.942  27.939  1.00  0.00     0.014 A 
ATOM     30  C   UNL A   1      39.341  24.838  26.594  1.00  0.00     0.014 A 
ATOM     31  C   UNL A   1      41.317  25.200  28.499  1.00  0.00     0.010 A 
ATOM     32  C   UNL A   1      39.539  26.103  27.137  1.00  0.00     0.010 A 
ATOM     33  C   UNL A   1      40.490  26.268  28.135  1.00  0.00    -0.014 A 
BRANCH  33  34
ATOM     34  C   UNL A   1      40.711  27.542  28.810  1.00  0.00     0.031 A 
ATOM     35  C   UNL A   1      41.808  28.376  28.249  1.00  0.00     0.074 A 
ATOM     36  C   UNL A   1      39.972  27.982  29.849  1.00  0.00     0.049 A 
ATOM     37  N   UNL A   1      42.934  28.681  28.806  1.00  0.00    -0.248 NA
ATOM     38  C   UNL A   1      41.692  28.820  26.853  1.00  0.00     0.031 C 
ATOM     39  C   UNL A   1      38.723  27.436  30.380  1.00  0.00     0.029 A 
ATOM     40  N   UNL A   1      40.166  29.097  30.607  1.00  0.00    -0.354 N 
ATOM     41  C   UNL A   1      43.602  29.511  27.907  1.00  0.00     0.074 A 
ATOM     42  C   UNL A   1      42.856  29.449  26.676  1.00  0.00     0.031 C 
ATOM     43  C   UNL A   1      38.159  28.346  31.207  1.00  0.00     0.029 A 
ATOM     44  C   UNL A   1      39.064  29.473  31.362  1.00  0.00     0.049 A 
ATOM     45  H   UNL A   1      41.014  29.595  30.618  1.00  0.00     0.167 HD
ATOM     46  C   UNL A   1      44.623  30.324  28.299  1.00  0.00     0.037 A 
ATOM     47  C   UNL A   1      38.884  30.660  31.995  1.00  0.00     0.037 A 
ATOM     48  C   UNL A   1      45.151  29.928  29.579  1.00  0.00     0.049 A 
ATOM     49  C   UNL A   1      40.237  31.235  32.239  1.00  0.00     0.074 A 
ATOM     50  C   UNL A   1      45.737  28.775  30.066  1.00  0.00     0.029 A 
ATOM     51  N   UNL A   1      44.795  30.658  30.688  1.00  0.00    -0.354 N 
ATOM     52  N   UNL A   1      41.114  30.705  33.051  1.00  0.00    -0.248 NA
ATOM     53  C   UNL A   1      40.789  32.128  31.230  1.00  0.00     0.031 C 
ATOM     54  C   UNL A   1      45.237  28.643  31.393  1.00  0.00     0.029 A 
ATOM     55  C   UNL A   1      44.431  29.753  31.652  1.00  0.00     0.049 A 
ATOM     56  H   UNL A   1      44.801  31.639  30.774  1.00  0.00     0.167 HD
ATOM     57  C   UNL A   1      42.333  30.844  32.400  1.00  0.00     0.074 A 
ATOM     58  C   UNL A   1      42.081  31.800  31.324  1.00  0.00     0.031 C 
ATOM     59  C   UNL A   1      43.366  29.972  32.608  1.00  0.00     0.037 A 
BRANCH  46  60
ATOM     60  C   UNL A   1      44.944  31.661  27.677  1.00  0.00     0.058 A 
ATOM     61  C   UNL A   1      46.183  31.849  27.028  1.00  0.00     0.135 A 
ATOM     62  C   UNL A   1      44.212  32.838  27.945  1.00  0.00     0.135 A 
ATOM     63  F   UNL A   1      46.964  30.799  26.725  1.00  0.00    -0.206 F 
ATOM     64  C   UNL A   1      46.693  33.116  26.744  1.00  0.00     0.059 A 
ATOM     65  C   UNL A   1      44.677  34.107  27.621  1.00  0.00     0.059 A 
ATOM     66  F   UNL A   1      43.057  32.820  28.622  1.00  0.00    -0.206 F 
ATOM     67  C   UNL A   1      45.939  34.241  27.065  1.00  0.00     0.060 A 
BRANCH  67  68
ATOM     68  S   UNL A   1      46.650  35.877  26.826  1.00  0.00     0.124 S 
ATOM     69  O   UNL A   1      47.202  35.760  25.481  1.00  0.00    -0.237 OA
ATOM     70  O   UNL A   1      45.480  36.739  26.965  1.00  0.00    -0.237 OA
ATOM     71  O   UNL A   1      47.630  35.980  27.903  1.00  0.00    -0.744 OA
ENDBRANCH  67  68
ENDBRANCH  46  60
BRANCH  47  72
ATOM     72  C   UNL A   1      37.626  31.464  32.020  1.00  0.00     0.058 A 
ATOM     73  C   UNL A   1      36.990  31.810  33.226  1.00  0.00     0.135 A 
ATOM     74  C   UNL A   1      37.152  32.126  30.866  1.00  0.00     0.135 A 
ATOM     75  F   UNL A   1      37.393  31.260  34.383  1.00  0.00    -0.206 F 
ATOM     76  C   UNL A   1      35.974  32.775  33.287  1.00  0.00     0.059 A 
ATOM     77  C   UNL A   1      36.134  33.075  30.901  1.00  0.00     0.059 A 
ATOM     78  F   UNL A   1      37.726  31.941  29.669  1.00  0.00    -0.206 F 
ATOM     79  C   UNL A   1      35.563  33.413  32.118  1.00  0.00     0.060 A 
BRANCH  79  80
ATOM     80  S   UNL A   1      34.358  34.761  32.199  1.00  0.00     0.124 S 
ATOM     81  O   UNL A   1      35.095  35.782  32.935  1.00  0.00    -0.237 OA
ATOM     82  O   UNL A   1      34.116  35.040  30.788  1.00  0.00    -0.237 OA
ATOM     83  O   UNL A   1      33.232  34.168  32.916  1.00  0.00    -0.744 OA
ENDBRANCH  79  80
ENDBRANCH  47  72
BRANCH  59  84
ATOM     84  C   UNL A   1      43.283  28.988  33.747  1.00  0.00     0.058 A 
ATOM     85  C   UNL A   1      43.628  29.289  35.078  1.00  0.00     0.135 A 
ATOM     86  C   UNL A   1      42.637  27.762  33.520  1.00  0.00     0.135 A 
ATOM     87  F   UNL A   1      44.149  30.480  35.404  1.00  0.00    -0.206 F 
ATOM     88  C   UNL A   1      43.367  28.403  36.125  1.00  0.00     0.059 A 
ATOM     89  C   UNL A   1      42.337  26.877  34.554  1.00  0.00     0.059 A 
ATOM     90  F   UNL A   1      42.224  27.439  32.283  1.00  0.00    -0.206 F 
ATOM     91  C   UNL A   1      42.713  27.202  35.855  1.00  0.00     0.060 A 
BRANCH  91  92
ATOM     92  S   UNL A   1      42.283  26.107  37.225  1.00  0.00     0.124 S 
ATOM     93  O   UNL A   1      42.471  24.784  36.629  1.00  0.00    -0.237 OA
ATOM     94  O   UNL A   1      43.261  26.481  38.246  1.00  0.00    -0.237 OA
ATOM     95  O   UNL A   1      40.907  26.462  37.533  1.00  0.00    -0.744 OA
ENDBRANCH  91  92
ENDBRANCH  59  84
ENDBRANCH  33  34
ENDBRANCH  25  28
ENDBRANCH  23  24
ENDBRANCH   1  23
TORSDOF 16
ENDMDL
