MODEL 1
REMARK VINA RESULT:     -10.1      0.000      0.000
REMARK SMILES Cc1ccc(C(=O)N[C@@H]2C=C[C@H](C(=O)NCCCNC(=O)c3ccc(-c4c5nc(c(-c6c(F)cc(S(=O)(=O)[O-])cc6F)c6ccc([nH]6)c(-c6c(F)cc(S(=O)(=O)[O-])cc6F)c6nc(c(-c7c(F)cc(S(=O)(=O)[O-])cc7F)c7ccc4[nH]7)C=C6)C=C5)cc3)C2)c(F)c1
REMARK SMILES IDX 17 1 16 2 15 3 13 4 14 5 12 7 9 8 10 9 88 10 11 11 8 12 6 13
REMARK SMILES IDX 7 14 5 16 1 17 2 18 3 19 91 20 4 21 89 22 90 23 18 24 19 25
REMARK SMILES IDX 20 26 21 28 22 29 23 30 87 31 24 32 86 33 25 34 26 35 27 36
REMARK SMILES IDX 80 37 28 38 85 39 79 40 81 41 29 42 84 43 78 44 77 45 30 47
REMARK SMILES IDX 64 48 43 49 63 50 44 51 47 52 62 53 82 54 45 55 46 56 61 58
REMARK SMILES IDX 83 59 48 60 31 61 32 62 41 63 33 64 34 65 40 66 42 67 35 68
REMARK SMILES IDX 36 69 37 70 38 71 39 72 65 73 66 74 75 75 67 76 68 77 74 78
REMARK SMILES IDX 76 79 69 80 70 81 71 82 72 83 73 84 49 85 50 86 59 87 51 88
REMARK SMILES IDX 52 89 58 90 60 91 53 92 54 93 55 94 56 95 57 96
REMARK H PARENT 15 6 8 15 19 27 81 46 47 57
REMARK Flexibility Score: inf
ROOT
ATOM      1  C   UNL A   1      40.865  20.308  26.352  1.00  0.00     0.042 C 
ENDROOT
BRANCH   1   2
ATOM      2  C   UNL A   1      42.374  20.387  26.148  1.00  0.00     0.117 C 
BRANCH   2   3
ATOM      3  N   UNL A   1      42.772  21.378  25.164  1.00  0.00    -0.356 N 
ATOM      4  C   UNL A   1      43.627  22.439  25.300  1.00  0.00     0.227 C 
ATOM      5  O   UNL A   1      43.954  23.055  24.286  1.00  0.00    -0.274 OA
ATOM      6  H   UNL A   1      42.370  21.273  24.271  1.00  0.00     0.163 HD
BRANCH   4   7
ATOM      7  C   UNL A   1      44.074  22.846  26.705  1.00  0.00     0.103 C 
ATOM      8  C   UNL A   1      44.792  25.205  26.956  1.00  0.00     0.106 C 
ATOM      9  C   UNL A   1      45.939  24.242  27.026  1.00  0.00    -0.006 C 
ATOM     10  C   UNL A   1      43.575  24.265  26.990  1.00  0.00     0.047 C 
ATOM     11  C   UNL A   1      45.554  22.971  26.867  1.00  0.00    -0.016 C 
BRANCH   8  12
ATOM     12  N   UNL A   1      45.005  26.042  25.788  1.00  0.00    -0.346 N 
ATOM     13  C   UNL A   1      45.120  27.402  25.622  1.00  0.00     0.254 C 
ATOM     14  O   UNL A   1      45.635  27.839  24.597  1.00  0.00    -0.269 OA
ATOM     15  H   UNL A   1      45.081  25.535  24.948  1.00  0.00     0.164 HD
BRANCH  13  16
ATOM     16  C   UNL A   1      44.545  28.332  26.608  1.00  0.00     0.075 A 
ATOM     17  C   UNL A   1      43.446  31.793  28.893  1.00  0.00     0.044 C 
ATOM     18  C   UNL A   1      43.783  30.522  28.171  1.00  0.00    -0.048 A 
ATOM     19  C   UNL A   1      42.882  29.955  27.257  1.00  0.00     0.004 A 
ATOM     20  C   UNL A   1      45.008  29.886  28.402  1.00  0.00     0.043 A 
ATOM     21  C   UNL A   1      43.251  28.844  26.491  1.00  0.00     0.017 A 
ATOM     22  C   UNL A   1      45.388  28.804  27.615  1.00  0.00     0.136 A 
ATOM     23  F   UNL A   1      46.610  28.285  27.803  1.00  0.00    -0.206 F 
ENDBRANCH  13  16
ENDBRANCH   8  12
ENDBRANCH   4   7
ENDBRANCH   2   3
ENDBRANCH   1   2
BRANCH   1  24
ATOM     24  C   UNL A   1      40.214  21.576  26.891  1.00  0.00     0.118 C 
BRANCH  24  25
ATOM     25  N   UNL A   1      39.223  22.140  25.988  1.00  0.00    -0.352 N 
ATOM     26  C   UNL A   1      38.680  23.405  25.939  1.00  0.00     0.251 C 
ATOM     27  H   UNL A   1      38.887  21.520  25.301  1.00  0.00     0.163 HD
ATOM     28  O   UNL A   1      37.730  23.622  25.195  1.00  0.00    -0.269 OA
BRANCH  26  29
ATOM     29  C   UNL A   1      39.217  24.488  26.794  1.00  0.00     0.039 A 
ATOM     30  C   UNL A   1      40.072  25.437  26.225  1.00  0.00     0.014 A 
ATOM     31  C   UNL A   1      38.900  24.566  28.152  1.00  0.00     0.014 A 
ATOM     32  C   UNL A   1      40.546  26.500  26.999  1.00  0.00     0.010 A 
ATOM     33  C   UNL A   1      39.301  25.671  28.898  1.00  0.00     0.010 A 
ATOM     34  C   UNL A   1      40.130  26.650  28.332  1.00  0.00    -0.014 A 
BRANCH  34  35
ATOM     35  C   UNL A   1      40.549  27.820  29.149  1.00  0.00     0.031 A 
ATOM     36  C   UNL A   1      41.867  27.803  29.876  1.00  0.00     0.074 A 
ATOM     37  C   UNL A   1      39.712  28.867  29.295  1.00  0.00     0.049 A 
ATOM     38  N   UNL A   1      42.368  28.687  30.701  1.00  0.00    -0.248 NA
ATOM     39  C   UNL A   1      42.724  26.623  29.673  1.00  0.00     0.031 C 
ATOM     40  C   UNL A   1      38.391  28.988  28.675  1.00  0.00     0.029 A 
ATOM     41  N   UNL A   1      39.842  30.027  30.020  1.00  0.00    -0.354 N 
ATOM     42  C   UNL A   1      43.584  28.164  31.127  1.00  0.00     0.074 A 
ATOM     43  C   UNL A   1      43.721  26.862  30.512  1.00  0.00     0.031 C 
ATOM     44  C   UNL A   1      37.845  30.164  29.023  1.00  0.00     0.029 A 
ATOM     45  C   UNL A   1      38.752  30.862  29.928  1.00  0.00     0.049 A 
ATOM     46  H   UNL A   1      40.639  30.239  30.556  1.00  0.00     0.167 HD
ATOM     47  C   UNL A   1      44.510  28.726  31.940  1.00  0.00     0.037 A 
ATOM     48  C   UNL A   1      38.506  32.051  30.514  1.00  0.00     0.037 A 
ATOM     49  C   UNL A   1      44.377  30.034  32.529  1.00  0.00     0.049 A 
ATOM     50  C   UNL A   1      39.544  32.647  31.427  1.00  0.00     0.074 A 
ATOM     51  C   UNL A   1      45.288  30.719  33.314  1.00  0.00     0.029 A 
ATOM     52  N   UNL A   1      43.263  30.852  32.405  1.00  0.00    -0.354 N 
ATOM     53  N   UNL A   1      40.717  32.167  31.767  1.00  0.00    -0.248 NA
ATOM     54  C   UNL A   1      39.229  33.947  32.034  1.00  0.00     0.031 C 
ATOM     55  C   UNL A   1      44.702  31.925  33.712  1.00  0.00     0.029 A 
ATOM     56  C   UNL A   1      43.452  32.022  33.122  1.00  0.00     0.049 A 
ATOM     57  H   UNL A   1      42.458  30.633  31.883  1.00  0.00     0.167 HD
ATOM     58  C   UNL A   1      41.293  33.123  32.596  1.00  0.00     0.074 A 
ATOM     59  C   UNL A   1      40.342  34.210  32.702  1.00  0.00     0.031 C 
ATOM     60  C   UNL A   1      42.502  33.103  33.211  1.00  0.00     0.037 A 
BRANCH  47  61
ATOM     61  C   UNL A   1      45.749  27.929  32.249  1.00  0.00     0.058 A 
ATOM     62  C   UNL A   1      45.756  26.912  33.219  1.00  0.00     0.135 A 
ATOM     63  C   UNL A   1      46.939  28.158  31.537  1.00  0.00     0.135 A 
ATOM     64  F   UNL A   1      44.652  26.658  33.940  1.00  0.00    -0.206 F 
ATOM     65  C   UNL A   1      46.902  26.174  33.493  1.00  0.00     0.059 A 
ATOM     66  C   UNL A   1      48.089  27.409  31.772  1.00  0.00     0.059 A 
ATOM     67  F   UNL A   1      46.992  29.116  30.599  1.00  0.00    -0.206 F 
ATOM     68  C   UNL A   1      48.064  26.429  32.763  1.00  0.00     0.060 A 
BRANCH  68  69
ATOM     69  S   UNL A   1      49.541  25.458  33.128  1.00  0.00     0.124 S 
ATOM     70  O   UNL A   1      50.465  26.493  33.582  1.00  0.00    -0.237 OA
ATOM     71  O   UNL A   1      49.063  24.541  34.158  1.00  0.00    -0.237 OA
ATOM     72  O   UNL A   1      49.869  24.842  31.847  1.00  0.00    -0.744 OA
ENDBRANCH  68  69
ENDBRANCH  47  61
BRANCH  48  73
ATOM     73  C   UNL A   1      37.232  32.768  30.238  1.00  0.00     0.058 A 
ATOM     74  C   UNL A   1      36.117  32.602  31.074  1.00  0.00     0.135 A 
ATOM     75  C   UNL A   1      37.103  33.640  29.146  1.00  0.00     0.135 A 
ATOM     76  F   UNL A   1      36.186  31.774  32.127  1.00  0.00    -0.206 F 
ATOM     77  C   UNL A   1      34.915  33.259  30.827  1.00  0.00     0.059 A 
ATOM     78  C   UNL A   1      35.921  34.330  28.895  1.00  0.00     0.059 A 
ATOM     79  F   UNL A   1      38.145  33.849  28.325  1.00  0.00    -0.206 F 
ATOM     80  C   UNL A   1      34.829  34.125  29.737  1.00  0.00     0.060 A 
BRANCH  80  81
ATOM     81  S   UNL A   1      33.281  35.012  29.456  1.00  0.00     0.124 S 
ATOM     82  O   UNL A   1      32.675  34.973  30.782  1.00  0.00    -0.237 OA
ATOM     83  O   UNL A   1      33.755  36.317  29.007  1.00  0.00    -0.237 OA
ATOM     84  O   UNL A   1      32.615  34.209  28.433  1.00  0.00    -0.744 OA
ENDBRANCH  80  81
ENDBRANCH  48  73
BRANCH  60  85
ATOM     85  C   UNL A   1      42.894  34.312  34.018  1.00  0.00     0.058 A 
ATOM     86  C   UNL A   1      42.765  34.347  35.415  1.00  0.00     0.135 A 
ATOM     87  C   UNL A   1      43.466  35.428  33.385  1.00  0.00     0.135 A 
ATOM     88  F   UNL A   1      42.218  33.310  36.068  1.00  0.00    -0.206 F 
ATOM     89  C   UNL A   1      43.168  35.455  36.153  1.00  0.00     0.059 A 
ATOM     90  C   UNL A   1      43.906  36.533  34.107  1.00  0.00     0.059 A 
ATOM     91  F   UNL A   1      43.623  35.443  32.051  1.00  0.00    -0.206 F 
ATOM     92  C   UNL A   1      43.743  36.541  35.491  1.00  0.00     0.060 A 
BRANCH  92  93
ATOM     93  S   UNL A   1      44.299  37.955  36.467  1.00  0.00     0.124 S 
ATOM     94  O   UNL A   1      45.662  37.562  36.805  1.00  0.00    -0.237 OA
ATOM     95  O   UNL A   1      44.173  39.056  35.517  1.00  0.00    -0.237 OA
ATOM     96  O   UNL A   1      43.360  37.988  37.584  1.00  0.00    -0.744 OA
ENDBRANCH  92  93
ENDBRANCH  60  85
ENDBRANCH  34  35
ENDBRANCH  26  29
ENDBRANCH  24  25
ENDBRANCH   1  24
TORSDOF 15
ENDMDL
MODEL 2
REMARK VINA RESULT:      -9.9      4.286      6.955
REMARK SMILES Cc1ccc(C(=O)N[C@@H]2C=C[C@H](C(=O)NCCCNC(=O)c3ccc(-c4c5nc(c(-c6c(F)cc(S(=O)(=O)[O-])cc6F)c6ccc([nH]6)c(-c6c(F)cc(S(=O)(=O)[O-])cc6F)c6nc(c(-c7c(F)cc(S(=O)(=O)[O-])cc7F)c7ccc4[nH]7)C=C6)C=C5)cc3)C2)c(F)c1
REMARK SMILES IDX 17 1 16 2 15 3 13 4 14 5 12 7 9 8 10 9 88 10 11 11 8 12 6 13
REMARK SMILES IDX 7 14 5 16 1 17 2 18 3 19 91 20 4 21 89 22 90 23 18 24 19 25
REMARK SMILES IDX 20 26 21 28 22 29 23 30 87 31 24 32 86 33 25 34 26 35 27 36
REMARK SMILES IDX 80 37 28 38 85 39 79 40 81 41 29 42 84 43 78 44 77 45 30 47
REMARK SMILES IDX 64 48 43 49 63 50 44 51 47 52 62 53 82 54 45 55 46 56 61 58
REMARK SMILES IDX 83 59 48 60 31 61 32 62 41 63 33 64 34 65 40 66 42 67 35 68
REMARK SMILES IDX 36 69 37 70 38 71 39 72 65 73 66 74 75 75 67 76 68 77 74 78
REMARK SMILES IDX 76 79 69 80 70 81 71 82 72 83 73 84 49 85 50 86 59 87 51 88
REMARK SMILES IDX 52 89 58 90 60 91 53 92 54 93 55 94 56 95 57 96
REMARK H PARENT 15 6 8 15 19 27 81 46 47 57
REMARK Flexibility Score: inf
ROOT
ATOM      1  C   UNL A   1      37.609  23.545  25.394  1.00  0.00     0.042 C 
ENDROOT
BRANCH   1   2
ATOM      2  C   UNL A   1      37.143  22.099  25.506  1.00  0.00     0.117 C 
BRANCH   2   3
ATOM      3  N   UNL A   1      36.100  21.902  26.498  1.00  0.00    -0.356 N 
ATOM      4  C   UNL A   1      34.789  21.550  26.319  1.00  0.00     0.227 C 
ATOM      5  O   UNL A   1      34.121  21.273  27.315  1.00  0.00    -0.274 OA
ATOM      6  H   UNL A   1      36.375  22.042  27.433  1.00  0.00     0.163 HD
BRANCH   4   7
ATOM      7  C   UNL A   1      34.205  21.587  24.906  1.00  0.00     0.103 C 
ATOM      8  C   UNL A   1      31.969  22.635  24.701  1.00  0.00     0.106 C 
ATOM      9  C   UNL A   1      31.927  21.147  24.524  1.00  0.00    -0.006 C 
ATOM     10  C   UNL A   1      33.480  22.921  24.706  1.00  0.00     0.047 C 
ATOM     11  C   UNL A   1      33.131  20.579  24.658  1.00  0.00    -0.016 C 
BRANCH   8  12
ATOM     12  N   UNL A   1      31.187  22.949  25.885  1.00  0.00    -0.346 N 
ATOM     13  C   UNL A   1      30.561  24.096  26.313  1.00  0.00     0.254 C 
ATOM     14  O   UNL A   1      29.684  24.015  27.169  1.00  0.00    -0.269 OA
ATOM     15  H   UNL A   1      31.087  22.190  26.503  1.00  0.00     0.164 HD
BRANCH  13  16
ATOM     16  C   UNL A   1      30.998  25.416  25.833  1.00  0.00     0.075 A 
ATOM     17  C   UNL A   1      31.255  29.566  24.771  1.00  0.00     0.044 C 
ATOM     18  C   UNL A   1      31.259  28.100  25.090  1.00  0.00    -0.048 A 
ATOM     19  C   UNL A   1      31.900  27.617  26.240  1.00  0.00     0.004 A 
ATOM     20  C   UNL A   1      30.618  27.194  24.237  1.00  0.00     0.043 A 
ATOM     21  C   UNL A   1      31.792  26.270  26.601  1.00  0.00     0.017 A 
ATOM     22  C   UNL A   1      30.481  25.862  24.615  1.00  0.00     0.136 A 
ATOM     23  F   UNL A   1      29.776  25.048  23.816  1.00  0.00    -0.206 F 
ENDBRANCH  13  16
ENDBRANCH   8  12
ENDBRANCH   4   7
ENDBRANCH   2   3
ENDBRANCH   1   2
BRANCH   1  24
ATOM     24  C   UNL A   1      38.513  24.027  26.523  1.00  0.00     0.118 C 
BRANCH  24  25
ATOM     25  N   UNL A   1      39.930  23.898  26.218  1.00  0.00    -0.352 N 
ATOM     26  C   UNL A   1      40.996  24.682  26.597  1.00  0.00     0.251 C 
ATOM     27  H   UNL A   1      40.164  23.128  25.652  1.00  0.00     0.163 HD
ATOM     28  O   UNL A   1      42.095  24.489  26.088  1.00  0.00    -0.269 OA
BRANCH  26  29
ATOM     29  C   UNL A   1      40.818  25.769  27.588  1.00  0.00     0.039 A 
ATOM     30  C   UNL A   1      39.782  25.667  28.522  1.00  0.00     0.014 A 
ATOM     31  C   UNL A   1      41.650  26.890  27.592  1.00  0.00     0.014 A 
ATOM     32  C   UNL A   1      39.630  26.652  29.502  1.00  0.00     0.010 A 
ATOM     33  C   UNL A   1      41.552  27.825  28.620  1.00  0.00     0.010 A 
ATOM     34  C   UNL A   1      40.540  27.719  29.586  1.00  0.00    -0.014 A 
BRANCH  34  35
ATOM     35  C   UNL A   1      40.454  28.731  30.672  1.00  0.00     0.031 A 
ATOM     36  C   UNL A   1      41.339  28.616  31.886  1.00  0.00     0.074 A 
ATOM     37  C   UNL A   1      39.532  29.711  30.601  1.00  0.00     0.049 A 
ATOM     38  N   UNL A   1      41.353  29.348  32.970  1.00  0.00    -0.248 NA
ATOM     39  C   UNL A   1      42.318  27.516  31.895  1.00  0.00     0.031 C 
ATOM     40  C   UNL A   1      38.589  29.908  29.497  1.00  0.00     0.029 A 
ATOM     41  N   UNL A   1      39.225  30.722  31.479  1.00  0.00    -0.354 N 
ATOM     42  C   UNL A   1      42.323  28.789  33.794  1.00  0.00     0.074 A 
ATOM     43  C   UNL A   1      42.839  27.625  33.107  1.00  0.00     0.031 C 
ATOM     44  C   UNL A   1      37.831  30.986  29.751  1.00  0.00     0.029 A 
ATOM     45  C   UNL A   1      38.196  31.531  31.054  1.00  0.00     0.049 A 
ATOM     46  H   UNL A   1      39.697  30.854  32.332  1.00  0.00     0.167 HD
ATOM     47  C   UNL A   1      42.759  29.217  35.003  1.00  0.00     0.037 A 
ATOM     48  C   UNL A   1      37.606  32.586  31.651  1.00  0.00     0.037 A 
ATOM     49  C   UNL A   1      42.258  30.392  35.669  1.00  0.00     0.049 A 
ATOM     50  C   UNL A   1      38.097  33.033  33.002  1.00  0.00     0.074 A 
ATOM     51  C   UNL A   1      42.679  30.946  36.865  1.00  0.00     0.029 A 
ATOM     52  N   UNL A   1      41.223  31.189  35.203  1.00  0.00    -0.354 N 
ATOM     53  N   UNL A   1      39.061  32.531  33.737  1.00  0.00    -0.248 NA
ATOM     54  C   UNL A   1      37.425  34.192  33.605  1.00  0.00     0.031 C 
ATOM     55  C   UNL A   1      41.860  32.043  37.151  1.00  0.00     0.029 A 
ATOM     56  C   UNL A   1      40.971  32.213  36.102  1.00  0.00     0.049 A 
ATOM     57  H   UNL A   1      40.738  31.047  34.357  1.00  0.00     0.167 HD
ATOM     58  C   UNL A   1      39.133  33.335  34.870  1.00  0.00     0.074 A 
ATOM     59  C   UNL A   1      38.121  34.359  34.720  1.00  0.00     0.031 C 
ATOM     60  C   UNL A   1      39.967  33.234  35.935  1.00  0.00     0.037 A 
BRANCH  47  61
ATOM     61  C   UNL A   1      43.828  28.410  35.691  1.00  0.00     0.058 A 
ATOM     62  C   UNL A   1      45.195  28.641  35.464  1.00  0.00     0.135 A 
ATOM     63  C   UNL A   1      43.480  27.416  36.622  1.00  0.00     0.135 A 
ATOM     64  F   UNL A   1      45.586  29.568  34.575  1.00  0.00    -0.206 F 
ATOM     65  C   UNL A   1      46.176  27.897  36.110  1.00  0.00     0.059 A 
ATOM     66  C   UNL A   1      44.447  26.683  37.305  1.00  0.00     0.059 A 
ATOM     67  F   UNL A   1      42.190  27.153  36.880  1.00  0.00    -0.206 F 
ATOM     68  C   UNL A   1      45.792  26.920  37.030  1.00  0.00     0.060 A 
BRANCH  68  69
ATOM     69  S   UNL A   1      47.079  25.968  37.864  1.00  0.00     0.124 S 
ATOM     70  O   UNL A   1      47.961  25.633  36.750  1.00  0.00    -0.237 OA
ATOM     71  O   UNL A   1      47.608  26.934  38.821  1.00  0.00    -0.237 OA
ATOM     72  O   UNL A   1      46.351  24.846  38.446  1.00  0.00    -0.744 OA
ENDBRANCH  68  69
ENDBRANCH  47  61
BRANCH  48  73
ATOM     73  C   UNL A   1      36.500  33.308  30.965  1.00  0.00     0.058 A 
ATOM     74  C   UNL A   1      35.177  33.195  31.419  1.00  0.00     0.135 A 
ATOM     75  C   UNL A   1      36.740  34.131  29.855  1.00  0.00     0.135 A 
ATOM     76  F   UNL A   1      34.894  32.414  32.472  1.00  0.00    -0.206 F 
ATOM     77  C   UNL A   1      34.129  33.856  30.786  1.00  0.00     0.059 A 
ATOM     78  C   UNL A   1      35.713  34.826  29.223  1.00  0.00     0.059 A 
ATOM     79  F   UNL A   1      37.990  34.289  29.391  1.00  0.00    -0.206 F 
ATOM     80  C   UNL A   1      34.409  34.673  29.690  1.00  0.00     0.060 A 
BRANCH  80  81
ATOM     81  S   UNL A   1      33.048  35.568  28.908  1.00  0.00     0.124 S 
ATOM     82  O   UNL A   1      33.763  36.595  28.160  1.00  0.00    -0.237 OA
ATOM     83  O   UNL A   1      32.414  34.522  28.113  1.00  0.00    -0.237 OA
ATOM     84  O   UNL A   1      32.264  36.044  30.045  1.00  0.00    -0.744 OA
ENDBRANCH  80  81
ENDBRANCH  48  73
BRANCH  60  85
ATOM     85  C   UNL A   1      39.858  34.286  37.007  1.00  0.00     0.058 A 
ATOM     86  C   UNL A   1      40.486  35.535  36.891  1.00  0.00     0.135 A 
ATOM     87  C   UNL A   1      39.059  34.058  38.141  1.00  0.00     0.135 A 
ATOM     88  F   UNL A   1      41.266  35.802  35.831  1.00  0.00    -0.206 F 
ATOM     89  C   UNL A   1      40.345  36.513  37.870  1.00  0.00     0.059 A 
ATOM     90  C   UNL A   1      38.879  35.033  39.116  1.00  0.00     0.059 A 
ATOM     91  F   UNL A   1      38.427  32.884  38.299  1.00  0.00    -0.206 F 
ATOM     92  C   UNL A   1      39.534  36.255  38.977  1.00  0.00     0.060 A 
BRANCH  92  93
ATOM     93  S   UNL A   1      39.328  37.548  40.219  1.00  0.00     0.124 S 
ATOM     94  O   UNL A   1      40.666  38.129  40.265  1.00  0.00    -0.237 OA
ATOM     95  O   UNL A   1      38.292  38.387  39.625  1.00  0.00    -0.237 OA
ATOM     96  O   UNL A   1      38.923  36.812  41.413  1.00  0.00    -0.744 OA
ENDBRANCH  92  93
ENDBRANCH  60  85
ENDBRANCH  34  35
ENDBRANCH  26  29
ENDBRANCH  24  25
ENDBRANCH   1  24
TORSDOF 15
ENDMDL
MODEL 3
REMARK VINA RESULT:      -9.8      3.999      6.604
REMARK SMILES Cc1ccc(C(=O)N[C@@H]2C=C[C@H](C(=O)NCCCNC(=O)c3ccc(-c4c5nc(c(-c6c(F)cc(S(=O)(=O)[O-])cc6F)c6ccc([nH]6)c(-c6c(F)cc(S(=O)(=O)[O-])cc6F)c6nc(c(-c7c(F)cc(S(=O)(=O)[O-])cc7F)c7ccc4[nH]7)C=C6)C=C5)cc3)C2)c(F)c1
REMARK SMILES IDX 17 1 16 2 15 3 13 4 14 5 12 7 9 8 10 9 88 10 11 11 8 12 6 13
REMARK SMILES IDX 7 14 5 16 1 17 2 18 3 19 91 20 4 21 89 22 90 23 18 24 19 25
REMARK SMILES IDX 20 26 21 28 22 29 23 30 87 31 24 32 86 33 25 34 26 35 27 36
REMARK SMILES IDX 80 37 28 38 85 39 79 40 81 41 29 42 84 43 78 44 77 45 30 47
REMARK SMILES IDX 64 48 43 49 63 50 44 51 47 52 62 53 82 54 45 55 46 56 61 58
REMARK SMILES IDX 83 59 48 60 31 61 32 62 41 63 33 64 34 65 40 66 42 67 35 68
REMARK SMILES IDX 36 69 37 70 38 71 39 72 65 73 66 74 75 75 67 76 68 77 74 78
REMARK SMILES IDX 76 79 69 80 70 81 71 82 72 83 73 84 49 85 50 86 59 87 51 88
REMARK SMILES IDX 52 89 58 90 60 91 53 92 54 93 55 94 56 95 57 96
REMARK H PARENT 15 6 8 15 19 27 81 46 47 57
REMARK Flexibility Score: inf
ROOT
ATOM      1  C   UNL A   1      40.505  22.100  27.386  1.00  0.00     0.042 C 
ENDROOT
BRANCH   1   2
ATOM      2  C   UNL A   1      39.398  22.565  26.447  1.00  0.00     0.117 C 
BRANCH   2   3
ATOM      3  N   UNL A   1      38.480  21.505  26.067  1.00  0.00    -0.356 N 
ATOM      4  C   UNL A   1      37.425  21.545  25.195  1.00  0.00     0.227 C 
ATOM      5  O   UNL A   1      36.882  20.482  24.893  1.00  0.00    -0.274 OA
ATOM      6  H   UNL A   1      38.637  20.634  26.499  1.00  0.00     0.163 HD
BRANCH   4   7
ATOM      7  C   UNL A   1      36.933  22.905  24.699  1.00  0.00     0.103 C 
ATOM      8  C   UNL A   1      34.508  23.330  24.974  1.00  0.00     0.106 C 
ATOM      9  C   UNL A   1      34.896  23.108  23.543  1.00  0.00    -0.006 C 
ATOM     10  C   UNL A   1      35.874  23.432  25.671  1.00  0.00     0.047 C 
ATOM     11  C   UNL A   1      36.201  22.856  23.397  1.00  0.00    -0.016 C 
BRANCH   8  12
ATOM     12  N   UNL A   1      33.605  22.253  25.345  1.00  0.00    -0.346 N 
ATOM     13  C   UNL A   1      32.272  22.025  25.100  1.00  0.00     0.254 C 
ATOM     14  O   UNL A   1      31.825  20.888  25.224  1.00  0.00    -0.269 OA
ATOM     15  H   UNL A   1      34.034  21.546  25.879  1.00  0.00     0.164 HD
BRANCH  13  16
ATOM     16  C   UNL A   1      31.362  23.141  24.791  1.00  0.00     0.075 A 
ATOM     17  C   UNL A   1      29.635  26.997  24.043  1.00  0.00     0.044 C 
ATOM     18  C   UNL A   1      30.138  25.608  24.303  1.00  0.00    -0.048 A 
ATOM     19  C   UNL A   1      30.437  24.742  23.240  1.00  0.00     0.004 A 
ATOM     20  C   UNL A   1      30.317  25.160  25.617  1.00  0.00     0.043 A 
ATOM     21  C   UNL A   1      31.027  23.497  23.483  1.00  0.00     0.017 A 
ATOM     22  C   UNL A   1      30.936  23.937  25.855  1.00  0.00     0.136 A 
ATOM     23  F   UNL A   1      31.176  23.589  27.128  1.00  0.00    -0.206 F 
ENDBRANCH  13  16
ENDBRANCH   8  12
ENDBRANCH   4   7
ENDBRANCH   2   3
ENDBRANCH   1   2
BRANCH   1  24
ATOM     24  C   UNL A   1      41.779  22.938  27.356  1.00  0.00     0.118 C 
BRANCH  24  25
ATOM     25  N   UNL A   1      41.869  23.802  26.189  1.00  0.00    -0.352 N 
ATOM     26  C   UNL A   1      41.725  25.166  26.078  1.00  0.00     0.251 C 
ATOM     27  H   UNL A   1      42.066  23.337  25.343  1.00  0.00     0.163 HD
ATOM     28  O   UNL A   1      41.675  25.677  24.964  1.00  0.00    -0.269 OA
BRANCH  26  29
ATOM     29  C   UNL A   1      41.601  26.011  27.288  1.00  0.00     0.039 A 
ATOM     30  C   UNL A   1      42.600  26.952  27.560  1.00  0.00     0.014 A 
ATOM     31  C   UNL A   1      40.522  25.872  28.164  1.00  0.00     0.014 A 
ATOM     32  C   UNL A   1      42.476  27.799  28.665  1.00  0.00     0.010 A 
ATOM     33  C   UNL A   1      40.357  26.773  29.213  1.00  0.00     0.010 A 
ATOM     34  C   UNL A   1      41.332  27.746  29.478  1.00  0.00    -0.014 A 
BRANCH  34  35
ATOM     35  C   UNL A   1      41.135  28.694  30.606  1.00  0.00     0.031 A 
ATOM     36  C   UNL A   1      41.990  28.589  31.842  1.00  0.00     0.074 A 
ATOM     37  C   UNL A   1      40.142  29.604  30.548  1.00  0.00     0.049 A 
ATOM     38  N   UNL A   1      41.915  29.267  32.958  1.00  0.00    -0.248 NA
ATOM     39  C   UNL A   1      43.050  27.568  31.833  1.00  0.00     0.031 C 
ATOM     40  C   UNL A   1      39.220  29.782  29.424  1.00  0.00     0.029 A 
ATOM     41  N   UNL A   1      39.732  30.545  31.461  1.00  0.00    -0.354 N 
ATOM     42  C   UNL A   1      42.901  28.744  33.788  1.00  0.00     0.074 A 
ATOM     43  C   UNL A   1      43.526  27.657  33.066  1.00  0.00     0.031 C 
ATOM     44  C   UNL A   1      38.374  30.785  29.702  1.00  0.00     0.029 A 
ATOM     45  C   UNL A   1      38.656  31.294  31.040  1.00  0.00     0.049 A 
ATOM     46  H   UNL A   1      40.167  30.672  32.335  1.00  0.00     0.167 HD
ATOM     47  C   UNL A   1      43.265  29.146  35.029  1.00  0.00     0.037 A 
ATOM     48  C   UNL A   1      37.969  32.270  31.664  1.00  0.00     0.037 A 
ATOM     49  C   UNL A   1      42.655  30.245  35.731  1.00  0.00     0.049 A 
ATOM     50  C   UNL A   1      38.384  32.688  33.050  1.00  0.00     0.074 A 
ATOM     51  C   UNL A   1      42.996  30.772  36.965  1.00  0.00     0.029 A 
ATOM     52  N   UNL A   1      41.575  30.983  35.267  1.00  0.00    -0.354 N 
ATOM     53  N   UNL A   1      39.361  32.226  33.793  1.00  0.00    -0.248 NA
ATOM     54  C   UNL A   1      37.605  33.762  33.682  1.00  0.00     0.031 C 
ATOM     55  C   UNL A   1      42.086  31.788  37.272  1.00  0.00     0.029 A 
ATOM     56  C   UNL A   1      41.218  31.941  36.203  1.00  0.00     0.049 A 
ATOM     57  H   UNL A   1      41.129  30.846  34.400  1.00  0.00     0.167 HD
ATOM     58  C   UNL A   1      39.337  32.977  34.963  1.00  0.00     0.074 A 
ATOM     59  C   UNL A   1      38.253  33.927  34.826  1.00  0.00     0.031 C 
ATOM     60  C   UNL A   1      40.143  32.889  36.050  1.00  0.00     0.037 A 
BRANCH  47  61
ATOM     61  C   UNL A   1      44.373  28.390  35.715  1.00  0.00     0.058 A 
ATOM     62  C   UNL A   1      44.114  27.296  36.556  1.00  0.00     0.135 A 
ATOM     63  C   UNL A   1      45.716  28.741  35.495  1.00  0.00     0.135 A 
ATOM     64  F   UNL A   1      42.850  26.924  36.813  1.00  0.00    -0.206 F 
ATOM     65  C   UNL A   1      45.143  26.597  37.179  1.00  0.00     0.059 A 
ATOM     66  C   UNL A   1      46.762  28.034  36.082  1.00  0.00     0.059 A 
ATOM     67  F   UNL A   1      46.023  29.777  34.700  1.00  0.00    -0.206 F 
ATOM     68  C   UNL A   1      46.464  26.974  36.936  1.00  0.00     0.060 A 
BRANCH  68  69
ATOM     69  S   UNL A   1      47.786  26.052  37.748  1.00  0.00     0.124 S 
ATOM     70  O   UNL A   1      47.109  25.566  38.946  1.00  0.00    -0.237 OA
ATOM     71  O   UNL A   1      48.115  25.038  36.751  1.00  0.00    -0.237 OA
ATOM     72  O   UNL A   1      48.816  27.061  37.975  1.00  0.00    -0.744 OA
ENDBRANCH  68  69
ENDBRANCH  47  61
BRANCH  48  73
ATOM     73  C   UNL A   1      36.831  32.938  30.975  1.00  0.00     0.058 A 
ATOM     74  C   UNL A   1      35.504  32.632  31.315  1.00  0.00     0.135 A 
ATOM     75  C   UNL A   1      37.043  33.900  29.976  1.00  0.00     0.135 A 
ATOM     76  F   UNL A   1      35.249  31.714  32.260  1.00  0.00    -0.206 F 
ATOM     77  C   UNL A   1      34.428  33.241  30.677  1.00  0.00     0.059 A 
ATOM     78  C   UNL A   1      35.983  34.543  29.343  1.00  0.00     0.059 A 
ATOM     79  F   UNL A   1      38.292  34.243  29.624  1.00  0.00    -0.206 F 
ATOM     80  C   UNL A   1      34.679  34.199  29.695  1.00  0.00     0.060 A 
BRANCH  80  81
ATOM     81  S   UNL A   1      33.274  35.020  28.909  1.00  0.00     0.124 S 
ATOM     82  O   UNL A   1      32.810  33.991  27.987  1.00  0.00    -0.237 OA
ATOM     83  O   UNL A   1      32.407  35.296  30.050  1.00  0.00    -0.237 OA
ATOM     84  O   UNL A   1      33.878  36.198  28.291  1.00  0.00    -0.744 OA
ENDBRANCH  80  81
ENDBRANCH  48  73
BRANCH  60  85
ATOM     85  C   UNL A   1      39.921  33.876  37.165  1.00  0.00     0.058 A 
ATOM     86  C   UNL A   1      40.518  35.146  37.163  1.00  0.00     0.135 A 
ATOM     87  C   UNL A   1      39.046  33.565  38.220  1.00  0.00     0.135 A 
ATOM     88  F   UNL A   1      41.368  35.492  36.184  1.00  0.00    -0.206 F 
ATOM     89  C   UNL A   1      40.273  36.065  38.179  1.00  0.00     0.059 A 
ATOM     90  C   UNL A   1      38.763  34.480  39.228  1.00  0.00     0.059 A 
ATOM     91  F   UNL A   1      38.440  32.368  38.265  1.00  0.00    -0.206 F 
ATOM     92  C   UNL A   1      39.389  35.724  39.205  1.00  0.00     0.060 A 
BRANCH  92  93
ATOM     93  S   UNL A   1      39.050  36.941  40.495  1.00  0.00     0.124 S 
ATOM     94  O   UNL A   1      38.152  36.198  41.372  1.00  0.00    -0.237 OA
ATOM     95  O   UNL A   1      40.382  37.207  41.029  1.00  0.00    -0.237 OA
ATOM     96  O   UNL A   1      38.441  38.049  39.766  1.00  0.00    -0.744 OA
ENDBRANCH  92  93
ENDBRANCH  60  85
ENDBRANCH  34  35
ENDBRANCH  26  29
ENDBRANCH  24  25
ENDBRANCH   1  24
TORSDOF 15
ENDMDL
