MODEL 1
REMARK VINA RESULT:     -10.0      0.000      0.000
REMARK SMILES Cc1cc(/C=C/C(=O)NCCCNC(=O)c2ccc(-c3c4nc(c(-c5c(F)cc(S(=O)(=O)[O-])cc5F)c5ccc([nH]5)c(-c5c(F)cc(S(=O)(=O)[O-])cc5F)c5nc(c(-c6c(F)cc(S(=O)(=O)[O-])cc6F)c6ccc3[nH]6)C=C5)C=C4)cc2)ccc1O
REMARK SMILES IDX 11 1 10 2 9 3 7 4 8 5 6 7 5 8 4 9 1 10 2 11 3 12 84 13 83 14
REMARK SMILES IDX 82 15 85 16 12 18 13 19 14 20 15 22 16 23 17 24 81 25 18 26
REMARK SMILES IDX 80 27 19 28 20 29 21 30 74 31 22 32 79 33 73 34 75 35 23 36
REMARK SMILES IDX 78 37 72 38 71 39 24 41 58 42 37 43 57 44 38 45 41 46 56 47
REMARK SMILES IDX 76 48 39 49 40 50 55 52 77 53 42 54 25 55 26 56 35 57 27 58
REMARK SMILES IDX 28 59 34 60 36 61 29 62 30 63 31 64 32 65 33 66 59 67 60 68
REMARK SMILES IDX 69 69 61 70 62 71 68 72 70 73 63 74 64 75 65 76 66 77 67 78
REMARK SMILES IDX 43 79 44 80 53 81 45 82 46 83 52 84 54 85 47 86 48 87 49 88
REMARK SMILES IDX 50 89 51 90
REMARK H PARENT 9 6 85 17 13 21 75 40 41 51
REMARK Flexibility Score: inf
ROOT
ATOM      1  C   UNL A   1      33.574  33.682  28.130  1.00  0.00     0.042 C 
ENDROOT
BRANCH   1   2
ATOM      2  C   UNL A   1      33.929  34.958  28.890  1.00  0.00     0.118 C 
BRANCH   2   3
ATOM      3  N   UNL A   1      33.148  35.091  30.108  1.00  0.00    -0.352 N 
ATOM      4  C   UNL A   1      33.472  34.830  31.401  1.00  0.00     0.244 C 
ATOM      5  O   UNL A   1      32.690  35.139  32.299  1.00  0.00    -0.270 OA
ATOM      6  H   UNL A   1      32.232  35.425  29.973  1.00  0.00     0.163 HD
BRANCH   4   7
ATOM      7  C   UNL A   1      34.793  34.270  31.760  1.00  0.00     0.072 C 
ATOM      8  C   UNL A   1      34.994  33.027  32.221  1.00  0.00     0.014 C 
BRANCH   8   9
ATOM      9  C   UNL A   1      36.315  32.494  32.581  1.00  0.00    -0.025 A 
ATOM     10  C   UNL A   1      39.801  33.926  33.167  1.00  0.00     0.048 C 
ATOM     11  C   UNL A   1      38.685  32.932  33.025  1.00  0.00    -0.009 A 
ATOM     12  C   UNL A   1      37.390  33.386  32.719  1.00  0.00     0.015 A 
ATOM     13  C   UNL A   1      38.887  31.555  33.171  1.00  0.00     0.118 A 
ATOM     14  C   UNL A   1      37.830  30.659  33.037  1.00  0.00     0.047 A 
ATOM     15  C   UNL A   1      36.549  31.124  32.737  1.00  0.00     0.012 A 
BRANCH  13  16
ATOM     16  O   UNL A   1      40.110  31.010  33.439  1.00  0.00    -0.508 OA
ATOM     17  H   UNL A   1      40.587  30.573  32.761  1.00  0.00     0.293 HD
ENDBRANCH  13  16
ENDBRANCH   8   9
ENDBRANCH   4   7
ENDBRANCH   2   3
ENDBRANCH   1   2
BRANCH   1  18
ATOM     18  C   UNL A   1      34.463  32.494  28.488  1.00  0.00     0.118 C 
BRANCH  18  19
ATOM     19  N   UNL A   1      33.841  31.221  28.148  1.00  0.00    -0.352 N 
ATOM     20  C   UNL A   1      34.412  29.999  27.890  1.00  0.00     0.251 C 
ATOM     21  H   UNL A   1      32.858  31.241  28.095  1.00  0.00     0.163 HD
ATOM     22  O   UNL A   1      33.725  29.107  27.402  1.00  0.00    -0.269 OA
BRANCH  20  23
ATOM     23  C   UNL A   1      35.842  29.756  28.185  1.00  0.00     0.039 A 
ATOM     24  C   UNL A   1      36.202  29.318  29.464  1.00  0.00     0.014 A 
ATOM     25  C   UNL A   1      36.828  29.998  27.226  1.00  0.00     0.014 A 
ATOM     26  C   UNL A   1      37.544  29.070  29.761  1.00  0.00     0.010 A 
ATOM     27  C   UNL A   1      38.157  29.685  27.502  1.00  0.00     0.010 A 
ATOM     28  C   UNL A   1      38.531  29.221  28.773  1.00  0.00    -0.014 A 
BRANCH  28  29
ATOM     29  C   UNL A   1      39.955  28.901  29.045  1.00  0.00     0.031 A 
ATOM     30  C   UNL A   1      40.874  29.956  29.601  1.00  0.00     0.074 A 
ATOM     31  C   UNL A   1      40.438  27.686  28.720  1.00  0.00     0.049 A 
ATOM     32  N   UNL A   1      42.165  29.901  29.810  1.00  0.00    -0.248 NA
ATOM     33  C   UNL A   1      40.266  31.252  29.944  1.00  0.00     0.031 C 
ATOM     34  C   UNL A   1      39.655  26.595  28.133  1.00  0.00     0.029 A 
ATOM     35  N   UNL A   1      41.705  27.168  28.817  1.00  0.00    -0.354 N 
ATOM     36  C   UNL A   1      42.526  31.156  30.287  1.00  0.00     0.074 A 
ATOM     37  C   UNL A   1      41.326  31.966  30.294  1.00  0.00     0.031 C 
ATOM     38  C   UNL A   1      40.456  25.534  27.938  1.00  0.00     0.029 A 
ATOM     39  C   UNL A   1      41.813  25.880  28.346  1.00  0.00     0.049 A 
ATOM     40  H   UNL A   1      42.465  27.669  29.191  1.00  0.00     0.167 HD
ATOM     41  C   UNL A   1      43.742  31.588  30.699  1.00  0.00     0.037 A 
ATOM     42  C   UNL A   1      42.888  25.074  28.240  1.00  0.00     0.037 A 
ATOM     43  C   UNL A   1      44.925  30.766  30.714  1.00  0.00     0.049 A 
ATOM     44  C   UNL A   1      44.227  25.574  28.710  1.00  0.00     0.074 A 
ATOM     45  C   UNL A   1      46.192  31.091  31.166  1.00  0.00     0.029 A 
ATOM     46  N   UNL A   1      44.987  29.458  30.257  1.00  0.00    -0.354 N 
ATOM     47  N   UNL A   1      44.539  26.745  29.209  1.00  0.00    -0.248 NA
ATOM     48  C   UNL A   1      45.358  24.642  28.606  1.00  0.00     0.031 C 
ATOM     49  C   UNL A   1      47.030  29.993  30.946  1.00  0.00     0.029 A 
ATOM     50  C   UNL A   1      46.274  28.967  30.401  1.00  0.00     0.049 A 
ATOM     51  H   UNL A   1      44.229  28.953  29.886  1.00  0.00     0.167 HD
ATOM     52  C   UNL A   1      45.896  26.683  29.508  1.00  0.00     0.074 A 
ATOM     53  C   UNL A   1      46.342  25.354  29.141  1.00  0.00     0.031 C 
ATOM     54  C   UNL A   1      46.698  27.636  30.040  1.00  0.00     0.037 A 
BRANCH  41  55
ATOM     55  C   UNL A   1      43.855  33.012  31.172  1.00  0.00     0.058 A 
ATOM     56  C   UNL A   1      44.204  34.054  30.298  1.00  0.00     0.135 A 
ATOM     57  C   UNL A   1      43.576  33.347  32.507  1.00  0.00     0.135 A 
ATOM     58  F   UNL A   1      44.494  33.791  29.013  1.00  0.00    -0.206 F 
ATOM     59  C   UNL A   1      44.305  35.370  30.735  1.00  0.00     0.059 A 
ATOM     60  C   UNL A   1      43.644  34.661  32.961  1.00  0.00     0.059 A 
ATOM     61  F   UNL A   1      43.236  32.392  33.387  1.00  0.00    -0.206 F 
ATOM     62  C   UNL A   1      44.024  35.664  32.071  1.00  0.00     0.060 A 
BRANCH  62  63
ATOM     63  S   UNL A   1      44.158  37.378  32.623  1.00  0.00     0.124 S 
ATOM     64  O   UNL A   1      43.993  38.102  31.366  1.00  0.00    -0.237 OA
ATOM     65  O   UNL A   1      43.051  37.489  33.568  1.00  0.00    -0.237 OA
ATOM     66  O   UNL A   1      45.491  37.441  33.215  1.00  0.00    -0.744 OA
ENDBRANCH  62  63
ENDBRANCH  41  55
BRANCH  42  67
ATOM     67  C   UNL A   1      42.734  23.702  27.686  1.00  0.00     0.058 A 
ATOM     68  C   UNL A   1      42.473  22.611  28.527  1.00  0.00     0.135 A 
ATOM     69  C   UNL A   1      42.825  23.458  26.307  1.00  0.00     0.135 A 
ATOM     70  F   UNL A   1      42.382  22.794  29.853  1.00  0.00    -0.206 F 
ATOM     71  C   UNL A   1      42.320  21.323  28.024  1.00  0.00     0.059 A 
ATOM     72  C   UNL A   1      42.652  22.183  25.777  1.00  0.00     0.059 A 
ATOM     73  F   UNL A   1      43.055  24.472  25.458  1.00  0.00    -0.206 F 
ATOM     74  C   UNL A   1      42.409  21.119  26.646  1.00  0.00     0.060 A 
BRANCH  74  75
ATOM     75  S   UNL A   1      42.156  19.453  25.998  1.00  0.00     0.124 S 
ATOM     76  O   UNL A   1      42.976  19.478  24.793  1.00  0.00    -0.237 OA
ATOM     77  O   UNL A   1      42.652  18.620  27.090  1.00  0.00    -0.237 OA
ATOM     78  O   UNL A   1      40.713  19.393  25.782  1.00  0.00    -0.744 OA
ENDBRANCH  74  75
ENDBRANCH  42  67
BRANCH  54  79
ATOM     79  C   UNL A   1      48.134  27.270  30.297  1.00  0.00     0.058 A 
ATOM     80  C   UNL A   1      49.133  27.477  29.334  1.00  0.00     0.135 A 
ATOM     81  C   UNL A   1      48.521  26.757  31.545  1.00  0.00     0.135 A 
ATOM     82  F   UNL A   1      48.815  27.957  28.122  1.00  0.00    -0.206 F 
ATOM     83  C   UNL A   1      50.465  27.170  29.593  1.00  0.00     0.059 A 
ATOM     84  C   UNL A   1      49.851  26.469  31.835  1.00  0.00     0.059 A 
ATOM     85  F   UNL A   1      47.605  26.549  32.505  1.00  0.00    -0.206 F 
ATOM     86  C   UNL A   1      50.815  26.668  30.848  1.00  0.00     0.060 A 
BRANCH  86  87
ATOM     87  S   UNL A   1      52.551  26.311  31.185  1.00  0.00     0.124 S 
ATOM     88  O   UNL A   1      52.930  27.449  32.018  1.00  0.00    -0.237 OA
ATOM     89  O   UNL A   1      52.480  25.023  31.866  1.00  0.00    -0.237 OA
ATOM     90  O   UNL A   1      53.155  26.278  29.856  1.00  0.00    -0.744 OA
ENDBRANCH  86  87
ENDBRANCH  54  79
ENDBRANCH  28  29
ENDBRANCH  20  23
ENDBRANCH  18  19
ENDBRANCH   1  18
TORSDOF 15
ENDMDL
MODEL 2
REMARK VINA RESULT:     -10.0      5.603     12.294
REMARK SMILES Cc1cc(/C=C/C(=O)NCCCNC(=O)c2ccc(-c3c4nc(c(-c5c(F)cc(S(=O)(=O)[O-])cc5F)c5ccc([nH]5)c(-c5c(F)cc(S(=O)(=O)[O-])cc5F)c5nc(c(-c6c(F)cc(S(=O)(=O)[O-])cc6F)c6ccc3[nH]6)C=C5)C=C4)cc2)ccc1O
REMARK SMILES IDX 11 1 10 2 9 3 7 4 8 5 6 7 5 8 4 9 1 10 2 11 3 12 84 13 83 14
REMARK SMILES IDX 82 15 85 16 12 18 13 19 14 20 15 22 16 23 17 24 81 25 18 26
REMARK SMILES IDX 80 27 19 28 20 29 21 30 74 31 22 32 79 33 73 34 75 35 23 36
REMARK SMILES IDX 78 37 72 38 71 39 24 41 58 42 37 43 57 44 38 45 41 46 56 47
REMARK SMILES IDX 76 48 39 49 40 50 55 52 77 53 42 54 25 55 26 56 35 57 27 58
REMARK SMILES IDX 28 59 34 60 36 61 29 62 30 63 31 64 32 65 33 66 59 67 60 68
REMARK SMILES IDX 69 69 61 70 62 71 68 72 70 73 63 74 64 75 65 76 66 77 67 78
REMARK SMILES IDX 43 79 44 80 53 81 45 82 46 83 52 84 54 85 47 86 48 87 49 88
REMARK SMILES IDX 50 89 51 90
REMARK H PARENT 9 6 85 17 13 21 75 40 41 51
REMARK Flexibility Score: inf
ROOT
ATOM      1  C   UNL A   1      39.567  21.764  26.531  1.00  0.00     0.042 C 
ENDROOT
BRANCH   1   2
ATOM      2  C   UNL A   1      38.282  21.798  25.707  1.00  0.00     0.118 C 
BRANCH   2   3
ATOM      3  N   UNL A   1      37.426  22.906  26.095  1.00  0.00    -0.352 N 
ATOM      4  C   UNL A   1      36.111  23.139  25.847  1.00  0.00     0.244 C 
ATOM      5  O   UNL A   1      35.549  24.090  26.387  1.00  0.00    -0.270 OA
ATOM      6  H   UNL A   1      37.874  23.604  26.625  1.00  0.00     0.163 HD
BRANCH   4   7
ATOM      7  C   UNL A   1      35.314  22.209  25.018  1.00  0.00     0.072 C 
ATOM      8  C   UNL A   1      34.735  21.088  25.473  1.00  0.00     0.014 C 
BRANCH   8   9
ATOM      9  C   UNL A   1      33.955  20.171  24.629  1.00  0.00    -0.025 A 
ATOM     10  C   UNL A   1      34.045  16.454  23.779  1.00  0.00     0.048 C 
ATOM     11  C   UNL A   1      33.628  17.896  23.778  1.00  0.00    -0.009 A 
ATOM     12  C   UNL A   1      34.313  18.814  24.594  1.00  0.00     0.015 A 
ATOM     13  C   UNL A   1      32.585  18.373  22.977  1.00  0.00     0.118 A 
ATOM     14  C   UNL A   1      32.220  19.717  23.002  1.00  0.00     0.047 A 
ATOM     15  C   UNL A   1      32.906  20.615  23.819  1.00  0.00     0.012 A 
BRANCH  13  16
ATOM     16  O   UNL A   1      31.877  17.571  22.128  1.00  0.00    -0.508 OA
ATOM     17  H   UNL A   1      31.183  17.931  21.612  1.00  0.00     0.293 HD
ENDBRANCH  13  16
ENDBRANCH   8   9
ENDBRANCH   4   7
ENDBRANCH   2   3
ENDBRANCH   1   2
BRANCH   1  18
ATOM     18  C   UNL A   1      40.037  23.145  26.982  1.00  0.00     0.118 C 
BRANCH  18  19
ATOM     19  N   UNL A   1      40.955  23.750  26.026  1.00  0.00    -0.352 N 
ATOM     20  C   UNL A   1      41.491  25.014  25.994  1.00  0.00     0.251 C 
ATOM     21  H   UNL A   1      41.233  23.161  25.287  1.00  0.00     0.163 HD
ATOM     22  O   UNL A   1      42.065  25.397  24.980  1.00  0.00    -0.269 OA
BRANCH  20  23
ATOM     23  C   UNL A   1      41.374  25.914  27.164  1.00  0.00     0.039 A 
ATOM     24  C   UNL A   1      42.382  26.856  27.394  1.00  0.00     0.014 A 
ATOM     25  C   UNL A   1      40.303  25.805  28.054  1.00  0.00     0.014 A 
ATOM     26  C   UNL A   1      42.285  27.724  28.485  1.00  0.00     0.010 A 
ATOM     27  C   UNL A   1      40.174  26.715  29.100  1.00  0.00     0.010 A 
ATOM     28  C   UNL A   1      41.165  27.682  29.330  1.00  0.00    -0.014 A 
BRANCH  28  29
ATOM     29  C   UNL A   1      41.007  28.637  30.457  1.00  0.00     0.031 A 
ATOM     30  C   UNL A   1      41.870  28.507  31.684  1.00  0.00     0.074 A 
ATOM     31  C   UNL A   1      40.038  29.571  30.406  1.00  0.00     0.049 A 
ATOM     32  N   UNL A   1      41.815  29.176  32.807  1.00  0.00    -0.248 NA
ATOM     33  C   UNL A   1      42.914  27.471  31.653  1.00  0.00     0.031 C 
ATOM     34  C   UNL A   1      39.111  29.768  29.289  1.00  0.00     0.029 A 
ATOM     35  N   UNL A   1      39.658  30.521  31.322  1.00  0.00    -0.354 N 
ATOM     36  C   UNL A   1      42.799  28.630  33.622  1.00  0.00     0.074 A 
ATOM     37  C   UNL A   1      43.406  27.544  32.882  1.00  0.00     0.031 C 
ATOM     38  C   UNL A   1      38.280  30.783  29.579  1.00  0.00     0.029 A 
ATOM     39  C   UNL A   1      38.587  31.282  30.915  1.00  0.00     0.049 A 
ATOM     40  H   UNL A   1      40.109  30.645  32.187  1.00  0.00     0.167 HD
ATOM     41  C   UNL A   1      43.176  29.010  34.867  1.00  0.00     0.037 A 
ATOM     42  C   UNL A   1      37.918  32.263  31.553  1.00  0.00     0.037 A 
ATOM     43  C   UNL A   1      42.585  30.110  35.585  1.00  0.00     0.049 A 
ATOM     44  C   UNL A   1      38.359  32.672  32.932  1.00  0.00     0.074 A 
ATOM     45  C   UNL A   1      42.932  30.612  36.827  1.00  0.00     0.029 A 
ATOM     46  N   UNL A   1      41.523  30.876  35.127  1.00  0.00    -0.354 N 
ATOM     47  N   UNL A   1      39.328  32.181  33.666  1.00  0.00    -0.248 NA
ATOM     48  C   UNL A   1      37.619  33.772  33.567  1.00  0.00     0.031 C 
ATOM     49  C   UNL A   1      42.056  31.656  37.137  1.00  0.00     0.029 A 
ATOM     50  C   UNL A   1      41.192  31.837  36.068  1.00  0.00     0.049 A 
ATOM     51  H   UNL A   1      41.072  30.755  34.262  1.00  0.00     0.167 HD
ATOM     52  C   UNL A   1      39.334  32.930  34.838  1.00  0.00     0.074 A 
ATOM     53  C   UNL A   1      38.278  33.913  34.710  1.00  0.00     0.031 C 
ATOM     54  C   UNL A   1      40.144  32.816  35.920  1.00  0.00     0.037 A 
BRANCH  41  55
ATOM     55  C   UNL A   1      44.283  28.235  35.530  1.00  0.00     0.058 A 
ATOM     56  C   UNL A   1      44.018  27.122  36.343  1.00  0.00     0.135 A 
ATOM     57  C   UNL A   1      45.627  28.588  35.323  1.00  0.00     0.135 A 
ATOM     58  F   UNL A   1      42.751  26.747  36.587  1.00  0.00    -0.206 F 
ATOM     59  C   UNL A   1      45.041  26.405  36.953  1.00  0.00     0.059 A 
ATOM     60  C   UNL A   1      46.669  27.868  35.901  1.00  0.00     0.059 A 
ATOM     61  F   UNL A   1      45.938  29.643  34.554  1.00  0.00    -0.206 F 
ATOM     62  C   UNL A   1      46.365  26.786  36.727  1.00  0.00     0.060 A 
BRANCH  62  63
ATOM     63  S   UNL A   1      47.683  25.845  37.525  1.00  0.00     0.124 S 
ATOM     64  O   UNL A   1      47.106  24.504  37.553  1.00  0.00    -0.237 OA
ATOM     65  O   UNL A   1      48.801  26.033  36.607  1.00  0.00    -0.237 OA
ATOM     66  O   UNL A   1      47.827  26.495  38.824  1.00  0.00    -0.744 OA
ENDBRANCH  62  63
ENDBRANCH  41  55
BRANCH  42  67
ATOM     67  C   UNL A   1      36.776  32.940  30.882  1.00  0.00     0.058 A 
ATOM     68  C   UNL A   1      35.453  32.650  31.243  1.00  0.00     0.135 A 
ATOM     69  C   UNL A   1      36.985  33.902  29.881  1.00  0.00     0.135 A 
ATOM     70  F   UNL A   1      35.203  31.733  32.191  1.00  0.00    -0.206 F 
ATOM     71  C   UNL A   1      34.374  33.277  30.629  1.00  0.00     0.059 A 
ATOM     72  C   UNL A   1      35.923  34.562  29.269  1.00  0.00     0.059 A 
ATOM     73  F   UNL A   1      38.233  34.230  29.512  1.00  0.00    -0.206 F 
ATOM     74  C   UNL A   1      34.620  34.235  29.644  1.00  0.00     0.060 A 
BRANCH  74  75
ATOM     75  S   UNL A   1      33.215  35.085  28.891  1.00  0.00     0.124 S 
ATOM     76  O   UNL A   1      32.363  35.327  30.050  1.00  0.00    -0.237 OA
ATOM     77  O   UNL A   1      33.847  36.264  28.306  1.00  0.00    -0.237 OA
ATOM     78  O   UNL A   1      32.713  34.111  27.927  1.00  0.00    -0.744 OA
ENDBRANCH  74  75
ENDBRANCH  42  67
BRANCH  54  79
ATOM     79  C   UNL A   1      39.948  33.802  37.038  1.00  0.00     0.058 A 
ATOM     80  C   UNL A   1      40.570  35.059  37.033  1.00  0.00     0.135 A 
ATOM     81  C   UNL A   1      39.080  33.503  38.101  1.00  0.00     0.135 A 
ATOM     82  F   UNL A   1      41.415  35.391  36.045  1.00  0.00    -0.206 F 
ATOM     83  C   UNL A   1      40.354  35.980  38.054  1.00  0.00     0.059 A 
ATOM     84  C   UNL A   1      38.828  34.419  39.117  1.00  0.00     0.059 A 
ATOM     85  F   UNL A   1      38.451  32.317  38.148  1.00  0.00    -0.206 F 
ATOM     86  C   UNL A   1      39.478  35.651  39.091  1.00  0.00     0.060 A 
BRANCH  86  87
ATOM     87  S   UNL A   1      39.176  36.869  40.388  1.00  0.00     0.124 S 
ATOM     88  O   UNL A   1      38.497  37.927  39.645  1.00  0.00    -0.237 OA
ATOM     89  O   UNL A   1      38.348  36.124  41.330  1.00  0.00    -0.237 OA
ATOM     90  O   UNL A   1      40.517  37.198  40.864  1.00  0.00    -0.744 OA
ENDBRANCH  86  87
ENDBRANCH  54  79
ENDBRANCH  28  29
ENDBRANCH  20  23
ENDBRANCH  18  19
ENDBRANCH   1  18
TORSDOF 15
ENDMDL
MODEL 3
REMARK VINA RESULT:      -9.9      0.765      1.983
REMARK SMILES Cc1cc(/C=C/C(=O)NCCCNC(=O)c2ccc(-c3c4nc(c(-c5c(F)cc(S(=O)(=O)[O-])cc5F)c5ccc([nH]5)c(-c5c(F)cc(S(=O)(=O)[O-])cc5F)c5nc(c(-c6c(F)cc(S(=O)(=O)[O-])cc6F)c6ccc3[nH]6)C=C5)C=C4)cc2)ccc1O
REMARK SMILES IDX 11 1 10 2 9 3 7 4 8 5 6 7 5 8 4 9 1 10 2 11 3 12 84 13 83 14
REMARK SMILES IDX 82 15 85 16 12 18 13 19 14 20 15 22 16 23 17 24 81 25 18 26
REMARK SMILES IDX 80 27 19 28 20 29 21 30 74 31 22 32 79 33 73 34 75 35 23 36
REMARK SMILES IDX 78 37 72 38 71 39 24 41 58 42 37 43 57 44 38 45 41 46 56 47
REMARK SMILES IDX 76 48 39 49 40 50 55 52 77 53 42 54 25 55 26 56 35 57 27 58
REMARK SMILES IDX 28 59 34 60 36 61 29 62 30 63 31 64 32 65 33 66 59 67 60 68
REMARK SMILES IDX 69 69 61 70 62 71 68 72 70 73 63 74 64 75 65 76 66 77 67 78
REMARK SMILES IDX 43 79 44 80 53 81 45 82 46 83 52 84 54 85 47 86 48 87 49 88
REMARK SMILES IDX 50 89 51 90
REMARK H PARENT 9 6 85 17 13 21 75 40 41 51
REMARK Flexibility Score: inf
ROOT
ATOM      1  C   UNL A   1      33.434  33.756  28.138  1.00  0.00     0.042 C 
ENDROOT
BRANCH   1   2
ATOM      2  C   UNL A   1      33.999  35.088  28.626  1.00  0.00     0.118 C 
BRANCH   2   3
ATOM      3  N   UNL A   1      33.034  35.815  29.434  1.00  0.00    -0.352 N 
ATOM      4  C   UNL A   1      32.996  36.050  30.771  1.00  0.00     0.244 C 
ATOM      5  O   UNL A   1      32.144  36.808  31.231  1.00  0.00    -0.270 OA
ATOM      6  H   UNL A   1      32.283  36.200  28.927  1.00  0.00     0.163 HD
BRANCH   4   7
ATOM      7  C   UNL A   1      34.025  35.491  31.674  1.00  0.00     0.072 C 
ATOM      8  C   UNL A   1      34.204  34.182  31.906  1.00  0.00     0.014 C 
BRANCH   8   9
ATOM      9  C   UNL A   1      35.227  33.647  32.815  1.00  0.00    -0.025 A 
ATOM     10  C   UNL A   1      37.444  30.546  32.955  1.00  0.00     0.048 C 
ATOM     11  C   UNL A   1      36.806  31.848  33.344  1.00  0.00    -0.009 A 
ATOM     12  C   UNL A   1      35.847  32.428  32.495  1.00  0.00     0.015 A 
ATOM     13  C   UNL A   1      37.117  32.506  34.539  1.00  0.00     0.118 A 
ATOM     14  C   UNL A   1      36.511  33.715  34.869  1.00  0.00     0.047 A 
ATOM     15  C   UNL A   1      35.564  34.282  34.015  1.00  0.00     0.012 A 
BRANCH  13  16
ATOM     16  O   UNL A   1      38.011  32.012  35.445  1.00  0.00    -0.508 OA
ATOM     17  H   UNL A   1      37.705  31.609  36.233  1.00  0.00     0.293 HD
ENDBRANCH  13  16
ENDBRANCH   8   9
ENDBRANCH   4   7
ENDBRANCH   2   3
ENDBRANCH   1   2
BRANCH   1  18
ATOM     18  C   UNL A   1      34.326  32.561  28.466  1.00  0.00     0.118 C 
BRANCH  18  19
ATOM     19  N   UNL A   1      33.719  31.298  28.068  1.00  0.00    -0.352 N 
ATOM     20  C   UNL A   1      34.300  30.083  27.801  1.00  0.00     0.251 C 
ATOM     21  H   UNL A   1      32.738  31.320  27.975  1.00  0.00     0.163 HD
ATOM     22  O   UNL A   1      33.634  29.204  27.262  1.00  0.00    -0.269 OA
BRANCH  20  23
ATOM     23  C   UNL A   1      35.717  29.831  28.147  1.00  0.00     0.039 A 
ATOM     24  C   UNL A   1      36.030  29.411  29.444  1.00  0.00     0.014 A 
ATOM     25  C   UNL A   1      36.737  30.048  27.218  1.00  0.00     0.014 A 
ATOM     26  C   UNL A   1      37.360  29.155  29.790  1.00  0.00     0.010 A 
ATOM     27  C   UNL A   1      38.053  29.728  27.543  1.00  0.00     0.010 A 
ATOM     28  C   UNL A   1      38.380  29.281  28.833  1.00  0.00    -0.014 A 
BRANCH  28  29
ATOM     29  C   UNL A   1      39.791  28.952  29.157  1.00  0.00     0.031 A 
ATOM     30  C   UNL A   1      40.688  29.994  29.773  1.00  0.00     0.074 A 
ATOM     31  C   UNL A   1      40.285  27.743  28.828  1.00  0.00     0.049 A 
ATOM     32  N   UNL A   1      41.968  29.931  30.034  1.00  0.00    -0.248 NA
ATOM     33  C   UNL A   1      40.068  31.283  30.117  1.00  0.00     0.031 C 
ATOM     34  C   UNL A   1      39.526  26.666  28.187  1.00  0.00     0.029 A 
ATOM     35  N   UNL A   1      41.547  27.220  28.967  1.00  0.00    -0.354 N 
ATOM     36  C   UNL A   1      42.311  31.175  30.551  1.00  0.00     0.074 A 
ATOM     37  C   UNL A   1      41.114  31.988  30.525  1.00  0.00     0.031 C 
ATOM     38  C   UNL A   1      40.333  25.608  28.004  1.00  0.00     0.029 A 
ATOM     39  C   UNL A   1      41.672  25.942  28.474  1.00  0.00     0.049 A 
ATOM     40  H   UNL A   1      42.291  27.712  29.383  1.00  0.00     0.167 HD
ATOM     41  C   UNL A   1      43.510  31.596  31.022  1.00  0.00     0.037 A 
ATOM     42  C   UNL A   1      42.750  25.136  28.397  1.00  0.00     0.037 A 
ATOM     43  C   UNL A   1      44.690  30.772  31.070  1.00  0.00     0.049 A 
ATOM     44  C   UNL A   1      44.069  25.623  28.932  1.00  0.00     0.074 A 
ATOM     45  C   UNL A   1      45.937  31.084  31.580  1.00  0.00     0.029 A 
ATOM     46  N   UNL A   1      44.769  29.473  30.589  1.00  0.00    -0.354 N 
ATOM     47  N   UNL A   1      44.361  26.783  29.468  1.00  0.00    -0.248 NA
ATOM     48  C   UNL A   1      45.202  24.690  28.857  1.00  0.00     0.031 C 
ATOM     49  C   UNL A   1      46.782  29.989  31.373  1.00  0.00     0.029 A 
ATOM     50  C   UNL A   1      46.048  28.976  30.777  1.00  0.00     0.049 A 
ATOM     51  H   UNL A   1      44.026  28.977  30.176  1.00  0.00     0.167 HD
ATOM     52  C   UNL A   1      45.704  26.711  29.821  1.00  0.00     0.074 A 
ATOM     53  C   UNL A   1      46.164  25.389  29.446  1.00  0.00     0.031 C 
ATOM     54  C   UNL A   1      46.485  27.652  30.407  1.00  0.00     0.037 A 
BRANCH  41  55
ATOM     55  C   UNL A   1      43.605  33.011  31.528  1.00  0.00     0.058 A 
ATOM     56  C   UNL A   1      43.465  33.317  32.891  1.00  0.00     0.135 A 
ATOM     57  C   UNL A   1      43.873  34.069  30.645  1.00  0.00     0.135 A 
ATOM     58  F   UNL A   1      43.193  32.346  33.779  1.00  0.00    -0.206 F 
ATOM     59  C   UNL A   1      43.556  34.624  33.358  1.00  0.00     0.059 A 
ATOM     60  C   UNL A   1      43.996  35.382  31.093  1.00  0.00     0.059 A 
ATOM     61  F   UNL A   1      44.018  33.834  29.332  1.00  0.00    -0.206 F 
ATOM     62  C   UNL A   1      43.821  35.651  32.450  1.00  0.00     0.060 A 
BRANCH  62  63
ATOM     63  S   UNL A   1      43.937  37.342  33.071  1.00  0.00     0.124 S 
ATOM     64  O   UNL A   1      43.872  38.112  31.832  1.00  0.00    -0.237 OA
ATOM     65  O   UNL A   1      42.767  37.438  33.937  1.00  0.00    -0.237 OA
ATOM     66  O   UNL A   1      45.225  37.365  33.758  1.00  0.00    -0.744 OA
ENDBRANCH  62  63
ENDBRANCH  41  55
BRANCH  42  67
ATOM     67  C   UNL A   1      42.617  23.776  27.809  1.00  0.00     0.058 A 
ATOM     68  C   UNL A   1      42.671  23.582  26.422  1.00  0.00     0.135 A 
ATOM     69  C   UNL A   1      42.453  22.643  28.622  1.00  0.00     0.135 A 
ATOM     70  F   UNL A   1      42.821  24.636  25.604  1.00  0.00    -0.206 F 
ATOM     71  C   UNL A   1      42.554  22.317  25.857  1.00  0.00     0.059 A 
ATOM     72  C   UNL A   1      42.359  21.364  28.082  1.00  0.00     0.059 A 
ATOM     73  F   UNL A   1      42.414  22.772  29.957  1.00  0.00    -0.206 F 
ATOM     74  C   UNL A   1      42.401  21.212  26.696  1.00  0.00     0.060 A 
BRANCH  74  75
ATOM     75  S   UNL A   1      42.305  19.567  25.956  1.00  0.00     0.124 S 
ATOM     76  O   UNL A   1      40.883  19.466  25.649  1.00  0.00    -0.237 OA
ATOM     77  O   UNL A   1      43.199  19.695  24.808  1.00  0.00    -0.237 OA
ATOM     78  O   UNL A   1      42.788  18.693  27.021  1.00  0.00    -0.744 OA
ENDBRANCH  74  75
ENDBRANCH  42  67
BRANCH  54  79
ATOM     79  C   UNL A   1      47.909  27.277  30.715  1.00  0.00     0.058 A 
ATOM     80  C   UNL A   1      48.271  26.692  31.936  1.00  0.00     0.135 A 
ATOM     81  C   UNL A   1      48.912  27.457  29.748  1.00  0.00     0.135 A 
ATOM     82  F   UNL A   1      47.352  26.507  32.897  1.00  0.00    -0.206 F 
ATOM     83  C   UNL A   1      49.584  26.314  32.199  1.00  0.00     0.059 A 
ATOM     84  C   UNL A   1      50.226  27.061  29.979  1.00  0.00     0.059 A 
ATOM     85  F   UNL A   1      48.616  28.004  28.558  1.00  0.00    -0.206 F 
ATOM     86  C   UNL A   1      50.555  26.501  31.212  1.00  0.00     0.060 A 
BRANCH  86  87
ATOM     87  S   UNL A   1      52.246  25.970  31.550  1.00  0.00     0.124 S 
ATOM     88  O   UNL A   1      52.043  24.586  31.968  1.00  0.00    -0.237 OA
ATOM     89  O   UNL A   1      52.896  26.152  30.256  1.00  0.00    -0.237 OA
ATOM     90  O   UNL A   1      52.686  26.885  32.599  1.00  0.00    -0.744 OA
ENDBRANCH  86  87
ENDBRANCH  54  79
ENDBRANCH  28  29
ENDBRANCH  20  23
ENDBRANCH  18  19
ENDBRANCH   1  18
TORSDOF 15
ENDMDL
