MODEL 1
REMARK VINA RESULT:     -10.4      0.000      0.000
REMARK SMILES C[NH2+][C@]1(C(=O)NCCCNC(=O)c2ccc(-c3c4nc(c(-c5c(F)cc(S(=O)(=O)[O-])cc5F)c5ccc([nH]5)c(-c5c(F)cc(S(=O)(=O)[O-])cc5F)c5nc(c(-c6c(F)cc(S(=O)(=O)[O-])cc6F)c6ccc3[nH]6)C=C5)C=C4)cc2)CCC[C@@H]1CCOC[C@@H]1CCCO1
REMARK SMILES IDX 7 1 6 2 4 3 5 4 3 6 79 7 82 8 80 9 81 10 2 11 1 12 83 15
REMARK SMILES IDX 84 16 85 17 86 18 87 19 88 20 91 21 89 22 90 23 8 24 9 25
REMARK SMILES IDX 10 26 11 27 12 29 13 30 14 31 78 32 15 33 77 34 16 35 17 36
REMARK SMILES IDX 18 37 71 38 19 39 76 40 70 41 72 42 20 43 75 44 69 45 68 46
REMARK SMILES IDX 21 48 55 49 34 50 54 51 35 52 38 53 53 54 73 55 36 56 37 57
REMARK SMILES IDX 52 59 74 60 39 61 22 62 23 63 32 64 24 65 25 66 31 67 33 68
REMARK SMILES IDX 26 69 27 70 28 71 29 72 30 73 56 74 57 75 66 76 58 77 59 78
REMARK SMILES IDX 65 79 67 80 60 81 61 82 62 83 63 84 64 85 40 86 41 87 50 88
REMARK SMILES IDX 42 89 43 90 49 91 51 92 44 93 45 94 46 95 47 96 48 97
REMARK H PARENT 6 5 2 13 2 14 10 28 72 47 38 58
REMARK Flexibility Score: inf
ROOT
ATOM      1  C   UNL A   1      32.082  26.466  26.401  1.00  0.00     0.118 C 
ENDROOT
BRANCH   1   2
ATOM      2  N   UNL A   1      30.914  26.371  25.542  1.00  0.00    -0.351 N 
ATOM      3  C   UNL A   1      30.603  26.797  24.288  1.00  0.00     0.281 C 
ATOM      4  O   UNL A   1      29.495  26.400  23.909  1.00  0.00    -0.268 OA
ATOM      5  H   UNL A   1      30.172  25.883  25.968  1.00  0.00     0.163 HD
BRANCH   3   6
ATOM      6  C   UNL A   1      31.568  27.654  23.395  1.00  0.00     0.178 C 
ATOM      7  C   UNL A   1      31.997  28.973  24.078  1.00  0.00     0.079 C 
ATOM      8  C   UNL A   1      32.944  26.946  23.199  1.00  0.00     0.063 C 
ATOM      9  C   UNL A   1      33.407  29.293  23.559  1.00  0.00     0.008 C 
ATOM     10  C   UNL A   1      33.849  28.093  22.717  1.00  0.00     0.011 C 
BRANCH   6  11
ATOM     11  N   UNL A   1      31.048  28.088  22.058  1.00  0.00    -0.336 N 
ATOM     12  C   UNL A   1      30.196  29.256  21.966  1.00  0.00     0.331 C 
ATOM     13  H   UNL A   1      31.860  28.269  21.467  1.00  0.00     0.346 HD
ATOM     14  H   UNL A   1      30.432  27.323  21.782  1.00  0.00     0.346 HD
ENDBRANCH   6  11
BRANCH   8  15
ATOM     15  C   UNL A   1      32.925  25.690  22.313  1.00  0.00     0.039 C 
BRANCH  15  16
ATOM     16  C   UNL A   1      33.327  24.385  23.020  1.00  0.00     0.161 C 
BRANCH  16  17
ATOM     17  O   UNL A   1      34.678  23.989  22.837  1.00  0.00    -0.379 OA
BRANCH  17  18
ATOM     18  C   UNL A   1      35.149  22.756  23.374  1.00  0.00     0.192 C 
BRANCH  18  19
ATOM     19  C   UNL A   1      36.625  22.662  23.813  1.00  0.00     0.144 C 
ATOM     20  C   UNL A   1      36.992  21.432  24.624  1.00  0.00     0.037 C 
ATOM     21  O   UNL A   1      37.028  23.813  24.572  1.00  0.00    -0.376 OA
ATOM     22  C   UNL A   1      38.055  21.929  25.566  1.00  0.00     0.031 C 
ATOM     23  C   UNL A   1      37.648  23.369  25.782  1.00  0.00     0.160 C 
ENDBRANCH  18  19
ENDBRANCH  17  18
ENDBRANCH  16  17
ENDBRANCH  15  16
ENDBRANCH   8  15
ENDBRANCH   3   6
ENDBRANCH   1   2
BRANCH   1  24
ATOM     24  C   UNL A   1      32.117  27.745  27.215  1.00  0.00     0.042 C 
BRANCH  24  25
ATOM     25  C   UNL A   1      33.502  28.367  27.320  1.00  0.00     0.118 C 
BRANCH  25  26
ATOM     26  N   UNL A   1      33.474  29.791  27.640  1.00  0.00    -0.352 N 
ATOM     27  C   UNL A   1      34.446  30.596  28.194  1.00  0.00     0.251 C 
ATOM     28  H   UNL A   1      32.629  30.248  27.427  1.00  0.00     0.163 HD
ATOM     29  O   UNL A   1      34.168  31.736  28.536  1.00  0.00    -0.269 OA
BRANCH  27  30
ATOM     30  C   UNL A   1      35.810  30.063  28.399  1.00  0.00     0.039 A 
ATOM     31  C   UNL A   1      36.728  30.110  27.347  1.00  0.00     0.014 A 
ATOM     32  C   UNL A   1      36.189  29.541  29.636  1.00  0.00     0.014 A 
ATOM     33  C   UNL A   1      38.051  29.718  27.570  1.00  0.00     0.010 A 
ATOM     34  C   UNL A   1      37.527  29.266  29.887  1.00  0.00     0.010 A 
ATOM     35  C   UNL A   1      38.472  29.341  28.855  1.00  0.00    -0.014 A 
BRANCH  35  36
ATOM     36  C   UNL A   1      39.887  28.998  29.149  1.00  0.00     0.031 A 
ATOM     37  C   UNL A   1      40.793  30.030  29.767  1.00  0.00     0.074 A 
ATOM     38  C   UNL A   1      40.376  27.794  28.783  1.00  0.00     0.049 A 
ATOM     39  N   UNL A   1      42.077  29.965  30.007  1.00  0.00    -0.248 NA
ATOM     40  C   UNL A   1      40.182  31.320  30.128  1.00  0.00     0.031 C 
ATOM     41  C   UNL A   1      39.612  26.733  28.123  1.00  0.00     0.029 A 
ATOM     42  N   UNL A   1      41.636  27.267  28.905  1.00  0.00    -0.354 N 
ATOM     43  C   UNL A   1      42.428  31.208  30.519  1.00  0.00     0.074 A 
ATOM     44  C   UNL A   1      41.239  32.028  30.498  1.00  0.00     0.031 C 
ATOM     45  C   UNL A   1      40.411  25.672  27.925  1.00  0.00     0.029 A 
ATOM     46  C   UNL A   1      41.753  25.991  28.401  1.00  0.00     0.049 A 
ATOM     47  H   UNL A   1      42.387  27.754  29.314  1.00  0.00     0.167 HD
ATOM     48  C   UNL A   1      43.628  31.620  30.995  1.00  0.00     0.037 A 
ATOM     49  C   UNL A   1      42.822  25.175  28.326  1.00  0.00     0.037 A 
ATOM     50  C   UNL A   1      44.797  30.784  31.049  1.00  0.00     0.049 A 
ATOM     51  C   UNL A   1      44.142  25.650  28.872  1.00  0.00     0.074 A 
ATOM     52  C   UNL A   1      46.042  31.080  31.576  1.00  0.00     0.029 A 
ATOM     53  N   UNL A   1      44.866  29.488  30.562  1.00  0.00    -0.354 N 
ATOM     54  N   UNL A   1      44.440  26.806  29.418  1.00  0.00    -0.248 NA
ATOM     55  C   UNL A   1      45.269  24.710  28.801  1.00  0.00     0.031 C 
ATOM     56  C   UNL A   1      46.877  29.979  31.362  1.00  0.00     0.029 A 
ATOM     57  C   UNL A   1      46.138  28.976  30.756  1.00  0.00     0.049 A 
ATOM     58  H   UNL A   1      44.120  29.002  30.140  1.00  0.00     0.167 HD
ATOM     59  C   UNL A   1      45.778  26.719  29.786  1.00  0.00     0.074 A 
ATOM     60  C   UNL A   1      46.229  25.395  29.407  1.00  0.00     0.031 C 
ATOM     61  C   UNL A   1      46.564  27.650  30.383  1.00  0.00     0.037 A 
BRANCH  48  62
ATOM     62  C   UNL A   1      43.729  33.034  31.501  1.00  0.00     0.058 A 
ATOM     63  C   UNL A   1      43.931  34.119  30.633  1.00  0.00     0.135 A 
ATOM     64  C   UNL A   1      43.597  33.312  32.872  1.00  0.00     0.135 A 
ATOM     65  F   UNL A   1      44.082  33.912  29.315  1.00  0.00    -0.206 F 
ATOM     66  C   UNL A   1      44.032  35.423  31.107  1.00  0.00     0.059 A 
ATOM     67  C   UNL A   1      43.661  34.612  33.364  1.00  0.00     0.059 A 
ATOM     68  F   UNL A   1      43.404  32.314  33.749  1.00  0.00    -0.206 F 
ATOM     69  C   UNL A   1      43.895  35.660  32.474  1.00  0.00     0.060 A 
BRANCH  69  70
ATOM     70  S   UNL A   1      44.022  37.359  33.071  1.00  0.00     0.124 S 
ATOM     71  O   UNL A   1      42.819  37.469  33.890  1.00  0.00    -0.237 OA
ATOM     72  O   UNL A   1      45.285  37.338  33.801  1.00  0.00    -0.237 OA
ATOM     73  O   UNL A   1      44.023  38.151  31.845  1.00  0.00    -0.744 OA
ENDBRANCH  69  70
ENDBRANCH  48  62
BRANCH  49  74
ATOM     74  C   UNL A   1      42.682  23.815  27.738  1.00  0.00     0.058 A 
ATOM     75  C   UNL A   1      42.795  23.613  26.354  1.00  0.00     0.135 A 
ATOM     76  C   UNL A   1      42.446  22.690  28.544  1.00  0.00     0.135 A 
ATOM     77  F   UNL A   1      43.015  24.656  25.541  1.00  0.00    -0.206 F 
ATOM     78  C   UNL A   1      42.660  22.349  25.788  1.00  0.00     0.059 A 
ATOM     79  C   UNL A   1      42.335  21.413  28.004  1.00  0.00     0.059 A 
ATOM     80  F   UNL A   1      42.349  22.826  29.876  1.00  0.00    -0.206 F 
ATOM     81  C   UNL A   1      42.433  21.254  26.621  1.00  0.00     0.060 A 
BRANCH  81  82
ATOM     82  S   UNL A   1      42.308  19.612  25.880  1.00  0.00     0.124 S 
ATOM     83  O   UNL A   1      40.902  19.571  25.492  1.00  0.00    -0.237 OA
ATOM     84  O   UNL A   1      43.270  19.696  24.787  1.00  0.00    -0.237 OA
ATOM     85  O   UNL A   1      42.688  18.721  26.972  1.00  0.00    -0.744 OA
ENDBRANCH  81  82
ENDBRANCH  49  74
BRANCH  61  86
ATOM     86  C   UNL A   1      47.978  27.258  30.709  1.00  0.00     0.058 A 
ATOM     87  C   UNL A   1      48.305  26.582  31.895  1.00  0.00     0.135 A 
ATOM     88  C   UNL A   1      49.012  27.516  29.795  1.00  0.00     0.135 A 
ATOM     89  F   UNL A   1      47.355  26.317  32.806  1.00  0.00    -0.206 F 
ATOM     90  C   UNL A   1      49.611  26.195  32.173  1.00  0.00     0.059 A 
ATOM     91  C   UNL A   1      50.320  27.110  30.037  1.00  0.00     0.059 A 
ATOM     92  F   UNL A   1      48.752  28.149  28.640  1.00  0.00    -0.206 F 
ATOM     93  C   UNL A   1      50.613  26.461  31.236  1.00  0.00     0.060 A 
BRANCH  93  94
ATOM     94  S   UNL A   1      52.298  25.923  31.594  1.00  0.00     0.124 S 
ATOM     95  O   UNL A   1      52.690  26.862  32.640  1.00  0.00    -0.237 OA
ATOM     96  O   UNL A   1      52.099  24.542  32.023  1.00  0.00    -0.237 OA
ATOM     97  O   UNL A   1      52.984  26.082  30.316  1.00  0.00    -0.744 OA
ENDBRANCH  93  94
ENDBRANCH  61  86
ENDBRANCH  35  36
ENDBRANCH  27  30
ENDBRANCH  25  26
ENDBRANCH  24  25
ENDBRANCH   1  24
TORSDOF 19
ENDMDL
MODEL 2
REMARK VINA RESULT:     -10.3      3.061      6.236
REMARK SMILES C[NH2+][C@]1(C(=O)NCCCNC(=O)c2ccc(-c3c4nc(c(-c5c(F)cc(S(=O)(=O)[O-])cc5F)c5ccc([nH]5)c(-c5c(F)cc(S(=O)(=O)[O-])cc5F)c5nc(c(-c6c(F)cc(S(=O)(=O)[O-])cc6F)c6ccc3[nH]6)C=C5)C=C4)cc2)CCC[C@@H]1CCOC[C@@H]1CCCO1
REMARK SMILES IDX 7 1 6 2 4 3 5 4 3 6 79 7 82 8 80 9 81 10 2 11 1 12 83 15
REMARK SMILES IDX 84 16 85 17 86 18 87 19 88 20 91 21 89 22 90 23 8 24 9 25
REMARK SMILES IDX 10 26 11 27 12 29 13 30 14 31 78 32 15 33 77 34 16 35 17 36
REMARK SMILES IDX 18 37 71 38 19 39 76 40 70 41 72 42 20 43 75 44 69 45 68 46
REMARK SMILES IDX 21 48 55 49 34 50 54 51 35 52 38 53 53 54 73 55 36 56 37 57
REMARK SMILES IDX 52 59 74 60 39 61 22 62 23 63 32 64 24 65 25 66 31 67 33 68
REMARK SMILES IDX 26 69 27 70 28 71 29 72 30 73 56 74 57 75 66 76 58 77 59 78
REMARK SMILES IDX 65 79 67 80 60 81 61 82 62 83 63 84 64 85 40 86 41 87 50 88
REMARK SMILES IDX 42 89 43 90 49 91 51 92 44 93 45 94 46 95 47 96 48 97
REMARK H PARENT 6 5 2 13 2 14 10 28 72 47 38 58
REMARK Flexibility Score: inf
ROOT
ATOM      1  C   UNL A   1      35.300  33.962  31.473  1.00  0.00     0.118 C 
ENDROOT
BRANCH   1   2
ATOM      2  N   UNL A   1      36.651  34.299  31.057  1.00  0.00    -0.351 N 
ATOM      3  C   UNL A   1      37.889  34.174  31.608  1.00  0.00     0.281 C 
ATOM      4  O   UNL A   1      38.792  34.520  30.838  1.00  0.00    -0.268 OA
ATOM      5  H   UNL A   1      36.677  34.716  30.165  1.00  0.00     0.163 HD
BRANCH   3   6
ATOM      6  C   UNL A   1      38.148  33.603  33.047  1.00  0.00     0.178 C 
ATOM      7  C   UNL A   1      37.508  34.470  34.156  1.00  0.00     0.079 C 
ATOM      8  C   UNL A   1      37.418  32.241  33.260  1.00  0.00     0.063 C 
ATOM      9  C   UNL A   1      37.143  33.511  35.300  1.00  0.00     0.008 C 
ATOM     10  C   UNL A   1      37.417  32.094  34.791  1.00  0.00     0.011 C 
BRANCH   6  11
ATOM     11  N   UNL A   1      39.578  33.463  33.473  1.00  0.00    -0.336 N 
ATOM     12  C   UNL A   1      40.286  34.613  33.995  1.00  0.00     0.331 C 
ATOM     13  H   UNL A   1      39.603  32.747  34.199  1.00  0.00     0.346 HD
ATOM     14  H   UNL A   1      40.067  33.258  32.602  1.00  0.00     0.346 HD
ENDBRANCH   6  11
BRANCH   8  15
ATOM     15  C   UNL A   1      37.990  31.050  32.472  1.00  0.00     0.039 C 
BRANCH  15  16
ATOM     16  C   UNL A   1      37.878  29.688  33.176  1.00  0.00     0.161 C 
BRANCH  16  17
ATOM     17  O   UNL A   1      39.113  29.030  33.421  1.00  0.00    -0.379 OA
BRANCH  17  18
ATOM     18  C   UNL A   1      40.320  29.778  33.535  1.00  0.00     0.192 C 
BRANCH  18  19
ATOM     19  C   UNL A   1      41.558  29.088  34.144  1.00  0.00     0.144 C 
ATOM     20  C   UNL A   1      42.516  28.461  33.148  1.00  0.00     0.037 C 
ATOM     21  O   UNL A   1      41.188  28.069  35.085  1.00  0.00    -0.376 OA
ATOM     22  C   UNL A   1      43.052  27.257  33.876  1.00  0.00     0.031 C 
ATOM     23  C   UNL A   1      41.884  26.864  34.751  1.00  0.00     0.160 C 
ENDBRANCH  18  19
ENDBRANCH  17  18
ENDBRANCH  16  17
ENDBRANCH  15  16
ENDBRANCH   8  15
ENDBRANCH   3   6
ENDBRANCH   1   2
BRANCH   1  24
ATOM     24  C   UNL A   1      34.772  32.704  30.811  1.00  0.00     0.042 C 
BRANCH  24  25
ATOM     25  C   UNL A   1      35.012  32.652  29.310  1.00  0.00     0.118 C 
BRANCH  25  26
ATOM     26  N   UNL A   1      34.185  31.664  28.624  1.00  0.00    -0.352 N 
ATOM     27  C   UNL A   1      34.529  30.457  28.057  1.00  0.00     0.251 C 
ATOM     28  H   UNL A   1      33.231  31.897  28.556  1.00  0.00     0.163 HD
ATOM     29  O   UNL A   1      33.712  29.848  27.381  1.00  0.00    -0.269 OA
BRANCH  27  30
ATOM     30  C   UNL A   1      35.895  29.922  28.244  1.00  0.00     0.039 A 
ATOM     31  C   UNL A   1      36.834  30.071  27.219  1.00  0.00     0.014 A 
ATOM     32  C   UNL A   1      36.256  29.297  29.438  1.00  0.00     0.014 A 
ATOM     33  C   UNL A   1      38.156  29.675  27.435  1.00  0.00     0.010 A 
ATOM     34  C   UNL A   1      37.591  29.016  29.692  1.00  0.00     0.010 A 
ATOM     35  C   UNL A   1      38.556  29.190  28.691  1.00  0.00    -0.014 A 
BRANCH  35  36
ATOM     36  C   UNL A   1      39.969  28.838  28.983  1.00  0.00     0.031 A 
ATOM     37  C   UNL A   1      40.890  29.873  29.574  1.00  0.00     0.074 A 
ATOM     38  C   UNL A   1      40.442  27.622  28.640  1.00  0.00     0.049 A 
ATOM     39  N   UNL A   1      42.175  29.798  29.807  1.00  0.00    -0.248 NA
ATOM     40  C   UNL A   1      40.296  31.177  29.911  1.00  0.00     0.031 C 
ATOM     41  C   UNL A   1      39.662  26.555  28.007  1.00  0.00     0.029 A 
ATOM     42  N   UNL A   1      41.697  27.082  28.765  1.00  0.00    -0.354 N 
ATOM     43  C   UNL A   1      42.544  31.048  30.291  1.00  0.00     0.074 A 
ATOM     44  C   UNL A   1      41.363  31.881  30.259  1.00  0.00     0.031 C 
ATOM     45  C   UNL A   1      40.448  25.481  27.827  1.00  0.00     0.029 A 
ATOM     46  C   UNL A   1      41.797  25.795  28.288  1.00  0.00     0.049 A 
ATOM     47  H   UNL A   1      42.456  27.570  29.159  1.00  0.00     0.167 HD
ATOM     48  C   UNL A   1      43.750  31.457  30.750  1.00  0.00     0.037 A 
ATOM     49  C   UNL A   1      42.855  24.965  28.224  1.00  0.00     0.037 A 
ATOM     50  C   UNL A   1      44.910  30.608  30.815  1.00  0.00     0.049 A 
ATOM     51  C   UNL A   1      44.184  25.437  28.751  1.00  0.00     0.074 A 
ATOM     52  C   UNL A   1      46.162  30.901  31.327  1.00  0.00     0.029 A 
ATOM     53  N   UNL A   1      44.962  29.301  30.354  1.00  0.00    -0.354 N 
ATOM     54  N   UNL A   1      44.499  26.601  29.271  1.00  0.00    -0.248 NA
ATOM     55  C   UNL A   1      45.301  24.483  28.693  1.00  0.00     0.031 C 
ATOM     56  C   UNL A   1      46.984  29.786  31.132  1.00  0.00     0.029 A 
ATOM     57  C   UNL A   1      46.229  28.780  30.552  1.00  0.00     0.049 A 
ATOM     58  H   UNL A   1      44.208  28.815  29.948  1.00  0.00     0.167 HD
ATOM     59  C   UNL A   1      45.838  26.507  29.632  1.00  0.00     0.074 A 
ATOM     60  C   UNL A   1      46.272  25.170  29.279  1.00  0.00     0.031 C 
ATOM     61  C   UNL A   1      46.638  27.441  30.204  1.00  0.00     0.037 A 
BRANCH  48  62
ATOM     62  C   UNL A   1      43.871  32.879  31.226  1.00  0.00     0.058 A 
ATOM     63  C   UNL A   1      43.646  33.234  32.566  1.00  0.00     0.135 A 
ATOM     64  C   UNL A   1      44.243  33.900  30.334  1.00  0.00     0.135 A 
ATOM     65  F   UNL A   1      43.271  32.304  33.458  1.00  0.00    -0.206 F 
ATOM     66  C   UNL A   1      43.752  34.552  32.998  1.00  0.00     0.059 A 
ATOM     67  C   UNL A   1      44.387  35.219  30.753  1.00  0.00     0.059 A 
ATOM     68  F   UNL A   1      44.470  33.619  29.042  1.00  0.00    -0.206 F 
ATOM     69  C   UNL A   1      44.123  35.538  32.084  1.00  0.00     0.060 A 
BRANCH  69  70
ATOM     70  S   UNL A   1      44.261  37.241  32.664  1.00  0.00     0.124 S 
ATOM     71  O   UNL A   1      43.978  37.988  31.442  1.00  0.00    -0.237 OA
ATOM     72  O   UNL A   1      43.232  37.304  33.696  1.00  0.00    -0.237 OA
ATOM     73  O   UNL A   1      45.636  37.327  33.148  1.00  0.00    -0.744 OA
ENDBRANCH  69  70
ENDBRANCH  48  62
BRANCH  49  74
ATOM     74  C   UNL A   1      42.697  23.595  27.665  1.00  0.00     0.058 A 
ATOM     75  C   UNL A   1      42.906  23.344  26.301  1.00  0.00     0.135 A 
ATOM     76  C   UNL A   1      42.347  22.508  28.482  1.00  0.00     0.135 A 
ATOM     77  F   UNL A   1      43.236  24.350  25.478  1.00  0.00    -0.206 F 
ATOM     78  C   UNL A   1      42.755  22.070  25.762  1.00  0.00     0.059 A 
ATOM     79  C   UNL A   1      42.217  21.221  27.972  1.00  0.00     0.059 A 
ATOM     80  F   UNL A   1      42.155  22.691  29.799  1.00  0.00    -0.206 F 
ATOM     81  C   UNL A   1      42.413  21.013  26.606  1.00  0.00     0.060 A 
BRANCH  81  82
ATOM     82  S   UNL A   1      42.267  19.356  25.904  1.00  0.00     0.124 S 
ATOM     83  O   UNL A   1      43.039  19.488  24.674  1.00  0.00    -0.237 OA
ATOM     84  O   UNL A   1      42.863  18.528  26.947  1.00  0.00    -0.237 OA
ATOM     85  O   UNL A   1      40.826  19.191  25.731  1.00  0.00    -0.744 OA
ENDBRANCH  81  82
ENDBRANCH  49  74
BRANCH  61  86
ATOM     86  C   UNL A   1      48.050  27.040  30.530  1.00  0.00     0.058 A 
ATOM     87  C   UNL A   1      49.120  27.329  29.669  1.00  0.00     0.135 A 
ATOM     88  C   UNL A   1      48.341  26.407  31.750  1.00  0.00     0.135 A 
ATOM     89  F   UNL A   1      48.896  27.928  28.489  1.00  0.00    -0.206 F 
ATOM     90  C   UNL A   1      50.427  26.984  29.996  1.00  0.00     0.059 A 
ATOM     91  C   UNL A   1      49.644  26.081  32.110  1.00  0.00     0.059 A 
ATOM     92  F   UNL A   1      47.356  26.118  32.615  1.00  0.00    -0.206 F 
ATOM     93  C   UNL A   1      50.680  26.362  31.221  1.00  0.00     0.060 A 
BRANCH  93  94
ATOM     94  S   UNL A   1      52.385  25.950  31.647  1.00  0.00     0.124 S 
ATOM     95  O   UNL A   1      53.027  25.967  30.336  1.00  0.00    -0.237 OA
ATOM     96  O   UNL A   1      52.752  27.039  32.547  1.00  0.00    -0.237 OA
ATOM     97  O   UNL A   1      52.271  24.637  32.274  1.00  0.00    -0.744 OA
ENDBRANCH  93  94
ENDBRANCH  61  86
ENDBRANCH  35  36
ENDBRANCH  27  30
ENDBRANCH  25  26
ENDBRANCH  24  25
ENDBRANCH   1  24
TORSDOF 19
ENDMDL
MODEL 3
REMARK VINA RESULT:     -10.1      1.205      2.359
REMARK SMILES C[NH2+][C@]1(C(=O)NCCCNC(=O)c2ccc(-c3c4nc(c(-c5c(F)cc(S(=O)(=O)[O-])cc5F)c5ccc([nH]5)c(-c5c(F)cc(S(=O)(=O)[O-])cc5F)c5nc(c(-c6c(F)cc(S(=O)(=O)[O-])cc6F)c6ccc3[nH]6)C=C5)C=C4)cc2)CCC[C@@H]1CCOC[C@@H]1CCCO1
REMARK SMILES IDX 7 1 6 2 4 3 5 4 3 6 79 7 82 8 80 9 81 10 2 11 1 12 83 15
REMARK SMILES IDX 84 16 85 17 86 18 87 19 88 20 91 21 89 22 90 23 8 24 9 25
REMARK SMILES IDX 10 26 11 27 12 29 13 30 14 31 78 32 15 33 77 34 16 35 17 36
REMARK SMILES IDX 18 37 71 38 19 39 76 40 70 41 72 42 20 43 75 44 69 45 68 46
REMARK SMILES IDX 21 48 55 49 34 50 54 51 35 52 38 53 53 54 73 55 36 56 37 57
REMARK SMILES IDX 52 59 74 60 39 61 22 62 23 63 32 64 24 65 25 66 31 67 33 68
REMARK SMILES IDX 26 69 27 70 28 71 29 72 30 73 56 74 57 75 66 76 58 77 59 78
REMARK SMILES IDX 65 79 67 80 60 81 61 82 62 83 63 84 64 85 40 86 41 87 50 88
REMARK SMILES IDX 42 89 43 90 49 91 51 92 44 93 45 94 46 95 47 96 48 97
REMARK H PARENT 6 5 2 13 2 14 10 28 72 47 38 58
REMARK Flexibility Score: inf
ROOT
ATOM      1  C   UNL A   1      32.070  26.648  26.690  1.00  0.00     0.118 C 
ENDROOT
BRANCH   1   2
ATOM      2  N   UNL A   1      31.202  26.682  25.525  1.00  0.00    -0.351 N 
ATOM      3  C   UNL A   1      30.938  25.834  24.494  1.00  0.00     0.281 C 
ATOM      4  O   UNL A   1      30.033  26.244  23.758  1.00  0.00    -0.268 OA
ATOM      5  H   UNL A   1      30.682  27.517  25.468  1.00  0.00     0.163 HD
BRANCH   3   6
ATOM      6  C   UNL A   1      31.665  24.458  24.291  1.00  0.00     0.178 C 
ATOM      7  C   UNL A   1      30.837  23.467  23.440  1.00  0.00     0.079 C 
ATOM      8  C   UNL A   1      32.950  24.614  23.420  1.00  0.00     0.063 C 
ATOM      9  C   UNL A   1      31.850  22.588  22.691  1.00  0.00     0.008 C 
ATOM     10  C   UNL A   1      33.236  23.169  22.978  1.00  0.00     0.011 C 
BRANCH   6  11
ATOM     11  N   UNL A   1      32.004  23.681  25.528  1.00  0.00    -0.336 N 
ATOM     12  C   UNL A   1      30.941  23.186  26.376  1.00  0.00     0.331 C 
ATOM     13  H   UNL A   1      32.545  22.870  25.229  1.00  0.00     0.346 HD
ATOM     14  H   UNL A   1      32.478  24.366  26.116  1.00  0.00     0.346 HD
ENDBRANCH   6  11
BRANCH   8  15
ATOM     15  C   UNL A   1      34.120  25.355  24.089  1.00  0.00     0.039 C 
BRANCH  15  16
ATOM     16  C   UNL A   1      35.190  24.449  24.721  1.00  0.00     0.161 C 
BRANCH  16  17
ATOM     17  O   UNL A   1      34.792  23.779  25.908  1.00  0.00    -0.379 OA
BRANCH  17  18
ATOM     18  C   UNL A   1      35.604  22.750  26.464  1.00  0.00     0.192 C 
BRANCH  18  19
ATOM     19  C   UNL A   1      35.164  21.283  26.277  1.00  0.00     0.144 C 
ATOM     20  C   UNL A   1      35.412  20.693  24.901  1.00  0.00     0.037 C 
ATOM     21  O   UNL A   1      33.771  21.104  26.577  1.00  0.00    -0.376 OA
ATOM     22  C   UNL A   1      34.262  19.743  24.707  1.00  0.00     0.031 C 
ATOM     23  C   UNL A   1      33.154  20.413  25.487  1.00  0.00     0.160 C 
ENDBRANCH  18  19
ENDBRANCH  17  18
ENDBRANCH  16  17
ENDBRANCH  15  16
ENDBRANCH   8  15
ENDBRANCH   3   6
ENDBRANCH   1   2
BRANCH   1  24
ATOM     24  C   UNL A   1      32.174  27.987  27.392  1.00  0.00     0.042 C 
BRANCH  24  25
ATOM     25  C   UNL A   1      33.574  28.582  27.376  1.00  0.00     0.118 C 
BRANCH  25  26
ATOM     26  N   UNL A   1      33.603  30.007  27.692  1.00  0.00    -0.352 N 
ATOM     27  C   UNL A   1      34.606  30.775  28.241  1.00  0.00     0.251 C 
ATOM     28  H   UNL A   1      32.776  30.496  27.480  1.00  0.00     0.163 HD
ATOM     29  O   UNL A   1      34.373  31.926  28.581  1.00  0.00    -0.269 OA
BRANCH  27  30
ATOM     30  C   UNL A   1      35.949  30.190  28.445  1.00  0.00     0.039 A 
ATOM     31  C   UNL A   1      36.858  30.177  27.384  1.00  0.00     0.014 A 
ATOM     32  C   UNL A   1      36.319  29.677  29.689  1.00  0.00     0.014 A 
ATOM     33  C   UNL A   1      38.165  29.736  27.602  1.00  0.00     0.010 A 
ATOM     34  C   UNL A   1      37.646  29.352  29.933  1.00  0.00     0.010 A 
ATOM     35  C   UNL A   1      38.584  29.367  28.891  1.00  0.00    -0.014 A 
BRANCH  35  36
ATOM     36  C   UNL A   1      39.986  28.971  29.178  1.00  0.00     0.031 A 
ATOM     37  C   UNL A   1      40.936  29.973  29.781  1.00  0.00     0.074 A 
ATOM     38  C   UNL A   1      40.425  27.746  28.822  1.00  0.00     0.049 A 
ATOM     39  N   UNL A   1      42.218  29.860  30.012  1.00  0.00    -0.248 NA
ATOM     40  C   UNL A   1      40.379  31.289  30.133  1.00  0.00     0.031 C 
ATOM     41  C   UNL A   1      39.615  26.709  28.177  1.00  0.00     0.029 A 
ATOM     42  N   UNL A   1      41.664  27.170  28.940  1.00  0.00    -0.354 N 
ATOM     43  C   UNL A   1      42.622  31.093  30.511  1.00  0.00     0.074 A 
ATOM     44  C   UNL A   1      41.465  31.959  30.489  1.00  0.00     0.031 C 
ATOM     45  C   UNL A   1      40.370  25.616  27.984  1.00  0.00     0.029 A 
ATOM     46  C   UNL A   1      41.727  25.886  28.448  1.00  0.00     0.049 A 
ATOM     47  H   UNL A   1      42.437  27.631  29.339  1.00  0.00     0.167 HD
ATOM     48  C   UNL A   1      43.840  31.462  30.974  1.00  0.00     0.037 A 
ATOM     49  C   UNL A   1      42.762  25.028  28.374  1.00  0.00     0.037 A 
ATOM     50  C   UNL A   1      44.975  30.580  31.029  1.00  0.00     0.049 A 
ATOM     51  C   UNL A   1      44.104  25.456  28.907  1.00  0.00     0.074 A 
ATOM     52  C   UNL A   1      46.235  30.833  31.544  1.00  0.00     0.029 A 
ATOM     53  N   UNL A   1      44.990  29.278  30.553  1.00  0.00    -0.354 N 
ATOM     54  N   UNL A   1      44.451  26.604  29.439  1.00  0.00    -0.248 NA
ATOM     55  C   UNL A   1      45.193  24.472  28.837  1.00  0.00     0.031 C 
ATOM     56  C   UNL A   1      47.025  29.697  31.336  1.00  0.00     0.029 A 
ATOM     57  C   UNL A   1      46.242  28.719  30.744  1.00  0.00     0.049 A 
ATOM     58  H   UNL A   1      44.223  28.818  30.142  1.00  0.00     0.167 HD
ATOM     59  C   UNL A   1      45.788  26.469  29.798  1.00  0.00     0.074 A 
ATOM     60  C   UNL A   1      46.184  25.124  29.430  1.00  0.00     0.031 C 
ATOM     61  C   UNL A   1      46.613  27.373  30.381  1.00  0.00     0.037 A 
BRANCH  48  62
ATOM     62  C   UNL A   1      44.000  32.875  31.466  1.00  0.00     0.058 A 
ATOM     63  C   UNL A   1      43.858  33.208  32.823  1.00  0.00     0.135 A 
ATOM     64  C   UNL A   1      44.329  33.908  30.572  1.00  0.00     0.135 A 
ATOM     65  F   UNL A   1      43.527  32.265  33.720  1.00  0.00    -0.206 F 
ATOM     66  C   UNL A   1      44.000  34.518  33.271  1.00  0.00     0.059 A 
ATOM     67  C   UNL A   1      44.508  35.219  31.003  1.00  0.00     0.059 A 
ATOM     68  F   UNL A   1      44.476  33.648  29.264  1.00  0.00    -0.206 F 
ATOM     69  C   UNL A   1      44.325  35.516  32.354  1.00  0.00     0.060 A 
BRANCH  69  70
ATOM     70  S   UNL A   1      44.512  37.208  32.953  1.00  0.00     0.124 S 
ATOM     71  O   UNL A   1      43.120  37.603  33.148  1.00  0.00    -0.237 OA
ATOM     72  O   UNL A   1      45.293  37.022  34.172  1.00  0.00    -0.237 OA
ATOM     73  O   UNL A   1      45.209  37.882  31.862  1.00  0.00    -0.744 OA
ENDBRANCH  69  70
ENDBRANCH  48  62
BRANCH  49  74
ATOM     74  C   UNL A   1      42.566  23.669  27.800  1.00  0.00     0.058 A 
ATOM     75  C   UNL A   1      42.664  23.449  26.418  1.00  0.00     0.135 A 
ATOM     76  C   UNL A   1      42.288  22.563  28.618  1.00  0.00     0.135 A 
ATOM     77  F   UNL A   1      42.922  24.474  25.593  1.00  0.00    -0.206 F 
ATOM     78  C   UNL A   1      42.476  22.186  25.865  1.00  0.00     0.059 A 
ATOM     79  C   UNL A   1      42.122  21.286  28.091  1.00  0.00     0.059 A 
ATOM     80  F   UNL A   1      42.202  22.715  29.950  1.00  0.00    -0.206 F 
ATOM     81  C   UNL A   1      42.208  21.109  26.710  1.00  0.00     0.060 A 
BRANCH  81  82
ATOM     82  S   UNL A   1      42.013  19.467  25.986  1.00  0.00     0.124 S 
ATOM     83  O   UNL A   1      42.852  19.568  24.797  1.00  0.00    -0.237 OA
ATOM     84  O   UNL A   1      42.514  18.602  27.049  1.00  0.00    -0.237 OA
ATOM     85  O   UNL A   1      40.577  19.377  25.740  1.00  0.00    -0.744 OA
ENDBRANCH  81  82
ENDBRANCH  49  74
BRANCH  61  86
ATOM     86  C   UNL A   1      48.013  26.929  30.702  1.00  0.00     0.058 A 
ATOM     87  C   UNL A   1      49.087  27.178  29.833  1.00  0.00     0.135 A 
ATOM     88  C   UNL A   1      48.291  26.295  31.924  1.00  0.00     0.135 A 
ATOM     89  F   UNL A   1      48.876  27.777  28.651  1.00  0.00    -0.206 F 
ATOM     90  C   UNL A   1      50.384  26.793  30.155  1.00  0.00     0.059 A 
ATOM     91  C   UNL A   1      49.585  25.929  32.279  1.00  0.00     0.059 A 
ATOM     92  F   UNL A   1      47.302  26.043  32.796  1.00  0.00    -0.206 F 
ATOM     93  C   UNL A   1      50.624  26.171  31.382  1.00  0.00     0.060 A 
BRANCH  93  94
ATOM     94  S   UNL A   1      52.317  25.707  31.802  1.00  0.00     0.124 S 
ATOM     95  O   UNL A   1      53.015  25.980  30.550  1.00  0.00    -0.237 OA
ATOM     96  O   UNL A   1      52.622  26.609  32.908  1.00  0.00    -0.237 OA
ATOM     97  O   UNL A   1      52.204  24.297  32.164  1.00  0.00    -0.744 OA
ENDBRANCH  93  94
ENDBRANCH  61  86
ENDBRANCH  35  36
ENDBRANCH  27  30
ENDBRANCH  25  26
ENDBRANCH  24  25
ENDBRANCH   1  24
TORSDOF 19
ENDMDL
