MODEL 1
REMARK VINA RESULT:     -13.7      0.000      0.000
REMARK SMILES CCOc1cc2c(cc1/C=C1/C(=O)N(c3cccc(C(=O)NCCCNC(=O)c4ccc(-c5c6nc(c(-c7c(F)cc(S(=O)(=O)[O-])cc7F)c7ccc([nH]7)c(-c7c(F)cc(S(=O)(=O)[O-])cc7F)c7nc(c(-c8c(F)cc(S(=O)(=O)[O-])cc8F)c8ccc5[nH]8)C=C7)C=C6)cc4)c3)C(=S)N=C1O)OCO2
REMARK SMILES IDX 23 1 22 2 20 3 21 4 19 6 15 7 16 8 95 9 17 10 18 11 14 12
REMARK SMILES IDX 10 13 11 14 12 15 99 16 13 17 98 18 96 19 97 20 9 21 4 22
REMARK SMILES IDX 5 23 6 24 8 25 7 26 103 27 101 28 102 29 3 30 2 31 1 32
REMARK SMILES IDX 100 33 24 35 25 36 26 37 27 38 28 40 29 41 30 42 94 43 31 44
REMARK SMILES IDX 93 45 32 46 33 47 34 48 87 49 35 50 92 51 86 52 88 53 36 54
REMARK SMILES IDX 91 55 85 56 84 57 37 59 71 60 50 61 70 62 51 63 54 64 69 65
REMARK SMILES IDX 89 66 52 67 53 68 68 70 90 71 55 72 38 73 39 74 48 75 40 76
REMARK SMILES IDX 41 77 47 78 49 79 42 80 43 81 44 82 45 83 46 84 72 85 73 86
REMARK SMILES IDX 82 87 74 88 75 89 81 90 83 91 76 92 77 93 78 94 79 95 80 96
REMARK SMILES IDX 56 97 57 98 66 99 58 100 59 101 65 102 67 103 60 104 61 105
REMARK SMILES IDX 62 106 63 107 64 108
REMARK H PARENT 22 5 100 34 26 39 88 58 54 69
REMARK Flexibility Score: inf
ROOT
ATOM      1  C   UNL A   1      37.321  23.255  25.027  1.00  0.00     0.118 C 
ENDROOT
BRANCH   1   2
ATOM      2  N   UNL A   1      37.704  21.850  25.093  1.00  0.00    -0.352 N 
ATOM      3  C   UNL A   1      37.014  20.667  24.956  1.00  0.00     0.251 C 
ATOM      4  O   UNL A   1      37.656  19.619  25.055  1.00  0.00    -0.269 OA
ATOM      5  H   UNL A   1      38.662  21.720  25.275  1.00  0.00     0.163 HD
BRANCH   3   6
ATOM      6  C   UNL A   1      35.537  20.586  24.772  1.00  0.00     0.041 A 
ATOM      7  C   UNL A   1      33.347  21.627  24.847  1.00  0.00     0.052 A 
ATOM      8  C   UNL A   1      32.757  20.354  24.852  1.00  0.00     0.027 A 
ATOM      9  C   UNL A   1      34.723  21.707  24.620  1.00  0.00     0.040 A 
ATOM     10  C   UNL A   1      33.548  19.203  24.803  1.00  0.00     0.003 A 
ATOM     11  C   UNL A   1      34.935  19.321  24.825  1.00  0.00     0.014 A 
BRANCH   7  12
ATOM     12  N   UNL A   1      32.606  22.815  25.235  1.00  0.00    -0.251 N 
ATOM     13  C   UNL A   1      31.345  25.970  23.812  1.00  0.00     0.031 C 
ATOM     14  C   UNL A   1      31.510  24.964  24.709  1.00  0.00     0.103 C 
ATOM     15  C   UNL A   1      32.182  23.704  24.229  1.00  0.00     0.270 C 
ATOM     16  C   UNL A   1      31.089  24.880  26.103  1.00  0.00     0.226 C 
ATOM     17  O   UNL A   1      32.316  23.506  23.020  1.00  0.00    -0.268 OA
ATOM     18  N   UNL A   1      31.500  24.041  26.972  1.00  0.00    -0.184 NA
ATOM     19  C   UNL A   1      32.465  23.137  26.610  1.00  0.00     0.210 C 
ATOM     20  S   UNL A   1      33.442  22.539  27.870  1.00  0.00    -0.038 S 
BRANCH  13  21
ATOM     21  C   UNL A   1      30.653  27.287  23.903  1.00  0.00     0.021 A 
ATOM     22  C   UNL A   1      31.288  28.402  24.525  1.00  0.00     0.130 A 
ATOM     23  C   UNL A   1      30.796  29.707  24.375  1.00  0.00     0.097 A 
ATOM     24  C   UNL A   1      29.605  29.869  23.718  1.00  0.00     0.169 A 
ATOM     25  C   UNL A   1      29.370  27.497  23.374  1.00  0.00     0.062 A 
ATOM     26  C   UNL A   1      28.896  28.791  23.258  1.00  0.00     0.166 A 
ATOM     27  O   UNL A   1      28.990  31.052  23.462  1.00  0.00    -0.453 OA
ATOM     28  O   UNL A   1      27.737  29.161  22.652  1.00  0.00    -0.454 OA
ATOM     29  C   UNL A   1      27.826  30.597  22.741  1.00  0.00     0.468 C 
BRANCH  22  30
ATOM     30  O   UNL A   1      32.444  28.250  25.256  1.00  0.00    -0.493 OA
BRANCH  30  31
ATOM     31  C   UNL A   1      32.277  28.714  26.612  1.00  0.00     0.226 C 
ATOM     32  C   UNL A   1      33.570  28.678  27.422  1.00  0.00     0.049 C 
ENDBRANCH  30  31
ENDBRANCH  22  30
ENDBRANCH  13  21
BRANCH  16  33
ATOM     33  O   UNL A   1      30.145  25.715  26.525  1.00  0.00    -0.493 OA
ATOM     34  H   UNL A   1      30.299  26.259  27.272  1.00  0.00     0.295 HD
ENDBRANCH  16  33
ENDBRANCH   7  12
ENDBRANCH   3   6
ENDBRANCH   1   2
BRANCH   1  35
ATOM     35  C   UNL A   1      37.655  24.058  26.272  1.00  0.00     0.042 C 
BRANCH  35  36
ATOM     36  C   UNL A   1      39.013  23.753  26.873  1.00  0.00     0.118 C 
BRANCH  36  37
ATOM     37  N   UNL A   1      40.116  24.201  26.031  1.00  0.00    -0.352 N 
ATOM     38  C   UNL A   1      40.904  25.326  26.098  1.00  0.00     0.251 C 
ATOM     39  H   UNL A   1      40.333  23.594  25.286  1.00  0.00     0.163 HD
ATOM     40  O   UNL A   1      41.633  25.602  25.150  1.00  0.00    -0.269 OA
BRANCH  38  41
ATOM     41  C   UNL A   1      40.865  26.210  27.285  1.00  0.00     0.039 A 
ATOM     42  C   UNL A   1      41.740  27.299  27.353  1.00  0.00     0.014 A 
ATOM     43  C   UNL A   1      39.993  25.959  28.345  1.00  0.00     0.014 A 
ATOM     44  C   UNL A   1      41.680  28.173  28.442  1.00  0.00     0.010 A 
ATOM     45  C   UNL A   1      39.854  26.889  29.368  1.00  0.00     0.010 A 
ATOM     46  C   UNL A   1      40.703  28.001  29.436  1.00  0.00    -0.014 A 
BRANCH  46  47
ATOM     47  C   UNL A   1      40.558  28.957  30.565  1.00  0.00     0.031 A 
ATOM     48  C   UNL A   1      41.409  28.800  31.799  1.00  0.00     0.074 A 
ATOM     49  C   UNL A   1      39.608  29.913  30.512  1.00  0.00     0.049 A 
ATOM     50  N   UNL A   1      41.363  29.466  32.923  1.00  0.00    -0.248 NA
ATOM     51  C   UNL A   1      42.420  27.731  31.779  1.00  0.00     0.031 C 
ATOM     52  C   UNL A   1      38.684  30.128  29.395  1.00  0.00     0.029 A 
ATOM     53  N   UNL A   1      39.250  30.873  31.425  1.00  0.00    -0.354 N 
ATOM     54  C   UNL A   1      42.322  28.885  33.747  1.00  0.00     0.074 A 
ATOM     55  C   UNL A   1      42.891  27.775  33.017  1.00  0.00     0.031 C 
ATOM     56  C   UNL A   1      37.885  31.170  29.678  1.00  0.00     0.029 A 
ATOM     57  C   UNL A   1      38.205  31.666  31.012  1.00  0.00     0.049 A 
ATOM     58  H   UNL A   1      39.699  30.983  32.294  1.00  0.00     0.167 HD
ATOM     59  C   UNL A   1      42.711  29.260  34.989  1.00  0.00     0.037 A 
ATOM     60  C   UNL A   1      37.567  32.672  31.642  1.00  0.00     0.037 A 
ATOM     61  C   UNL A   1      42.160  30.387  35.695  1.00  0.00     0.049 A 
ATOM     62  C   UNL A   1      38.020  33.073  33.021  1.00  0.00     0.074 A 
ATOM     63  C   UNL A   1      42.529  30.890  36.930  1.00  0.00     0.029 A 
ATOM     64  N   UNL A   1      41.124  31.183  35.231  1.00  0.00    -0.354 N 
ATOM     65  N   UNL A   1      38.976  32.555  33.756  1.00  0.00    -0.248 NA
ATOM     66  C   UNL A   1      37.315  34.196  33.653  1.00  0.00     0.031 C 
ATOM     67  C   UNL A   1      41.683  31.961  37.234  1.00  0.00     0.029 A 
ATOM     68  C   UNL A   1      40.825  32.161  36.164  1.00  0.00     0.049 A 
ATOM     69  H   UNL A   1      40.669  31.070  34.366  1.00  0.00     0.167 HD
ATOM     70  C   UNL A   1      39.006  33.309  34.925  1.00  0.00     0.074 A 
ATOM     71  C   UNL A   1      37.983  34.325  34.791  1.00  0.00     0.031 C 
ATOM     72  C   UNL A   1      39.809  33.173  36.009  1.00  0.00     0.037 A 
BRANCH  59  73
ATOM     73  C   UNL A   1      43.789  28.451  35.660  1.00  0.00     0.058 A 
ATOM     74  C   UNL A   1      45.152  28.707  35.437  1.00  0.00     0.135 A 
ATOM     75  C   UNL A   1      43.458  27.436  36.574  1.00  0.00     0.135 A 
ATOM     76  F   UNL A   1      45.528  29.654  34.562  1.00  0.00    -0.206 F 
ATOM     77  C   UNL A   1      46.146  27.970  36.071  1.00  0.00     0.059 A 
ATOM     78  C   UNL A   1      44.436  26.707  37.243  1.00  0.00     0.059 A 
ATOM     79  F   UNL A   1      42.171  27.147  36.825  1.00  0.00    -0.206 F 
ATOM     80  C   UNL A   1      45.778  26.973  36.975  1.00  0.00     0.060 A 
BRANCH  80  81
ATOM     81  S   UNL A   1      47.082  26.037  37.803  1.00  0.00     0.124 S 
ATOM     82  O   UNL A   1      47.769  25.431  36.667  1.00  0.00    -0.237 OA
ATOM     83  O   UNL A   1      47.818  27.085  38.503  1.00  0.00    -0.237 OA
ATOM     84  O   UNL A   1      46.347  25.112  38.659  1.00  0.00    -0.744 OA
ENDBRANCH  80  81
ENDBRANCH  59  73
BRANCH  60  85
ATOM     85  C   UNL A   1      36.447  33.384  30.968  1.00  0.00     0.058 A 
ATOM     86  C   UNL A   1      36.686  34.261  29.899  1.00  0.00     0.135 A 
ATOM     87  C   UNL A   1      35.116  33.198  31.373  1.00  0.00     0.135 A 
ATOM     88  F   UNL A   1      37.942  34.476  29.478  1.00  0.00    -0.206 F 
ATOM     89  C   UNL A   1      35.651  34.944  29.268  1.00  0.00     0.059 A 
ATOM     90  C   UNL A   1      34.060  33.846  30.738  1.00  0.00     0.059 A 
ATOM     91  F   UNL A   1      34.829  32.356  32.378  1.00  0.00    -0.206 F 
ATOM     92  C   UNL A   1      34.339  34.727  29.694  1.00  0.00     0.060 A 
BRANCH  92  93
ATOM     93  S   UNL A   1      33.000  35.586  28.840  1.00  0.00     0.124 S 
ATOM     94  O   UNL A   1      33.737  36.536  28.016  1.00  0.00    -0.237 OA
ATOM     95  O   UNL A   1      32.343  34.495  28.127  1.00  0.00    -0.237 OA
ATOM     96  O   UNL A   1      32.223  36.166  29.932  1.00  0.00    -0.744 OA
ENDBRANCH  92  93
ENDBRANCH  60  85
BRANCH  72  97
ATOM     97  C   UNL A   1      39.643  34.169  37.124  1.00  0.00     0.058 A 
ATOM     98  C   UNL A   1      38.868  33.889  38.259  1.00  0.00     0.135 A 
ATOM     99  C   UNL A   1      40.319  35.400  37.078  1.00  0.00     0.135 A 
ATOM    100  F   UNL A   1      38.196  32.730  38.350  1.00  0.00    -0.206 F 
ATOM    101  C   UNL A   1      38.748  34.804  39.299  1.00  0.00     0.059 A 
ATOM    102  C   UNL A   1      40.238  36.317  38.121  1.00  0.00     0.059 A 
ATOM    103  F   UNL A   1      41.084  35.713  36.020  1.00  0.00    -0.206 F 
ATOM    104  C   UNL A   1      39.440  36.014  39.222  1.00  0.00     0.060 A 
BRANCH 104 105
ATOM    105  S   UNL A   1      39.303  37.177  40.596  1.00  0.00     0.124 S 
ATOM    106  O   UNL A   1      38.655  36.357  41.613  1.00  0.00    -0.237 OA
ATOM    107  O   UNL A   1      40.699  37.521  40.852  1.00  0.00    -0.237 OA
ATOM    108  O   UNL A   1      38.488  38.257  40.048  1.00  0.00    -0.744 OA
ENDBRANCH 104 105
ENDBRANCH  72  97
ENDBRANCH  46  47
ENDBRANCH  38  41
ENDBRANCH  36  37
ENDBRANCH  35  36
ENDBRANCH   1  35
TORSDOF 18
ENDMDL
MODEL 2
REMARK VINA RESULT:     -13.1      0.561      7.787
REMARK SMILES CCOc1cc2c(cc1/C=C1/C(=O)N(c3cccc(C(=O)NCCCNC(=O)c4ccc(-c5c6nc(c(-c7c(F)cc(S(=O)(=O)[O-])cc7F)c7ccc([nH]7)c(-c7c(F)cc(S(=O)(=O)[O-])cc7F)c7nc(c(-c8c(F)cc(S(=O)(=O)[O-])cc8F)c8ccc5[nH]8)C=C7)C=C6)cc4)c3)C(=S)N=C1O)OCO2
REMARK SMILES IDX 23 1 22 2 20 3 21 4 19 6 15 7 16 8 95 9 17 10 18 11 14 12
REMARK SMILES IDX 10 13 11 14 12 15 99 16 13 17 98 18 96 19 97 20 9 21 4 22
REMARK SMILES IDX 5 23 6 24 8 25 7 26 103 27 101 28 102 29 3 30 2 31 1 32
REMARK SMILES IDX 100 33 24 35 25 36 26 37 27 38 28 40 29 41 30 42 94 43 31 44
REMARK SMILES IDX 93 45 32 46 33 47 34 48 87 49 35 50 92 51 86 52 88 53 36 54
REMARK SMILES IDX 91 55 85 56 84 57 37 59 71 60 50 61 70 62 51 63 54 64 69 65
REMARK SMILES IDX 89 66 52 67 53 68 68 70 90 71 55 72 38 73 39 74 48 75 40 76
REMARK SMILES IDX 41 77 47 78 49 79 42 80 43 81 44 82 45 83 46 84 72 85 73 86
REMARK SMILES IDX 82 87 74 88 75 89 81 90 83 91 76 92 77 93 78 94 79 95 80 96
REMARK SMILES IDX 56 97 57 98 66 99 58 100 59 101 65 102 67 103 60 104 61 105
REMARK SMILES IDX 62 106 63 107 64 108
REMARK H PARENT 22 5 100 34 26 39 88 58 54 69
REMARK Flexibility Score: inf
ROOT
ATOM      1  C   UNL A   1      37.181  23.001  24.710  1.00  0.00     0.118 C 
ENDROOT
BRANCH   1   2
ATOM      2  N   UNL A   1      37.523  21.599  24.920  1.00  0.00    -0.352 N 
ATOM      3  C   UNL A   1      36.799  20.430  24.911  1.00  0.00     0.251 C 
ATOM      4  O   UNL A   1      37.410  19.379  25.115  1.00  0.00    -0.269 OA
ATOM      5  H   UNL A   1      38.479  21.460  25.109  1.00  0.00     0.163 HD
BRANCH   3   6
ATOM      6  C   UNL A   1      35.318  20.374  24.746  1.00  0.00     0.041 A 
ATOM      7  C   UNL A   1      33.149  21.458  24.827  1.00  0.00     0.052 A 
ATOM      8  C   UNL A   1      32.535  20.197  24.860  1.00  0.00     0.027 A 
ATOM      9  C   UNL A   1      34.524  21.508  24.584  1.00  0.00     0.040 A 
ATOM     10  C   UNL A   1      33.303  19.031  24.821  1.00  0.00     0.003 A 
ATOM     11  C   UNL A   1      34.693  19.122  24.825  1.00  0.00     0.014 A 
BRANCH   7  12
ATOM     12  N   UNL A   1      32.436  22.666  25.204  1.00  0.00    -0.251 N 
ATOM     13  C   UNL A   1      31.270  25.847  23.758  1.00  0.00     0.031 C 
ATOM     14  C   UNL A   1      31.401  24.841  24.660  1.00  0.00     0.103 C 
ATOM     15  C   UNL A   1      32.044  23.562  24.191  1.00  0.00     0.270 C 
ATOM     16  C   UNL A   1      30.964  24.773  26.051  1.00  0.00     0.226 C 
ATOM     17  O   UNL A   1      32.184  23.356  22.984  1.00  0.00    -0.268 OA
ATOM     18  N   UNL A   1      31.346  23.927  26.926  1.00  0.00    -0.184 NA
ATOM     19  C   UNL A   1      32.290  22.998  26.576  1.00  0.00     0.210 C 
ATOM     20  S   UNL A   1      33.240  22.379  27.848  1.00  0.00    -0.038 S 
BRANCH  13  21
ATOM     21  C   UNL A   1      30.610  27.182  23.838  1.00  0.00     0.021 A 
ATOM     22  C   UNL A   1      31.281  28.290  24.433  1.00  0.00     0.130 A 
ATOM     23  C   UNL A   1      30.819  29.604  24.269  1.00  0.00     0.097 A 
ATOM     24  C   UNL A   1      29.622  29.786  23.626  1.00  0.00     0.169 A 
ATOM     25  C   UNL A   1      29.326  27.414  23.323  1.00  0.00     0.062 A 
ATOM     26  C   UNL A   1      28.882  28.718  23.193  1.00  0.00     0.166 A 
ATOM     27  O   UNL A   1      29.033  30.979  23.360  1.00  0.00    -0.453 OA
ATOM     28  O   UNL A   1      27.723  29.106  22.597  1.00  0.00    -0.454 OA
ATOM     29  C   UNL A   1      27.848  30.541  22.662  1.00  0.00     0.468 C 
BRANCH  22  30
ATOM     30  O   UNL A   1      32.444  28.122  25.150  1.00  0.00    -0.493 OA
BRANCH  30  31
ATOM     31  C   UNL A   1      32.441  28.917  26.355  1.00  0.00     0.226 C 
ATOM     32  C   UNL A   1      31.767  28.217  27.532  1.00  0.00     0.049 C 
ENDBRANCH  30  31
ENDBRANCH  22  30
ENDBRANCH  13  21
BRANCH  16  33
ATOM     33  O   UNL A   1      30.038  25.634  26.460  1.00  0.00    -0.493 OA
ATOM     34  H   UNL A   1      29.364  25.912  25.872  1.00  0.00     0.295 HD
ENDBRANCH  16  33
ENDBRANCH   7  12
ENDBRANCH   3   6
ENDBRANCH   1   2
BRANCH   1  35
ATOM     35  C   UNL A   1      36.640  23.708  25.940  1.00  0.00     0.042 C 
BRANCH  35  36
ATOM     36  C   UNL A   1      37.692  24.399  26.784  1.00  0.00     0.118 C 
BRANCH  36  37
ATOM     37  N   UNL A   1      39.005  24.413  26.149  1.00  0.00    -0.352 N 
ATOM     38  C   UNL A   1      40.121  25.177  26.401  1.00  0.00     0.251 C 
ATOM     39  H   UNL A   1      39.109  23.767  25.414  1.00  0.00     0.163 HD
ATOM     40  O   UNL A   1      41.046  25.167  25.595  1.00  0.00    -0.269 OA
BRANCH  38  41
ATOM     41  C   UNL A   1      40.206  26.018  27.617  1.00  0.00     0.039 A 
ATOM     42  C   UNL A   1      41.127  27.070  27.654  1.00  0.00     0.014 A 
ATOM     43  C   UNL A   1      39.404  25.764  28.730  1.00  0.00     0.014 A 
ATOM     44  C   UNL A   1      41.183  27.906  28.772  1.00  0.00     0.010 A 
ATOM     45  C   UNL A   1      39.379  26.661  29.790  1.00  0.00     0.010 A 
ATOM     46  C   UNL A   1      40.276  27.737  29.831  1.00  0.00    -0.014 A 
BRANCH  46  47
ATOM     47  C   UNL A   1      40.253  28.656  30.999  1.00  0.00     0.031 A 
ATOM     48  C   UNL A   1      39.284  29.810  31.030  1.00  0.00     0.074 A 
ATOM     49  C   UNL A   1      41.156  28.501  31.988  1.00  0.00     0.049 A 
ATOM     50  N   UNL A   1      39.177  30.775  31.906  1.00  0.00    -0.248 NA
ATOM     51  C   UNL A   1      38.333  29.912  29.910  1.00  0.00     0.031 C 
ATOM     52  C   UNL A   1      42.182  27.456  32.043  1.00  0.00     0.029 A 
ATOM     53  N   UNL A   1      41.367  29.229  33.133  1.00  0.00    -0.354 N 
ATOM     54  C   UNL A   1      38.165  31.605  31.433  1.00  0.00     0.074 A 
ATOM     55  C   UNL A   1      37.732  31.065  30.165  1.00  0.00     0.031 C 
ATOM     56  C   UNL A   1      42.895  27.596  33.172  1.00  0.00     0.029 A 
ATOM     57  C   UNL A   1      42.410  28.764  33.899  1.00  0.00     0.049 A 
ATOM     58  H   UNL A   1      40.823  30.011  33.381  1.00  0.00     0.167 HD
ATOM     59  C   UNL A   1      37.628  32.703  32.018  1.00  0.00     0.037 A 
ATOM     60  C   UNL A   1      42.927  29.234  35.051  1.00  0.00     0.037 A 
ATOM     61  C   UNL A   1      38.045  33.214  33.297  1.00  0.00     0.049 A 
ATOM     62  C   UNL A   1      42.310  30.454  35.683  1.00  0.00     0.074 A 
ATOM     63  C   UNL A   1      37.522  34.280  34.008  1.00  0.00     0.029 A 
ATOM     64  N   UNL A   1      39.084  32.698  34.056  1.00  0.00    -0.354 N 
ATOM     65  N   UNL A   1      41.308  31.185  35.256  1.00  0.00    -0.248 NA
ATOM     66  C   UNL A   1      42.888  30.909  36.954  1.00  0.00     0.031 C 
ATOM     67  C   UNL A   1      38.277  34.439  35.173  1.00  0.00     0.029 A 
ATOM     68  C   UNL A   1      39.234  33.436  35.217  1.00  0.00     0.049 A 
ATOM     69  H   UNL A   1      39.634  31.921  33.807  1.00  0.00     0.167 HD
ATOM     70  C   UNL A   1      41.117  32.168  36.221  1.00  0.00     0.074 A 
ATOM     71  C   UNL A   1      42.098  31.928  37.259  1.00  0.00     0.031 C 
ATOM     72  C   UNL A   1      40.210  33.177  36.246  1.00  0.00     0.037 A 
BRANCH  59  73
ATOM     73  C   UNL A   1      36.525  33.419  31.285  1.00  0.00     0.058 A 
ATOM     74  C   UNL A   1      36.768  34.139  30.105  1.00  0.00     0.135 A 
ATOM     75  C   UNL A   1      35.198  33.346  31.743  1.00  0.00     0.135 A 
ATOM     76  F   UNL A   1      38.018  34.257  29.629  1.00  0.00    -0.206 F 
ATOM     77  C   UNL A   1      35.744  34.786  29.420  1.00  0.00     0.059 A 
ATOM     78  C   UNL A   1      34.154  33.958  31.057  1.00  0.00     0.059 A 
ATOM     79  F   UNL A   1      34.908  32.671  32.867  1.00  0.00    -0.206 F 
ATOM     80  C   UNL A   1      34.438  34.687  29.904  1.00  0.00     0.060 A 
BRANCH  80  81
ATOM     81  S   UNL A   1      33.119  35.518  28.994  1.00  0.00     0.124 S 
ATOM     82  O   UNL A   1      32.593  34.425  28.182  1.00  0.00    -0.237 OA
ATOM     83  O   UNL A   1      32.248  35.985  30.067  1.00  0.00    -0.237 OA
ATOM     84  O   UNL A   1      33.819  36.566  28.257  1.00  0.00    -0.744 OA
ENDBRANCH  80  81
ENDBRANCH  59  73
BRANCH  60  85
ATOM     85  C   UNL A   1      44.077  28.540  35.692  1.00  0.00     0.058 A 
ATOM     86  C   UNL A   1      45.399  28.899  35.388  1.00  0.00     0.135 A 
ATOM     87  C   UNL A   1      43.880  27.509  36.624  1.00  0.00     0.135 A 
ATOM     88  F   UNL A   1      45.640  29.876  34.499  1.00  0.00    -0.206 F 
ATOM     89  C   UNL A   1      46.485  28.251  35.968  1.00  0.00     0.059 A 
ATOM     90  C   UNL A   1      44.950  26.865  37.240  1.00  0.00     0.059 A 
ATOM     91  F   UNL A   1      42.636  27.138  36.965  1.00  0.00    -0.206 F 
ATOM     92  C   UNL A   1      46.249  27.235  36.896  1.00  0.00     0.060 A 
BRANCH  92  93
ATOM     93  S   UNL A   1      47.665  26.429  37.675  1.00  0.00     0.124 S 
ATOM     94  O   UNL A   1      47.171  26.209  39.028  1.00  0.00    -0.237 OA
ATOM     95  O   UNL A   1      47.828  25.235  36.851  1.00  0.00    -0.237 OA
ATOM     96  O   UNL A   1      48.729  27.420  37.543  1.00  0.00    -0.744 OA
ENDBRANCH  92  93
ENDBRANCH  60  85
BRANCH  72  97
ATOM     97  C   UNL A   1      40.208  34.076  37.452  1.00  0.00     0.058 A 
ATOM     98  C   UNL A   1      41.045  35.198  37.541  1.00  0.00     0.135 A 
ATOM     99  C   UNL A   1      39.311  33.840  38.508  1.00  0.00     0.135 A 
ATOM    100  F   UNL A   1      41.925  35.464  36.563  1.00  0.00    -0.206 F 
ATOM    101  C   UNL A   1      41.011  36.043  38.646  1.00  0.00     0.059 A 
ATOM    102  C   UNL A   1      39.238  34.690  39.607  1.00  0.00     0.059 A 
ATOM    103  F   UNL A   1      38.479  32.788  38.467  1.00  0.00    -0.206 F 
ATOM    104  C   UNL A   1      40.102  35.782  39.672  1.00  0.00     0.060 A 
BRANCH 104 105
ATOM    105  S   UNL A   1      40.044  36.906  41.083  1.00  0.00     0.124 S 
ATOM    106  O   UNL A   1      39.928  35.973  42.199  1.00  0.00    -0.237 OA
ATOM    107  O   UNL A   1      41.320  37.608  40.974  1.00  0.00    -0.237 OA
ATOM    108  O   UNL A   1      38.862  37.721  40.821  1.00  0.00    -0.744 OA
ENDBRANCH 104 105
ENDBRANCH  72  97
ENDBRANCH  46  47
ENDBRANCH  38  41
ENDBRANCH  36  37
ENDBRANCH  35  36
ENDBRANCH   1  35
TORSDOF 18
ENDMDL
MODEL 3
REMARK VINA RESULT:     -12.1      5.016     12.344
REMARK SMILES CCOc1cc2c(cc1/C=C1/C(=O)N(c3cccc(C(=O)NCCCNC(=O)c4ccc(-c5c6nc(c(-c7c(F)cc(S(=O)(=O)[O-])cc7F)c7ccc([nH]7)c(-c7c(F)cc(S(=O)(=O)[O-])cc7F)c7nc(c(-c8c(F)cc(S(=O)(=O)[O-])cc8F)c8ccc5[nH]8)C=C7)C=C6)cc4)c3)C(=S)N=C1O)OCO2
REMARK SMILES IDX 23 1 22 2 20 3 21 4 19 6 15 7 16 8 95 9 17 10 18 11 14 12
REMARK SMILES IDX 10 13 11 14 12 15 99 16 13 17 98 18 96 19 97 20 9 21 4 22
REMARK SMILES IDX 5 23 6 24 8 25 7 26 103 27 101 28 102 29 3 30 2 31 1 32
REMARK SMILES IDX 100 33 24 35 25 36 26 37 27 38 28 40 29 41 30 42 94 43 31 44
REMARK SMILES IDX 93 45 32 46 33 47 34 48 87 49 35 50 92 51 86 52 88 53 36 54
REMARK SMILES IDX 91 55 85 56 84 57 37 59 71 60 50 61 70 62 51 63 54 64 69 65
REMARK SMILES IDX 89 66 52 67 53 68 68 70 90 71 55 72 38 73 39 74 48 75 40 76
REMARK SMILES IDX 41 77 47 78 49 79 42 80 43 81 44 82 45 83 46 84 72 85 73 86
REMARK SMILES IDX 82 87 74 88 75 89 81 90 83 91 76 92 77 93 78 94 79 95 80 96
REMARK SMILES IDX 56 97 57 98 66 99 58 100 59 101 65 102 67 103 60 104 61 105
REMARK SMILES IDX 62 106 63 107 64 108
REMARK H PARENT 22 5 100 34 26 39 88 58 54 69
REMARK Flexibility Score: inf
ROOT
ATOM      1  C   UNL A   1      34.246  35.330  28.790  1.00  0.00     0.118 C 
ENDROOT
BRANCH   1   2
ATOM      2  N   UNL A   1      33.487  36.179  29.701  1.00  0.00    -0.352 N 
ATOM      3  C   UNL A   1      33.414  36.280  31.071  1.00  0.00     0.251 C 
ATOM      4  O   UNL A   1      32.664  37.139  31.540  1.00  0.00    -0.269 OA
ATOM      5  H   UNL A   1      32.901  36.818  29.235  1.00  0.00     0.163 HD
BRANCH   3   6
ATOM      6  C   UNL A   1      34.127  35.365  32.008  1.00  0.00     0.041 A 
ATOM      7  C   UNL A   1      36.193  34.484  32.926  1.00  0.00     0.052 A 
ATOM      8  C   UNL A   1      35.484  33.382  33.427  1.00  0.00     0.027 A 
ATOM      9  C   UNL A   1      35.457  35.541  32.385  1.00  0.00     0.040 A 
ATOM     10  C   UNL A   1      34.105  33.277  33.236  1.00  0.00     0.003 A 
ATOM     11  C   UNL A   1      33.441  34.236  32.475  1.00  0.00     0.014 A 
BRANCH   7  12
ATOM     12  N   UNL A   1      37.640  34.470  32.800  1.00  0.00    -0.251 N 
ATOM     13  C   UNL A   1      40.272  33.728  30.332  1.00  0.00     0.031 C 
ATOM     14  C   UNL A   1      39.706  34.184  31.479  1.00  0.00     0.103 C 
ATOM     15  C   UNL A   1      38.204  34.290  31.522  1.00  0.00     0.270 C 
ATOM     16  C   UNL A   1      40.338  34.648  32.710  1.00  0.00     0.226 C 
ATOM     17  O   UNL A   1      37.558  34.228  30.475  1.00  0.00    -0.268 OA
ATOM     18  N   UNL A   1      39.772  34.805  33.842  1.00  0.00    -0.184 NA
ATOM     19  C   UNL A   1      38.447  34.477  33.967  1.00  0.00     0.210 C 
ATOM     20  S   UNL A   1      37.926  34.049  35.531  1.00  0.00    -0.038 S 
BRANCH  13  21
ATOM     21  C   UNL A   1      41.694  33.590  29.905  1.00  0.00     0.021 A 
ATOM     22  C   UNL A   1      42.347  34.642  29.199  1.00  0.00     0.130 A 
ATOM     23  C   UNL A   1      43.741  34.667  29.039  1.00  0.00     0.097 A 
ATOM     24  C   UNL A   1      44.453  33.577  29.467  1.00  0.00     0.169 A 
ATOM     25  C   UNL A   1      42.452  32.443  30.186  1.00  0.00     0.062 A 
ATOM     26  C   UNL A   1      43.821  32.482  29.997  1.00  0.00     0.166 A 
ATOM     27  O   UNL A   1      45.801  33.433  29.413  1.00  0.00    -0.453 OA
ATOM     28  O   UNL A   1      44.699  31.503  30.344  1.00  0.00    -0.454 OA
ATOM     29  C   UNL A   1      45.955  32.132  30.018  1.00  0.00     0.468 C 
BRANCH  22  30
ATOM     30  O   UNL A   1      41.642  35.710  28.692  1.00  0.00    -0.493 OA
BRANCH  30  31
ATOM     31  C   UNL A   1      42.505  36.837  28.430  1.00  0.00     0.226 C 
ATOM     32  C   UNL A   1      41.890  37.852  27.470  1.00  0.00     0.049 C 
ENDBRANCH  30  31
ENDBRANCH  22  30
ENDBRANCH  13  21
BRANCH  16  33
ATOM     33  O   UNL A   1      41.620  35.000  32.662  1.00  0.00    -0.493 OA
ATOM     34  H   UNL A   1      41.858  35.869  32.408  1.00  0.00     0.295 HD
ENDBRANCH  16  33
ENDBRANCH   7  12
ENDBRANCH   3   6
ENDBRANCH   1   2
BRANCH   1  35
ATOM     35  C   UNL A   1      33.747  33.899  28.701  1.00  0.00     0.042 C 
BRANCH  35  36
ATOM     36  C   UNL A   1      34.839  32.859  28.548  1.00  0.00     0.118 C 
BRANCH  36  37
ATOM     37  N   UNL A   1      34.357  31.617  27.955  1.00  0.00    -0.352 N 
ATOM     38  C   UNL A   1      34.965  30.393  27.804  1.00  0.00     0.251 C 
ATOM     39  H   UNL A   1      33.439  31.664  27.601  1.00  0.00     0.163 HD
ATOM     40  O   UNL A   1      34.445  29.553  27.077  1.00  0.00    -0.269 OA
BRANCH  38  41
ATOM     41  C   UNL A   1      36.243  30.091  28.489  1.00  0.00     0.039 A 
ATOM     42  C   UNL A   1      36.217  29.398  29.704  1.00  0.00     0.014 A 
ATOM     43  C   UNL A   1      37.464  30.507  27.958  1.00  0.00     0.014 A 
ATOM     44  C   UNL A   1      37.416  29.059  30.336  1.00  0.00     0.010 A 
ATOM     45  C   UNL A   1      38.655  30.071  28.525  1.00  0.00     0.010 A 
ATOM     46  C   UNL A   1      38.647  29.352  29.727  1.00  0.00    -0.014 A 
BRANCH  46  47
ATOM     47  C   UNL A   1      39.940  28.934  30.332  1.00  0.00     0.031 A 
ATOM     48  C   UNL A   1      40.458  29.636  31.561  1.00  0.00     0.074 A 
ATOM     49  C   UNL A   1      40.681  27.982  29.730  1.00  0.00     0.049 A 
ATOM     50  N   UNL A   1      41.602  29.487  32.176  1.00  0.00    -0.248 NA
ATOM     51  C   UNL A   1      39.589  30.666  32.156  1.00  0.00     0.031 C 
ATOM     52  C   UNL A   1      40.312  27.270  28.503  1.00  0.00     0.029 A 
ATOM     53  N   UNL A   1      41.907  27.459  30.058  1.00  0.00    -0.354 N 
ATOM     54  C   UNL A   1      41.599  30.414  33.213  1.00  0.00     0.074 A 
ATOM     55  C   UNL A   1      40.366  31.161  33.108  1.00  0.00     0.031 C 
ATOM     56  C   UNL A   1      41.277  26.387  28.198  1.00  0.00     0.029 A 
ATOM     57  C   UNL A   1      42.353  26.501  29.177  1.00  0.00     0.049 A 
ATOM     58  H   UNL A   1      42.418  27.742  30.849  1.00  0.00     0.167 HD
ATOM     59  C   UNL A   1      42.526  30.606  34.181  1.00  0.00     0.037 A 
ATOM     60  C   UNL A   1      43.504  25.803  29.153  1.00  0.00     0.037 A 
ATOM     61  C   UNL A   1      43.735  29.834  34.296  1.00  0.00     0.049 A 
ATOM     62  C   UNL A   1      44.519  26.031  30.242  1.00  0.00     0.074 A 
ATOM     63  C   UNL A   1      44.710  29.904  35.276  1.00  0.00     0.029 A 
ATOM     64  N   UNL A   1      44.137  28.853  33.401  1.00  0.00    -0.354 N 
ATOM     65  N   UNL A   1      44.466  26.864  31.254  1.00  0.00    -0.248 NA
ATOM     66  C   UNL A   1      45.744  25.223  30.190  1.00  0.00     0.031 C 
ATOM     67  C   UNL A   1      45.724  29.000  34.947  1.00  0.00     0.029 A 
ATOM     68  C   UNL A   1      45.355  28.325  33.794  1.00  0.00     0.049 A 
ATOM     69  H   UNL A   1      43.631  28.573  32.605  1.00  0.00     0.167 HD
ATOM     70  C   UNL A   1      45.637  26.658  31.976  1.00  0.00     0.074 A 
ATOM     71  C   UNL A   1      46.370  25.613  31.292  1.00  0.00     0.031 C 
ATOM     72  C   UNL A   1      46.066  27.277  33.105  1.00  0.00     0.037 A 
BRANCH  59  73
ATOM     73  C   UNL A   1      42.266  31.685  35.198  1.00  0.00     0.058 A 
ATOM     74  C   UNL A   1      41.453  31.461  36.321  1.00  0.00     0.135 A 
ATOM     75  C   UNL A   1      42.873  32.946  35.074  1.00  0.00     0.135 A 
ATOM     76  F   UNL A   1      40.834  30.281  36.484  1.00  0.00    -0.206 F 
ATOM     77  C   UNL A   1      41.228  32.454  37.269  1.00  0.00     0.059 A 
ATOM     78  C   UNL A   1      42.687  33.944  36.025  1.00  0.00     0.059 A 
ATOM     79  F   UNL A   1      43.658  33.216  34.019  1.00  0.00    -0.206 F 
ATOM     80  C   UNL A   1      41.852  33.693  37.113  1.00  0.00     0.060 A 
BRANCH  80  81
ATOM     81  S   UNL A   1      41.562  34.965  38.361  1.00  0.00     0.124 S 
ATOM     82  O   UNL A   1      40.113  34.896  38.515  1.00  0.00    -0.237 OA
ATOM     83  O   UNL A   1      42.344  34.473  39.492  1.00  0.00    -0.237 OA
ATOM     84  O   UNL A   1      42.070  36.181  37.733  1.00  0.00    -0.744 OA
ENDBRANCH  80  81
ENDBRANCH  59  73
BRANCH  60  85
ATOM     85  C   UNL A   1      43.752  24.808  28.074  1.00  0.00     0.058 A 
ATOM     86  C   UNL A   1      43.321  23.479  28.203  1.00  0.00     0.135 A 
ATOM     87  C   UNL A   1      44.416  25.165  26.890  1.00  0.00     0.135 A 
ATOM     88  F   UNL A   1      42.684  23.086  29.317  1.00  0.00    -0.206 F 
ATOM     89  C   UNL A   1      43.556  22.534  27.208  1.00  0.00     0.059 A 
ATOM     90  C   UNL A   1      44.638  24.246  25.868  1.00  0.00     0.059 A 
ATOM     91  F   UNL A   1      44.834  26.428  26.707  1.00  0.00    -0.206 F 
ATOM     92  C   UNL A   1      44.214  22.929  26.043  1.00  0.00     0.060 A 
BRANCH  92  93
ATOM     93  S   UNL A   1      44.477  21.705  24.741  1.00  0.00     0.124 S 
ATOM     94  O   UNL A   1      43.567  20.642  25.149  1.00  0.00    -0.237 OA
ATOM     95  O   UNL A   1      44.097  22.447  23.543  1.00  0.00    -0.237 OA
ATOM     96  O   UNL A   1      45.900  21.397  24.852  1.00  0.00    -0.744 OA
ENDBRANCH  92  93
ENDBRANCH  60  85
BRANCH  72  97
ATOM     97  C   UNL A   1      47.370  26.815  33.695  1.00  0.00     0.058 A 
ATOM     98  C   UNL A   1      48.580  27.469  33.422  1.00  0.00     0.135 A 
ATOM     99  C   UNL A   1      47.396  25.735  34.594  1.00  0.00     0.135 A 
ATOM    100  F   UNL A   1      48.612  28.502  32.565  1.00  0.00    -0.206 F 
ATOM    101  C   UNL A   1      49.776  27.055  33.999  1.00  0.00     0.059 A 
ATOM    102  C   UNL A   1      48.575  25.324  35.207  1.00  0.00     0.059 A 
ATOM    103  F   UNL A   1      46.264  25.081  34.900  1.00  0.00    -0.206 F 
ATOM    104  C   UNL A   1      49.762  25.983  34.894  1.00  0.00     0.060 A 
BRANCH 104 105
ATOM    105  S   UNL A   1      51.315  25.479  35.663  1.00  0.00     0.124 S 
ATOM    106  O   UNL A   1      51.474  24.124  35.145  1.00  0.00    -0.237 OA
ATOM    107  O   UNL A   1      52.255  26.470  35.146  1.00  0.00    -0.237 OA
ATOM    108  O   UNL A   1      51.034  25.575  37.092  1.00  0.00    -0.744 OA
ENDBRANCH 104 105
ENDBRANCH  72  97
ENDBRANCH  46  47
ENDBRANCH  38  41
ENDBRANCH  36  37
ENDBRANCH  35  36
ENDBRANCH   1  35
TORSDOF 18
ENDMDL
