MODEL 1
REMARK VINA RESULT:     -12.2      0.000      0.000
REMARK SMILES O=C(NCCCNC(=O)c1sccc1S(=O)(=O)N1CCO[C@@H]2CCCC[C@@H]21)c1ccc(-c2c3nc(c(-c4c(F)cc(S(=O)(=O)[O-])cc4F)c4ccc([nH]4)c(-c4c(F)cc(S(=O)(=O)[O-])cc4F)c4nc(c(-c5c(F)cc(S(=O)(=O)[O-])cc5F)c5ccc2[nH]5)C=C4)C=C3)cc1
REMARK SMILES IDX 4 1 3 2 1 3 2 4 28 6 29 7 93 8 30 9 92 10 31 11 32 12 33 13
REMARK SMILES IDX 86 14 34 15 91 16 85 17 87 18 35 19 90 20 84 21 83 22 36 24
REMARK SMILES IDX 70 25 49 26 69 27 50 28 53 29 68 30 88 31 51 32 52 33 67 35
REMARK SMILES IDX 89 36 54 37 37 38 38 39 47 40 39 41 40 42 46 43 48 44 41 45
REMARK SMILES IDX 42 46 43 47 44 48 45 49 71 50 72 51 81 52 73 53 74 54 80 55
REMARK SMILES IDX 82 56 75 57 76 58 77 59 78 60 79 61 55 62 56 63 65 64 57 65
REMARK SMILES IDX 58 66 64 67 66 68 59 69 60 70 61 71 62 72 63 73 5 74 6 75
REMARK SMILES IDX 7 76 8 77 9 79 10 80 11 81 14 82 12 83 13 84 15 85 16 86
REMARK SMILES IDX 17 87 18 88 19 89 27 90 20 91 22 92 26 93 21 94 23 95 25 96
REMARK SMILES IDX 24 97
REMARK H PARENT 3 5 87 23 53 34 7 78
REMARK Flexibility Score: inf
ROOT
ATOM      1  C   UNL A   1      33.627  29.201  27.291  1.00  0.00     0.118 C 
ENDROOT
BRANCH   1   2
ATOM      2  N   UNL A   1      33.593  30.467  28.006  1.00  0.00    -0.352 N 
ATOM      3  O   UNL A   1      34.528  32.170  29.186  1.00  0.00    -0.269 OA
ATOM      4  C   UNL A   1      34.650  31.069  28.662  1.00  0.00     0.251 C 
ATOM      5  H   UNL A   1      32.731  30.943  28.023  1.00  0.00     0.163 HD
BRANCH   4   6
ATOM      6  C   UNL A   1      35.938  30.344  28.752  1.00  0.00     0.039 A 
ATOM      7  C   UNL A   1      36.363  29.785  29.962  1.00  0.00     0.014 A 
ATOM      8  C   UNL A   1      36.757  30.289  27.623  1.00  0.00     0.014 A 
ATOM      9  C   UNL A   1      37.657  29.259  30.068  1.00  0.00     0.010 A 
ATOM     10  C   UNL A   1      38.042  29.745  27.727  1.00  0.00     0.010 A 
ATOM     11  C   UNL A   1      38.522  29.271  28.961  1.00  0.00    -0.014 A 
BRANCH  11  12
ATOM     12  C   UNL A   1      39.959  28.902  29.095  1.00  0.00     0.031 A 
ATOM     13  C   UNL A   1      40.955  29.951  29.520  1.00  0.00     0.074 A 
ATOM     14  C   UNL A   1      40.396  27.662  28.807  1.00  0.00     0.049 A 
ATOM     15  N   UNL A   1      42.261  29.885  29.578  1.00  0.00    -0.248 NA
ATOM     16  C   UNL A   1      40.401  31.252  29.925  1.00  0.00     0.031 C 
ATOM     17  C   UNL A   1      39.550  26.542  28.401  1.00  0.00     0.029 A 
ATOM     18  N   UNL A   1      41.670  27.148  28.788  1.00  0.00    -0.354 N 
ATOM     19  C   UNL A   1      42.687  31.140  29.997  1.00  0.00     0.074 A 
ATOM     20  C   UNL A   1      41.500  31.953  30.163  1.00  0.00     0.031 C 
ATOM     21  C   UNL A   1      40.330  25.476  28.153  1.00  0.00     0.029 A 
ATOM     22  C   UNL A   1      41.732  25.848  28.344  1.00  0.00     0.049 A 
ATOM     23  H   UNL A   1      42.463  27.660  29.066  1.00  0.00     0.167 HD
ATOM     24  C   UNL A   1      43.950  31.581  30.225  1.00  0.00     0.037 A 
ATOM     25  C   UNL A   1      42.794  25.055  28.089  1.00  0.00     0.037 A 
ATOM     26  C   UNL A   1      45.133  30.776  30.076  1.00  0.00     0.049 A 
ATOM     27  C   UNL A   1      44.191  25.566  28.317  1.00  0.00     0.074 A 
ATOM     28  C   UNL A   1      46.450  31.129  30.318  1.00  0.00     0.029 A 
ATOM     29  N   UNL A   1      45.149  29.460  29.640  1.00  0.00    -0.354 N 
ATOM     30  N   UNL A   1      44.577  26.748  28.735  1.00  0.00    -0.248 NA
ATOM     31  C   UNL A   1      45.298  24.637  28.043  1.00  0.00     0.031 C 
ATOM     32  C   UNL A   1      47.264  30.040  29.993  1.00  0.00     0.029 A 
ATOM     33  C   UNL A   1      46.451  28.993  29.588  1.00  0.00     0.049 A 
ATOM     34  H   UNL A   1      44.351  28.936  29.401  1.00  0.00     0.167 HD
ATOM     35  C   UNL A   1      45.967  26.696  28.797  1.00  0.00     0.074 A 
ATOM     36  C   UNL A   1      46.356  25.368  28.372  1.00  0.00     0.031 C 
ATOM     37  C   UNL A   1      46.836  27.664  29.180  1.00  0.00     0.037 A 
BRANCH  24  38
ATOM     38  C   UNL A   1      44.113  33.018  30.632  1.00  0.00     0.058 A 
ATOM     39  C   UNL A   1      44.187  33.402  31.980  1.00  0.00     0.135 A 
ATOM     40  C   UNL A   1      44.191  34.026  29.658  1.00  0.00     0.135 A 
ATOM     41  F   UNL A   1      44.103  32.478  32.951  1.00  0.00    -0.206 F 
ATOM     42  C   UNL A   1      44.288  34.739  32.351  1.00  0.00     0.059 A 
ATOM     43  C   UNL A   1      44.316  35.368  30.004  1.00  0.00     0.059 A 
ATOM     44  F   UNL A   1      44.129  33.714  28.354  1.00  0.00    -0.206 F 
ATOM     45  C   UNL A   1      44.339  35.716  31.355  1.00  0.00     0.060 A 
BRANCH  45  46
ATOM     46  S   UNL A   1      44.417  37.451  31.845  1.00  0.00     0.124 S 
ATOM     47  O   UNL A   1      44.003  38.115  30.613  1.00  0.00    -0.237 OA
ATOM     48  O   UNL A   1      43.463  37.511  32.948  1.00  0.00    -0.237 OA
ATOM     49  O   UNL A   1      45.816  37.635  32.220  1.00  0.00    -0.744 OA
ENDBRANCH  45  46
ENDBRANCH  24  38
BRANCH  25  50
ATOM     50  C   UNL A   1      42.560  23.683  27.570  1.00  0.00     0.058 A 
ATOM     51  C   UNL A   1      42.564  23.421  26.193  1.00  0.00     0.135 A 
ATOM     52  C   UNL A   1      42.391  22.599  28.445  1.00  0.00     0.135 A 
ATOM     53  F   UNL A   1      42.707  24.428  25.319  1.00  0.00    -0.206 F 
ATOM     54  C   UNL A   1      42.422  22.127  25.700  1.00  0.00     0.059 A 
ATOM     55  C   UNL A   1      42.267  21.295  27.977  1.00  0.00     0.059 A 
ATOM     56  F   UNL A   1      42.386  22.801  29.772  1.00  0.00    -0.206 F 
ATOM     57  C   UNL A   1      42.287  21.069  26.601  1.00  0.00     0.060 A 
BRANCH  57  58
ATOM     58  S   UNL A   1      42.214  19.384  25.955  1.00  0.00     0.124 S 
ATOM     59  O   UNL A   1      43.110  19.469  24.808  1.00  0.00    -0.237 OA
ATOM     60  O   UNL A   1      42.697  18.600  27.087  1.00  0.00    -0.237 OA
ATOM     61  O   UNL A   1      40.799  19.207  25.641  1.00  0.00    -0.744 OA
ENDBRANCH  57  58
ENDBRANCH  25  50
BRANCH  37  62
ATOM     62  C   UNL A   1      48.302  27.330  29.205  1.00  0.00     0.058 A 
ATOM     63  C   UNL A   1      49.148  27.639  28.129  1.00  0.00     0.135 A 
ATOM     64  C   UNL A   1      48.882  26.781  30.361  1.00  0.00     0.135 A 
ATOM     65  F   UNL A   1      48.644  28.159  27.000  1.00  0.00    -0.206 F 
ATOM     66  C   UNL A   1      50.522  27.417  28.199  1.00  0.00     0.059 A 
ATOM     67  C   UNL A   1      50.254  26.568  30.459  1.00  0.00     0.059 A 
ATOM     68  F   UNL A   1      48.117  26.476  31.419  1.00  0.00    -0.206 F 
ATOM     69  C   UNL A   1      51.066  26.887  29.371  1.00  0.00     0.060 A 
BRANCH  69  70
ATOM     70  S   UNL A   1      52.856  26.670  29.479  1.00  0.00     0.124 S 
ATOM     71  O   UNL A   1      53.319  28.053  29.533  1.00  0.00    -0.237 OA
ATOM     72  O   UNL A   1      53.007  25.903  30.711  1.00  0.00    -0.237 OA
ATOM     73  O   UNL A   1      53.184  25.946  28.254  1.00  0.00    -0.744 OA
ENDBRANCH  69  70
ENDBRANCH  37  62
ENDBRANCH  11  12
ENDBRANCH   4   6
ENDBRANCH   1   2
BRANCH   1  74
ATOM     74  C   UNL A   1      33.777  29.302  25.768  1.00  0.00     0.042 C 
BRANCH  74  75
ATOM     75  C   UNL A   1      32.500  29.523  24.962  1.00  0.00     0.118 C 
BRANCH  75  76
ATOM     76  N   UNL A   1      32.583  28.845  23.692  1.00  0.00    -0.351 N 
ATOM     77  C   UNL A   1      32.337  27.515  23.446  1.00  0.00     0.262 C 
ATOM     78  H   UNL A   1      32.843  29.394  22.918  1.00  0.00     0.163 HD
ATOM     79  O   UNL A   1      33.133  26.837  22.842  1.00  0.00    -0.268 OA
BRANCH  77  80
ATOM     80  C   UNL A   1      31.036  27.060  23.867  1.00  0.00     0.112 A 
ATOM     81  S   UNL A   1      29.696  27.798  23.088  1.00  0.00    -0.137 S 
ATOM     82  C   UNL A   1      30.658  26.119  24.808  1.00  0.00     0.106 A 
ATOM     83  C   UNL A   1      28.603  26.717  23.818  1.00  0.00     0.067 A 
ATOM     84  C   UNL A   1      29.233  25.890  24.724  1.00  0.00     0.034 A 
BRANCH  82  85
ATOM     85  S   UNL A   1      31.707  25.149  25.856  1.00  0.00     0.245 S 
ATOM     86  O   UNL A   1      32.626  26.149  26.351  1.00  0.00    -0.207 OA
ATOM     87  O   UNL A   1      30.775  24.507  26.761  1.00  0.00    -0.207 OA
BRANCH  85  88
ATOM     88  N   UNL A   1      32.624  23.922  25.066  1.00  0.00    -0.190 NA
ATOM     89  C   UNL A   1      31.960  23.275  23.883  1.00  0.00     0.131 C 
ATOM     90  C   UNL A   1      34.154  24.056  24.968  1.00  0.00     0.102 C 
ATOM     91  C   UNL A   1      32.721  23.480  22.579  1.00  0.00     0.177 C 
ATOM     92  C   UNL A   1      34.795  23.838  23.561  1.00  0.00     0.136 C 
ATOM     93  C   UNL A   1      34.853  23.176  26.013  1.00  0.00     0.023 C 
ATOM     94  O   UNL A   1      34.038  22.967  22.719  1.00  0.00    -0.375 OA
ATOM     95  C   UNL A   1      36.213  23.253  23.638  1.00  0.00     0.034 C 
ATOM     96  C   UNL A   1      35.304  21.814  25.532  1.00  0.00     0.002 C 
ATOM     97  C   UNL A   1      36.257  21.899  24.350  1.00  0.00     0.003 C 
ENDBRANCH  85  88
ENDBRANCH  82  85
ENDBRANCH  77  80
ENDBRANCH  75  76
ENDBRANCH  74  75
ENDBRANCH   1  74
TORSDOF 15
ENDMDL
MODEL 2
REMARK VINA RESULT:     -12.0      1.116      1.904
REMARK SMILES O=C(NCCCNC(=O)c1sccc1S(=O)(=O)N1CCO[C@@H]2CCCC[C@@H]21)c1ccc(-c2c3nc(c(-c4c(F)cc(S(=O)(=O)[O-])cc4F)c4ccc([nH]4)c(-c4c(F)cc(S(=O)(=O)[O-])cc4F)c4nc(c(-c5c(F)cc(S(=O)(=O)[O-])cc5F)c5ccc2[nH]5)C=C4)C=C3)cc1
REMARK SMILES IDX 4 1 3 2 1 3 2 4 28 6 29 7 93 8 30 9 92 10 31 11 32 12 33 13
REMARK SMILES IDX 86 14 34 15 91 16 85 17 87 18 35 19 90 20 84 21 83 22 36 24
REMARK SMILES IDX 70 25 49 26 69 27 50 28 53 29 68 30 88 31 51 32 52 33 67 35
REMARK SMILES IDX 89 36 54 37 37 38 38 39 47 40 39 41 40 42 46 43 48 44 41 45
REMARK SMILES IDX 42 46 43 47 44 48 45 49 71 50 72 51 81 52 73 53 74 54 80 55
REMARK SMILES IDX 82 56 75 57 76 58 77 59 78 60 79 61 55 62 56 63 65 64 57 65
REMARK SMILES IDX 58 66 64 67 66 68 59 69 60 70 61 71 62 72 63 73 5 74 6 75
REMARK SMILES IDX 7 76 8 77 9 79 10 80 11 81 14 82 12 83 13 84 15 85 16 86
REMARK SMILES IDX 17 87 18 88 19 89 27 90 20 91 22 92 26 93 21 94 23 95 25 96
REMARK SMILES IDX 24 97
REMARK H PARENT 3 5 87 23 53 34 7 78
REMARK Flexibility Score: inf
ROOT
ATOM      1  C   UNL A   1      33.316  28.832  27.544  1.00  0.00     0.118 C 
ENDROOT
BRANCH   1   2
ATOM      2  N   UNL A   1      33.364  30.254  27.849  1.00  0.00    -0.352 N 
ATOM      3  O   UNL A   1      34.427  32.190  28.387  1.00  0.00    -0.269 OA
ATOM      4  C   UNL A   1      34.485  30.979  28.207  1.00  0.00     0.251 C 
ATOM      5  H   UNL A   1      32.515  30.748  27.795  1.00  0.00     0.163 HD
BRANCH   4   6
ATOM      6  C   UNL A   1      35.766  30.261  28.403  1.00  0.00     0.039 A 
ATOM      7  C   UNL A   1      36.124  29.765  29.661  1.00  0.00     0.014 A 
ATOM      8  C   UNL A   1      36.644  30.150  27.324  1.00  0.00     0.014 A 
ATOM      9  C   UNL A   1      37.410  29.247  29.863  1.00  0.00     0.010 A 
ATOM     10  C   UNL A   1      37.921  29.614  27.524  1.00  0.00     0.010 A 
ATOM     11  C   UNL A   1      38.333  29.204  28.805  1.00  0.00    -0.014 A 
BRANCH  11  12
ATOM     12  C   UNL A   1      39.761  28.844  29.034  1.00  0.00     0.031 A 
ATOM     13  C   UNL A   1      40.717  29.897  29.533  1.00  0.00     0.074 A 
ATOM     14  C   UNL A   1      40.225  27.609  28.769  1.00  0.00     0.049 A 
ATOM     15  N   UNL A   1      42.016  29.840  29.680  1.00  0.00    -0.248 NA
ATOM     16  C   UNL A   1      40.126  31.192  29.907  1.00  0.00     0.031 C 
ATOM     17  C   UNL A   1      39.417  26.486  28.299  1.00  0.00     0.029 A 
ATOM     18  N   UNL A   1      41.502  27.104  28.834  1.00  0.00    -0.354 N 
ATOM     19  C   UNL A   1      42.404  31.095  30.135  1.00  0.00     0.074 A 
ATOM     20  C   UNL A   1      41.202  31.899  30.224  1.00  0.00     0.031 C 
ATOM     21  C   UNL A   1      40.220  25.427  28.098  1.00  0.00     0.029 A 
ATOM     22  C   UNL A   1      41.603  25.808  28.387  1.00  0.00     0.049 A 
ATOM     23  H   UNL A   1      42.270  27.620  29.169  1.00  0.00     0.167 HD
ATOM     24  C   UNL A   1      43.644  31.543  30.452  1.00  0.00     0.037 A 
ATOM     25  C   UNL A   1      42.686  25.024  28.200  1.00  0.00     0.037 A 
ATOM     26  C   UNL A   1      44.841  30.747  30.379  1.00  0.00     0.049 A 
ATOM     27  C   UNL A   1      44.060  25.543  28.527  1.00  0.00     0.074 A 
ATOM     28  C   UNL A   1      46.135  31.108  30.712  1.00  0.00     0.029 A 
ATOM     29  N   UNL A   1      44.896  29.434  29.936  1.00  0.00    -0.354 N 
ATOM     30  N   UNL A   1      44.408  26.724  28.977  1.00  0.00    -0.248 NA
ATOM     31  C   UNL A   1      45.190  24.624  28.323  1.00  0.00     0.031 C 
ATOM     32  C   UNL A   1      46.978  30.026  30.437  1.00  0.00     0.029 A 
ATOM     33  C   UNL A   1      46.203  28.977  29.971  1.00  0.00     0.049 A 
ATOM     34  H   UNL A   1      44.120  28.906  29.641  1.00  0.00     0.167 HD
ATOM     35  C   UNL A   1      45.790  26.682  29.134  1.00  0.00     0.074 A 
ATOM     36  C   UNL A   1      46.218  25.360  28.728  1.00  0.00     0.031 C 
ATOM     37  C   UNL A   1      46.624  27.653  29.581  1.00  0.00     0.037 A 
BRANCH  24  38
ATOM     38  C   UNL A   1      43.768  32.979  30.878  1.00  0.00     0.058 A 
ATOM     39  C   UNL A   1      44.035  34.003  29.957  1.00  0.00     0.135 A 
ATOM     40  C   UNL A   1      43.622  33.333  32.229  1.00  0.00     0.135 A 
ATOM     41  F   UNL A   1      44.196  33.716  28.655  1.00  0.00    -0.206 F 
ATOM     42  C   UNL A   1      44.197  35.323  30.365  1.00  0.00     0.059 A 
ATOM     43  C   UNL A   1      43.757  34.650  32.657  1.00  0.00     0.059 A 
ATOM     44  F   UNL A   1      43.363  32.392  33.151  1.00  0.00    -0.206 F 
ATOM     45  C   UNL A   1      44.070  35.634  31.719  1.00  0.00     0.060 A 
BRANCH  45  46
ATOM     46  S   UNL A   1      44.334  37.340  32.247  1.00  0.00     0.124 S 
ATOM     47  O   UNL A   1      45.780  37.357  32.446  1.00  0.00    -0.237 OA
ATOM     48  O   UNL A   1      43.843  38.103  31.104  1.00  0.00    -0.237 OA
ATOM     49  O   UNL A   1      43.530  37.447  33.461  1.00  0.00    -0.744 OA
ENDBRANCH  45  46
ENDBRANCH  24  38
BRANCH  25  50
ATOM     50  C   UNL A   1      42.498  23.654  27.658  1.00  0.00     0.058 A 
ATOM     51  C   UNL A   1      42.445  23.425  26.276  1.00  0.00     0.135 A 
ATOM     52  C   UNL A   1      42.431  22.542  28.512  1.00  0.00     0.135 A 
ATOM     53  F   UNL A   1      42.490  24.458  25.423  1.00  0.00    -0.206 F 
ATOM     54  C   UNL A   1      42.346  22.137  25.757  1.00  0.00     0.059 A 
ATOM     55  C   UNL A   1      42.352  21.244  28.016  1.00  0.00     0.059 A 
ATOM     56  F   UNL A   1      42.484  22.712  29.842  1.00  0.00    -0.206 F 
ATOM     57  C   UNL A   1      42.313  21.052  26.635  1.00  0.00     0.060 A 
BRANCH  57  58
ATOM     58  S   UNL A   1      42.296  19.382  25.950  1.00  0.00     0.124 S 
ATOM     59  O   UNL A   1      43.224  19.512  24.833  1.00  0.00    -0.237 OA
ATOM     60  O   UNL A   1      42.761  18.582  27.079  1.00  0.00    -0.237 OA
ATOM     61  O   UNL A   1      40.895  19.183  25.588  1.00  0.00    -0.744 OA
ENDBRANCH  57  58
ENDBRANCH  25  50
BRANCH  37  62
ATOM     62  C   UNL A   1      48.087  27.330  29.704  1.00  0.00     0.058 A 
ATOM     63  C   UNL A   1      48.991  27.586  28.662  1.00  0.00     0.135 A 
ATOM     64  C   UNL A   1      48.605  26.847  30.918  1.00  0.00     0.135 A 
ATOM     65  F   UNL A   1      48.548  28.042  27.480  1.00  0.00    -0.206 F 
ATOM     66  C   UNL A   1      50.359  27.375  28.819  1.00  0.00     0.059 A 
ATOM     67  C   UNL A   1      49.970  26.646  31.102  1.00  0.00     0.059 A 
ATOM     68  F   UNL A   1      47.783  26.593  31.948  1.00  0.00    -0.206 F 
ATOM     69  C   UNL A   1      50.840  26.912  30.046  1.00  0.00     0.060 A 
BRANCH  69  70
ATOM     70  S   UNL A   1      52.622  26.711  30.262  1.00  0.00     0.124 S 
ATOM     71  O   UNL A   1      53.014  28.036  30.728  1.00  0.00    -0.237 OA
ATOM     72  O   UNL A   1      52.699  25.643  31.253  1.00  0.00    -0.237 OA
ATOM     73  O   UNL A   1      53.088  26.351  28.926  1.00  0.00    -0.744 OA
ENDBRANCH  69  70
ENDBRANCH  37  62
ENDBRANCH  11  12
ENDBRANCH   4   6
ENDBRANCH   1   2
BRANCH   1  74
ATOM     74  C   UNL A   1      32.304  28.418  26.467  1.00  0.00     0.042 C 
BRANCH  74  75
ATOM     75  C   UNL A   1      32.614  27.146  25.684  1.00  0.00     0.118 C 
BRANCH  75  76
ATOM     76  N   UNL A   1      31.451  26.296  25.624  1.00  0.00    -0.351 N 
ATOM     77  C   UNL A   1      30.607  26.123  24.552  1.00  0.00     0.262 C 
ATOM     78  H   UNL A   1      31.239  25.785  26.437  1.00  0.00     0.163 HD
ATOM     79  O   UNL A   1      29.411  26.231  24.679  1.00  0.00    -0.268 OA
BRANCH  77  80
ATOM     80  C   UNL A   1      31.261  25.707  23.338  1.00  0.00     0.112 A 
ATOM     81  S   UNL A   1      31.297  26.866  22.072  1.00  0.00    -0.137 S 
ATOM     82  C   UNL A   1      31.878  24.518  22.994  1.00  0.00     0.106 A 
ATOM     83  C   UNL A   1      32.332  25.895  21.134  1.00  0.00     0.067 A 
ATOM     84  C   UNL A   1      32.549  24.666  21.722  1.00  0.00     0.034 A 
BRANCH  82  85
ATOM     85  S   UNL A   1      32.043  23.055  23.979  1.00  0.00     0.245 S 
ATOM     86  O   UNL A   1      30.973  23.229  24.936  1.00  0.00    -0.207 OA
ATOM     87  O   UNL A   1      31.979  21.985  23.004  1.00  0.00    -0.207 OA
BRANCH  85  88
ATOM     88  N   UNL A   1      33.522  22.903  24.851  1.00  0.00    -0.190 NA
ATOM     89  C   UNL A   1      33.396  22.908  26.349  1.00  0.00     0.131 C 
ATOM     90  C   UNL A   1      34.652  22.023  24.289  1.00  0.00     0.102 C 
ATOM     91  C   UNL A   1      33.880  21.616  26.996  1.00  0.00     0.177 C 
ATOM     92  C   UNL A   1      35.298  20.992  25.267  1.00  0.00     0.136 C 
ATOM     93  C   UNL A   1      35.738  22.878  23.622  1.00  0.00     0.023 C 
ATOM     94  O   UNL A   1      35.235  21.390  26.638  1.00  0.00    -0.375 OA
ATOM     95  C   UNL A   1      36.779  20.724  24.956  1.00  0.00     0.034 C 
ATOM     96  C   UNL A   1      36.930  23.223  24.490  1.00  0.00     0.002 C 
ATOM     97  C   UNL A   1      37.637  21.989  25.026  1.00  0.00     0.003 C 
ENDBRANCH  85  88
ENDBRANCH  82  85
ENDBRANCH  77  80
ENDBRANCH  75  76
ENDBRANCH  74  75
ENDBRANCH   1  74
TORSDOF 15
ENDMDL
MODEL 3
REMARK VINA RESULT:     -11.9      1.533      2.155
REMARK SMILES O=C(NCCCNC(=O)c1sccc1S(=O)(=O)N1CCO[C@@H]2CCCC[C@@H]21)c1ccc(-c2c3nc(c(-c4c(F)cc(S(=O)(=O)[O-])cc4F)c4ccc([nH]4)c(-c4c(F)cc(S(=O)(=O)[O-])cc4F)c4nc(c(-c5c(F)cc(S(=O)(=O)[O-])cc5F)c5ccc2[nH]5)C=C4)C=C3)cc1
REMARK SMILES IDX 4 1 3 2 1 3 2 4 28 6 29 7 93 8 30 9 92 10 31 11 32 12 33 13
REMARK SMILES IDX 86 14 34 15 91 16 85 17 87 18 35 19 90 20 84 21 83 22 36 24
REMARK SMILES IDX 70 25 49 26 69 27 50 28 53 29 68 30 88 31 51 32 52 33 67 35
REMARK SMILES IDX 89 36 54 37 37 38 38 39 47 40 39 41 40 42 46 43 48 44 41 45
REMARK SMILES IDX 42 46 43 47 44 48 45 49 71 50 72 51 81 52 73 53 74 54 80 55
REMARK SMILES IDX 82 56 75 57 76 58 77 59 78 60 79 61 55 62 56 63 65 64 57 65
REMARK SMILES IDX 58 66 64 67 66 68 59 69 60 70 61 71 62 72 63 73 5 74 6 75
REMARK SMILES IDX 7 76 8 77 9 79 10 80 11 81 14 82 12 83 13 84 15 85 16 86
REMARK SMILES IDX 17 87 18 88 19 89 27 90 20 91 22 92 26 93 21 94 23 95 25 96
REMARK SMILES IDX 24 97
REMARK H PARENT 3 5 87 23 53 34 7 78
REMARK Flexibility Score: inf
ROOT
ATOM      1  C   UNL A   1      34.578  30.628  27.620  1.00  0.00     0.118 C 
ENDROOT
BRANCH   1   2
ATOM      2  N   UNL A   1      34.484  31.278  28.918  1.00  0.00    -0.352 N 
ATOM      3  O   UNL A   1      35.306  31.951  30.927  1.00  0.00    -0.269 OA
ATOM      4  C   UNL A   1      35.468  31.323  29.887  1.00  0.00     0.251 C 
ATOM      5  H   UNL A   1      33.635  31.730  29.126  1.00  0.00     0.163 HD
BRANCH   4   6
ATOM      6  C   UNL A   1      36.724  30.572  29.663  1.00  0.00     0.039 A 
ATOM      7  C   UNL A   1      37.366  29.919  30.721  1.00  0.00     0.014 A 
ATOM      8  C   UNL A   1      37.296  30.583  28.390  1.00  0.00     0.014 A 
ATOM      9  C   UNL A   1      38.638  29.364  30.526  1.00  0.00     0.010 A 
ATOM     10  C   UNL A   1      38.557  30.010  28.194  1.00  0.00     0.010 A 
ATOM     11  C   UNL A   1      39.262  29.440  29.270  1.00  0.00    -0.014 A 
BRANCH  11  12
ATOM     12  C   UNL A   1      40.683  29.037  29.083  1.00  0.00     0.031 A 
ATOM     13  C   UNL A   1      41.768  30.078  29.198  1.00  0.00     0.074 A 
ATOM     14  C   UNL A   1      41.020  27.771  28.774  1.00  0.00     0.049 A 
ATOM     15  N   UNL A   1      43.049  29.977  28.951  1.00  0.00    -0.248 NA
ATOM     16  C   UNL A   1      41.345  31.415  29.644  1.00  0.00     0.031 C 
ATOM     17  C   UNL A   1      40.084  26.657  28.646  1.00  0.00     0.029 A 
ATOM     18  N   UNL A   1      42.245  27.220  28.486  1.00  0.00    -0.354 N 
ATOM     19  C   UNL A   1      43.582  31.240  29.183  1.00  0.00     0.074 A 
ATOM     20  C   UNL A   1      42.481  32.095  29.575  1.00  0.00     0.031 C 
ATOM     21  C   UNL A   1      40.767  25.556  28.285  1.00  0.00     0.029 A 
ATOM     22  C   UNL A   1      42.180  25.897  28.118  1.00  0.00     0.049 A 
ATOM     23  H   UNL A   1      43.090  27.723  28.539  1.00  0.00     0.167 HD
ATOM     24  C   UNL A   1      44.869  31.655  29.081  1.00  0.00     0.037 A 
ATOM     25  C   UNL A   1      43.138  25.060  27.668  1.00  0.00     0.037 A 
ATOM     26  C   UNL A   1      45.971  30.809  28.705  1.00  0.00     0.049 A 
ATOM     27  C   UNL A   1      44.558  25.541  27.530  1.00  0.00     0.074 A 
ATOM     28  C   UNL A   1      47.313  31.136  28.609  1.00  0.00     0.029 A 
ATOM     29  N   UNL A   1      45.862  29.472  28.356  1.00  0.00    -0.354 N 
ATOM     30  N   UNL A   1      45.050  26.732  27.774  1.00  0.00    -0.248 NA
ATOM     31  C   UNL A   1      45.554  24.567  27.058  1.00  0.00     0.031 C 
ATOM     32  C   UNL A   1      48.010  30.007  28.167  1.00  0.00     0.029 A 
ATOM     33  C   UNL A   1      47.108  28.964  28.027  1.00  0.00     0.049 A 
ATOM     34  H   UNL A   1      45.022  28.959  28.344  1.00  0.00     0.167 HD
ATOM     35  C   UNL A   1      46.414  26.644  27.510  1.00  0.00     0.074 A 
ATOM     36  C   UNL A   1      46.671  25.283  27.085  1.00  0.00     0.031 C 
ATOM     37  C   UNL A   1      47.364  27.605  27.619  1.00  0.00     0.037 A 
BRANCH  24  38
ATOM     38  C   UNL A   1      45.147  33.107  29.352  1.00  0.00     0.058 A 
ATOM     39  C   UNL A   1      45.477  33.570  30.635  1.00  0.00     0.135 A 
ATOM     40  C   UNL A   1      45.076  34.048  28.312  1.00  0.00     0.135 A 
ATOM     41  F   UNL A   1      45.544  32.713  31.666  1.00  0.00    -0.206 F 
ATOM     42  C   UNL A   1      45.684  34.922  30.888  1.00  0.00     0.059 A 
ATOM     43  C   UNL A   1      45.303  35.403  28.537  1.00  0.00     0.059 A 
ATOM     44  F   UNL A   1      44.768  33.658  27.066  1.00  0.00    -0.206 F 
ATOM     45  C   UNL A   1      45.581  35.832  29.835  1.00  0.00     0.060 A 
BRANCH  45  46
ATOM     46  S   UNL A   1      45.799  37.590  30.182  1.00  0.00     0.124 S 
ATOM     47  O   UNL A   1      44.779  37.809  31.202  1.00  0.00    -0.237 OA
ATOM     48  O   UNL A   1      47.182  37.651  30.646  1.00  0.00    -0.237 OA
ATOM     49  O   UNL A   1      45.546  38.225  28.892  1.00  0.00    -0.744 OA
ENDBRANCH  45  46
ENDBRANCH  24  38
BRANCH  25  50
ATOM     50  C   UNL A   1      42.767  23.670  27.301  1.00  0.00     0.058 A 
ATOM     51  C   UNL A   1      42.618  23.291  25.959  1.00  0.00     0.135 A 
ATOM     52  C   UNL A   1      42.615  22.679  28.284  1.00  0.00     0.135 A 
ATOM     53  F   UNL A   1      42.740  24.207  24.987  1.00  0.00    -0.206 F 
ATOM     54  C   UNL A   1      42.346  21.974  25.602  1.00  0.00     0.059 A 
ATOM     55  C   UNL A   1      42.362  21.352  27.951  1.00  0.00     0.059 A 
ATOM     56  F   UNL A   1      42.753  22.994  29.582  1.00  0.00    -0.206 F 
ATOM     57  C   UNL A   1      42.232  21.009  26.605  1.00  0.00     0.060 A 
BRANCH  57  58
ATOM     58  S   UNL A   1      41.988  19.285  26.126  1.00  0.00     0.124 S 
ATOM     59  O   UNL A   1      42.906  19.159  25.001  1.00  0.00    -0.237 OA
ATOM     60  O   UNL A   1      42.365  18.572  27.342  1.00  0.00    -0.237 OA
ATOM     61  O   UNL A   1      40.567  19.229  25.793  1.00  0.00    -0.744 OA
ENDBRANCH  57  58
ENDBRANCH  25  50
BRANCH  37  62
ATOM     62  C   UNL A   1      48.789  27.230  27.318  1.00  0.00     0.058 A 
ATOM     63  C   UNL A   1      49.634  26.689  28.298  1.00  0.00     0.135 A 
ATOM     64  C   UNL A   1      49.282  27.325  26.006  1.00  0.00     0.135 A 
ATOM     65  F   UNL A   1      49.213  26.582  29.568  1.00  0.00    -0.206 F 
ATOM     66  C   UNL A   1      50.920  26.253  27.989  1.00  0.00     0.059 A 
ATOM     67  C   UNL A   1      50.558  26.879  25.671  1.00  0.00     0.059 A 
ATOM     68  F   UNL A   1      48.511  27.828  25.030  1.00  0.00    -0.206 F 
ATOM     69  C   UNL A   1      51.370  26.345  26.670  1.00  0.00     0.060 A 
BRANCH  69  70
ATOM     70  S   UNL A   1      53.012  25.712  26.264  1.00  0.00     0.124 S 
ATOM     71  O   UNL A   1      53.467  26.683  25.275  1.00  0.00    -0.237 OA
ATOM     72  O   UNL A   1      53.694  25.755  27.554  1.00  0.00    -0.237 OA
ATOM     73  O   UNL A   1      52.742  24.372  25.751  1.00  0.00    -0.744 OA
ENDBRANCH  69  70
ENDBRANCH  37  62
ENDBRANCH  11  12
ENDBRANCH   4   6
ENDBRANCH   1   2
BRANCH   1  74
ATOM     74  C   UNL A   1      33.408  29.706  27.252  1.00  0.00     0.042 C 
BRANCH  74  75
ATOM     75  C   UNL A   1      32.554  30.121  26.057  1.00  0.00     0.118 C 
BRANCH  75  76
ATOM     76  N   UNL A   1      33.086  29.559  24.839  1.00  0.00    -0.351 N 
ATOM     77  C   UNL A   1      32.850  28.301  24.336  1.00  0.00     0.262 C 
ATOM     78  H   UNL A   1      33.681  30.138  24.312  1.00  0.00     0.163 HD
ATOM     79  O   UNL A   1      33.763  27.583  24.005  1.00  0.00    -0.268 OA
BRANCH  77  80
ATOM     80  C   UNL A   1      31.457  27.984  24.149  1.00  0.00     0.112 A 
ATOM     81  S   UNL A   1      30.615  28.955  23.012  1.00  0.00    -0.137 S 
ATOM     82  C   UNL A   1      30.654  27.021  24.733  1.00  0.00     0.106 A 
ATOM     83  C   UNL A   1      29.233  27.966  23.104  1.00  0.00     0.067 A 
ATOM     84  C   UNL A   1      29.371  26.988  24.066  1.00  0.00     0.034 A 
BRANCH  82  85
ATOM     85  S   UNL A   1      31.103  25.835  25.969  1.00  0.00     0.245 S 
ATOM     86  O   UNL A   1      31.837  26.657  26.905  1.00  0.00    -0.207 OA
ATOM     87  O   UNL A   1      29.832  25.254  26.353  1.00  0.00    -0.207 OA
BRANCH  85  88
ATOM     88  N   UNL A   1      32.141  24.563  25.444  1.00  0.00    -0.190 NA
ATOM     89  C   UNL A   1      33.511  24.546  26.062  1.00  0.00     0.131 C 
ATOM     90  C   UNL A   1      31.550  23.180  25.120  1.00  0.00     0.102 C 
ATOM     91  C   UNL A   1      33.792  23.283  26.866  1.00  0.00     0.177 C 
ATOM     92  C   UNL A   1      32.252  21.942  25.763  1.00  0.00     0.136 C 
ATOM     93  C   UNL A   1      31.404  22.983  23.605  1.00  0.00     0.023 C 
ATOM     94  O   UNL A   1      33.640  22.148  26.027  1.00  0.00    -0.375 OA
ATOM     95  C   UNL A   1      32.153  20.683  24.889  1.00  0.00     0.034 C 
ATOM     96  C   UNL A   1      32.543  22.254  22.923  1.00  0.00     0.002 C 
ATOM     97  C   UNL A   1      32.781  20.871  23.506  1.00  0.00     0.003 C 
ENDBRANCH  85  88
ENDBRANCH  82  85
ENDBRANCH  77  80
ENDBRANCH  75  76
ENDBRANCH  74  75
ENDBRANCH   1  74
TORSDOF 15
ENDMDL
