MODEL 1
REMARK VINA RESULT:     -12.1      0.000      0.000
REMARK SMILES COc1cc(-c2cccc(C(N)=O)c2)ccc1C(=O)NCCCNC(=O)c1ccc(-c2c3nc(c(-c4c(F)cc(S(=O)(=O)[O-])cc4F)c4ccc([nH]4)c(-c4c(F)cc(S(=O)(=O)[O-])cc4F)c4nc(c(-c5c(F)cc(S(=O)(=O)[O-])cc5F)c5ccc2[nH]5)C=C4)C=C3)cc1
REMARK SMILES IDX 22 1 21 2 20 3 18 4 19 5 17 7 3 8 4 9 5 10 16 11 15 12 2 13
REMARK SMILES IDX 1 14 6 15 7 16 14 17 8 18 10 19 9 20 11 21 12 22 13 23 23 26
REMARK SMILES IDX 24 27 25 28 26 30 27 31 28 32 92 33 29 34 91 35 30 36 31 37
REMARK SMILES IDX 32 38 85 39 33 40 90 41 84 42 86 43 34 44 89 45 83 46 82 47
REMARK SMILES IDX 35 49 69 50 48 51 68 52 49 53 52 54 67 55 87 56 50 57 51 58
REMARK SMILES IDX 66 60 88 61 53 62 36 63 37 64 46 65 38 66 39 67 45 68 47 69
REMARK SMILES IDX 40 70 41 71 42 72 43 73 44 74 70 75 71 76 80 77 72 78 73 79
REMARK SMILES IDX 79 80 81 81 74 82 75 83 76 84 77 85 78 86 54 87 55 88 64 89
REMARK SMILES IDX 56 90 57 91 63 92 65 93 58 94 59 95 60 96 61 97 62 98
REMARK H PARENT 20 6 12 24 12 25 24 29 86 48 52 59
REMARK Flexibility Score: inf
ROOT
ATOM      1  C   UNL A   1      33.758  30.687  27.250  1.00  0.00     0.042 C 
ENDROOT
BRANCH   1   2
ATOM      2  C   UNL A   1      33.546  29.453  26.391  1.00  0.00     0.118 C 
BRANCH   2   3
ATOM      3  N   UNL A   1      32.341  29.489  25.578  1.00  0.00    -0.352 N 
ATOM      4  C   UNL A   1      31.713  28.467  24.909  1.00  0.00     0.255 C 
ATOM      5  O   UNL A   1      30.662  28.700  24.313  1.00  0.00    -0.269 OA
ATOM      6  H   UNL A   1      31.915  30.373  25.493  1.00  0.00     0.163 HD
BRANCH   4   7
ATOM      7  C   UNL A   1      32.303  27.111  24.828  1.00  0.00     0.081 A 
ATOM      8  C   UNL A   1      31.965  26.032  25.649  1.00  0.00     0.132 A 
ATOM      9  C   UNL A   1      32.742  24.870  25.618  1.00  0.00     0.056 A 
ATOM     10  C   UNL A   1      33.805  24.712  24.713  1.00  0.00    -0.015 A 
ATOM     11  C   UNL A   1      33.305  26.939  23.861  1.00  0.00     0.018 A 
ATOM     12  C   UNL A   1      34.041  25.751  23.800  1.00  0.00     0.010 A 
BRANCH   8  13
ATOM     13  O   UNL A   1      30.982  26.040  26.600  1.00  0.00    -0.496 OA
ATOM     14  C   UNL A   1      29.743  25.522  26.124  1.00  0.00     0.278 C 
ENDBRANCH   8  13
BRANCH  10  15
ATOM     15  C   UNL A   1      34.676  23.524  24.783  1.00  0.00    -0.017 A 
ATOM     16  C   UNL A   1      34.187  22.240  24.493  1.00  0.00     0.009 A 
ATOM     17  C   UNL A   1      36.011  23.632  25.215  1.00  0.00     0.022 A 
ATOM     18  C   UNL A   1      34.987  21.105  24.652  1.00  0.00     0.001 A 
ATOM     19  C   UNL A   1      36.823  22.500  25.381  1.00  0.00     0.040 A 
ATOM     20  C   UNL A   1      36.303  21.233  25.097  1.00  0.00     0.014 A 
BRANCH  19  21
ATOM     21  C   UNL A   1      38.221  22.711  25.847  1.00  0.00     0.248 C 
ATOM     22  N   UNL A   1      38.750  23.967  25.752  1.00  0.00    -0.366 N 
ATOM     23  O   UNL A   1      38.892  21.789  26.295  1.00  0.00    -0.270 OA
ATOM     24  H   UNL A   1      38.207  24.704  25.391  1.00  0.00     0.159 HD
ATOM     25  H   UNL A   1      39.676  24.135  26.044  1.00  0.00     0.159 HD
ENDBRANCH  19  21
ENDBRANCH  10  15
ENDBRANCH   4   7
ENDBRANCH   2   3
ENDBRANCH   1   2
BRANCH   1  26
ATOM     26  C   UNL A   1      35.164  30.836  27.814  1.00  0.00     0.118 C 
BRANCH  26  27
ATOM     27  N   UNL A   1      35.216  31.017  29.262  1.00  0.00    -0.352 N 
ATOM     28  C   UNL A   1      36.152  30.637  30.197  1.00  0.00     0.251 C 
ATOM     29  H   UNL A   1      34.443  31.500  29.637  1.00  0.00     0.163 HD
ATOM     30  O   UNL A   1      35.926  30.825  31.391  1.00  0.00    -0.269 OA
BRANCH  28  31
ATOM     31  C   UNL A   1      37.400  29.957  29.782  1.00  0.00     0.039 A 
ATOM     32  C   UNL A   1      37.848  30.093  28.464  1.00  0.00     0.014 A 
ATOM     33  C   UNL A   1      38.147  29.215  30.691  1.00  0.00     0.014 A 
ATOM     34  C   UNL A   1      39.105  29.596  28.103  1.00  0.00     0.010 A 
ATOM     35  C   UNL A   1      39.445  28.838  30.369  1.00  0.00     0.010 A 
ATOM     36  C   UNL A   1      39.947  29.031  29.073  1.00  0.00    -0.014 A 
BRANCH  36  37
ATOM     37  C   UNL A   1      41.353  28.634  28.788  1.00  0.00     0.031 A 
ATOM     38  C   UNL A   1      42.431  29.688  28.766  1.00  0.00     0.074 A 
ATOM     39  C   UNL A   1      41.642  27.369  28.419  1.00  0.00     0.049 A 
ATOM     40  N   UNL A   1      43.650  29.617  28.298  1.00  0.00    -0.248 NA
ATOM     41  C   UNL A   1      42.068  31.014  29.291  1.00  0.00     0.031 C 
ATOM     42  C   UNL A   1      40.686  26.259  28.349  1.00  0.00     0.029 A 
ATOM     43  N   UNL A   1      42.825  26.805  28.008  1.00  0.00    -0.354 N 
ATOM     44  C   UNL A   1      44.176  30.899  28.421  1.00  0.00     0.074 A 
ATOM     45  C   UNL A   1      43.131  31.735  28.968  1.00  0.00     0.031 C 
ATOM     46  C   UNL A   1      41.323  25.149  27.947  1.00  0.00     0.029 A 
ATOM     47  C   UNL A   1      42.720  25.473  27.675  1.00  0.00     0.049 A 
ATOM     48  H   UNL A   1      43.671  27.306  27.957  1.00  0.00     0.167 HD
ATOM     49  C   UNL A   1      45.424  31.334  28.126  1.00  0.00     0.037 A 
ATOM     50  C   UNL A   1      43.637  24.615  27.189  1.00  0.00     0.037 A 
ATOM     51  C   UNL A   1      46.482  30.480  27.656  1.00  0.00     0.049 A 
ATOM     52  C   UNL A   1      45.035  25.107  26.929  1.00  0.00     0.074 A 
ATOM     53  C   UNL A   1      47.798  30.810  27.384  1.00  0.00     0.029 A 
ATOM     54  N   UNL A   1      46.350  29.121  27.416  1.00  0.00    -0.354 N 
ATOM     55  N   UNL A   1      45.519  26.318  27.065  1.00  0.00    -0.248 NA
ATOM     56  C   UNL A   1      46.012  24.120  26.450  1.00  0.00     0.031 C 
ATOM     57  C   UNL A   1      48.460  29.650  26.967  1.00  0.00     0.029 A 
ATOM     58  C   UNL A   1      47.564  28.594  27.010  1.00  0.00     0.049 A 
ATOM     59  H   UNL A   1      45.517  28.606  27.519  1.00  0.00     0.167 HD
ATOM     60  C   UNL A   1      46.864  26.231  26.724  1.00  0.00     0.074 A 
ATOM     61  C   UNL A   1      47.118  24.849  26.374  1.00  0.00     0.031 C 
ATOM     62  C   UNL A   1      47.802  27.207  26.705  1.00  0.00     0.037 A 
BRANCH  49  63
ATOM     63  C   UNL A   1      45.718  32.795  28.325  1.00  0.00     0.058 A 
ATOM     64  C   UNL A   1      45.430  33.745  27.332  1.00  0.00     0.135 A 
ATOM     65  C   UNL A   1      46.273  33.256  29.531  1.00  0.00     0.135 A 
ATOM     66  F   UNL A   1      44.916  33.356  26.155  1.00  0.00    -0.206 F 
ATOM     67  C   UNL A   1      45.714  35.093  27.512  1.00  0.00     0.059 A 
ATOM     68  C   UNL A   1      46.537  34.605  29.744  1.00  0.00     0.059 A 
ATOM     69  F   UNL A   1      46.565  32.390  30.515  1.00  0.00    -0.206 F 
ATOM     70  C   UNL A   1      46.271  35.514  28.721  1.00  0.00     0.060 A 
BRANCH  70  71
ATOM     71  S   UNL A   1      46.633  37.269  28.939  1.00  0.00     0.124 S 
ATOM     72  O   UNL A   1      47.789  37.437  28.064  1.00  0.00    -0.237 OA
ATOM     73  O   UNL A   1      45.400  37.904  28.486  1.00  0.00    -0.237 OA
ATOM     74  O   UNL A   1      46.905  37.383  30.369  1.00  0.00    -0.744 OA
ENDBRANCH  70  71
ENDBRANCH  49  63
BRANCH  50  75
ATOM     75  C   UNL A   1      43.276  23.193  26.944  1.00  0.00     0.058 A 
ATOM     76  C   UNL A   1      43.165  22.701  25.636  1.00  0.00     0.135 A 
ATOM     77  C   UNL A   1      43.043  22.300  28.001  1.00  0.00     0.135 A 
ATOM     78  F   UNL A   1      43.375  23.518  24.593  1.00  0.00    -0.206 F 
ATOM     79  C   UNL A   1      42.815  21.379  25.381  1.00  0.00     0.059 A 
ATOM     80  C   UNL A   1      42.713  20.967  27.771  1.00  0.00     0.059 A 
ATOM     81  F   UNL A   1      43.156  22.716  29.271  1.00  0.00    -0.206 F 
ATOM     82  C   UNL A   1      42.587  20.519  26.457  1.00  0.00     0.060 A 
BRANCH  82  83
ATOM     83  S   UNL A   1      42.170  18.795  26.115  1.00  0.00     0.124 S 
ATOM     84  O   UNL A   1      40.760  18.900  25.759  1.00  0.00    -0.237 OA
ATOM     85  O   UNL A   1      43.082  18.466  25.024  1.00  0.00    -0.237 OA
ATOM     86  O   UNL A   1      42.455  18.126  27.382  1.00  0.00    -0.744 OA
ENDBRANCH  82  83
ENDBRANCH  50  75
BRANCH  62  87
ATOM     87  C   UNL A   1      49.209  26.813  26.360  1.00  0.00     0.058 A 
ATOM     88  C   UNL A   1      50.115  26.380  27.338  1.00  0.00     0.135 A 
ATOM     89  C   UNL A   1      49.621  26.786  25.017  1.00  0.00     0.135 A 
ATOM     90  F   UNL A   1      49.770  26.395  28.634  1.00  0.00    -0.206 F 
ATOM     91  C   UNL A   1      51.389  25.936  26.996  1.00  0.00     0.059 A 
ATOM     92  C   UNL A   1      50.882  26.328  24.652  1.00  0.00     0.059 A 
ATOM     93  F   UNL A   1      48.785  27.185  24.046  1.00  0.00    -0.206 F 
ATOM     94  C   UNL A   1      51.760  25.907  25.650  1.00  0.00     0.060 A 
BRANCH  94  95
ATOM     95  S   UNL A   1      53.390  25.264  25.213  1.00  0.00     0.124 S 
ATOM     96  O   UNL A   1      53.191  23.827  25.377  1.00  0.00    -0.237 OA
ATOM     97  O   UNL A   1      53.553  25.729  23.839  1.00  0.00    -0.237 OA
ATOM     98  O   UNL A   1      54.275  25.891  26.189  1.00  0.00    -0.744 OA
ENDBRANCH  94  95
ENDBRANCH  62  87
ENDBRANCH  36  37
ENDBRANCH  28  31
ENDBRANCH  26  27
ENDBRANCH   1  26
TORSDOF 16
ENDMDL
MODEL 2
REMARK VINA RESULT:     -12.1      2.563      3.464
REMARK SMILES COc1cc(-c2cccc(C(N)=O)c2)ccc1C(=O)NCCCNC(=O)c1ccc(-c2c3nc(c(-c4c(F)cc(S(=O)(=O)[O-])cc4F)c4ccc([nH]4)c(-c4c(F)cc(S(=O)(=O)[O-])cc4F)c4nc(c(-c5c(F)cc(S(=O)(=O)[O-])cc5F)c5ccc2[nH]5)C=C4)C=C3)cc1
REMARK SMILES IDX 22 1 21 2 20 3 18 4 19 5 17 7 3 8 4 9 5 10 16 11 15 12 2 13
REMARK SMILES IDX 1 14 6 15 7 16 14 17 8 18 10 19 9 20 11 21 12 22 13 23 23 26
REMARK SMILES IDX 24 27 25 28 26 30 27 31 28 32 92 33 29 34 91 35 30 36 31 37
REMARK SMILES IDX 32 38 85 39 33 40 90 41 84 42 86 43 34 44 89 45 83 46 82 47
REMARK SMILES IDX 35 49 69 50 48 51 68 52 49 53 52 54 67 55 87 56 50 57 51 58
REMARK SMILES IDX 66 60 88 61 53 62 36 63 37 64 46 65 38 66 39 67 45 68 47 69
REMARK SMILES IDX 40 70 41 71 42 72 43 73 44 74 70 75 71 76 80 77 72 78 73 79
REMARK SMILES IDX 79 80 81 81 74 82 75 83 76 84 77 85 78 86 54 87 55 88 64 89
REMARK SMILES IDX 56 90 57 91 63 92 65 93 58 94 59 95 60 96 61 97 62 98
REMARK H PARENT 20 6 12 24 12 25 24 29 86 48 52 59
REMARK Flexibility Score: inf
ROOT
ATOM      1  C   UNL A   1      33.253  26.834  25.906  1.00  0.00     0.042 C 
ENDROOT
BRANCH   1   2
ATOM      2  C   UNL A   1      31.926  26.828  26.643  1.00  0.00     0.118 C 
BRANCH   2   3
ATOM      3  N   UNL A   1      30.761  26.931  25.780  1.00  0.00    -0.352 N 
ATOM      4  C   UNL A   1      30.134  25.955  25.044  1.00  0.00     0.255 C 
ATOM      5  O   UNL A   1      29.118  26.242  24.412  1.00  0.00    -0.269 OA
ATOM      6  H   UNL A   1      30.364  27.830  25.712  1.00  0.00     0.163 HD
BRANCH   4   7
ATOM      7  C   UNL A   1      30.688  24.586  24.935  1.00  0.00     0.081 A 
ATOM      8  C   UNL A   1      30.650  23.616  25.940  1.00  0.00     0.132 A 
ATOM      9  C   UNL A   1      31.394  22.441  25.796  1.00  0.00     0.056 A 
ATOM     10  C   UNL A   1      32.112  22.157  24.621  1.00  0.00    -0.015 A 
ATOM     11  C   UNL A   1      31.328  24.282  23.724  1.00  0.00     0.018 A 
ATOM     12  C   UNL A   1      32.024  23.078  23.567  1.00  0.00     0.010 A 
BRANCH   8  13
ATOM     13  O   UNL A   1      30.026  23.755  27.149  1.00  0.00    -0.496 OA
ATOM     14  C   UNL A   1      29.208  22.638  27.485  1.00  0.00     0.278 C 
ENDBRANCH   8  13
BRANCH  10  15
ATOM     15  C   UNL A   1      32.977  20.965  24.544  1.00  0.00    -0.017 A 
ATOM     16  C   UNL A   1      32.443  19.685  24.325  1.00  0.00     0.009 A 
ATOM     17  C   UNL A   1      34.364  21.066  24.760  1.00  0.00     0.022 A 
ATOM     18  C   UNL A   1      33.253  18.547  24.348  1.00  0.00     0.001 A 
ATOM     19  C   UNL A   1      35.187  19.930  24.787  1.00  0.00     0.040 A 
ATOM     20  C   UNL A   1      34.623  18.667  24.580  1.00  0.00     0.014 A 
BRANCH  19  21
ATOM     21  C   UNL A   1      36.642  20.133  25.029  1.00  0.00     0.248 C 
ATOM     22  N   UNL A   1      37.057  21.354  25.481  1.00  0.00    -0.366 N 
ATOM     23  O   UNL A   1      37.456  19.242  24.821  1.00  0.00    -0.270 OA
ATOM     24  H   UNL A   1      36.399  22.067  25.647  1.00  0.00     0.159 HD
ATOM     25  H   UNL A   1      38.014  21.521  25.641  1.00  0.00     0.159 HD
ENDBRANCH  19  21
ENDBRANCH  10  15
ENDBRANCH   4   7
ENDBRANCH   2   3
ENDBRANCH   1   2
BRANCH   1  26
ATOM     26  C   UNL A   1      34.296  27.783  26.481  1.00  0.00     0.118 C 
BRANCH  26  27
ATOM     27  N   UNL A   1      33.763  29.074  26.908  1.00  0.00    -0.352 N 
ATOM     28  C   UNL A   1      34.327  30.098  27.635  1.00  0.00     0.251 C 
ATOM     29  H   UNL A   1      32.836  29.243  26.624  1.00  0.00     0.163 HD
ATOM     30  O   UNL A   1      33.637  31.065  27.953  1.00  0.00    -0.269 OA
BRANCH  28  31
ATOM     31  C   UNL A   1      35.737  30.020  28.081  1.00  0.00     0.039 A 
ATOM     32  C   UNL A   1      36.022  29.542  29.364  1.00  0.00     0.014 A 
ATOM     33  C   UNL A   1      36.778  30.382  27.233  1.00  0.00     0.014 A 
ATOM     34  C   UNL A   1      37.350  29.307  29.739  1.00  0.00     0.010 A 
ATOM     35  C   UNL A   1      38.082  30.028  27.555  1.00  0.00     0.010 A 
ATOM     36  C   UNL A   1      38.387  29.476  28.809  1.00  0.00    -0.014 A 
BRANCH  36  37
ATOM     37  C   UNL A   1      39.796  29.089  29.093  1.00  0.00     0.031 A 
ATOM     38  C   UNL A   1      40.753  30.122  29.632  1.00  0.00     0.074 A 
ATOM     39  C   UNL A   1      40.250  27.867  28.747  1.00  0.00     0.049 A 
ATOM     40  N   UNL A   1      42.058  30.083  29.709  1.00  0.00    -0.248 NA
ATOM     41  C   UNL A   1      40.164  31.389  30.096  1.00  0.00     0.031 C 
ATOM     42  C   UNL A   1      39.444  26.788  28.169  1.00  0.00     0.029 A 
ATOM     43  N   UNL A   1      41.514  27.332  28.807  1.00  0.00    -0.354 N 
ATOM     44  C   UNL A   1      42.446  31.335  30.174  1.00  0.00     0.074 A 
ATOM     45  C   UNL A   1      41.244  32.123  30.322  1.00  0.00     0.031 C 
ATOM     46  C   UNL A   1      40.224  25.718  27.954  1.00  0.00     0.029 A 
ATOM     47  C   UNL A   1      41.597  26.047  28.322  1.00  0.00     0.049 A 
ATOM     48  H   UNL A   1      42.289  27.822  29.165  1.00  0.00     0.167 HD
ATOM     49  C   UNL A   1      43.690  31.780  30.472  1.00  0.00     0.037 A 
ATOM     50  C   UNL A   1      42.660  25.232  28.174  1.00  0.00     0.037 A 
ATOM     51  C   UNL A   1      44.873  30.965  30.397  1.00  0.00     0.049 A 
ATOM     52  C   UNL A   1      44.024  25.727  28.571  1.00  0.00     0.074 A 
ATOM     53  C   UNL A   1      46.173  31.301  30.732  1.00  0.00     0.029 A 
ATOM     54  N   UNL A   1      44.895  29.642  29.981  1.00  0.00    -0.354 N 
ATOM     55  N   UNL A   1      44.370  26.908  29.023  1.00  0.00    -0.248 NA
ATOM     56  C   UNL A   1      45.141  24.782  28.440  1.00  0.00     0.031 C 
ATOM     57  C   UNL A   1      46.983  30.183  30.508  1.00  0.00     0.029 A 
ATOM     58  C   UNL A   1      46.183  29.143  30.063  1.00  0.00     0.049 A 
ATOM     59  H   UNL A   1      44.110  29.133  29.674  1.00  0.00     0.167 HD
ATOM     60  C   UNL A   1      45.737  26.836  29.265  1.00  0.00     0.074 A 
ATOM     61  C   UNL A   1      46.156  25.497  28.908  1.00  0.00     0.031 C 
ATOM     62  C   UNL A   1      46.569  27.793  29.741  1.00  0.00     0.037 A 
BRANCH  49  63
ATOM     63  C   UNL A   1      43.830  33.205  30.928  1.00  0.00     0.058 A 
ATOM     64  C   UNL A   1      44.100  34.244  30.022  1.00  0.00     0.135 A 
ATOM     65  C   UNL A   1      43.670  33.543  32.282  1.00  0.00     0.135 A 
ATOM     66  F   UNL A   1      44.280  33.974  28.720  1.00  0.00    -0.206 F 
ATOM     67  C   UNL A   1      44.242  35.560  30.446  1.00  0.00     0.059 A 
ATOM     68  C   UNL A   1      43.778  34.857  32.725  1.00  0.00     0.059 A 
ATOM     69  F   UNL A   1      43.408  32.589  33.190  1.00  0.00    -0.206 F 
ATOM     70  C   UNL A   1      44.082  35.857  31.801  1.00  0.00     0.060 A 
BRANCH  70  71
ATOM     71  S   UNL A   1      44.269  37.570  32.337  1.00  0.00     0.124 S 
ATOM     72  O   UNL A   1      45.691  37.618  32.664  1.00  0.00    -0.237 OA
ATOM     73  O   UNL A   1      43.869  38.317  31.149  1.00  0.00    -0.237 OA
ATOM     74  O   UNL A   1      43.359  37.671  33.473  1.00  0.00    -0.744 OA
ENDBRANCH  70  71
ENDBRANCH  49  63
BRANCH  50  75
ATOM     75  C   UNL A   1      42.476  23.851  27.653  1.00  0.00     0.058 A 
ATOM     76  C   UNL A   1      42.422  22.759  28.531  1.00  0.00     0.135 A 
ATOM     77  C   UNL A   1      42.346  23.593  26.279  1.00  0.00     0.135 A 
ATOM     78  F   UNL A   1      42.546  22.955  29.853  1.00  0.00    -0.206 F 
ATOM     79  C   UNL A   1      42.266  21.456  28.068  1.00  0.00     0.059 A 
ATOM     80  C   UNL A   1      42.167  22.300  25.794  1.00  0.00     0.059 A 
ATOM     81  F   UNL A   1      42.372  24.605  25.400  1.00  0.00    -0.206 F 
ATOM     82  C   UNL A   1      42.142  21.237  26.695  1.00  0.00     0.060 A 
BRANCH  82  83
ATOM     83  S   UNL A   1      41.902  19.546  26.106  1.00  0.00     0.124 S 
ATOM     84  O   UNL A   1      42.751  19.526  24.920  1.00  0.00    -0.237 OA
ATOM     85  O   UNL A   1      42.368  18.754  27.240  1.00  0.00    -0.237 OA
ATOM     86  O   UNL A   1      40.464  19.481  25.856  1.00  0.00    -0.744 OA
ENDBRANCH  82  83
ENDBRANCH  50  75
BRANCH  62  87
ATOM     87  C   UNL A   1      48.004  27.418  29.971  1.00  0.00     0.058 A 
ATOM     88  C   UNL A   1      49.003  27.715  29.035  1.00  0.00     0.135 A 
ATOM     89  C   UNL A   1      48.390  26.832  31.189  1.00  0.00     0.135 A 
ATOM     90  F   UNL A   1      48.683  28.268  27.855  1.00  0.00    -0.206 F 
ATOM     91  C   UNL A   1      50.343  27.441  29.296  1.00  0.00     0.059 A 
ATOM     92  C   UNL A   1      49.724  26.568  31.477  1.00  0.00     0.059 A 
ATOM     93  F   UNL A   1      47.468  26.537  32.118  1.00  0.00    -0.206 F 
ATOM     94  C   UNL A   1      50.693  26.873  30.523  1.00  0.00     0.060 A 
BRANCH  94  95
ATOM     95  S   UNL A   1      52.439  26.586  30.879  1.00  0.00     0.124 S 
ATOM     96  O   UNL A   1      52.957  26.248  29.556  1.00  0.00    -0.237 OA
ATOM     97  O   UNL A   1      52.866  27.874  31.417  1.00  0.00    -0.237 OA
ATOM     98  O   UNL A   1      52.414  25.489  31.842  1.00  0.00    -0.744 OA
ENDBRANCH  94  95
ENDBRANCH  62  87
ENDBRANCH  36  37
ENDBRANCH  28  31
ENDBRANCH  26  27
ENDBRANCH   1  26
TORSDOF 16
ENDMDL
MODEL 3
REMARK VINA RESULT:     -12.0      6.407     12.103
REMARK SMILES COc1cc(-c2cccc(C(N)=O)c2)ccc1C(=O)NCCCNC(=O)c1ccc(-c2c3nc(c(-c4c(F)cc(S(=O)(=O)[O-])cc4F)c4ccc([nH]4)c(-c4c(F)cc(S(=O)(=O)[O-])cc4F)c4nc(c(-c5c(F)cc(S(=O)(=O)[O-])cc5F)c5ccc2[nH]5)C=C4)C=C3)cc1
REMARK SMILES IDX 22 1 21 2 20 3 18 4 19 5 17 7 3 8 4 9 5 10 16 11 15 12 2 13
REMARK SMILES IDX 1 14 6 15 7 16 14 17 8 18 10 19 9 20 11 21 12 22 13 23 23 26
REMARK SMILES IDX 24 27 25 28 26 30 27 31 28 32 92 33 29 34 91 35 30 36 31 37
REMARK SMILES IDX 32 38 85 39 33 40 90 41 84 42 86 43 34 44 89 45 83 46 82 47
REMARK SMILES IDX 35 49 69 50 48 51 68 52 49 53 52 54 67 55 87 56 50 57 51 58
REMARK SMILES IDX 66 60 88 61 53 62 36 63 37 64 46 65 38 66 39 67 45 68 47 69
REMARK SMILES IDX 40 70 41 71 42 72 43 73 44 74 70 75 71 76 80 77 72 78 73 79
REMARK SMILES IDX 79 80 81 81 74 82 75 83 76 84 77 85 78 86 54 87 55 88 64 89
REMARK SMILES IDX 56 90 57 91 63 92 65 93 58 94 59 95 60 96 61 97 62 98
REMARK H PARENT 20 6 12 24 12 25 24 29 86 48 52 59
REMARK Flexibility Score: inf
ROOT
ATOM      1  C   UNL A   1      37.977  22.459  26.293  1.00  0.00     0.042 C 
ENDROOT
BRANCH   1   2
ATOM      2  C   UNL A   1      37.639  21.868  24.937  1.00  0.00     0.118 C 
BRANCH   2   3
ATOM      3  N   UNL A   1      36.514  20.946  24.949  1.00  0.00    -0.352 N 
ATOM      4  C   UNL A   1      35.176  21.204  24.774  1.00  0.00     0.255 C 
ATOM      5  O   UNL A   1      34.381  20.265  24.769  1.00  0.00    -0.269 OA
ATOM      6  H   UNL A   1      36.743  20.001  25.105  1.00  0.00     0.163 HD
BRANCH   4   7
ATOM      7  C   UNL A   1      34.658  22.588  24.664  1.00  0.00     0.081 A 
ATOM      8  C   UNL A   1      34.302  23.406  25.739  1.00  0.00     0.132 A 
ATOM      9  C   UNL A   1      33.624  24.605  25.501  1.00  0.00     0.056 A 
ATOM     10  C   UNL A   1      33.369  25.067  24.198  1.00  0.00    -0.015 A 
ATOM     11  C   UNL A   1      34.488  23.072  23.358  1.00  0.00     0.018 A 
ATOM     12  C   UNL A   1      33.859  24.301  23.130  1.00  0.00     0.010 A 
BRANCH   8  13
ATOM     13  O   UNL A   1      34.452  23.084  27.060  1.00  0.00    -0.496 OA
ATOM     14  C   UNL A   1      33.303  22.450  27.613  1.00  0.00     0.278 C 
ENDBRANCH   8  13
BRANCH  10  15
ATOM     15  C   UNL A   1      32.554  26.276  23.979  1.00  0.00    -0.017 A 
ATOM     16  C   UNL A   1      31.680  26.383  22.884  1.00  0.00     0.009 A 
ATOM     17  C   UNL A   1      32.681  27.394  24.824  1.00  0.00     0.022 A 
ATOM     18  C   UNL A   1      30.982  27.565  22.626  1.00  0.00     0.001 A 
ATOM     19  C   UNL A   1      31.986  28.587  24.573  1.00  0.00     0.040 A 
ATOM     20  C   UNL A   1      31.134  28.667  23.467  1.00  0.00     0.014 A 
BRANCH  19  21
ATOM     21  C   UNL A   1      32.187  29.720  25.519  1.00  0.00     0.248 C 
ATOM     22  N   UNL A   1      31.374  30.811  25.400  1.00  0.00    -0.366 N 
ATOM     23  O   UNL A   1      33.062  29.690  26.375  1.00  0.00    -0.270 OA
ATOM     24  H   UNL A   1      30.672  30.830  24.710  1.00  0.00     0.159 HD
ATOM     25  H   UNL A   1      31.490  31.580  26.005  1.00  0.00     0.159 HD
ENDBRANCH  19  21
ENDBRANCH  10  15
ENDBRANCH   4   7
ENDBRANCH   2   3
ENDBRANCH   1   2
BRANCH   1  26
ATOM     26  C   UNL A   1      38.655  23.821  26.242  1.00  0.00     0.118 C 
BRANCH  26  27
ATOM     27  N   UNL A   1      40.105  23.766  26.071  1.00  0.00    -0.352 N 
ATOM     28  C   UNL A   1      41.110  24.583  26.535  1.00  0.00     0.251 C 
ATOM     29  H   UNL A   1      40.419  23.007  25.528  1.00  0.00     0.163 HD
ATOM     30  O   UNL A   1      42.268  24.382  26.175  1.00  0.00    -0.269 OA
BRANCH  28  31
ATOM     31  C   UNL A   1      40.803  25.732  27.417  1.00  0.00     0.039 A 
ATOM     32  C   UNL A   1      39.856  25.579  28.434  1.00  0.00     0.014 A 
ATOM     33  C   UNL A   1      41.466  26.946  27.269  1.00  0.00     0.014 A 
ATOM     34  C   UNL A   1      39.676  26.599  29.376  1.00  0.00     0.010 A 
ATOM     35  C   UNL A   1      41.384  27.901  28.274  1.00  0.00     0.010 A 
ATOM     36  C   UNL A   1      40.495  27.739  29.348  1.00  0.00    -0.014 A 
BRANCH  36  37
ATOM     37  C   UNL A   1      40.465  28.779  30.411  1.00  0.00     0.031 A 
ATOM     38  C   UNL A   1      41.389  28.654  31.597  1.00  0.00     0.074 A 
ATOM     39  C   UNL A   1      39.531  29.752  30.387  1.00  0.00     0.049 A 
ATOM     40  N   UNL A   1      41.358  29.285  32.741  1.00  0.00    -0.248 NA
ATOM     41  C   UNL A   1      42.455  27.644  31.498  1.00  0.00     0.031 C 
ATOM     42  C   UNL A   1      38.542  29.961  29.324  1.00  0.00     0.029 A 
ATOM     43  N   UNL A   1      39.243  30.739  31.297  1.00  0.00    -0.354 N 
ATOM     44  C   UNL A   1      42.360  28.709  33.516  1.00  0.00     0.074 A 
ATOM     45  C   UNL A   1      42.951  27.652  32.727  1.00  0.00     0.031 C 
ATOM     46  C   UNL A   1      37.777  31.020  29.632  1.00  0.00     0.029 A 
ATOM     47  C   UNL A   1      38.179  31.535  30.937  1.00  0.00     0.049 A 
ATOM     48  H   UNL A   1      39.750  30.866  32.132  1.00  0.00     0.167 HD
ATOM     49  C   UNL A   1      42.764  29.046  34.764  1.00  0.00     0.037 A 
ATOM     50  C   UNL A   1      37.582  32.551  31.590  1.00  0.00     0.037 A 
ATOM     51  C   UNL A   1      42.224  30.149  35.513  1.00  0.00     0.049 A 
ATOM     52  C   UNL A   1      38.091  32.948  32.949  1.00  0.00     0.074 A 
ATOM     53  C   UNL A   1      42.605  30.611  36.761  1.00  0.00     0.029 A 
ATOM     54  N   UNL A   1      41.206  30.979  35.070  1.00  0.00    -0.354 N 
ATOM     55  N   UNL A   1      39.049  32.402  33.660  1.00  0.00    -0.248 NA
ATOM     56  C   UNL A   1      37.441  34.096  33.596  1.00  0.00     0.031 C 
ATOM     57  C   UNL A   1      41.807  31.715  37.077  1.00  0.00     0.029 A 
ATOM     58  C   UNL A   1      40.952  31.959  36.014  1.00  0.00     0.049 A 
ATOM     59  H   UNL A   1      40.734  30.886  34.211  1.00  0.00     0.167 HD
ATOM     60  C   UNL A   1      39.141  33.163  34.820  1.00  0.00     0.074 A 
ATOM     61  C   UNL A   1      38.142  34.205  34.717  1.00  0.00     0.031 C 
ATOM     62  C   UNL A   1      39.979  33.011  35.873  1.00  0.00     0.037 A 
BRANCH  49  63
ATOM     63  C   UNL A   1      43.860  28.225  35.386  1.00  0.00     0.058 A 
ATOM     64  C   UNL A   1      45.214  28.547  35.203  1.00  0.00     0.135 A 
ATOM     65  C   UNL A   1      43.554  27.117  36.193  1.00  0.00     0.135 A 
ATOM     66  F   UNL A   1      45.562  29.585  34.427  1.00  0.00    -0.206 F 
ATOM     67  C   UNL A   1      46.226  27.781  35.767  1.00  0.00     0.059 A 
ATOM     68  C   UNL A   1      44.550  26.353  36.793  1.00  0.00     0.059 A 
ATOM     69  F   UNL A   1      42.275  26.766  36.403  1.00  0.00    -0.206 F 
ATOM     70  C   UNL A   1      45.884  26.682  36.559  1.00  0.00     0.060 A 
BRANCH  70  71
ATOM     71  S   UNL A   1      47.210  25.696  37.286  1.00  0.00     0.124 S 
ATOM     72  O   UNL A   1      46.517  24.444  37.571  1.00  0.00    -0.237 OA
ATOM     73  O   UNL A   1      48.192  25.644  36.207  1.00  0.00    -0.237 OA
ATOM     74  O   UNL A   1      47.610  26.474  38.454  1.00  0.00    -0.744 OA
ENDBRANCH  70  71
ENDBRANCH  49  63
BRANCH  50  75
ATOM     75  C   UNL A   1      36.455  33.288  30.958  1.00  0.00     0.058 A 
ATOM     76  C   UNL A   1      36.682  34.135  29.863  1.00  0.00     0.135 A 
ATOM     77  C   UNL A   1      35.137  33.159  31.422  1.00  0.00     0.135 A 
ATOM     78  F   UNL A   1      37.927  34.294  29.386  1.00  0.00    -0.206 F 
ATOM     79  C   UNL A   1      35.648  34.847  29.264  1.00  0.00     0.059 A 
ATOM     80  C   UNL A   1      34.083  33.843  30.825  1.00  0.00     0.059 A 
ATOM     81  F   UNL A   1      34.865  32.345  32.453  1.00  0.00    -0.206 F 
ATOM     82  C   UNL A   1      34.350  34.696  29.754  1.00  0.00     0.060 A 
BRANCH  82  83
ATOM     83  S   UNL A   1      33.008  35.594  28.945  1.00  0.00     0.124 S 
ATOM     84  O   UNL A   1      33.739  36.650  28.253  1.00  0.00    -0.237 OA
ATOM     85  O   UNL A   1      32.414  34.566  28.097  1.00  0.00    -0.237 OA
ATOM     86  O   UNL A   1      32.176  36.029  30.064  1.00  0.00    -0.744 OA
ENDBRANCH  82  83
ENDBRANCH  50  75
BRANCH  62  87
ATOM     87  C   UNL A   1      39.907  34.030  36.973  1.00  0.00     0.058 A 
ATOM     88  C   UNL A   1      40.534  35.279  36.864  1.00  0.00     0.135 A 
ATOM     89  C   UNL A   1      39.122  33.780  38.111  1.00  0.00     0.135 A 
ATOM     90  F   UNL A   1      41.300  35.561  35.799  1.00  0.00    -0.206 F 
ATOM     91  C   UNL A   1      40.389  36.248  37.852  1.00  0.00     0.059 A 
ATOM     92  C   UNL A   1      38.949  34.741  39.100  1.00  0.00     0.059 A 
ATOM     93  F   UNL A   1      38.497  32.601  38.255  1.00  0.00    -0.206 F 
ATOM     94  C   UNL A   1      39.589  35.972  38.963  1.00  0.00     0.060 A 
BRANCH  94  95
ATOM     95  S   UNL A   1      39.352  37.262  40.203  1.00  0.00     0.124 S 
ATOM     96  O   UNL A   1      38.608  36.545  41.235  1.00  0.00    -0.237 OA
ATOM     97  O   UNL A   1      40.724  37.623  40.547  1.00  0.00    -0.237 OA
ATOM     98  O   UNL A   1      38.602  38.288  39.486  1.00  0.00    -0.744 OA
ENDBRANCH  94  95
ENDBRANCH  62  87
ENDBRANCH  36  37
ENDBRANCH  28  31
ENDBRANCH  26  27
ENDBRANCH   1  26
TORSDOF 16
ENDMDL
