MODEL 1
REMARK VINA RESULT:     -15.2      0.000      0.000
REMARK SMILES Cc1ccccc1[C@@H]1[NH2+][C@@H](C(=O)NCCCNC(=O)c2ccc(-c3c4nc(c(-c5c(F)cc(S(=O)(=O)[O-])cc5F)c5ccc([nH]5)c(-c5c(F)cc(S(=O)(=O)[O-])cc5F)c5nc(c(-c6c(F)cc(S(=O)(=O)[O-])cc6F)c6ccc3[nH]6)C=C5)C=C4)cc2)CC2=c3ccccc3=N[C@@H]21
REMARK SMILES IDX 16 1 15 2 14 3 13 4 11 5 12 6 10 8 8 9 9 10 95 11 87 14
REMARK SMILES IDX 94 15 86 16 88 17 93 18 89 19 92 20 90 21 91 22 7 23 1 24
REMARK SMILES IDX 2 25 3 26 4 27 6 28 5 29 17 30 18 31 19 33 20 34 21 35 85 36
REMARK SMILES IDX 22 37 84 38 23 39 24 40 25 41 78 42 26 43 83 44 77 45 79 46
REMARK SMILES IDX 27 47 82 48 76 49 75 50 28 52 62 53 41 54 61 55 42 56 45 57
REMARK SMILES IDX 60 58 80 59 43 60 44 61 59 63 81 64 46 65 29 66 30 67 39 68
REMARK SMILES IDX 31 69 32 70 38 71 40 72 33 73 34 74 35 75 36 76 37 77 63 78
REMARK SMILES IDX 64 79 73 80 65 81 66 82 72 83 74 84 67 85 68 86 69 87 70 88
REMARK SMILES IDX 71 89 47 90 48 91 57 92 49 93 50 94 56 95 58 96 51 97 52 98
REMARK SMILES IDX 53 99 54 100 55 101
REMARK H PARENT 13 7 9 12 9 13 17 32 79 51 45 62
REMARK Flexibility Score: inf
ROOT
ATOM      1  C   UNL A   1      34.695  30.816  28.279  1.00  0.00     0.118 C 
ENDROOT
BRANCH   1   2
ATOM      2  C   UNL A   1      33.539  30.899  27.257  1.00  0.00     0.042 C 
BRANCH   2   3
ATOM      3  C   UNL A   1      33.253  29.795  26.192  1.00  0.00     0.118 C 
BRANCH   3   4
ATOM      4  N   UNL A   1      34.115  29.375  25.049  1.00  0.00    -0.351 N 
ATOM      5  C   UNL A   1      33.905  28.415  24.026  1.00  0.00     0.278 C 
ATOM      6  O   UNL A   1      34.389  28.536  22.905  1.00  0.00    -0.268 OA
ATOM      7  H   UNL A   1      34.980  29.844  24.996  1.00  0.00     0.163 HD
BRANCH   5   8
ATOM      8  C   UNL A   1      33.193  27.167  24.538  1.00  0.00     0.277 C 
ATOM      9  C   UNL A   1      30.650  27.083  24.419  1.00  0.00     0.243 C 
ATOM     10  N   UNL A   1      31.952  27.282  23.808  1.00  0.00    -0.327 N 
ATOM     11  C   UNL A   1      30.720  25.536  24.847  1.00  0.00     0.196 C 
ATOM     12  H   UNL A   1      31.939  28.228  23.424  1.00  0.00     0.347 HD
ATOM     13  H   UNL A   1      32.008  26.478  23.184  1.00  0.00     0.347 HD
ATOM     14  C   UNL A   1      32.131  25.281  25.492  1.00  0.00    -0.024 C 
ATOM     15  N   UNL A   1      30.716  24.584  23.686  1.00  0.00    -0.270 NA
ATOM     16  C   UNL A   1      32.915  26.550  25.914  1.00  0.00     0.109 C 
ATOM     17  C   UNL A   1      32.767  24.262  24.880  1.00  0.00     0.002 A 
ATOM     18  C   UNL A   1      31.838  23.925  23.772  1.00  0.00     0.066 A 
ATOM     19  C   UNL A   1      34.186  23.991  24.736  1.00  0.00     0.010 A 
ATOM     20  C   UNL A   1      32.376  22.984  22.745  1.00  0.00     0.028 A 
ATOM     21  C   UNL A   1      34.628  23.303  23.670  1.00  0.00     0.001 A 
ATOM     22  C   UNL A   1      33.699  22.738  22.708  1.00  0.00     0.002 A 
BRANCH   9  23
ATOM     23  C   UNL A   1      29.710  27.881  23.455  1.00  0.00     0.015 A 
ATOM     24  C   UNL A   1      27.545  26.694  24.122  1.00  0.00     0.045 C 
ATOM     25  C   UNL A   1      28.314  27.740  23.375  1.00  0.00    -0.042 A 
ATOM     26  C   UNL A   1      27.529  28.746  22.736  1.00  0.00     0.004 A 
ATOM     27  C   UNL A   1      28.078  29.924  22.235  1.00  0.00     0.000 A 
ATOM     28  C   UNL A   1      30.210  29.101  22.892  1.00  0.00     0.010 A 
ATOM     29  C   UNL A   1      29.431  30.109  22.346  1.00  0.00     0.001 A 
ENDBRANCH   9  23
ENDBRANCH   5   8
ENDBRANCH   3   4
ENDBRANCH   2   3
ENDBRANCH   1   2
BRANCH   1  30
ATOM     30  N   UNL A   1      35.954  31.375  27.768  1.00  0.00    -0.352 N 
ATOM     31  C   UNL A   1      37.221  31.132  28.313  1.00  0.00     0.251 C 
ATOM     32  H   UNL A   1      35.903  31.964  26.981  1.00  0.00     0.163 HD
ATOM     33  O   UNL A   1      37.903  31.973  28.839  1.00  0.00    -0.269 OA
BRANCH  31  34
ATOM     34  C   UNL A   1      37.682  29.730  28.172  1.00  0.00     0.039 A 
ATOM     35  C   UNL A   1      37.569  28.894  29.295  1.00  0.00     0.014 A 
ATOM     36  C   UNL A   1      38.628  29.508  27.186  1.00  0.00     0.014 A 
ATOM     37  C   UNL A   1      38.618  28.056  29.615  1.00  0.00     0.010 A 
ATOM     38  C   UNL A   1      39.687  28.709  27.518  1.00  0.00     0.010 A 
ATOM     39  C   UNL A   1      39.717  28.093  28.775  1.00  0.00    -0.014 A 
BRANCH  39  40
ATOM     40  C   UNL A   1      40.989  27.521  29.133  1.00  0.00     0.031 A 
ATOM     41  C   UNL A   1      41.208  26.135  28.742  1.00  0.00     0.074 A 
ATOM     42  C   UNL A   1      41.913  28.357  29.641  1.00  0.00     0.049 A 
ATOM     43  N   UNL A   1      42.120  25.379  29.224  1.00  0.00    -0.248 NA
ATOM     44  C   UNL A   1      40.327  25.455  27.798  1.00  0.00     0.031 C 
ATOM     45  C   UNL A   1      43.357  28.200  29.771  1.00  0.00     0.029 A 
ATOM     46  N   UNL A   1      41.641  29.552  30.319  1.00  0.00    -0.354 N 
ATOM     47  C   UNL A   1      42.184  24.275  28.404  1.00  0.00     0.074 A 
ATOM     48  C   UNL A   1      40.949  24.285  27.663  1.00  0.00     0.031 C 
ATOM     49  C   UNL A   1      43.808  29.093  30.676  1.00  0.00     0.029 A 
ATOM     50  C   UNL A   1      42.631  29.674  31.307  1.00  0.00     0.049 A 
ATOM     51  H   UNL A   1      40.905  30.179  30.138  1.00  0.00     0.167 HD
ATOM     52  C   UNL A   1      43.375  23.620  28.315  1.00  0.00     0.037 A 
ATOM     53  C   UNL A   1      42.257  29.434  32.603  1.00  0.00     0.037 A 
ATOM     54  C   UNL A   1      44.334  24.221  29.255  1.00  0.00     0.049 A 
ATOM     55  C   UNL A   1      42.887  28.167  33.178  1.00  0.00     0.074 A 
ATOM     56  C   UNL A   1      45.370  25.134  29.140  1.00  0.00     0.029 A 
ATOM     57  N   UNL A   1      44.015  24.197  30.601  1.00  0.00    -0.354 N 
ATOM     58  N   UNL A   1      43.466  27.235  32.465  1.00  0.00    -0.248 NA
ATOM     59  C   UNL A   1      42.897  27.845  34.601  1.00  0.00     0.031 C 
ATOM     60  C   UNL A   1      45.657  25.652  30.445  1.00  0.00     0.029 A 
ATOM     61  C   UNL A   1      44.798  25.051  31.348  1.00  0.00     0.049 A 
ATOM     62  H   UNL A   1      43.307  23.631  30.984  1.00  0.00     0.167 HD
ATOM     63  C   UNL A   1      43.908  26.220  33.271  1.00  0.00     0.074 A 
ATOM     64  C   UNL A   1      43.495  26.640  34.602  1.00  0.00     0.031 C 
ATOM     65  C   UNL A   1      44.557  25.113  32.786  1.00  0.00     0.037 A 
BRANCH  52  66
ATOM     66  C   UNL A   1      43.750  22.657  27.208  1.00  0.00     0.058 A 
ATOM     67  C   UNL A   1      43.036  21.449  27.057  1.00  0.00     0.135 A 
ATOM     68  C   UNL A   1      44.805  22.825  26.283  1.00  0.00     0.135 A 
ATOM     69  F   UNL A   1      41.962  21.172  27.808  1.00  0.00    -0.206 F 
ATOM     70  C   UNL A   1      43.384  20.467  26.128  1.00  0.00     0.059 A 
ATOM     71  C   UNL A   1      45.203  21.838  25.377  1.00  0.00     0.059 A 
ATOM     72  F   UNL A   1      45.464  23.981  26.160  1.00  0.00    -0.206 F 
ATOM     73  C   UNL A   1      44.484  20.659  25.305  1.00  0.00     0.060 A 
BRANCH  73  74
ATOM     74  S   UNL A   1      44.917  19.378  24.115  1.00  0.00     0.124 S 
ATOM     75  O   UNL A   1      44.112  18.250  24.576  1.00  0.00    -0.237 OA
ATOM     76  O   UNL A   1      44.501  19.984  22.855  1.00  0.00    -0.237 OA
ATOM     77  O   UNL A   1      46.358  19.223  24.289  1.00  0.00    -0.744 OA
ENDBRANCH  73  74
ENDBRANCH  52  66
BRANCH  53  78
ATOM     78  C   UNL A   1      40.874  29.950  32.899  1.00  0.00     0.058 A 
ATOM     79  C   UNL A   1      40.665  31.350  32.918  1.00  0.00     0.135 A 
ATOM     80  C   UNL A   1      39.725  29.149  32.820  1.00  0.00     0.135 A 
ATOM     81  F   UNL A   1      41.715  32.188  32.977  1.00  0.00    -0.206 F 
ATOM     82  C   UNL A   1      39.403  31.923  32.769  1.00  0.00     0.059 A 
ATOM     83  C   UNL A   1      38.442  29.706  32.686  1.00  0.00     0.059 A 
ATOM     84  F   UNL A   1      39.836  27.814  32.787  1.00  0.00    -0.206 F 
ATOM     85  C   UNL A   1      38.293  31.094  32.639  1.00  0.00     0.060 A 
BRANCH  85  86
ATOM     86  S   UNL A   1      36.665  31.842  32.354  1.00  0.00     0.124 S 
ATOM     87  O   UNL A   1      35.980  30.820  31.561  1.00  0.00    -0.237 OA
ATOM     88  O   UNL A   1      36.142  32.030  33.698  1.00  0.00    -0.237 OA
ATOM     89  O   UNL A   1      37.022  33.065  31.646  1.00  0.00    -0.744 OA
ENDBRANCH  85  86
ENDBRANCH  53  78
BRANCH  65  90
ATOM     90  C   UNL A   1      44.970  23.926  33.631  1.00  0.00     0.058 A 
ATOM     91  C   UNL A   1      44.082  22.917  34.029  1.00  0.00     0.135 A 
ATOM     92  C   UNL A   1      46.292  23.798  34.132  1.00  0.00     0.135 A 
ATOM     93  F   UNL A   1      42.772  23.002  33.751  1.00  0.00    -0.206 F 
ATOM     94  C   UNL A   1      44.504  21.798  34.753  1.00  0.00     0.059 A 
ATOM     95  C   UNL A   1      46.718  22.728  34.904  1.00  0.00     0.059 A 
ATOM     96  F   UNL A   1      47.254  24.691  33.875  1.00  0.00    -0.206 F 
ATOM     97  C   UNL A   1      45.830  21.705  35.170  1.00  0.00     0.060 A 
BRANCH  97  98
ATOM     98  S   UNL A   1      46.392  20.255  36.071  1.00  0.00     0.124 S 
ATOM     99  O   UNL A   1      45.926  20.532  37.426  1.00  0.00    -0.237 OA
ATOM    100  O   UNL A   1      45.692  19.187  35.364  1.00  0.00    -0.237 OA
ATOM    101  O   UNL A   1      47.840  20.280  35.894  1.00  0.00    -0.744 OA
ENDBRANCH  97  98
ENDBRANCH  65  90
ENDBRANCH  39  40
ENDBRANCH  31  34
ENDBRANCH   1  30
TORSDOF 14
ENDMDL
MODEL 2
REMARK VINA RESULT:     -15.1      1.081      3.020
REMARK SMILES Cc1ccccc1[C@@H]1[NH2+][C@@H](C(=O)NCCCNC(=O)c2ccc(-c3c4nc(c(-c5c(F)cc(S(=O)(=O)[O-])cc5F)c5ccc([nH]5)c(-c5c(F)cc(S(=O)(=O)[O-])cc5F)c5nc(c(-c6c(F)cc(S(=O)(=O)[O-])cc6F)c6ccc3[nH]6)C=C5)C=C4)cc2)CC2=c3ccccc3=N[C@@H]21
REMARK SMILES IDX 16 1 15 2 14 3 13 4 11 5 12 6 10 8 8 9 9 10 95 11 87 14
REMARK SMILES IDX 94 15 86 16 88 17 93 18 89 19 92 20 90 21 91 22 7 23 1 24
REMARK SMILES IDX 2 25 3 26 4 27 6 28 5 29 17 30 18 31 19 33 20 34 21 35 85 36
REMARK SMILES IDX 22 37 84 38 23 39 24 40 25 41 78 42 26 43 83 44 77 45 79 46
REMARK SMILES IDX 27 47 82 48 76 49 75 50 28 52 62 53 41 54 61 55 42 56 45 57
REMARK SMILES IDX 60 58 80 59 43 60 44 61 59 63 81 64 46 65 29 66 30 67 39 68
REMARK SMILES IDX 31 69 32 70 38 71 40 72 33 73 34 74 35 75 36 76 37 77 63 78
REMARK SMILES IDX 64 79 73 80 65 81 66 82 72 83 74 84 67 85 68 86 69 87 70 88
REMARK SMILES IDX 71 89 47 90 48 91 57 92 49 93 50 94 56 95 58 96 51 97 52 98
REMARK SMILES IDX 53 99 54 100 55 101
REMARK H PARENT 13 7 9 12 9 13 17 32 79 51 45 62
REMARK Flexibility Score: inf
ROOT
ATOM      1  C   UNL A   1      34.901  30.932  28.206  1.00  0.00     0.118 C 
ENDROOT
BRANCH   1   2
ATOM      2  C   UNL A   1      33.723  31.711  27.576  1.00  0.00     0.042 C 
BRANCH   2   3
ATOM      3  C   UNL A   1      32.414  31.029  27.072  1.00  0.00     0.118 C 
BRANCH   3   4
ATOM      4  N   UNL A   1      31.803  29.750  27.540  1.00  0.00    -0.351 N 
ATOM      5  C   UNL A   1      31.709  28.479  26.918  1.00  0.00     0.278 C 
ATOM      6  O   UNL A   1      31.692  27.435  27.562  1.00  0.00    -0.268 OA
ATOM      7  H   UNL A   1      31.395  29.797  28.435  1.00  0.00     0.163 HD
BRANCH   5   8
ATOM      8  C   UNL A   1      31.443  28.585  25.419  1.00  0.00     0.277 C 
ATOM      9  C   UNL A   1      31.322  26.440  24.052  1.00  0.00     0.243 C 
ATOM     10  N   UNL A   1      30.915  27.263  25.175  1.00  0.00    -0.327 N 
ATOM     11  C   UNL A   1      30.812  27.311  22.802  1.00  0.00     0.196 C 
ATOM     12  H   UNL A   1      31.125  26.718  26.013  1.00  0.00     0.347 HD
ATOM     13  H   UNL A   1      29.947  27.473  24.932  1.00  0.00     0.347 HD
ATOM     14  C   UNL A   1      31.191  28.812  23.079  1.00  0.00    -0.024 C 
ATOM     15  N   UNL A   1      29.318  27.371  22.674  1.00  0.00    -0.270 NA
ATOM     16  C   UNL A   1      32.243  29.044  24.194  1.00  0.00     0.109 C 
ATOM     17  C   UNL A   1      30.108  29.610  22.990  1.00  0.00     0.002 A 
ATOM     18  C   UNL A   1      29.010  28.635  22.773  1.00  0.00     0.066 A 
ATOM     19  C   UNL A   1      29.823  30.882  23.628  1.00  0.00     0.010 A 
ATOM     20  C   UNL A   1      27.627  29.188  22.880  1.00  0.00     0.028 A 
ATOM     21  C   UNL A   1      28.549  31.231  23.880  1.00  0.00     0.001 A 
ATOM     22  C   UNL A   1      27.445  30.401  23.435  1.00  0.00     0.002 A 
BRANCH   9  23
ATOM     23  C   UNL A   1      30.978  25.000  24.558  1.00  0.00     0.015 A 
ATOM     24  C   UNL A   1      32.413  23.748  22.851  1.00  0.00     0.045 C 
ATOM     25  C   UNL A   1      31.520  23.805  24.052  1.00  0.00    -0.042 A 
ATOM     26  C   UNL A   1      31.417  22.597  24.805  1.00  0.00     0.004 A 
ATOM     27  C   UNL A   1      30.856  22.550  26.078  1.00  0.00     0.000 A 
ATOM     28  C   UNL A   1      30.389  24.871  25.859  1.00  0.00     0.010 A 
ATOM     29  C   UNL A   1      30.366  23.711  26.617  1.00  0.00     0.001 A 
ENDBRANCH   9  23
ENDBRANCH   5   8
ENDBRANCH   3   4
ENDBRANCH   2   3
ENDBRANCH   1   2
BRANCH   1  30
ATOM     30  N   UNL A   1      36.213  31.488  27.846  1.00  0.00    -0.352 N 
ATOM     31  C   UNL A   1      37.419  31.183  28.490  1.00  0.00     0.251 C 
ATOM     32  H   UNL A   1      36.248  32.122  27.094  1.00  0.00     0.163 HD
ATOM     33  O   UNL A   1      38.065  31.976  29.126  1.00  0.00    -0.269 OA
BRANCH  31  34
ATOM     34  C   UNL A   1      37.863  29.780  28.310  1.00  0.00     0.039 A 
ATOM     35  C   UNL A   1      37.730  28.911  29.405  1.00  0.00     0.014 A 
ATOM     36  C   UNL A   1      38.815  29.577  27.326  1.00  0.00     0.014 A 
ATOM     37  C   UNL A   1      38.765  28.051  29.708  1.00  0.00     0.010 A 
ATOM     38  C   UNL A   1      39.862  28.755  27.641  1.00  0.00     0.010 A 
ATOM     39  C   UNL A   1      39.872  28.099  28.879  1.00  0.00    -0.014 A 
BRANCH  39  40
ATOM     40  C   UNL A   1      41.134  27.500  29.230  1.00  0.00     0.031 A 
ATOM     41  C   UNL A   1      41.336  26.122  28.807  1.00  0.00     0.074 A 
ATOM     42  C   UNL A   1      42.067  28.311  29.764  1.00  0.00     0.049 A 
ATOM     43  N   UNL A   1      42.234  25.341  29.275  1.00  0.00    -0.248 NA
ATOM     44  C   UNL A   1      40.450  25.478  27.841  1.00  0.00     0.031 C 
ATOM     45  C   UNL A   1      43.508  28.130  29.897  1.00  0.00     0.029 A 
ATOM     46  N   UNL A   1      41.808  29.493  30.469  1.00  0.00    -0.354 N 
ATOM     47  C   UNL A   1      42.287  24.256  28.429  1.00  0.00     0.074 A 
ATOM     48  C   UNL A   1      41.056  24.302  27.682  1.00  0.00     0.031 C 
ATOM     49  C   UNL A   1      43.966  28.994  30.826  1.00  0.00     0.029 A 
ATOM     50  C   UNL A   1      42.794  29.576  31.465  1.00  0.00     0.049 A 
ATOM     51  H   UNL A   1      41.082  30.135  30.299  1.00  0.00     0.167 HD
ATOM     52  C   UNL A   1      43.469  23.587  28.330  1.00  0.00     0.037 A 
ATOM     53  C   UNL A   1      42.409  29.311  32.753  1.00  0.00     0.037 A 
ATOM     54  C   UNL A   1      44.430  24.151  29.290  1.00  0.00     0.049 A 
ATOM     55  C   UNL A   1      43.017  28.021  33.300  1.00  0.00     0.074 A 
ATOM     56  C   UNL A   1      45.481  25.052  29.203  1.00  0.00     0.029 A 
ATOM     57  N   UNL A   1      44.104  24.099  30.633  1.00  0.00    -0.354 N 
ATOM     58  N   UNL A   1      43.587  27.098  32.568  1.00  0.00    -0.248 NA
ATOM     59  C   UNL A   1      43.014  27.664  34.715  1.00  0.00     0.031 C 
ATOM     60  C   UNL A   1      45.768  25.533  30.522  1.00  0.00     0.029 A 
ATOM     61  C   UNL A   1      44.895  24.923  31.405  1.00  0.00     0.049 A 
ATOM     62  H   UNL A   1      43.386  23.534  30.999  1.00  0.00     0.167 HD
ATOM     63  C   UNL A   1      44.010  26.057  33.352  1.00  0.00     0.074 A 
ATOM     64  C   UNL A   1      43.595  26.451  34.690  1.00  0.00     0.031 C 
ATOM     65  C   UNL A   1      44.646  24.953  32.843  1.00  0.00     0.037 A 
BRANCH  52  66
ATOM     66  C   UNL A   1      43.836  22.646  27.202  1.00  0.00     0.058 A 
ATOM     67  C   UNL A   1      43.121  21.441  27.032  1.00  0.00     0.135 A 
ATOM     68  C   UNL A   1      44.886  22.831  26.275  1.00  0.00     0.135 A 
ATOM     69  F   UNL A   1      42.050  21.150  27.783  1.00  0.00    -0.206 F 
ATOM     70  C   UNL A   1      43.462  20.478  26.081  1.00  0.00     0.059 A 
ATOM     71  C   UNL A   1      45.279  21.862  25.348  1.00  0.00     0.059 A 
ATOM     72  F   UNL A   1      45.546  23.989  26.171  1.00  0.00    -0.206 F 
ATOM     73  C   UNL A   1      44.558  20.684  25.256  1.00  0.00     0.060 A 
BRANCH  73  74
ATOM     74  S   UNL A   1      44.982  19.428  24.039  1.00  0.00     0.124 S 
ATOM     75  O   UNL A   1      46.437  19.381  24.144  1.00  0.00    -0.237 OA
ATOM     76  O   UNL A   1      44.269  18.261  24.549  1.00  0.00    -0.237 OA
ATOM     77  O   UNL A   1      44.468  19.977  22.787  1.00  0.00    -0.744 OA
ENDBRANCH  73  74
ENDBRANCH  52  66
BRANCH  53  78
ATOM     78  C   UNL A   1      41.032  29.839  33.054  1.00  0.00     0.058 A 
ATOM     79  C   UNL A   1      40.848  31.240  33.131  1.00  0.00     0.135 A 
ATOM     80  C   UNL A   1      39.870  29.064  32.925  1.00  0.00     0.135 A 
ATOM     81  F   UNL A   1      41.912  32.055  33.239  1.00  0.00    -0.206 F 
ATOM     82  C   UNL A   1      39.599  31.843  32.991  1.00  0.00     0.059 A 
ATOM     83  C   UNL A   1      38.599  29.651  32.800  1.00  0.00     0.059 A 
ATOM     84  F   UNL A   1      39.956  27.730  32.836  1.00  0.00    -0.206 F 
ATOM     85  C   UNL A   1      38.476  31.042  32.811  1.00  0.00     0.060 A 
BRANCH  85  86
ATOM     86  S   UNL A   1      36.866  31.831  32.538  1.00  0.00     0.124 S 
ATOM     87  O   UNL A   1      37.229  33.057  31.826  1.00  0.00    -0.237 OA
ATOM     88  O   UNL A   1      36.142  30.850  31.745  1.00  0.00    -0.237 OA
ATOM     89  O   UNL A   1      36.387  32.006  33.904  1.00  0.00    -0.744 OA
ENDBRANCH  85  86
ENDBRANCH  53  78
BRANCH  65  90
ATOM     90  C   UNL A   1      45.037  23.740  33.661  1.00  0.00     0.058 A 
ATOM     91  C   UNL A   1      44.114  22.794  34.127  1.00  0.00     0.135 A 
ATOM     92  C   UNL A   1      46.379  23.522  34.066  1.00  0.00     0.135 A 
ATOM     93  F   UNL A   1      42.795  22.968  33.943  1.00  0.00    -0.206 F 
ATOM     94  C   UNL A   1      44.509  21.648  34.823  1.00  0.00     0.059 A 
ATOM     95  C   UNL A   1      46.786  22.425  34.811  1.00  0.00     0.059 A 
ATOM     96  F   UNL A   1      47.379  24.347  33.737  1.00  0.00    -0.206 F 
ATOM     97  C   UNL A   1      45.852  21.465  35.144  1.00  0.00     0.060 A 
BRANCH  97  98
ATOM     98  S   UNL A   1      46.377  19.979  36.008  1.00  0.00     0.124 S 
ATOM     99  O   UNL A   1      45.916  18.922  35.113  1.00  0.00    -0.237 OA
ATOM    100  O   UNL A   1      47.822  20.175  36.068  1.00  0.00    -0.237 OA
ATOM    101  O   UNL A   1      45.678  20.060  37.286  1.00  0.00    -0.744 OA
ENDBRANCH  97  98
ENDBRANCH  65  90
ENDBRANCH  39  40
ENDBRANCH  31  34
ENDBRANCH   1  30
TORSDOF 14
ENDMDL
MODEL 3
REMARK VINA RESULT:     -14.7      4.610     11.343
REMARK SMILES Cc1ccccc1[C@@H]1[NH2+][C@@H](C(=O)NCCCNC(=O)c2ccc(-c3c4nc(c(-c5c(F)cc(S(=O)(=O)[O-])cc5F)c5ccc([nH]5)c(-c5c(F)cc(S(=O)(=O)[O-])cc5F)c5nc(c(-c6c(F)cc(S(=O)(=O)[O-])cc6F)c6ccc3[nH]6)C=C5)C=C4)cc2)CC2=c3ccccc3=N[C@@H]21
REMARK SMILES IDX 16 1 15 2 14 3 13 4 11 5 12 6 10 8 8 9 9 10 95 11 87 14
REMARK SMILES IDX 94 15 86 16 88 17 93 18 89 19 92 20 90 21 91 22 7 23 1 24
REMARK SMILES IDX 2 25 3 26 4 27 6 28 5 29 17 30 18 31 19 33 20 34 21 35 85 36
REMARK SMILES IDX 22 37 84 38 23 39 24 40 25 41 78 42 26 43 83 44 77 45 79 46
REMARK SMILES IDX 27 47 82 48 76 49 75 50 28 52 62 53 41 54 61 55 42 56 45 57
REMARK SMILES IDX 60 58 80 59 43 60 44 61 59 63 81 64 46 65 29 66 30 67 39 68
REMARK SMILES IDX 31 69 32 70 38 71 40 72 33 73 34 74 35 75 36 76 37 77 63 78
REMARK SMILES IDX 64 79 73 80 65 81 66 82 72 83 74 84 67 85 68 86 69 87 70 88
REMARK SMILES IDX 71 89 47 90 48 91 57 92 49 93 50 94 56 95 58 96 51 97 52 98
REMARK SMILES IDX 53 99 54 100 55 101
REMARK H PARENT 13 7 9 12 9 13 17 32 79 51 45 62
REMARK Flexibility Score: inf
ROOT
ATOM      1  C   UNL A   1      39.550  22.975  26.088  1.00  0.00     0.118 C 
ENDROOT
BRANCH   1   2
ATOM      2  C   UNL A   1      38.361  22.014  25.861  1.00  0.00     0.042 C 
BRANCH   2   3
ATOM      3  C   UNL A   1      36.882  22.492  25.731  1.00  0.00     0.118 C 
BRANCH   3   4
ATOM      4  N   UNL A   1      35.951  22.908  26.821  1.00  0.00    -0.351 N 
ATOM      5  C   UNL A   1      34.543  23.082  26.829  1.00  0.00     0.278 C 
ATOM      6  O   UNL A   1      33.866  22.892  27.834  1.00  0.00    -0.268 OA
ATOM      7  H   UNL A   1      36.389  23.095  27.683  1.00  0.00     0.163 HD
BRANCH   5   8
ATOM      8  C   UNL A   1      34.027  23.699  25.533  1.00  0.00     0.277 C 
ATOM      9  C   UNL A   1      33.309  22.145  23.647  1.00  0.00     0.243 C 
ATOM     10  N   UNL A   1      33.254  22.587  25.028  1.00  0.00    -0.327 N 
ATOM     11  C   UNL A   1      32.726  23.423  22.868  1.00  0.00     0.196 C 
ATOM     12  H   UNL A   1      33.524  21.780  25.592  1.00  0.00     0.347 HD
ATOM     13  H   UNL A   1      32.306  22.957  25.085  1.00  0.00     0.347 HD
ATOM     14  C   UNL A   1      33.388  24.706  23.491  1.00  0.00    -0.024 C 
ATOM     15  N   UNL A   1      31.264  23.664  23.105  1.00  0.00    -0.270 NA
ATOM     16  C   UNL A   1      34.651  24.457  24.355  1.00  0.00     0.109 C 
ATOM     17  C   UNL A   1      32.452  25.588  23.894  1.00  0.00     0.002 A 
ATOM     18  C   UNL A   1      31.189  24.848  23.647  1.00  0.00     0.066 A 
ATOM     19  C   UNL A   1      32.499  26.601  24.932  1.00  0.00     0.010 A 
ATOM     20  C   UNL A   1      29.958  25.463  24.226  1.00  0.00     0.028 A 
ATOM     21  C   UNL A   1      31.368  26.966  25.559  1.00  0.00     0.001 A 
ATOM     22  C   UNL A   1      30.081  26.438  25.147  1.00  0.00     0.002 A 
BRANCH   9  23
ATOM     23  C   UNL A   1      32.835  20.658  23.760  1.00  0.00     0.015 A 
ATOM     24  C   UNL A   1      31.838  20.498  21.411  1.00  0.00     0.045 C 
ATOM     25  C   UNL A   1      32.232  19.912  22.732  1.00  0.00    -0.042 A 
ATOM     26  C   UNL A   1      32.167  18.490  22.822  1.00  0.00     0.004 A 
ATOM     27  C   UNL A   1      32.746  17.775  23.868  1.00  0.00     0.000 A 
ATOM     28  C   UNL A   1      33.381  19.861  24.820  1.00  0.00     0.010 A 
ATOM     29  C   UNL A   1      33.385  18.475  24.859  1.00  0.00     0.001 A 
ENDBRANCH   9  23
ENDBRANCH   5   8
ENDBRANCH   3   4
ENDBRANCH   2   3
ENDBRANCH   1   2
BRANCH   1  30
ATOM     30  N   UNL A   1      39.882  23.151  27.510  1.00  0.00    -0.352 N 
ATOM     31  C   UNL A   1      40.534  24.266  28.051  1.00  0.00     0.251 C 
ATOM     32  H   UNL A   1      39.625  22.430  28.128  1.00  0.00     0.163 HD
ATOM     33  O   UNL A   1      41.632  24.233  28.544  1.00  0.00    -0.269 OA
BRANCH  31  34
ATOM     34  C   UNL A   1      39.743  25.519  27.988  1.00  0.00     0.039 A 
ATOM     35  C   UNL A   1      40.097  26.461  27.009  1.00  0.00     0.014 A 
ATOM     36  C   UNL A   1      39.112  25.886  29.164  1.00  0.00     0.014 A 
ATOM     37  C   UNL A   1      40.147  27.797  27.352  1.00  0.00     0.010 A 
ATOM     38  C   UNL A   1      39.195  27.203  29.522  1.00  0.00     0.010 A 
ATOM     39  C   UNL A   1      39.818  28.112  28.659  1.00  0.00    -0.014 A 
BRANCH  39  40
ATOM     40  C   UNL A   1      40.111  29.395  29.246  1.00  0.00     0.031 A 
ATOM     41  C   UNL A   1      39.069  30.407  29.142  1.00  0.00     0.074 A 
ATOM     42  C   UNL A   1      41.238  29.488  29.976  1.00  0.00     0.049 A 
ATOM     43  N   UNL A   1      39.252  31.660  29.322  1.00  0.00    -0.248 NA
ATOM     44  C   UNL A   1      37.709  30.069  28.733  1.00  0.00     0.031 C 
ATOM     45  C   UNL A   1      41.641  30.483  30.963  1.00  0.00     0.029 A 
ATOM     46  N   UNL A   1      42.375  28.686  29.820  1.00  0.00    -0.354 N 
ATOM     47  C   UNL A   1      38.000  32.224  29.426  1.00  0.00     0.074 A 
ATOM     48  C   UNL A   1      37.099  31.245  28.876  1.00  0.00     0.031 C 
ATOM     49  C   UNL A   1      42.977  30.401  31.136  1.00  0.00     0.029 A 
ATOM     50  C   UNL A   1      43.476  29.514  30.095  1.00  0.00     0.049 A 
ATOM     51  H   UNL A   1      42.397  27.735  29.569  1.00  0.00     0.167 HD
ATOM     52  C   UNL A   1      37.879  33.364  30.163  1.00  0.00     0.037 A 
ATOM     53  C   UNL A   1      44.232  29.928  29.029  1.00  0.00     0.037 A 
ATOM     54  C   UNL A   1      39.211  33.803  30.605  1.00  0.00     0.049 A 
ATOM     55  C   UNL A   1      44.113  31.427  28.765  1.00  0.00     0.074 A 
ATOM     56  C   UNL A   1      39.935  33.687  31.782  1.00  0.00     0.029 A 
ATOM     57  N   UNL A   1      40.145  34.107  29.631  1.00  0.00    -0.354 N 
ATOM     58  N   UNL A   1      43.184  32.200  29.267  1.00  0.00    -0.248 NA
ATOM     59  C   UNL A   1      45.023  32.168  27.898  1.00  0.00     0.031 C 
ATOM     60  C   UNL A   1      41.315  33.927  31.484  1.00  0.00     0.029 A 
ATOM     61  C   UNL A   1      41.427  34.190  30.131  1.00  0.00     0.049 A 
ATOM     62  H   UNL A   1      39.919  34.250  28.684  1.00  0.00     0.167 HD
ATOM     63  C   UNL A   1      43.338  33.486  28.822  1.00  0.00     0.074 A 
ATOM     64  C   UNL A   1      44.491  33.404  27.938  1.00  0.00     0.031 C 
ATOM     65  C   UNL A   1      42.502  34.508  29.196  1.00  0.00     0.037 A 
BRANCH  52  66
ATOM     66  C   UNL A   1      36.574  33.904  30.708  1.00  0.00     0.058 A 
ATOM     67  C   UNL A   1      35.565  34.333  29.819  1.00  0.00     0.135 A 
ATOM     68  C   UNL A   1      36.248  34.064  32.074  1.00  0.00     0.135 A 
ATOM     69  F   UNL A   1      35.689  34.182  28.494  1.00  0.00    -0.206 F 
ATOM     70  C   UNL A   1      34.378  34.933  30.243  1.00  0.00     0.059 A 
ATOM     71  C   UNL A   1      35.090  34.706  32.522  1.00  0.00     0.059 A 
ATOM     72  F   UNL A   1      37.001  33.546  33.049  1.00  0.00    -0.206 F 
ATOM     73  C   UNL A   1      34.156  35.137  31.597  1.00  0.00     0.060 A 
BRANCH  73  74
ATOM     74  S   UNL A   1      32.620  35.916  32.121  1.00  0.00     0.124 S 
ATOM     75  O   UNL A   1      32.174  36.566  30.893  1.00  0.00    -0.237 OA
ATOM     76  O   UNL A   1      31.833  34.767  32.556  1.00  0.00    -0.237 OA
ATOM     77  O   UNL A   1      33.043  36.824  33.184  1.00  0.00    -0.744 OA
ENDBRANCH  73  74
ENDBRANCH  52  66
BRANCH  53  78
ATOM     78  C   UNL A   1      44.379  28.852  27.986  1.00  0.00     0.058 A 
ATOM     79  C   UNL A   1      45.188  27.729  28.284  1.00  0.00     0.135 A 
ATOM     80  C   UNL A   1      43.511  28.722  26.892  1.00  0.00     0.135 A 
ATOM     81  F   UNL A   1      46.036  27.766  29.327  1.00  0.00    -0.206 F 
ATOM     82  C   UNL A   1      45.074  26.520  27.601  1.00  0.00     0.059 A 
ATOM     83  C   UNL A   1      43.393  27.517  26.179  1.00  0.00     0.059 A 
ATOM     84  F   UNL A   1      42.704  29.736  26.550  1.00  0.00    -0.206 F 
ATOM     85  C   UNL A   1      44.163  26.414  26.556  1.00  0.00     0.060 A 
BRANCH  85  86
ATOM     86  S   UNL A   1      43.952  24.813  25.730  1.00  0.00     0.124 S 
ATOM     87  O   UNL A   1      44.232  23.860  26.804  1.00  0.00    -0.237 OA
ATOM     88  O   UNL A   1      42.568  24.846  25.283  1.00  0.00    -0.237 OA
ATOM     89  O   UNL A   1      44.950  24.893  24.671  1.00  0.00    -0.744 OA
ENDBRANCH  85  86
ENDBRANCH  53  78
BRANCH  65  90
ATOM     90  C   UNL A   1      42.578  35.918  28.648  1.00  0.00     0.058 A 
ATOM     91  C   UNL A   1      42.182  36.262  27.349  1.00  0.00     0.135 A 
ATOM     92  C   UNL A   1      43.127  36.981  29.412  1.00  0.00     0.135 A 
ATOM     93  F   UNL A   1      41.790  35.321  26.474  1.00  0.00    -0.206 F 
ATOM     94  C   UNL A   1      42.200  37.582  26.890  1.00  0.00     0.059 A 
ATOM     95  C   UNL A   1      43.213  38.288  28.956  1.00  0.00     0.059 A 
ATOM     96  F   UNL A   1      43.584  36.817  30.658  1.00  0.00    -0.206 F 
ATOM     97  C   UNL A   1      42.701  38.591  27.710  1.00  0.00     0.060 A 
BRANCH  97  98
ATOM     98  S   UNL A   1      42.697  40.297  27.145  1.00  0.00     0.124 S 
ATOM     99  O   UNL A   1      43.147  41.017  28.333  1.00  0.00    -0.237 OA
ATOM    100  O   UNL A   1      43.648  40.238  26.040  1.00  0.00    -0.237 OA
ATOM    101  O   UNL A   1      41.308  40.530  26.766  1.00  0.00    -0.744 OA
ENDBRANCH  97  98
ENDBRANCH  65  90
ENDBRANCH  39  40
ENDBRANCH  31  34
ENDBRANCH   1  30
TORSDOF 14
ENDMDL
