MODEL 1
REMARK VINA RESULT:     -15.0      0.000      0.000
REMARK SMILES Cc1c(C(=O)NCCCNC(=O)c2ccc(-c3c4nc(c(-c5c(F)cc(S(=O)(=O)[O-])cc5F)c5ccc([nH]5)c(-c5c(F)cc(S(=O)(=O)[O-])cc5F)c5nc(c(-c6c(F)cc(S(=O)(=O)[O-])cc6F)c6ccc3[nH]6)C=C5)C=C4)cc2)oc2c1/C(=N/NC(=O)C(c1ccccc1)c1ccccc1)CCC2
REMARK SMILES IDX 8 1 7 2 6 3 4 4 5 5 3 7 1 8 2 9 81 10 79 11 80 12 82 13
REMARK SMILES IDX 102 14 83 15 100 16 101 17 84 18 85 19 86 21 87 22 88 23
REMARK SMILES IDX 89 24 93 25 90 26 92 27 91 28 94 29 95 30 99 31 96 32 98 33
REMARK SMILES IDX 97 34 9 35 10 36 11 37 12 39 13 40 14 41 78 42 15 43 77 44
REMARK SMILES IDX 16 45 17 46 18 47 71 48 19 49 76 50 70 51 72 52 20 53 75 54
REMARK SMILES IDX 69 55 68 56 21 58 55 59 34 60 54 61 35 62 38 63 53 64 73 65
REMARK SMILES IDX 36 66 37 67 52 69 74 70 39 71 22 72 23 73 32 74 24 75 25 76
REMARK SMILES IDX 31 77 33 78 26 79 27 80 28 81 29 82 30 83 56 84 57 85 66 86
REMARK SMILES IDX 58 87 59 88 65 89 67 90 60 91 61 92 62 93 63 94 64 95 40 96
REMARK SMILES IDX 41 97 50 98 42 99 43 100 49 101 51 102 44 103 45 104 46 105
REMARK SMILES IDX 47 106 48 107
REMARK H PARENT 6 6 84 20 10 38 72 57 38 68
REMARK Flexibility Score: inf
ROOT
ATOM      1  C   UNL A   1      36.718  21.993  25.130  1.00  0.00     0.042 C 
ENDROOT
BRANCH   1   2
ATOM      2  C   UNL A   1      35.620  21.416  26.046  1.00  0.00     0.118 C 
BRANCH   2   3
ATOM      3  N   UNL A   1      34.840  20.326  25.441  1.00  0.00    -0.349 N 
ATOM      4  C   UNL A   1      33.675  20.397  24.687  1.00  0.00     0.287 C 
ATOM      5  O   UNL A   1      33.298  19.381  24.091  1.00  0.00    -0.266 OA
ATOM      6  H   UNL A   1      35.192  19.419  25.590  1.00  0.00     0.163 HD
BRANCH   4   7
ATOM      7  C   UNL A   1      33.015  21.674  24.586  1.00  0.00     0.195 A 
ATOM      8  C   UNL A   1      34.397  23.231  23.031  1.00  0.00     0.049 C 
ATOM      9  C   UNL A   1      33.300  22.896  23.975  1.00  0.00     0.010 A 
ATOM     10  C   UNL A   1      32.386  23.819  24.579  1.00  0.00     0.043 A 
ATOM     11  O   UNL A   1      31.866  21.789  25.297  1.00  0.00    -0.455 OA
ATOM     12  C   UNL A   1      31.592  23.076  25.413  1.00  0.00     0.114 A 
ATOM     13  C   UNL A   1      32.231  25.262  24.551  1.00  0.00     0.072 C 
ATOM     14  C   UNL A   1      30.638  23.454  26.464  1.00  0.00     0.076 C 
ATOM     15  N   UNL A   1      32.775  25.801  23.492  1.00  0.00    -0.177 NA
ATOM     16  C   UNL A   1      31.501  25.721  25.843  1.00  0.00     0.059 C 
ATOM     17  C   UNL A   1      30.264  24.896  26.236  1.00  0.00     0.014 C 
BRANCH  15  18
ATOM     18  N   UNL A   1      32.900  27.042  22.908  1.00  0.00    -0.246 N 
ATOM     19  C   UNL A   1      32.360  28.300  23.123  1.00  0.00     0.252 C 
ATOM     20  H   UNL A   1      33.527  27.034  22.150  1.00  0.00     0.193 HD
ATOM     21  O   UNL A   1      32.626  29.223  22.346  1.00  0.00    -0.272 OA
BRANCH  19  22
ATOM     22  C   UNL A   1      31.468  28.524  24.330  1.00  0.00     0.140 C 
BRANCH  22  23
ATOM     23  C   UNL A   1      32.401  29.172  25.473  1.00  0.00    -0.031 A 
ATOM     24  C   UNL A   1      33.646  28.583  25.867  1.00  0.00     0.005 A 
ATOM     25  C   UNL A   1      32.063  30.317  26.208  1.00  0.00     0.005 A 
ATOM     26  C   UNL A   1      34.572  29.168  26.739  1.00  0.00     0.000 A 
ATOM     27  C   UNL A   1      32.960  30.869  27.167  1.00  0.00     0.000 A 
ATOM     28  C   UNL A   1      34.228  30.326  27.395  1.00  0.00     0.000 A 
ENDBRANCH  22  23
BRANCH  22  29
ATOM     29  C   UNL A   1      30.070  29.079  23.747  1.00  0.00    -0.031 A 
ATOM     30  C   UNL A   1      29.057  28.262  23.224  1.00  0.00     0.005 A 
ATOM     31  C   UNL A   1      29.748  30.476  23.757  1.00  0.00     0.005 A 
ATOM     32  C   UNL A   1      27.788  28.802  22.881  1.00  0.00     0.000 A 
ATOM     33  C   UNL A   1      28.476  30.999  23.501  1.00  0.00     0.000 A 
ATOM     34  C   UNL A   1      27.482  30.152  23.070  1.00  0.00     0.000 A 
ENDBRANCH  22  29
ENDBRANCH  19  22
ENDBRANCH  15  18
ENDBRANCH   4   7
ENDBRANCH   2   3
ENDBRANCH   1   2
BRANCH   1  35
ATOM     35  C   UNL A   1      37.713  22.818  25.912  1.00  0.00     0.118 C 
BRANCH  35  36
ATOM     36  N   UNL A   1      38.863  22.016  26.353  1.00  0.00    -0.352 N 
ATOM     37  C   UNL A   1      40.117  22.444  26.749  1.00  0.00     0.251 C 
ATOM     38  H   UNL A   1      38.721  21.043  26.369  1.00  0.00     0.163 HD
ATOM     39  O   UNL A   1      41.066  21.669  26.764  1.00  0.00    -0.269 OA
BRANCH  37  40
ATOM     40  C   UNL A   1      40.278  23.849  27.153  1.00  0.00     0.039 A 
ATOM     41  C   UNL A   1      39.244  24.783  27.059  1.00  0.00     0.014 A 
ATOM     42  C   UNL A   1      41.503  24.197  27.707  1.00  0.00     0.014 A 
ATOM     43  C   UNL A   1      39.445  26.050  27.603  1.00  0.00     0.010 A 
ATOM     44  C   UNL A   1      41.595  25.325  28.464  1.00  0.00     0.010 A 
ATOM     45  C   UNL A   1      40.624  26.301  28.322  1.00  0.00    -0.014 A 
BRANCH  45  46
ATOM     46  C   UNL A   1      40.860  27.545  29.039  1.00  0.00     0.031 A 
ATOM     47  C   UNL A   1      41.925  28.382  28.432  1.00  0.00     0.074 A 
ATOM     48  C   UNL A   1      39.997  27.997  29.979  1.00  0.00     0.049 A 
ATOM     49  N   UNL A   1      43.112  28.596  28.889  1.00  0.00    -0.248 NA
ATOM     50  C   UNL A   1      41.727  28.872  27.054  1.00  0.00     0.031 C 
ATOM     51  C   UNL A   1      38.721  27.405  30.412  1.00  0.00     0.029 A 
ATOM     52  N   UNL A   1      40.022  29.160  30.681  1.00  0.00    -0.354 N 
ATOM     53  C   UNL A   1      43.701  29.484  27.995  1.00  0.00     0.074 A 
ATOM     54  C   UNL A   1      42.923  29.403  26.789  1.00  0.00     0.031 C 
ATOM     55  C   UNL A   1      38.000  28.316  31.101  1.00  0.00     0.029 A 
ATOM     56  C   UNL A   1      38.823  29.489  31.315  1.00  0.00     0.049 A 
ATOM     57  H   UNL A   1      40.824  29.728  30.737  1.00  0.00     0.167 HD
ATOM     58  C   UNL A   1      44.586  30.426  28.430  1.00  0.00     0.037 A 
ATOM     59  C   UNL A   1      38.536  30.659  31.946  1.00  0.00     0.037 A 
ATOM     60  C   UNL A   1      45.031  30.122  29.771  1.00  0.00     0.049 A 
ATOM     61  C   UNL A   1      39.842  31.304  32.251  1.00  0.00     0.074 A 
ATOM     62  C   UNL A   1      45.662  29.045  30.362  1.00  0.00     0.029 A 
ATOM     63  N   UNL A   1      44.456  30.833  30.800  1.00  0.00    -0.354 N 
ATOM     64  N   UNL A   1      40.719  30.799  33.078  1.00  0.00    -0.248 NA
ATOM     65  C   UNL A   1      40.381  32.219  31.255  1.00  0.00     0.031 C 
ATOM     66  C   UNL A   1      45.022  28.897  31.629  1.00  0.00     0.029 A 
ATOM     67  C   UNL A   1      44.111  29.943  31.784  1.00  0.00     0.049 A 
ATOM     68  H   UNL A   1      44.318  31.807  30.825  1.00  0.00     0.167 HD
ATOM     69  C   UNL A   1      41.946  30.978  32.452  1.00  0.00     0.074 A 
ATOM     70  C   UNL A   1      41.678  31.915  31.360  1.00  0.00     0.031 C 
ATOM     71  C   UNL A   1      42.989  30.126  32.681  1.00  0.00     0.037 A 
BRANCH  58  72
ATOM     72  C   UNL A   1      44.737  31.811  27.836  1.00  0.00     0.058 A 
ATOM     73  C   UNL A   1      45.934  32.133  27.162  1.00  0.00     0.135 A 
ATOM     74  C   UNL A   1      43.899  32.910  28.134  1.00  0.00     0.135 A 
ATOM     75  F   UNL A   1      46.808  31.172  26.823  1.00  0.00    -0.206 F 
ATOM     76  C   UNL A   1      46.310  33.448  26.886  1.00  0.00     0.059 A 
ATOM     77  C   UNL A   1      44.229  34.222  27.819  1.00  0.00     0.059 A 
ATOM     78  F   UNL A   1      42.762  32.786  28.827  1.00  0.00    -0.206 F 
ATOM     79  C   UNL A   1      45.454  34.488  27.234  1.00  0.00     0.060 A 
BRANCH  79  80
ATOM     80  S   UNL A   1      45.974  36.190  26.964  1.00  0.00     0.124 S 
ATOM     81  O   UNL A   1      46.536  36.112  25.621  1.00  0.00    -0.237 OA
ATOM     82  O   UNL A   1      44.712  36.911  27.090  1.00  0.00    -0.237 OA
ATOM     83  O   UNL A   1      46.933  36.422  28.039  1.00  0.00    -0.744 OA
ENDBRANCH  79  80
ENDBRANCH  58  72
BRANCH  59  84
ATOM     84  C   UNL A   1      37.245  31.407  31.962  1.00  0.00     0.058 A 
ATOM     85  C   UNL A   1      36.685  31.889  33.161  1.00  0.00     0.135 A 
ATOM     86  C   UNL A   1      36.679  31.912  30.774  1.00  0.00     0.135 A 
ATOM     87  F   UNL A   1      37.173  31.482  34.343  1.00  0.00    -0.206 F 
ATOM     88  C   UNL A   1      35.661  32.847  33.180  1.00  0.00     0.059 A 
ATOM     89  C   UNL A   1      35.655  32.861  30.768  1.00  0.00     0.059 A 
ATOM     90  F   UNL A   1      37.172  31.565  29.576  1.00  0.00    -0.206 F 
ATOM     91  C   UNL A   1      35.164  33.342  31.975  1.00  0.00     0.060 A 
BRANCH  91  92
ATOM     92  S   UNL A   1      33.963  34.698  31.989  1.00  0.00     0.124 S 
ATOM     93  O   UNL A   1      32.913  34.164  32.851  1.00  0.00    -0.237 OA
ATOM     94  O   UNL A   1      34.744  35.799  32.545  1.00  0.00    -0.237 OA
ATOM     95  O   UNL A   1      33.600  34.846  30.582  1.00  0.00    -0.744 OA
ENDBRANCH  91  92
ENDBRANCH  59  84
BRANCH  71  96
ATOM     96  C   UNL A   1      42.893  29.161  33.838  1.00  0.00     0.058 A 
ATOM     97  C   UNL A   1      43.119  29.492  35.188  1.00  0.00     0.135 A 
ATOM     98  C   UNL A   1      42.382  27.882  33.575  1.00  0.00     0.135 A 
ATOM     99  F   UNL A   1      43.512  30.723  35.539  1.00  0.00    -0.206 F 
ATOM    100  C   UNL A   1      42.879  28.581  36.221  1.00  0.00     0.059 A 
ATOM    101  C   UNL A   1      42.105  26.969  34.588  1.00  0.00     0.059 A 
ATOM    102  F   UNL A   1      42.087  27.524  32.313  1.00  0.00    -0.206 F 
ATOM    103  C   UNL A   1      42.369  27.320  35.909  1.00  0.00     0.060 A 
BRANCH 103 104
ATOM    104  S   UNL A   1      41.993  26.161  37.243  1.00  0.00     0.124 S 
ATOM    105  O   UNL A   1      43.027  26.475  38.223  1.00  0.00    -0.237 OA
ATOM    106  O   UNL A   1      40.631  26.535  37.616  1.00  0.00    -0.237 OA
ATOM    107  O   UNL A   1      42.118  24.853  36.604  1.00  0.00    -0.744 OA
ENDBRANCH 103 104
ENDBRANCH  71  96
ENDBRANCH  45  46
ENDBRANCH  37  40
ENDBRANCH  35  36
ENDBRANCH   1  35
TORSDOF 17
ENDMDL
MODEL 2
REMARK VINA RESULT:     -13.8      1.608      2.926
REMARK SMILES Cc1c(C(=O)NCCCNC(=O)c2ccc(-c3c4nc(c(-c5c(F)cc(S(=O)(=O)[O-])cc5F)c5ccc([nH]5)c(-c5c(F)cc(S(=O)(=O)[O-])cc5F)c5nc(c(-c6c(F)cc(S(=O)(=O)[O-])cc6F)c6ccc3[nH]6)C=C5)C=C4)cc2)oc2c1/C(=N/NC(=O)C(c1ccccc1)c1ccccc1)CCC2
REMARK SMILES IDX 8 1 7 2 6 3 4 4 5 5 3 7 1 8 2 9 81 10 79 11 80 12 82 13
REMARK SMILES IDX 102 14 83 15 100 16 101 17 84 18 85 19 86 21 87 22 88 23
REMARK SMILES IDX 89 24 93 25 90 26 92 27 91 28 94 29 95 30 99 31 96 32 98 33
REMARK SMILES IDX 97 34 9 35 10 36 11 37 12 39 13 40 14 41 78 42 15 43 77 44
REMARK SMILES IDX 16 45 17 46 18 47 71 48 19 49 76 50 70 51 72 52 20 53 75 54
REMARK SMILES IDX 69 55 68 56 21 58 55 59 34 60 54 61 35 62 38 63 53 64 73 65
REMARK SMILES IDX 36 66 37 67 52 69 74 70 39 71 22 72 23 73 32 74 24 75 25 76
REMARK SMILES IDX 31 77 33 78 26 79 27 80 28 81 29 82 30 83 56 84 57 85 66 86
REMARK SMILES IDX 58 87 59 88 65 89 67 90 60 91 61 92 62 93 63 94 64 95 40 96
REMARK SMILES IDX 41 97 50 98 42 99 43 100 49 101 51 102 44 103 45 104 46 105
REMARK SMILES IDX 47 106 48 107
REMARK H PARENT 6 6 84 20 10 38 72 57 38 68
REMARK Flexibility Score: inf
ROOT
ATOM      1  C   UNL A   1      38.149  22.019  25.691  1.00  0.00     0.042 C 
ENDROOT
BRANCH   1   2
ATOM      2  C   UNL A   1      36.803  22.765  25.802  1.00  0.00     0.118 C 
BRANCH   2   3
ATOM      3  N   UNL A   1      35.864  22.172  26.766  1.00  0.00    -0.349 N 
ATOM      4  C   UNL A   1      34.476  22.232  26.785  1.00  0.00     0.287 C 
ATOM      5  O   UNL A   1      33.866  21.487  27.561  1.00  0.00    -0.266 OA
ATOM      6  H   UNL A   1      36.275  21.663  27.501  1.00  0.00     0.163 HD
BRANCH   4   7
ATOM      7  C   UNL A   1      33.826  23.109  25.843  1.00  0.00     0.195 A 
ATOM      8  C   UNL A   1      31.548  23.882  26.824  1.00  0.00     0.049 C 
ATOM      9  C   UNL A   1      32.595  23.761  25.777  1.00  0.00     0.010 A 
ATOM     10  C   UNL A   1      32.479  24.168  24.409  1.00  0.00     0.043 A 
ATOM     11  O   UNL A   1      34.509  23.328  24.693  1.00  0.00    -0.455 OA
ATOM     12  C   UNL A   1      33.658  23.814  23.806  1.00  0.00     0.114 A 
ATOM     13  C   UNL A   1      31.413  24.735  23.603  1.00  0.00     0.072 C 
ATOM     14  C   UNL A   1      34.067  23.751  22.397  1.00  0.00     0.076 C 
ATOM     15  N   UNL A   1      30.510  25.342  24.327  1.00  0.00    -0.177 NA
ATOM     16  C   UNL A   1      31.662  24.385  22.110  1.00  0.00     0.059 C 
ATOM     17  C   UNL A   1      33.100  24.596  21.609  1.00  0.00     0.014 C 
BRANCH  15  18
ATOM     18  N   UNL A   1      29.360  26.079  24.147  1.00  0.00    -0.246 N 
ATOM     19  C   UNL A   1      29.063  27.386  23.798  1.00  0.00     0.252 C 
ATOM     20  H   UNL A   1      28.549  25.545  24.307  1.00  0.00     0.193 HD
ATOM     21  O   UNL A   1      27.889  27.771  23.800  1.00  0.00    -0.272 OA
BRANCH  19  22
ATOM     22  C   UNL A   1      30.191  28.317  23.395  1.00  0.00     0.140 C 
BRANCH  22  23
ATOM     23  C   UNL A   1      29.499  29.689  22.908  1.00  0.00    -0.031 A 
ATOM     24  C   UNL A   1      29.163  29.930  21.537  1.00  0.00     0.005 A 
ATOM     25  C   UNL A   1      29.217  30.770  23.755  1.00  0.00     0.005 A 
ATOM     26  C   UNL A   1      28.430  31.026  21.070  1.00  0.00     0.000 A 
ATOM     27  C   UNL A   1      28.552  31.932  23.269  1.00  0.00     0.000 A 
ATOM     28  C   UNL A   1      28.117  32.039  21.945  1.00  0.00     0.000 A 
ENDBRANCH  22  23
BRANCH  22  29
ATOM     29  C   UNL A   1      31.345  28.119  24.506  1.00  0.00    -0.031 A 
ATOM     30  C   UNL A   1      31.103  28.065  25.886  1.00  0.00     0.005 A 
ATOM     31  C   UNL A   1      32.721  27.947  24.145  1.00  0.00     0.005 A 
ATOM     32  C   UNL A   1      32.141  27.724  26.795  1.00  0.00     0.000 A 
ATOM     33  C   UNL A   1      33.725  27.528  25.024  1.00  0.00     0.000 A 
ATOM     34  C   UNL A   1      33.431  27.404  26.362  1.00  0.00     0.000 A 
ENDBRANCH  22  29
ENDBRANCH  19  22
ENDBRANCH  15  18
ENDBRANCH   4   7
ENDBRANCH   2   3
ENDBRANCH   1   2
BRANCH   1  35
ATOM     35  C   UNL A   1      39.238  22.726  26.463  1.00  0.00     0.118 C 
BRANCH  35  36
ATOM     36  N   UNL A   1      40.577  22.262  26.074  1.00  0.00    -0.352 N 
ATOM     37  C   UNL A   1      41.713  23.009  25.820  1.00  0.00     0.251 C 
ATOM     38  H   UNL A   1      40.678  21.288  25.979  1.00  0.00     0.163 HD
ATOM     39  O   UNL A   1      42.647  22.531  25.188  1.00  0.00    -0.269 OA
BRANCH  37  40
ATOM     40  C   UNL A   1      41.770  24.386  26.334  1.00  0.00     0.039 A 
ATOM     41  C   UNL A   1      41.056  25.436  25.753  1.00  0.00     0.014 A 
ATOM     42  C   UNL A   1      42.523  24.587  27.483  1.00  0.00     0.014 A 
ATOM     43  C   UNL A   1      41.056  26.672  26.397  1.00  0.00     0.010 A 
ATOM     44  C   UNL A   1      42.301  25.698  28.239  1.00  0.00     0.010 A 
ATOM     45  C   UNL A   1      41.671  26.783  27.654  1.00  0.00    -0.014 A 
BRANCH  45  46
ATOM     46  C   UNL A   1      41.603  27.993  28.461  1.00  0.00     0.031 A 
ATOM     47  C   UNL A   1      42.728  28.929  28.214  1.00  0.00     0.074 A 
ATOM     48  C   UNL A   1      40.482  28.332  29.138  1.00  0.00     0.049 A 
ATOM     49  N   UNL A   1      43.722  29.185  28.996  1.00  0.00    -0.248 NA
ATOM     50  C   UNL A   1      42.885  29.489  26.859  1.00  0.00     0.031 C 
ATOM     51  C   UNL A   1      39.184  27.637  29.169  1.00  0.00     0.029 A 
ATOM     52  N   UNL A   1      40.222  29.448  29.867  1.00  0.00    -0.354 N 
ATOM     53  C   UNL A   1      44.467  30.162  28.342  1.00  0.00     0.074 A 
ATOM     54  C   UNL A   1      44.063  30.108  26.964  1.00  0.00     0.031 C 
ATOM     55  C   UNL A   1      38.233  28.459  29.665  1.00  0.00     0.029 A 
ATOM     56  C   UNL A   1      38.872  29.664  30.152  1.00  0.00     0.049 A 
ATOM     57  H   UNL A   1      40.931  30.060  30.171  1.00  0.00     0.167 HD
ATOM     58  C   UNL A   1      45.122  31.127  29.047  1.00  0.00     0.037 A 
ATOM     59  C   UNL A   1      38.334  30.773  30.725  1.00  0.00     0.037 A 
ATOM     60  C   UNL A   1      45.199  30.769  30.445  1.00  0.00     0.049 A 
ATOM     61  C   UNL A   1      39.451  31.476  31.412  1.00  0.00     0.074 A 
ATOM     62  C   UNL A   1      45.720  29.697  31.144  1.00  0.00     0.029 A 
ATOM     63  N   UNL A   1      44.309  31.378  31.300  1.00  0.00    -0.354 N 
ATOM     64  N   UNL A   1      40.100  30.976  32.431  1.00  0.00    -0.248 NA
ATOM     65  C   UNL A   1      40.174  32.482  30.648  1.00  0.00     0.031 C 
ATOM     66  C   UNL A   1      44.767  29.432  32.173  1.00  0.00     0.029 A 
ATOM     67  C   UNL A   1      43.772  30.409  32.109  1.00  0.00     0.049 A 
ATOM     68  H   UNL A   1      44.095  32.338  31.326  1.00  0.00     0.167 HD
ATOM     69  C   UNL A   1      41.435  31.267  32.183  1.00  0.00     0.074 A 
ATOM     70  C   UNL A   1      41.410  32.252  31.101  1.00  0.00     0.031 C 
ATOM     71  C   UNL A   1      42.434  30.468  32.660  1.00  0.00     0.037 A 
BRANCH  58  72
ATOM     72  C   UNL A   1      45.327  32.552  28.579  1.00  0.00     0.058 A 
ATOM     73  C   UNL A   1      46.636  33.077  28.556  1.00  0.00     0.135 A 
ATOM     74  C   UNL A   1      44.293  33.505  28.425  1.00  0.00     0.135 A 
ATOM     75  F   UNL A   1      47.700  32.268  28.689  1.00  0.00    -0.206 F 
ATOM     76  C   UNL A   1      46.896  34.446  28.475  1.00  0.00     0.059 A 
ATOM     77  C   UNL A   1      44.532  34.867  28.289  1.00  0.00     0.059 A 
ATOM     78  F   UNL A   1      42.997  33.184  28.492  1.00  0.00    -0.206 F 
ATOM     79  C   UNL A   1      45.832  35.334  28.357  1.00  0.00     0.060 A 
BRANCH  79  80
ATOM     80  S   UNL A   1      46.156  37.105  28.345  1.00  0.00     0.124 S 
ATOM     81  O   UNL A   1      45.744  37.466  26.994  1.00  0.00    -0.237 OA
ATOM     82  O   UNL A   1      45.294  37.573  29.426  1.00  0.00    -0.237 OA
ATOM     83  O   UNL A   1      47.588  37.185  28.614  1.00  0.00    -0.744 OA
ENDBRANCH  79  80
ENDBRANCH  58  72
BRANCH  59  84
ATOM     84  C   UNL A   1      37.036  31.439  30.409  1.00  0.00     0.058 A 
ATOM     85  C   UNL A   1      36.121  31.791  31.419  1.00  0.00     0.135 A 
ATOM     86  C   UNL A   1      36.795  32.000  29.139  1.00  0.00     0.135 A 
ATOM     87  F   UNL A   1      36.282  31.323  32.667  1.00  0.00    -0.206 F 
ATOM     88  C   UNL A   1      35.061  32.681  31.195  1.00  0.00     0.059 A 
ATOM     89  C   UNL A   1      35.743  32.884  28.890  1.00  0.00     0.059 A 
ATOM     90  F   UNL A   1      37.635  31.779  28.117  1.00  0.00    -0.206 F 
ATOM     91  C   UNL A   1      34.890  33.239  29.929  1.00  0.00     0.060 A 
BRANCH  91  92
ATOM     92  S   UNL A   1      33.631  34.515  29.672  1.00  0.00     0.124 S 
ATOM     93  O   UNL A   1      32.651  33.812  28.849  1.00  0.00    -0.237 OA
ATOM     94  O   UNL A   1      33.214  34.819  31.037  1.00  0.00    -0.237 OA
ATOM     95  O   UNL A   1      34.361  35.583  28.995  1.00  0.00    -0.744 OA
ENDBRANCH  91  92
ENDBRANCH  59  84
BRANCH  71  96
ATOM     96  C   UNL A   1      42.095  29.429  33.702  1.00  0.00     0.058 A 
ATOM     97  C   UNL A   1      41.674  28.114  33.426  1.00  0.00     0.135 A 
ATOM     98  C   UNL A   1      42.377  29.738  35.041  1.00  0.00     0.135 A 
ATOM     99  F   UNL A   1      41.477  27.703  32.167  1.00  0.00    -0.206 F 
ATOM    100  C   UNL A   1      41.509  27.165  34.440  1.00  0.00     0.059 A 
ATOM    101  C   UNL A   1      42.251  28.802  36.062  1.00  0.00     0.059 A 
ATOM    102  F   UNL A   1      42.841  30.957  35.365  1.00  0.00    -0.206 F 
ATOM    103  C   UNL A   1      41.803  27.519  35.757  1.00  0.00     0.060 A 
BRANCH 103 104
ATOM    104  S   UNL A   1      41.657  26.279  37.063  1.00  0.00     0.124 S 
ATOM    105  O   UNL A   1      41.724  25.032  36.310  1.00  0.00    -0.237 OA
ATOM    106  O   UNL A   1      42.811  26.571  37.910  1.00  0.00    -0.237 OA
ATOM    107  O   UNL A   1      40.360  26.573  37.668  1.00  0.00    -0.744 OA
ENDBRANCH 103 104
ENDBRANCH  71  96
ENDBRANCH  45  46
ENDBRANCH  37  40
ENDBRANCH  35  36
ENDBRANCH   1  35
TORSDOF 17
ENDMDL
MODEL 3
REMARK VINA RESULT:     -13.7      1.879      2.595
REMARK SMILES Cc1c(C(=O)NCCCNC(=O)c2ccc(-c3c4nc(c(-c5c(F)cc(S(=O)(=O)[O-])cc5F)c5ccc([nH]5)c(-c5c(F)cc(S(=O)(=O)[O-])cc5F)c5nc(c(-c6c(F)cc(S(=O)(=O)[O-])cc6F)c6ccc3[nH]6)C=C5)C=C4)cc2)oc2c1/C(=N/NC(=O)C(c1ccccc1)c1ccccc1)CCC2
REMARK SMILES IDX 8 1 7 2 6 3 4 4 5 5 3 7 1 8 2 9 81 10 79 11 80 12 82 13
REMARK SMILES IDX 102 14 83 15 100 16 101 17 84 18 85 19 86 21 87 22 88 23
REMARK SMILES IDX 89 24 93 25 90 26 92 27 91 28 94 29 95 30 99 31 96 32 98 33
REMARK SMILES IDX 97 34 9 35 10 36 11 37 12 39 13 40 14 41 78 42 15 43 77 44
REMARK SMILES IDX 16 45 17 46 18 47 71 48 19 49 76 50 70 51 72 52 20 53 75 54
REMARK SMILES IDX 69 55 68 56 21 58 55 59 34 60 54 61 35 62 38 63 53 64 73 65
REMARK SMILES IDX 36 66 37 67 52 69 74 70 39 71 22 72 23 73 32 74 24 75 25 76
REMARK SMILES IDX 31 77 33 78 26 79 27 80 28 81 29 82 30 83 56 84 57 85 66 86
REMARK SMILES IDX 58 87 59 88 65 89 67 90 60 91 61 92 62 93 63 94 64 95 40 96
REMARK SMILES IDX 41 97 50 98 42 99 43 100 49 101 51 102 44 103 45 104 46 105
REMARK SMILES IDX 47 106 48 107
REMARK H PARENT 6 6 84 20 10 38 72 57 38 68
REMARK Flexibility Score: inf
ROOT
ATOM      1  C   UNL A   1      38.677  21.847  26.472  1.00  0.00     0.042 C 
ENDROOT
BRANCH   1   2
ATOM      2  C   UNL A   1      37.346  22.233  25.794  1.00  0.00     0.118 C 
BRANCH   2   3
ATOM      3  N   UNL A   1      37.448  22.440  24.341  1.00  0.00    -0.349 N 
ATOM      4  C   UNL A   1      36.508  22.966  23.464  1.00  0.00     0.287 C 
ATOM      5  O   UNL A   1      36.870  23.253  22.317  1.00  0.00    -0.266 OA
ATOM      6  H   UNL A   1      38.301  22.168  23.933  1.00  0.00     0.163 HD
BRANCH   4   7
ATOM      7  C   UNL A   1      35.180  23.214  23.968  1.00  0.00     0.195 A 
ATOM      8  C   UNL A   1      35.188  25.412  25.353  1.00  0.00     0.049 C 
ATOM      9  C   UNL A   1      34.595  24.165  24.804  1.00  0.00     0.010 A 
ATOM     10  C   UNL A   1      33.327  23.601  25.155  1.00  0.00     0.043 A 
ATOM     11  O   UNL A   1      34.252  22.285  23.633  1.00  0.00    -0.455 OA
ATOM     12  C   UNL A   1      33.223  22.431  24.448  1.00  0.00     0.114 A 
ATOM     13  C   UNL A   1      32.284  23.952  26.103  1.00  0.00     0.072 C 
ATOM     14  C   UNL A   1      32.288  21.302  24.539  1.00  0.00     0.076 C 
ATOM     15  N   UNL A   1      32.318  25.215  26.434  1.00  0.00    -0.177 NA
ATOM     16  C   UNL A   1      31.479  22.676  26.470  1.00  0.00     0.059 C 
ATOM     17  C   UNL A   1      31.071  21.783  25.286  1.00  0.00     0.014 C 
BRANCH  15  18
ATOM     18  N   UNL A   1      31.598  26.106  27.200  1.00  0.00    -0.246 N 
ATOM     19  C   UNL A   1      31.356  27.470  27.172  1.00  0.00     0.252 C 
ATOM     20  H   UNL A   1      31.144  25.665  27.953  1.00  0.00     0.193 HD
ATOM     21  O   UNL A   1      30.706  27.997  28.081  1.00  0.00    -0.272 OA
BRANCH  19  22
ATOM     22  C   UNL A   1      31.877  28.289  26.006  1.00  0.00     0.140 C 
BRANCH  22  23
ATOM     23  C   UNL A   1      33.225  29.007  26.520  1.00  0.00    -0.031 A 
ATOM     24  C   UNL A   1      33.270  30.401  26.849  1.00  0.00     0.005 A 
ATOM     25  C   UNL A   1      34.464  28.361  26.638  1.00  0.00     0.005 A 
ATOM     26  C   UNL A   1      34.358  31.053  27.439  1.00  0.00     0.000 A 
ATOM     27  C   UNL A   1      35.604  29.043  27.153  1.00  0.00     0.000 A 
ATOM     28  C   UNL A   1      35.539  30.367  27.596  1.00  0.00     0.000 A 
ENDBRANCH  22  23
BRANCH  22  29
ATOM     29  C   UNL A   1      31.671  27.370  24.696  1.00  0.00    -0.031 A 
ATOM     30  C   UNL A   1      32.664  27.146  23.731  1.00  0.00     0.005 A 
ATOM     31  C   UNL A   1      30.441  26.679  24.441  1.00  0.00     0.005 A 
ATOM     32  C   UNL A   1      32.469  26.197  22.691  1.00  0.00     0.000 A 
ATOM     33  C   UNL A   1      30.276  25.684  23.473  1.00  0.00     0.000 A 
ATOM     34  C   UNL A   1      31.304  25.431  22.595  1.00  0.00     0.000 A 
ENDBRANCH  22  29
ENDBRANCH  19  22
ENDBRANCH  15  18
ENDBRANCH   4   7
ENDBRANCH   2   3
ENDBRANCH   1   2
BRANCH   1  35
ATOM     35  C   UNL A   1      39.631  23.017  26.521  1.00  0.00     0.118 C 
BRANCH  35  36
ATOM     36  N   UNL A   1      40.957  22.666  25.993  1.00  0.00    -0.352 N 
ATOM     37  C   UNL A   1      42.004  23.502  25.653  1.00  0.00     0.251 C 
ATOM     38  H   UNL A   1      41.120  21.704  25.861  1.00  0.00     0.163 HD
ATOM     39  O   UNL A   1      42.905  23.111  24.921  1.00  0.00    -0.269 OA
BRANCH  37  40
ATOM     40  C   UNL A   1      42.008  24.869  26.198  1.00  0.00     0.039 A 
ATOM     41  C   UNL A   1      41.167  25.874  25.717  1.00  0.00     0.014 A 
ATOM     42  C   UNL A   1      42.851  25.102  27.276  1.00  0.00     0.014 A 
ATOM     43  C   UNL A   1      41.136  27.092  26.392  1.00  0.00     0.010 A 
ATOM     44  C   UNL A   1      42.621  26.177  28.080  1.00  0.00     0.010 A 
ATOM     45  C   UNL A   1      41.859  27.223  27.589  1.00  0.00    -0.014 A 
BRANCH  45  46
ATOM     46  C   UNL A   1      41.780  28.406  28.432  1.00  0.00     0.031 A 
ATOM     47  C   UNL A   1      42.913  29.345  28.237  1.00  0.00     0.074 A 
ATOM     48  C   UNL A   1      40.646  28.729  29.097  1.00  0.00     0.049 A 
ATOM     49  N   UNL A   1      43.892  29.573  29.046  1.00  0.00    -0.248 NA
ATOM     50  C   UNL A   1      43.099  29.948  26.903  1.00  0.00     0.031 C 
ATOM     51  C   UNL A   1      39.346  28.039  29.080  1.00  0.00     0.029 A 
ATOM     52  N   UNL A   1      40.377  29.823  29.856  1.00  0.00    -0.354 N 
ATOM     53  C   UNL A   1      44.654  30.566  28.438  1.00  0.00     0.074 A 
ATOM     54  C   UNL A   1      44.277  30.557  27.051  1.00  0.00     0.031 C 
ATOM     55  C   UNL A   1      38.389  28.848  29.583  1.00  0.00     0.029 A 
ATOM     56  C   UNL A   1      39.022  30.035  30.121  1.00  0.00     0.049 A 
ATOM     57  H   UNL A   1      41.082  30.421  30.193  1.00  0.00     0.167 HD
ATOM     58  C   UNL A   1      45.298  31.506  29.186  1.00  0.00     0.037 A 
ATOM     59  C   UNL A   1      38.477  31.127  30.718  1.00  0.00     0.037 A 
ATOM     60  C   UNL A   1      45.346  31.103  30.573  1.00  0.00     0.049 A 
ATOM     61  C   UNL A   1      39.583  31.804  31.449  1.00  0.00     0.074 A 
ATOM     62  C   UNL A   1      45.850  30.007  31.248  1.00  0.00     0.029 A 
ATOM     63  N   UNL A   1      44.441  31.688  31.429  1.00  0.00    -0.354 N 
ATOM     64  N   UNL A   1      40.209  31.269  32.464  1.00  0.00    -0.248 NA
ATOM     65  C   UNL A   1      40.324  32.830  30.732  1.00  0.00     0.031 C 
ATOM     66  C   UNL A   1      44.875  29.714  32.249  1.00  0.00     0.029 A 
ATOM     67  C   UNL A   1      43.885  30.697  32.196  1.00  0.00     0.049 A 
ATOM     68  H   UNL A   1      44.231  32.649  31.482  1.00  0.00     0.167 HD
ATOM     69  C   UNL A   1      41.550  31.562  32.252  1.00  0.00     0.074 A 
ATOM     70  C   UNL A   1      41.550  32.581  31.202  1.00  0.00     0.031 C 
ATOM     71  C   UNL A   1      42.537  30.744  32.723  1.00  0.00     0.037 A 
BRANCH  58  72
ATOM     72  C   UNL A   1      45.517  32.944  28.768  1.00  0.00     0.058 A 
ATOM     73  C   UNL A   1      46.817  33.486  28.857  1.00  0.00     0.135 A 
ATOM     74  C   UNL A   1      44.485  33.887  28.557  1.00  0.00     0.135 A 
ATOM     75  F   UNL A   1      47.879  32.688  29.052  1.00  0.00    -0.206 F 
ATOM     76  C   UNL A   1      47.062  34.859  28.827  1.00  0.00     0.059 A 
ATOM     77  C   UNL A   1      44.713  35.255  28.470  1.00  0.00     0.059 A 
ATOM     78  F   UNL A   1      43.192  33.548  28.517  1.00  0.00    -0.206 F 
ATOM     79  C   UNL A   1      45.998  35.737  28.649  1.00  0.00     0.060 A 
BRANCH  79  80
ATOM     80  S   UNL A   1      46.295  37.511  28.702  1.00  0.00     0.124 S 
ATOM     81  O   UNL A   1      47.739  37.558  28.899  1.00  0.00    -0.237 OA
ATOM     82  O   UNL A   1      45.813  37.934  27.391  1.00  0.00    -0.237 OA
ATOM     83  O   UNL A   1      45.487  37.953  29.834  1.00  0.00    -0.744 OA
ENDBRANCH  79  80
ENDBRANCH  58  72
BRANCH  59  84
ATOM     84  C   UNL A   1      37.188  31.808  30.398  1.00  0.00     0.058 A 
ATOM     85  C   UNL A   1      36.049  31.653  31.210  1.00  0.00     0.135 A 
ATOM     86  C   UNL A   1      37.130  32.851  29.451  1.00  0.00     0.135 A 
ATOM     87  F   UNL A   1      36.020  30.701  32.155  1.00  0.00    -0.206 F 
ATOM     88  C   UNL A   1      34.939  32.506  31.119  1.00  0.00     0.059 A 
ATOM     89  C   UNL A   1      36.035  33.710  29.339  1.00  0.00     0.059 A 
ATOM     90  F   UNL A   1      38.180  33.126  28.665  1.00  0.00    -0.206 F 
ATOM     91  C   UNL A   1      34.949  33.547  30.191  1.00  0.00     0.060 A 
BRANCH  91  92
ATOM     92  S   UNL A   1      33.599  34.754  30.181  1.00  0.00     0.124 S 
ATOM     93  O   UNL A   1      34.289  35.975  29.777  1.00  0.00    -0.237 OA
ATOM     94  O   UNL A   1      32.682  34.186  29.198  1.00  0.00    -0.237 OA
ATOM     95  O   UNL A   1      33.118  34.737  31.559  1.00  0.00    -0.744 OA
ENDBRANCH  91  92
ENDBRANCH  59  84
BRANCH  71  96
ATOM     96  C   UNL A   1      42.173  29.674  33.725  1.00  0.00     0.058 A 
ATOM     97  C   UNL A   1      41.710  28.385  33.399  1.00  0.00     0.135 A 
ATOM     98  C   UNL A   1      42.475  29.919  35.072  1.00  0.00     0.135 A 
ATOM     99  F   UNL A   1      41.491  28.032  32.125  1.00  0.00    -0.206 F 
ATOM    100  C   UNL A   1      41.523  27.401  34.374  1.00  0.00     0.059 A 
ATOM    101  C   UNL A   1      42.327  28.946  36.055  1.00  0.00     0.059 A 
ATOM    102  F   UNL A   1      42.979  31.109  35.441  1.00  0.00    -0.206 F 
ATOM    103  C   UNL A   1      41.838  27.691  35.702  1.00  0.00     0.060 A 
BRANCH 103 104
ATOM    104  S   UNL A   1      41.663  26.404  36.957  1.00  0.00     0.124 S 
ATOM    105  O   UNL A   1      42.842  26.623  37.788  1.00  0.00    -0.237 OA
ATOM    106  O   UNL A   1      40.382  26.733  37.576  1.00  0.00    -0.237 OA
ATOM    107  O   UNL A   1      41.671  25.167  36.180  1.00  0.00    -0.744 OA
ENDBRANCH 103 104
ENDBRANCH  71  96
ENDBRANCH  45  46
ENDBRANCH  37  40
ENDBRANCH  35  36
ENDBRANCH   1  35
TORSDOF 17
ENDMDL
