MODEL 1
REMARK VINA RESULT:     -11.5      0.000      0.000
REMARK SMILES Cc1cccc(C[N@@H+](C)C[C@]2(C(=O)NCCCNC(=O)c3ccc(-c4c5nc(c(-c6c(F)cc(S(=O)(=O)[O-])cc6F)c6ccc([nH]6)c(-c6c(F)cc(S(=O)(=O)[O-])cc6F)c6nc(c(-c7c(F)cc(S(=O)(=O)[O-])cc7F)c7ccc4[nH]7)C=C6)C=C5)cc3)CCC[C@H](C)C2)n1
REMARK SMILES IDX 15 1 14 2 12 3 13 4 11 6 87 7 92 8 88 9 90 10 89 11 91 12
REMARK SMILES IDX 10 13 8 14 9 15 7 17 6 18 1 19 2 20 3 21 93 22 4 23 5 24
REMARK SMILES IDX 16 25 17 26 18 27 19 28 20 30 21 31 22 32 86 33 23 34 85 35
REMARK SMILES IDX 24 36 25 37 26 38 79 39 27 40 84 41 78 42 80 43 28 44 83 45
REMARK SMILES IDX 77 46 76 47 29 49 63 50 42 51 62 52 43 53 46 54 61 55 81 56
REMARK SMILES IDX 44 57 45 58 60 60 82 61 47 62 30 63 31 64 40 65 32 66 33 67
REMARK SMILES IDX 39 68 41 69 34 70 35 71 36 72 37 73 38 74 64 75 65 76 74 77
REMARK SMILES IDX 66 78 67 79 73 80 75 81 68 82 69 83 70 84 71 85 72 86 48 87
REMARK SMILES IDX 49 88 58 89 50 90 51 91 57 92 59 93 52 94 53 95 54 96 55 97
REMARK SMILES IDX 56 98
REMARK H PARENT 14 5 8 16 18 29 80 48 46 59
REMARK Flexibility Score: inf
ROOT
ATOM      1  C   UNL A   1      33.627  26.373  25.882  1.00  0.00     0.117 C 
ENDROOT
BRANCH   1   2
ATOM      2  N   UNL A   1      32.431  25.609  25.600  1.00  0.00    -0.355 N 
ATOM      3  C   UNL A   1      32.256  24.510  24.815  1.00  0.00     0.231 C 
ATOM      4  O   UNL A   1      31.204  23.886  25.007  1.00  0.00    -0.274 OA
ATOM      5  H   UNL A   1      31.615  25.934  26.046  1.00  0.00     0.163 HD
BRANCH   3   6
ATOM      6  C   UNL A   1      33.275  24.066  23.726  1.00  0.00     0.098 C 
ATOM      7  C   UNL A   1      34.647  23.791  24.442  1.00  0.00     0.023 C 
ATOM      8  C   UNL A   1      32.878  22.740  23.029  1.00  0.00     0.026 C 
ATOM      9  C   UNL A   1      34.651  22.566  25.365  1.00  0.00     0.002 C 
ATOM     10  C   UNL A   1      32.812  21.536  23.988  1.00  0.00    -0.013 C 
ATOM     11  C   UNL A   1      34.169  21.310  24.655  1.00  0.00     0.003 C 
ATOM     12  C   UNL A   1      32.367  20.277  23.242  1.00  0.00     0.007 C 
BRANCH   6  13
ATOM     13  C   UNL A   1      33.559  25.264  22.735  1.00  0.00     0.279 C 
BRANCH  13  14
ATOM     14  N   UNL A   1      32.406  25.892  22.081  1.00  0.00    -0.331 N 
ATOM     15  C   UNL A   1      32.357  25.674  20.635  1.00  0.00     0.333 C 
ATOM     16  H   UNL A   1      31.645  25.381  22.529  1.00  0.00     0.348 HD
BRANCH  14  17
ATOM     17  C   UNL A   1      32.148  27.314  22.382  1.00  0.00     0.319 C 
BRANCH  17  18
ATOM     18  C   UNL A   1      30.704  27.733  22.628  1.00  0.00     0.095 A 
ATOM     19  C   UNL A   1      28.471  30.501  21.658  1.00  0.00     0.067 C 
ATOM     20  C   UNL A   1      28.955  29.232  22.293  1.00  0.00     0.038 A 
ATOM     21  C   UNL A   1      28.082  28.439  23.032  1.00  0.00     0.023 A 
ATOM     22  N   UNL A   1      30.256  28.901  22.099  1.00  0.00    -0.252 NA
ATOM     23  C   UNL A   1      28.558  27.260  23.591  1.00  0.00     0.004 A 
ATOM     24  C   UNL A   1      29.883  26.899  23.387  1.00  0.00     0.030 A 
ENDBRANCH  17  18
ENDBRANCH  14  17
ENDBRANCH  13  14
ENDBRANCH   6  13
ENDBRANCH   3   6
ENDBRANCH   1   2
BRANCH   1  25
ATOM     25  C   UNL A   1      33.379  27.854  26.052  1.00  0.00     0.042 C 
BRANCH  25  26
ATOM     26  C   UNL A   1      33.357  28.283  27.503  1.00  0.00     0.118 C 
BRANCH  26  27
ATOM     27  N   UNL A   1      33.354  29.736  27.661  1.00  0.00    -0.352 N 
ATOM     28  C   UNL A   1      34.334  30.592  28.103  1.00  0.00     0.251 C 
ATOM     29  H   UNL A   1      32.509  30.175  27.408  1.00  0.00     0.163 HD
ATOM     30  O   UNL A   1      34.058  31.765  28.345  1.00  0.00    -0.269 OA
BRANCH  28  31
ATOM     31  C   UNL A   1      35.710  30.096  28.315  1.00  0.00     0.039 A 
ATOM     32  C   UNL A   1      36.611  30.084  27.246  1.00  0.00     0.014 A 
ATOM     33  C   UNL A   1      36.119  29.653  29.572  1.00  0.00     0.014 A 
ATOM     34  C   UNL A   1      37.937  29.705  27.465  1.00  0.00     0.010 A 
ATOM     35  C   UNL A   1      37.463  29.415  29.818  1.00  0.00     0.010 A 
ATOM     36  C   UNL A   1      38.385  29.413  28.764  1.00  0.00    -0.014 A 
BRANCH  36  37
ATOM     37  C   UNL A   1      39.799  29.060  29.051  1.00  0.00     0.031 A 
ATOM     38  C   UNL A   1      40.717  30.097  29.645  1.00  0.00     0.074 A 
ATOM     39  C   UNL A   1      40.273  27.847  28.704  1.00  0.00     0.049 A 
ATOM     40  N   UNL A   1      42.004  30.033  29.867  1.00  0.00    -0.248 NA
ATOM     41  C   UNL A   1      40.116  31.396  29.997  1.00  0.00     0.031 C 
ATOM     42  C   UNL A   1      39.497  26.781  28.065  1.00  0.00     0.029 A 
ATOM     43  N   UNL A   1      41.530  27.309  28.830  1.00  0.00    -0.354 N 
ATOM     44  C   UNL A   1      42.366  31.284  30.353  1.00  0.00     0.074 A 
ATOM     45  C   UNL A   1      41.181  32.109  30.329  1.00  0.00     0.031 C 
ATOM     46  C   UNL A   1      40.286  25.708  27.886  1.00  0.00     0.029 A 
ATOM     47  C   UNL A   1      41.631  26.023  28.353  1.00  0.00     0.049 A 
ATOM     48  H   UNL A   1      42.288  27.798  29.225  1.00  0.00     0.167 HD
ATOM     49  C   UNL A   1      43.570  31.699  30.813  1.00  0.00     0.037 A 
ATOM     50  C   UNL A   1      42.692  25.195  28.293  1.00  0.00     0.037 A 
ATOM     51  C   UNL A   1      44.733  30.855  30.877  1.00  0.00     0.049 A 
ATOM     52  C   UNL A   1      44.017  25.670  28.828  1.00  0.00     0.074 A 
ATOM     53  C   UNL A   1      45.983  31.151  31.388  1.00  0.00     0.029 A 
ATOM     54  N   UNL A   1      44.785  29.545  30.420  1.00  0.00    -0.354 N 
ATOM     55  N   UNL A   1      44.326  26.836  29.346  1.00  0.00    -0.248 NA
ATOM     56  C   UNL A   1      45.135  24.719  28.777  1.00  0.00     0.031 C 
ATOM     57  C   UNL A   1      46.805  30.035  31.200  1.00  0.00     0.029 A 
ATOM     58  C   UNL A   1      46.051  29.026  30.622  1.00  0.00     0.049 A 
ATOM     59  H   UNL A   1      44.032  29.059  30.014  1.00  0.00     0.167 HD
ATOM     60  C   UNL A   1      45.665  26.747  29.710  1.00  0.00     0.074 A 
ATOM     61  C   UNL A   1      46.103  25.411  29.363  1.00  0.00     0.031 C 
ATOM     62  C   UNL A   1      46.461  27.686  30.280  1.00  0.00     0.037 A 
BRANCH  49  63
ATOM     63  C   UNL A   1      43.681  33.120  31.295  1.00  0.00     0.058 A 
ATOM     64  C   UNL A   1      43.429  33.469  32.632  1.00  0.00     0.135 A 
ATOM     65  C   UNL A   1      44.069  34.144  30.415  1.00  0.00     0.135 A 
ATOM     66  F   UNL A   1      43.037  32.533  33.512  1.00  0.00    -0.206 F 
ATOM     67  C   UNL A   1      43.522  34.784  33.073  1.00  0.00     0.059 A 
ATOM     68  C   UNL A   1      44.200  35.463  30.842  1.00  0.00     0.059 A 
ATOM     69  F   UNL A   1      44.321  33.870  29.126  1.00  0.00    -0.206 F 
ATOM     70  C   UNL A   1      43.910  35.775  32.170  1.00  0.00     0.060 A 
BRANCH  70  71
ATOM     71  S   UNL A   1      44.036  37.476  32.761  1.00  0.00     0.124 S 
ATOM     72  O   UNL A   1      43.003  37.502  33.793  1.00  0.00    -0.237 OA
ATOM     73  O   UNL A   1      45.412  37.538  33.241  1.00  0.00    -0.237 OA
ATOM     74  O   UNL A   1      43.752  38.271  31.570  1.00  0.00    -0.744 OA
ENDBRANCH  70  71
ENDBRANCH  49  63
BRANCH  50  75
ATOM     75  C   UNL A   1      42.538  23.824  27.736  1.00  0.00     0.058 A 
ATOM     76  C   UNL A   1      42.403  22.714  28.583  1.00  0.00     0.135 A 
ATOM     77  C   UNL A   1      42.508  23.596  26.352  1.00  0.00     0.135 A 
ATOM     78  F   UNL A   1      42.430  22.878  29.914  1.00  0.00    -0.206 F 
ATOM     79  C   UNL A   1      42.264  21.424  28.079  1.00  0.00     0.059 A 
ATOM     80  C   UNL A   1      42.344  22.318  25.824  1.00  0.00     0.059 A 
ATOM     81  F   UNL A   1      42.614  24.626  25.498  1.00  0.00    -0.206 F 
ATOM     82  C   UNL A   1      42.233  21.237  26.696  1.00  0.00     0.060 A 
BRANCH  82  83
ATOM     83  S   UNL A   1      42.008  19.564  26.054  1.00  0.00     0.124 S 
ATOM     84  O   UNL A   1      42.913  19.564  24.910  1.00  0.00    -0.237 OA
ATOM     85  O   UNL A   1      42.415  18.742  27.189  1.00  0.00    -0.237 OA
ATOM     86  O   UNL A   1      40.585  19.516  25.734  1.00  0.00    -0.744 OA
ENDBRANCH  82  83
ENDBRANCH  50  75
BRANCH  62  87
ATOM     87  C   UNL A   1      47.875  27.291  30.603  1.00  0.00     0.058 A 
ATOM     88  C   UNL A   1      48.932  27.527  29.711  1.00  0.00     0.135 A 
ATOM     89  C   UNL A   1      48.183  26.722  31.851  1.00  0.00     0.135 A 
ATOM     90  F   UNL A   1      48.690  28.065  28.505  1.00  0.00    -0.206 F 
ATOM     91  C   UNL A   1      50.243  27.193  30.034  1.00  0.00     0.059 A 
ATOM     92  C   UNL A   1      49.489  26.407  32.206  1.00  0.00     0.059 A 
ATOM     93  F   UNL A   1      47.210  26.485  32.744  1.00  0.00    -0.206 F 
ATOM     94  C   UNL A   1      50.512  26.636  31.286  1.00  0.00     0.060 A 
BRANCH  94  95
ATOM     95  S   UNL A   1      52.222  26.240  31.706  1.00  0.00     0.124 S 
ATOM     96  O   UNL A   1      52.052  25.060  32.547  1.00  0.00    -0.237 OA
ATOM     97  O   UNL A   1      52.819  26.005  30.395  1.00  0.00    -0.237 OA
ATOM     98  O   UNL A   1      52.689  27.440  32.396  1.00  0.00    -0.744 OA
ENDBRANCH  94  95
ENDBRANCH  62  87
ENDBRANCH  36  37
ENDBRANCH  28  31
ENDBRANCH  26  27
ENDBRANCH  25  26
ENDBRANCH   1  25
TORSDOF 17
ENDMDL
MODEL 2
REMARK VINA RESULT:     -11.5      2.871      9.210
REMARK SMILES Cc1cccc(C[N@@H+](C)C[C@]2(C(=O)NCCCNC(=O)c3ccc(-c4c5nc(c(-c6c(F)cc(S(=O)(=O)[O-])cc6F)c6ccc([nH]6)c(-c6c(F)cc(S(=O)(=O)[O-])cc6F)c6nc(c(-c7c(F)cc(S(=O)(=O)[O-])cc7F)c7ccc4[nH]7)C=C6)C=C5)cc3)CCC[C@H](C)C2)n1
REMARK SMILES IDX 15 1 14 2 12 3 13 4 11 6 87 7 92 8 88 9 90 10 89 11 91 12
REMARK SMILES IDX 10 13 8 14 9 15 7 17 6 18 1 19 2 20 3 21 93 22 4 23 5 24
REMARK SMILES IDX 16 25 17 26 18 27 19 28 20 30 21 31 22 32 86 33 23 34 85 35
REMARK SMILES IDX 24 36 25 37 26 38 79 39 27 40 84 41 78 42 80 43 28 44 83 45
REMARK SMILES IDX 77 46 76 47 29 49 63 50 42 51 62 52 43 53 46 54 61 55 81 56
REMARK SMILES IDX 44 57 45 58 60 60 82 61 47 62 30 63 31 64 40 65 32 66 33 67
REMARK SMILES IDX 39 68 41 69 34 70 35 71 36 72 37 73 38 74 64 75 65 76 74 77
REMARK SMILES IDX 66 78 67 79 73 80 75 81 68 82 69 83 70 84 71 85 72 86 48 87
REMARK SMILES IDX 49 88 58 89 50 90 51 91 57 92 59 93 52 94 53 95 54 96 55 97
REMARK SMILES IDX 56 98
REMARK H PARENT 14 5 8 16 18 29 80 48 46 59
REMARK Flexibility Score: inf
ROOT
ATOM      1  C   UNL A   1      34.773  24.741  25.465  1.00  0.00     0.117 C 
ENDROOT
BRANCH   1   2
ATOM      2  N   UNL A   1      33.598  24.683  26.307  1.00  0.00    -0.355 N 
ATOM      3  C   UNL A   1      32.412  25.344  26.205  1.00  0.00     0.231 C 
ATOM      4  O   UNL A   1      31.483  24.869  26.873  1.00  0.00    -0.274 OA
ATOM      5  H   UNL A   1      33.666  24.070  27.075  1.00  0.00     0.163 HD
BRANCH   3   6
ATOM      6  C   UNL A   1      32.216  26.623  25.341  1.00  0.00     0.098 C 
ATOM      7  C   UNL A   1      30.993  27.414  25.930  1.00  0.00     0.023 C 
ATOM      8  C   UNL A   1      33.427  27.589  25.405  1.00  0.00     0.026 C 
ATOM      9  C   UNL A   1      31.237  28.029  27.314  1.00  0.00     0.002 C 
ATOM     10  C   UNL A   1      33.704  28.136  26.819  1.00  0.00    -0.013 C 
ATOM     11  C   UNL A   1      32.487  28.897  27.344  1.00  0.00     0.003 C 
ATOM     12  C   UNL A   1      34.938  29.039  26.816  1.00  0.00     0.007 C 
BRANCH   6  13
ATOM     13  C   UNL A   1      31.781  26.220  23.876  1.00  0.00     0.279 C 
BRANCH  13  14
ATOM     14  N   UNL A   1      32.336  24.982  23.319  1.00  0.00    -0.331 N 
ATOM     15  C   UNL A   1      33.110  25.180  22.093  1.00  0.00     0.333 C 
ATOM     16  H   UNL A   1      32.962  24.708  24.077  1.00  0.00     0.348 HD
BRANCH  14  17
ATOM     17  C   UNL A   1      31.413  23.842  23.149  1.00  0.00     0.319 C 
BRANCH  17  18
ATOM     18  C   UNL A   1      31.936  22.452  23.488  1.00  0.00     0.095 A 
ATOM     19  C   UNL A   1      33.446  20.749  26.388  1.00  0.00     0.067 C 
ATOM     20  C   UNL A   1      32.897  20.978  25.012  1.00  0.00     0.038 A 
ATOM     21  C   UNL A   1      32.818  19.927  24.103  1.00  0.00     0.023 A 
ATOM     22  N   UNL A   1      32.479  22.233  24.715  1.00  0.00    -0.252 NA
ATOM     23  C   UNL A   1      32.288  20.168  22.843  1.00  0.00     0.004 A 
ATOM     24  C   UNL A   1      31.839  21.444  22.530  1.00  0.00     0.030 A 
ENDBRANCH  17  18
ENDBRANCH  14  17
ENDBRANCH  13  14
ENDBRANCH   6  13
ENDBRANCH   3   6
ENDBRANCH   1   2
BRANCH   1  25
ATOM     25  C   UNL A   1      35.777  23.646  25.744  1.00  0.00     0.042 C 
BRANCH  25  26
ATOM     26  C   UNL A   1      37.031  23.772  24.905  1.00  0.00     0.118 C 
BRANCH  26  27
ATOM     27  N   UNL A   1      38.052  22.791  25.266  1.00  0.00    -0.352 N 
ATOM     28  C   UNL A   1      39.204  22.926  26.003  1.00  0.00     0.251 C 
ATOM     29  H   UNL A   1      37.886  21.882  24.926  1.00  0.00     0.163 HD
ATOM     30  O   UNL A   1      40.027  22.013  26.024  1.00  0.00    -0.269 OA
BRANCH  28  31
ATOM     31  C   UNL A   1      39.467  24.177  26.745  1.00  0.00     0.039 A 
ATOM     32  C   UNL A   1      38.943  24.338  28.031  1.00  0.00     0.014 A 
ATOM     33  C   UNL A   1      40.240  25.188  26.179  1.00  0.00     0.014 A 
ATOM     34  C   UNL A   1      39.268  25.478  28.771  1.00  0.00     0.010 A 
ATOM     35  C   UNL A   1      40.676  26.247  26.963  1.00  0.00     0.010 A 
ATOM     36  C   UNL A   1      40.176  26.419  28.259  1.00  0.00    -0.014 A 
BRANCH  36  37
ATOM     37  C   UNL A   1      40.592  27.617  29.033  1.00  0.00     0.031 A 
ATOM     38  C   UNL A   1      41.923  27.618  29.741  1.00  0.00     0.074 A 
ATOM     39  C   UNL A   1      39.748  28.658  29.167  1.00  0.00     0.049 A 
ATOM     40  N   UNL A   1      42.425  28.507  30.556  1.00  0.00    -0.248 NA
ATOM     41  C   UNL A   1      42.786  26.440  29.539  1.00  0.00     0.031 C 
ATOM     42  C   UNL A   1      38.408  28.748  28.581  1.00  0.00     0.029 A 
ATOM     43  N   UNL A   1      39.887  29.840  29.851  1.00  0.00    -0.354 N 
ATOM     44  C   UNL A   1      43.641  27.984  30.983  1.00  0.00     0.074 A 
ATOM     45  C   UNL A   1      43.770  26.672  30.393  1.00  0.00     0.031 C 
ATOM     46  C   UNL A   1      37.863  29.933  28.903  1.00  0.00     0.029 A 
ATOM     47  C   UNL A   1      38.793  30.668  29.754  1.00  0.00     0.049 A 
ATOM     48  H   UNL A   1      40.695  30.074  30.363  1.00  0.00     0.167 HD
ATOM     49  C   UNL A   1      44.584  28.559  31.766  1.00  0.00     0.037 A 
ATOM     50  C   UNL A   1      38.563  31.879  30.297  1.00  0.00     0.037 A 
ATOM     51  C   UNL A   1      44.467  29.886  32.310  1.00  0.00     0.049 A 
ATOM     52  C   UNL A   1      39.633  32.509  31.149  1.00  0.00     0.074 A 
ATOM     53  C   UNL A   1      45.390  30.593  33.058  1.00  0.00     0.029 A 
ATOM     54  N   UNL A   1      43.359  30.708  32.157  1.00  0.00    -0.354 N 
ATOM     55  N   UNL A   1      40.806  32.027  31.489  1.00  0.00    -0.248 NA
ATOM     56  C   UNL A   1      39.354  33.847  31.687  1.00  0.00     0.031 C 
ATOM     57  C   UNL A   1      44.823  31.826  33.395  1.00  0.00     0.029 A 
ATOM     58  C   UNL A   1      43.569  31.909  32.811  1.00  0.00     0.049 A 
ATOM     59  H   UNL A   1      42.546  30.471  31.656  1.00  0.00     0.167 HD
ATOM     60  C   UNL A   1      41.416  33.015  32.254  1.00  0.00     0.074 A 
ATOM     61  C   UNL A   1      40.487  34.125  32.318  1.00  0.00     0.031 C 
ATOM     62  C   UNL A   1      42.634  33.006  32.851  1.00  0.00     0.037 A 
BRANCH  49  63
ATOM     63  C   UNL A   1      45.824  27.762  32.066  1.00  0.00     0.058 A 
ATOM     64  C   UNL A   1      45.905  26.912  33.181  1.00  0.00     0.135 A 
ATOM     65  C   UNL A   1      46.940  27.830  31.215  1.00  0.00     0.135 A 
ATOM     66  F   UNL A   1      44.875  26.822  34.038  1.00  0.00    -0.206 F 
ATOM     67  C   UNL A   1      47.056  26.185  33.463  1.00  0.00     0.059 A 
ATOM     68  C   UNL A   1      48.091  27.087  31.459  1.00  0.00     0.059 A 
ATOM     69  F   UNL A   1      46.920  28.627  30.136  1.00  0.00    -0.206 F 
ATOM     70  C   UNL A   1      48.145  26.278  32.594  1.00  0.00     0.060 A 
BRANCH  70  71
ATOM     71  S   UNL A   1      49.628  25.320  32.969  1.00  0.00     0.124 S 
ATOM     72  O   UNL A   1      49.094  24.294  33.861  1.00  0.00    -0.237 OA
ATOM     73  O   UNL A   1      50.041  24.856  31.649  1.00  0.00    -0.237 OA
ATOM     74  O   UNL A   1      50.514  26.296  33.595  1.00  0.00    -0.744 OA
ENDBRANCH  70  71
ENDBRANCH  49  63
BRANCH  50  75
ATOM     75  C   UNL A   1      37.284  32.588  30.025  1.00  0.00     0.058 A 
ATOM     76  C   UNL A   1      37.227  33.641  29.099  1.00  0.00     0.135 A 
ATOM     77  C   UNL A   1      36.093  32.223  30.671  1.00  0.00     0.135 A 
ATOM     78  F   UNL A   1      38.339  34.032  28.458  1.00  0.00    -0.206 F 
ATOM     79  C   UNL A   1      36.040  34.319  28.837  1.00  0.00     0.059 A 
ATOM     80  C   UNL A   1      34.888  32.869  30.407  1.00  0.00     0.059 A 
ATOM     81  F   UNL A   1      36.089  31.210  31.552  1.00  0.00    -0.206 F 
ATOM     82  C   UNL A   1      34.875  33.923  29.495  1.00  0.00     0.060 A 
BRANCH  82  83
ATOM     83  S   UNL A   1      33.332  34.781  29.114  1.00  0.00     0.124 S 
ATOM     84  O   UNL A   1      32.685  33.837  28.210  1.00  0.00    -0.237 OA
ATOM     85  O   UNL A   1      32.724  34.919  30.434  1.00  0.00    -0.237 OA
ATOM     86  O   UNL A   1      33.783  36.030  28.508  1.00  0.00    -0.744 OA
ENDBRANCH  82  83
ENDBRANCH  50  75
BRANCH  62  87
ATOM     87  C   UNL A   1      43.052  34.246  33.589  1.00  0.00     0.058 A 
ATOM     88  C   UNL A   1      42.807  34.408  34.962  1.00  0.00     0.135 A 
ATOM     89  C   UNL A   1      43.762  35.261  32.924  1.00  0.00     0.135 A 
ATOM     90  F   UNL A   1      42.130  33.470  35.642  1.00  0.00    -0.206 F 
ATOM     91  C   UNL A   1      43.232  35.542  35.645  1.00  0.00     0.059 A 
ATOM     92  C   UNL A   1      44.221  36.389  33.594  1.00  0.00     0.059 A 
ATOM     93  F   UNL A   1      44.031  35.150  31.614  1.00  0.00    -0.206 F 
ATOM     94  C   UNL A   1      43.941  36.527  34.953  1.00  0.00     0.060 A 
BRANCH  94  95
ATOM     95  S   UNL A   1      44.517  37.976  35.860  1.00  0.00     0.124 S 
ATOM     96  O   UNL A   1      43.910  37.764  37.170  1.00  0.00    -0.237 OA
ATOM     97  O   UNL A   1      45.967  37.825  35.801  1.00  0.00    -0.237 OA
ATOM     98  O   UNL A   1      43.976  39.095  35.092  1.00  0.00    -0.744 OA
ENDBRANCH  94  95
ENDBRANCH  62  87
ENDBRANCH  36  37
ENDBRANCH  28  31
ENDBRANCH  26  27
ENDBRANCH  25  26
ENDBRANCH   1  25
TORSDOF 17
ENDMDL
MODEL 3
REMARK VINA RESULT:     -11.5      4.746     10.125
REMARK SMILES Cc1cccc(C[N@@H+](C)C[C@]2(C(=O)NCCCNC(=O)c3ccc(-c4c5nc(c(-c6c(F)cc(S(=O)(=O)[O-])cc6F)c6ccc([nH]6)c(-c6c(F)cc(S(=O)(=O)[O-])cc6F)c6nc(c(-c7c(F)cc(S(=O)(=O)[O-])cc7F)c7ccc4[nH]7)C=C6)C=C5)cc3)CCC[C@H](C)C2)n1
REMARK SMILES IDX 15 1 14 2 12 3 13 4 11 6 87 7 92 8 88 9 90 10 89 11 91 12
REMARK SMILES IDX 10 13 8 14 9 15 7 17 6 18 1 19 2 20 3 21 93 22 4 23 5 24
REMARK SMILES IDX 16 25 17 26 18 27 19 28 20 30 21 31 22 32 86 33 23 34 85 35
REMARK SMILES IDX 24 36 25 37 26 38 79 39 27 40 84 41 78 42 80 43 28 44 83 45
REMARK SMILES IDX 77 46 76 47 29 49 63 50 42 51 62 52 43 53 46 54 61 55 81 56
REMARK SMILES IDX 44 57 45 58 60 60 82 61 47 62 30 63 31 64 40 65 32 66 33 67
REMARK SMILES IDX 39 68 41 69 34 70 35 71 36 72 37 73 38 74 64 75 65 76 74 77
REMARK SMILES IDX 66 78 67 79 73 80 75 81 68 82 69 83 70 84 71 85 72 86 48 87
REMARK SMILES IDX 49 88 58 89 50 90 51 91 57 92 59 93 52 94 53 95 54 96 55 97
REMARK SMILES IDX 56 98
REMARK H PARENT 14 5 8 16 18 29 80 48 46 59
REMARK Flexibility Score: inf
ROOT
ATOM      1  C   UNL A   1      36.717  23.291  25.563  1.00  0.00     0.117 C 
ENDROOT
BRANCH   1   2
ATOM      2  N   UNL A   1      35.721  22.879  26.529  1.00  0.00    -0.355 N 
ATOM      3  C   UNL A   1      34.377  22.712  26.386  1.00  0.00     0.231 C 
ATOM      4  O   UNL A   1      33.829  22.055  27.280  1.00  0.00    -0.274 OA
ATOM      5  H   UNL A   1      36.069  22.688  27.430  1.00  0.00     0.163 HD
BRANCH   3   6
ATOM      6  C   UNL A   1      33.560  23.318  25.209  1.00  0.00     0.098 C 
ATOM      7  C   UNL A   1      32.039  23.239  25.594  1.00  0.00     0.023 C 
ATOM      8  C   UNL A   1      33.867  24.818  24.966  1.00  0.00     0.026 C 
ATOM      9  C   UNL A   1      31.623  24.163  26.745  1.00  0.00     0.002 C 
ATOM     10  C   UNL A   1      33.515  25.720  26.164  1.00  0.00    -0.013 C 
ATOM     11  C   UNL A   1      32.027  25.609  26.496  1.00  0.00     0.003 C 
ATOM     12  C   UNL A   1      33.890  27.174  25.873  1.00  0.00     0.007 C 
BRANCH   6  13
ATOM     13  C   UNL A   1      33.709  22.406  23.926  1.00  0.00     0.279 C 
BRANCH  13  14
ATOM     14  N   UNL A   1      32.698  22.547  22.873  1.00  0.00    -0.331 N 
ATOM     15  C   UNL A   1      32.304  21.278  22.260  1.00  0.00     0.333 C 
ATOM     16  H   UNL A   1      31.921  22.919  23.417  1.00  0.00     0.348 HD
BRANCH  14  17
ATOM     17  C   UNL A   1      32.951  23.553  21.821  1.00  0.00     0.319 C 
BRANCH  17  18
ATOM     18  C   UNL A   1      32.591  25.000  22.128  1.00  0.00     0.095 A 
ATOM     19  C   UNL A   1      34.225  28.302  21.975  1.00  0.00     0.067 C 
ATOM     20  C   UNL A   1      33.180  27.251  22.205  1.00  0.00     0.038 A 
ATOM     21  C   UNL A   1      31.904  27.610  22.629  1.00  0.00     0.023 A 
ATOM     22  N   UNL A   1      33.536  25.963  21.970  1.00  0.00    -0.252 NA
ATOM     23  C   UNL A   1      30.954  26.615  22.815  1.00  0.00     0.004 A 
ATOM     24  C   UNL A   1      31.298  25.294  22.560  1.00  0.00     0.030 A 
ENDBRANCH  17  18
ENDBRANCH  14  17
ENDBRANCH  13  14
ENDBRANCH   6  13
ENDBRANCH   3   6
ENDBRANCH   1   2
BRANCH   1  25
ATOM     25  C   UNL A   1      38.110  22.793  25.874  1.00  0.00     0.042 C 
BRANCH  25  26
ATOM     26  C   UNL A   1      38.911  23.772  26.705  1.00  0.00     0.118 C 
BRANCH  26  27
ATOM     27  N   UNL A   1      40.304  23.870  26.273  1.00  0.00    -0.352 N 
ATOM     28  C   UNL A   1      41.257  24.827  26.530  1.00  0.00     0.251 C 
ATOM     29  H   UNL A   1      40.611  23.127  25.705  1.00  0.00     0.163 HD
ATOM     30  O   UNL A   1      42.316  24.818  25.906  1.00  0.00    -0.269 OA
BRANCH  28  31
ATOM     31  C   UNL A   1      40.997  25.882  27.532  1.00  0.00     0.039 A 
ATOM     32  C   UNL A   1      40.006  25.684  28.499  1.00  0.00     0.014 A 
ATOM     33  C   UNL A   1      41.737  27.062  27.528  1.00  0.00     0.014 A 
ATOM     34  C   UNL A   1      39.823  26.637  29.504  1.00  0.00     0.010 A 
ATOM     35  C   UNL A   1      41.653  27.935  28.602  1.00  0.00     0.010 A 
ATOM     36  C   UNL A   1      40.678  27.748  29.590  1.00  0.00    -0.014 A 
BRANCH  36  37
ATOM     37  C   UNL A   1      40.555  28.757  30.673  1.00  0.00     0.031 A 
ATOM     38  C   UNL A   1      41.429  28.644  31.896  1.00  0.00     0.074 A 
ATOM     39  C   UNL A   1      39.610  29.715  30.597  1.00  0.00     0.049 A 
ATOM     40  N   UNL A   1      41.403  29.345  32.999  1.00  0.00    -0.248 NA
ATOM     41  C   UNL A   1      42.437  27.569  31.897  1.00  0.00     0.031 C 
ATOM     42  C   UNL A   1      38.662  29.889  29.493  1.00  0.00     0.029 A 
ATOM     43  N   UNL A   1      39.281  30.719  31.473  1.00  0.00    -0.354 N 
ATOM     44  C   UNL A   1      42.366  28.780  33.828  1.00  0.00     0.074 A 
ATOM     45  C   UNL A   1      42.908  27.637  33.132  1.00  0.00     0.031 C 
ATOM     46  C   UNL A   1      37.883  30.954  29.743  1.00  0.00     0.029 A 
ATOM     47  C   UNL A   1      38.243  31.511  31.043  1.00  0.00     0.049 A 
ATOM     48  H   UNL A   1      39.746  30.859  32.330  1.00  0.00     0.167 HD
ATOM     49  C   UNL A   1      42.788  29.197  35.045  1.00  0.00     0.037 A 
ATOM     50  C   UNL A   1      37.645  32.564  31.633  1.00  0.00     0.037 A 
ATOM     51  C   UNL A   1      42.274  30.366  35.709  1.00  0.00     0.049 A 
ATOM     52  C   UNL A   1      38.142  33.023  32.978  1.00  0.00     0.074 A 
ATOM     53  C   UNL A   1      42.677  30.919  36.911  1.00  0.00     0.029 A 
ATOM     54  N   UNL A   1      41.250  31.165  35.222  1.00  0.00    -0.354 N 
ATOM     55  N   UNL A   1      39.100  32.516  33.720  1.00  0.00    -0.248 NA
ATOM     56  C   UNL A   1      37.485  34.198  33.566  1.00  0.00     0.031 C 
ATOM     57  C   UNL A   1      41.866  32.027  37.172  1.00  0.00     0.029 A 
ATOM     58  C   UNL A   1      40.995  32.197  36.108  1.00  0.00     0.049 A 
ATOM     59  H   UNL A   1      40.776  31.019  34.372  1.00  0.00     0.167 HD
ATOM     60  C   UNL A   1      39.179  33.329  34.845  1.00  0.00     0.074 A 
ATOM     61  C   UNL A   1      38.181  34.366  34.682  1.00  0.00     0.031 C 
ATOM     62  C   UNL A   1      40.003  33.227  35.918  1.00  0.00     0.037 A 
BRANCH  49  63
ATOM     63  C   UNL A   1      43.864  28.394  35.725  1.00  0.00     0.058 A 
ATOM     64  C   UNL A   1      45.226  28.623  35.473  1.00  0.00     0.135 A 
ATOM     65  C   UNL A   1      43.530  27.399  36.658  1.00  0.00     0.135 A 
ATOM     66  F   UNL A   1      45.602  29.550  34.577  1.00  0.00    -0.206 F 
ATOM     67  C   UNL A   1      46.218  27.873  36.094  1.00  0.00     0.059 A 
ATOM     68  C   UNL A   1      44.507  26.658  37.316  1.00  0.00     0.059 A 
ATOM     69  F   UNL A   1      42.244  27.137  36.936  1.00  0.00    -0.206 F 
ATOM     70  C   UNL A   1      45.849  26.892  37.016  1.00  0.00     0.060 A 
BRANCH  70  71
ATOM     71  S   UNL A   1      47.150  25.934  37.821  1.00  0.00     0.124 S 
ATOM     72  O   UNL A   1      48.318  26.778  37.589  1.00  0.00    -0.237 OA
ATOM     73  O   UNL A   1      46.681  25.869  39.201  1.00  0.00    -0.237 OA
ATOM     74  O   UNL A   1      47.137  24.668  37.096  1.00  0.00    -0.744 OA
ENDBRANCH  70  71
ENDBRANCH  49  63
BRANCH  50  75
ATOM     75  C   UNL A   1      36.533  33.274  30.944  1.00  0.00     0.058 A 
ATOM     76  C   UNL A   1      35.210  33.146  31.392  1.00  0.00     0.135 A 
ATOM     77  C   UNL A   1      36.770  34.103  29.837  1.00  0.00     0.135 A 
ATOM     78  F   UNL A   1      34.930  32.362  32.444  1.00  0.00    -0.206 F 
ATOM     79  C   UNL A   1      34.158  33.798  30.756  1.00  0.00     0.059 A 
ATOM     80  C   UNL A   1      35.738  34.786  29.200  1.00  0.00     0.059 A 
ATOM     81  F   UNL A   1      38.020  34.274  29.380  1.00  0.00    -0.206 F 
ATOM     82  C   UNL A   1      34.433  34.619  29.661  1.00  0.00     0.060 A 
BRANCH  82  83
ATOM     83  S   UNL A   1      33.066  35.494  28.870  1.00  0.00     0.124 S 
ATOM     84  O   UNL A   1      32.441  34.427  28.096  1.00  0.00    -0.237 OA
ATOM     85  O   UNL A   1      32.306  35.978  30.019  1.00  0.00    -0.237 OA
ATOM     86  O   UNL A   1      33.737  36.531  28.092  1.00  0.00    -0.744 OA
ENDBRANCH  82  83
ENDBRANCH  50  75
BRANCH  62  87
ATOM     87  C   UNL A   1      39.892  34.285  36.979  1.00  0.00     0.058 A 
ATOM     88  C   UNL A   1      40.566  35.511  36.876  1.00  0.00     0.135 A 
ATOM     89  C   UNL A   1      39.048  34.090  38.087  1.00  0.00     0.135 A 
ATOM     90  F   UNL A   1      41.387  35.746  35.840  1.00  0.00    -0.206 F 
ATOM     91  C   UNL A   1      40.426  36.500  37.845  1.00  0.00     0.059 A 
ATOM     92  C   UNL A   1      38.871  35.075  39.051  1.00  0.00     0.059 A 
ATOM     93  F   UNL A   1      38.372  32.939  38.227  1.00  0.00    -0.206 F 
ATOM     94  C   UNL A   1      39.575  36.273  38.928  1.00  0.00     0.060 A 
BRANCH  94  95
ATOM     95  S   UNL A   1      39.376  37.578  40.158  1.00  0.00     0.124 S 
ATOM     96  O   UNL A   1      40.684  38.222  40.119  1.00  0.00    -0.237 OA
ATOM     97  O   UNL A   1      38.269  38.356  39.611  1.00  0.00    -0.237 OA
ATOM     98  O   UNL A   1      39.073  36.846  41.385  1.00  0.00    -0.744 OA
ENDBRANCH  94  95
ENDBRANCH  62  87
ENDBRANCH  36  37
ENDBRANCH  28  31
ENDBRANCH  26  27
ENDBRANCH  25  26
ENDBRANCH   1  25
TORSDOF 17
ENDMDL
