MODEL 1
REMARK VINA RESULT:     -13.0      0.000      0.000
REMARK SMILES Cc1cccc(CS(=O)(=O)c2ccc(C(=O)NCCCNC(=O)c3ccc(-c4c5nc(c(-c6c(F)cc(S(=O)(=O)[O-])cc6F)c6ccc([nH]6)c(-c6c(F)cc(S(=O)(=O)[O-])cc6F)c6nc(c(-c7c(F)cc(S(=O)(=O)[O-])cc7F)c7ccc4[nH]7)C=C6)C=C5)cc3)cc2F)n1
REMARK SMILES IDX 19 1 18 2 17 3 15 4 16 5 14 7 11 8 12 9 91 10 13 11 90 12
REMARK SMILES IDX 92 13 8 14 9 15 10 16 7 17 6 18 1 19 2 20 3 21 93 22 4 23
REMARK SMILES IDX 5 24 20 25 21 26 22 27 23 29 24 30 25 31 89 32 26 33 88 34
REMARK SMILES IDX 27 35 28 36 29 37 82 38 30 39 87 40 81 41 83 42 31 43 86 44
REMARK SMILES IDX 80 45 79 46 32 48 66 49 45 50 65 51 46 52 49 53 64 54 84 55
REMARK SMILES IDX 47 56 48 57 63 59 85 60 50 61 33 62 34 63 43 64 35 65 36 66
REMARK SMILES IDX 42 67 44 68 37 69 38 70 39 71 40 72 41 73 67 74 68 75 77 76
REMARK SMILES IDX 69 77 70 78 76 79 78 80 71 81 72 82 73 83 74 84 75 85 51 86
REMARK SMILES IDX 52 87 61 88 53 89 54 90 60 91 62 92 55 93 56 94 57 95 58 96
REMARK SMILES IDX 59 97
REMARK H PARENT 17 6 21 28 83 47 49 58
REMARK Flexibility Score: inf
ROOT
ATOM      1  C   UNL A   1      34.256  31.202  27.600  1.00  0.00     0.042 C 
ENDROOT
BRANCH   1   2
ATOM      2  C   UNL A   1      34.012  29.769  27.134  1.00  0.00     0.118 C 
BRANCH   2   3
ATOM      3  N   UNL A   1      33.917  29.705  25.686  1.00  0.00    -0.352 N 
ATOM      4  C   UNL A   1      33.403  28.756  24.845  1.00  0.00     0.251 C 
ATOM      5  O   UNL A   1      33.409  28.982  23.635  1.00  0.00    -0.269 OA
ATOM      6  H   UNL A   1      34.292  30.489  25.225  1.00  0.00     0.163 HD
BRANCH   4   7
ATOM      7  C   UNL A   1      32.776  27.501  25.331  1.00  0.00     0.042 A 
ATOM      8  C   UNL A   1      31.770  25.042  26.255  1.00  0.00     0.103 A 
ATOM      9  C   UNL A   1      33.148  25.237  26.133  1.00  0.00     0.024 A 
ATOM     10  C   UNL A   1      30.907  26.074  25.908  1.00  0.00     0.142 A 
ATOM     11  C   UNL A   1      33.646  26.468  25.704  1.00  0.00     0.015 A 
ATOM     12  C   UNL A   1      31.402  27.303  25.462  1.00  0.00     0.054 A 
ATOM     13  F   UNL A   1      29.577  25.937  25.963  1.00  0.00    -0.206 F 
BRANCH   8  14
ATOM     14  S   UNL A   1      31.143  23.450  26.735  1.00  0.00     0.186 S 
ATOM     15  O   UNL A   1      29.834  23.692  27.319  1.00  0.00    -0.223 OA
ATOM     16  O   UNL A   1      32.154  22.800  27.549  1.00  0.00    -0.223 OA
BRANCH  14  17
ATOM     17  C   UNL A   1      31.025  22.459  25.255  1.00  0.00     0.198 C 
BRANCH  17  18
ATOM     18  C   UNL A   1      32.188  21.527  25.105  1.00  0.00     0.056 A 
ATOM     19  C   UNL A   1      32.643  17.889  25.384  1.00  0.00     0.067 C 
ATOM     20  C   UNL A   1      32.986  19.334  25.184  1.00  0.00     0.038 A 
ATOM     21  C   UNL A   1      34.246  19.730  24.768  1.00  0.00     0.023 A 
ATOM     22  N   UNL A   1      31.979  20.218  25.374  1.00  0.00    -0.257 NA
ATOM     23  C   UNL A   1      34.476  21.085  24.547  1.00  0.00     0.004 A 
ATOM     24  C   UNL A   1      33.438  21.997  24.716  1.00  0.00     0.025 A 
ENDBRANCH  17  18
ENDBRANCH  14  17
ENDBRANCH   8  14
ENDBRANCH   4   7
ENDBRANCH   2   3
ENDBRANCH   1   2
BRANCH   1  25
ATOM     25  C   UNL A   1      35.592  31.386  28.317  1.00  0.00     0.118 C 
BRANCH  25  26
ATOM     26  N   UNL A   1      35.474  31.160  29.750  1.00  0.00    -0.352 N 
ATOM     27  C   UNL A   1      36.325  30.514  30.611  1.00  0.00     0.251 C 
ATOM     28  H   UNL A   1      34.660  31.526  30.165  1.00  0.00     0.163 HD
ATOM     29  O   UNL A   1      35.932  30.219  31.737  1.00  0.00    -0.269 OA
BRANCH  27  30
ATOM     30  C   UNL A   1      37.703  30.173  30.194  1.00  0.00     0.039 A 
ATOM     31  C   UNL A   1      38.660  29.906  31.176  1.00  0.00     0.014 A 
ATOM     32  C   UNL A   1      38.065  30.160  28.843  1.00  0.00     0.014 A 
ATOM     33  C   UNL A   1      39.965  29.578  30.803  1.00  0.00     0.010 A 
ATOM     34  C   UNL A   1      39.346  29.763  28.470  1.00  0.00     0.010 A 
ATOM     35  C   UNL A   1      40.312  29.476  29.446  1.00  0.00    -0.014 A 
BRANCH  35  36
ATOM     36  C   UNL A   1      41.678  29.069  29.028  1.00  0.00     0.031 A 
ATOM     37  C   UNL A   1      42.800  30.071  29.032  1.00  0.00     0.074 A 
ATOM     38  C   UNL A   1      41.892  27.811  28.593  1.00  0.00     0.049 A 
ATOM     39  N   UNL A   1      44.038  29.923  28.634  1.00  0.00    -0.248 NA
ATOM     40  C   UNL A   1      42.487  31.422  29.525  1.00  0.00     0.031 C 
ATOM     41  C   UNL A   1      40.873  26.762  28.511  1.00  0.00     0.029 A 
ATOM     42  N   UNL A   1      43.032  27.201  28.133  1.00  0.00    -0.354 N 
ATOM     43  C   UNL A   1      44.646  31.160  28.819  1.00  0.00     0.074 A 
ATOM     44  C   UNL A   1      43.629  32.060  29.315  1.00  0.00     0.031 C 
ATOM     45  C   UNL A   1      41.440  25.631  28.062  1.00  0.00     0.029 A 
ATOM     46  C   UNL A   1      42.850  25.884  27.781  1.00  0.00     0.049 A 
ATOM     47  H   UNL A   1      43.898  27.662  28.064  1.00  0.00     0.167 HD
ATOM     48  C   UNL A   1      45.940  31.504  28.616  1.00  0.00     0.037 A 
ATOM     49  C   UNL A   1      43.719  24.983  27.283  1.00  0.00     0.037 A 
ATOM     50  C   UNL A   1      46.951  30.592  28.149  1.00  0.00     0.049 A 
ATOM     51  C   UNL A   1      45.146  25.393  27.052  1.00  0.00     0.074 A 
ATOM     52  C   UNL A   1      48.301  30.830  27.959  1.00  0.00     0.029 A 
ATOM     53  N   UNL A   1      46.726  29.267  27.801  1.00  0.00    -0.354 N 
ATOM     54  N   UNL A   1      45.714  26.556  27.271  1.00  0.00    -0.248 NA
ATOM     55  C   UNL A   1      46.053  24.374  26.506  1.00  0.00     0.031 C 
ATOM     56  C   UNL A   1      48.883  29.664  27.454  1.00  0.00     0.029 A 
ATOM     57  C   UNL A   1      47.908  28.683  27.377  1.00  0.00     0.049 A 
ATOM     58  H   UNL A   1      45.855  28.812  27.848  1.00  0.00     0.167 HD
ATOM     59  C   UNL A   1      47.048  26.402  26.911  1.00  0.00     0.074 A 
ATOM     60  C   UNL A   1      47.206  25.031  26.472  1.00  0.00     0.031 C 
ATOM     61  C   UNL A   1      48.050  27.314  26.944  1.00  0.00     0.037 A 
BRANCH  48  62
ATOM     62  C   UNL A   1      46.346  32.922  28.913  1.00  0.00     0.058 A 
ATOM     63  C   UNL A   1      46.739  33.297  30.207  1.00  0.00     0.135 A 
ATOM     64  C   UNL A   1      46.287  33.925  27.932  1.00  0.00     0.135 A 
ATOM     65  F   UNL A   1      46.819  32.380  31.184  1.00  0.00    -0.206 F 
ATOM     66  C   UNL A   1      47.044  34.618  30.522  1.00  0.00     0.059 A 
ATOM     67  C   UNL A   1      46.615  35.248  28.217  1.00  0.00     0.059 A 
ATOM     68  F   UNL A   1      45.938  33.618  26.673  1.00  0.00    -0.206 F 
ATOM     69  C   UNL A   1      46.979  35.587  29.520  1.00  0.00     0.060 A 
BRANCH  69  70
ATOM     70  S   UNL A   1      47.407  37.290  29.937  1.00  0.00     0.124 S 
ATOM     71  O   UNL A   1      48.676  37.119  30.634  1.00  0.00    -0.237 OA
ATOM     72  O   UNL A   1      47.480  37.918  28.622  1.00  0.00    -0.237 OA
ATOM     73  O   UNL A   1      46.286  37.727  30.767  1.00  0.00    -0.744 OA
ENDBRANCH  69  70
ENDBRANCH  48  62
BRANCH  49  74
ATOM     74  C   UNL A   1      43.260  23.595  27.004  1.00  0.00     0.058 A 
ATOM     75  C   UNL A   1      43.036  22.677  28.041  1.00  0.00     0.135 A 
ATOM     76  C   UNL A   1      43.083  23.150  25.686  1.00  0.00     0.135 A 
ATOM     77  F   UNL A   1      43.202  23.049  29.320  1.00  0.00    -0.206 F 
ATOM     78  C   UNL A   1      42.682  21.358  27.780  1.00  0.00     0.059 A 
ATOM     79  C   UNL A   1      42.704  21.841  25.400  1.00  0.00     0.059 A 
ATOM     80  F   UNL A   1      43.275  23.996  24.662  1.00  0.00    -0.206 F 
ATOM     81  C   UNL A   1      42.525  20.948  26.455  1.00  0.00     0.060 A 
BRANCH  81  82
ATOM     82  S   UNL A   1      42.087  19.225  26.137  1.00  0.00     0.124 S 
ATOM     83  O   UNL A   1      40.653  19.330  25.890  1.00  0.00    -0.237 OA
ATOM     84  O   UNL A   1      42.910  18.910  24.974  1.00  0.00    -0.237 OA
ATOM     85  O   UNL A   1      42.464  18.546  27.373  1.00  0.00    -0.744 OA
ENDBRANCH  81  82
ENDBRANCH  49  74
BRANCH  61  86
ATOM     86  C   UNL A   1      49.418  26.867  26.511  1.00  0.00     0.058 A 
ATOM     87  C   UNL A   1      49.813  26.987  25.169  1.00  0.00     0.135 A 
ATOM     88  C   UNL A   1      50.301  26.237  27.401  1.00  0.00     0.135 A 
ATOM     89  F   UNL A   1      49.004  27.577  24.274  1.00  0.00    -0.206 F 
ATOM     90  C   UNL A   1      51.027  26.478  24.720  1.00  0.00     0.059 A 
ATOM     91  C   UNL A   1      51.532  25.745  26.981  1.00  0.00     0.059 A 
ATOM     92  F   UNL A   1      49.974  26.109  28.697  1.00  0.00    -0.206 F 
ATOM     93  C   UNL A   1      51.878  25.853  25.633  1.00  0.00     0.060 A 
BRANCH  93  94
ATOM     94  S   UNL A   1      53.448  25.196  25.033  1.00  0.00     0.124 S 
ATOM     95  O   UNL A   1      53.435  25.618  23.637  1.00  0.00    -0.237 OA
ATOM     96  O   UNL A   1      54.414  25.874  25.892  1.00  0.00    -0.237 OA
ATOM     97  O   UNL A   1      53.323  23.758  25.256  1.00  0.00    -0.744 OA
ENDBRANCH  93  94
ENDBRANCH  61  86
ENDBRANCH  35  36
ENDBRANCH  27  30
ENDBRANCH  25  26
ENDBRANCH   1  25
TORSDOF 16
ENDMDL
MODEL 2
REMARK VINA RESULT:     -12.7      1.474      1.914
REMARK SMILES Cc1cccc(CS(=O)(=O)c2ccc(C(=O)NCCCNC(=O)c3ccc(-c4c5nc(c(-c6c(F)cc(S(=O)(=O)[O-])cc6F)c6ccc([nH]6)c(-c6c(F)cc(S(=O)(=O)[O-])cc6F)c6nc(c(-c7c(F)cc(S(=O)(=O)[O-])cc7F)c7ccc4[nH]7)C=C6)C=C5)cc3)cc2F)n1
REMARK SMILES IDX 19 1 18 2 17 3 15 4 16 5 14 7 11 8 12 9 91 10 13 11 90 12
REMARK SMILES IDX 92 13 8 14 9 15 10 16 7 17 6 18 1 19 2 20 3 21 93 22 4 23
REMARK SMILES IDX 5 24 20 25 21 26 22 27 23 29 24 30 25 31 89 32 26 33 88 34
REMARK SMILES IDX 27 35 28 36 29 37 82 38 30 39 87 40 81 41 83 42 31 43 86 44
REMARK SMILES IDX 80 45 79 46 32 48 66 49 45 50 65 51 46 52 49 53 64 54 84 55
REMARK SMILES IDX 47 56 48 57 63 59 85 60 50 61 33 62 34 63 43 64 35 65 36 66
REMARK SMILES IDX 42 67 44 68 37 69 38 70 39 71 40 72 41 73 67 74 68 75 77 76
REMARK SMILES IDX 69 77 70 78 76 79 78 80 71 81 72 82 73 83 74 84 75 85 51 86
REMARK SMILES IDX 52 87 61 88 53 89 54 90 60 91 62 92 55 93 56 94 57 95 58 96
REMARK SMILES IDX 59 97
REMARK H PARENT 17 6 21 28 83 47 49 58
REMARK Flexibility Score: inf
ROOT
ATOM      1  C   UNL A   1      34.120  30.047  26.899  1.00  0.00     0.042 C 
ENDROOT
BRANCH   1   2
ATOM      2  C   UNL A   1      32.699  29.546  27.145  1.00  0.00     0.118 C 
BRANCH   2   3
ATOM      3  N   UNL A   1      31.819  29.925  26.052  1.00  0.00    -0.352 N 
ATOM      4  C   UNL A   1      31.402  29.249  24.939  1.00  0.00     0.251 C 
ATOM      5  O   UNL A   1      30.600  29.800  24.186  1.00  0.00    -0.269 OA
ATOM      6  H   UNL A   1      31.456  30.836  26.128  1.00  0.00     0.163 HD
BRANCH   4   7
ATOM      7  C   UNL A   1      31.817  27.855  24.638  1.00  0.00     0.042 A 
ATOM      8  C   UNL A   1      32.751  25.291  23.956  1.00  0.00     0.103 A 
ATOM      9  C   UNL A   1      33.464  26.427  23.564  1.00  0.00     0.024 A 
ATOM     10  C   UNL A   1      31.574  25.446  24.680  1.00  0.00     0.142 A 
ATOM     11  C   UNL A   1      33.016  27.697  23.930  1.00  0.00     0.015 A 
ATOM     12  C   UNL A   1      31.113  26.718  25.033  1.00  0.00     0.054 A 
ATOM     13  F   UNL A   1      30.825  24.402  25.050  1.00  0.00    -0.206 F 
BRANCH   8  14
ATOM     14  S   UNL A   1      33.292  23.683  23.428  1.00  0.00     0.186 S 
ATOM     15  O   UNL A   1      34.487  23.903  22.629  1.00  0.00    -0.223 OA
ATOM     16  O   UNL A   1      32.162  23.014  22.810  1.00  0.00    -0.223 OA
BRANCH  14  17
ATOM     17  C   UNL A   1      33.654  22.736  24.897  1.00  0.00     0.198 C 
BRANCH  17  18
ATOM     18  C   UNL A   1      35.123  22.680  25.184  1.00  0.00     0.056 A 
ATOM     19  C   UNL A   1      37.735  20.117  24.824  1.00  0.00     0.067 C 
ATOM     20  C   UNL A   1      37.091  21.424  25.175  1.00  0.00     0.038 A 
ATOM     21  C   UNL A   1      37.838  22.510  25.601  1.00  0.00     0.023 A 
ATOM     22  N   UNL A   1      35.752  21.499  24.993  1.00  0.00    -0.257 NA
ATOM     23  C   UNL A   1      37.181  23.711  25.853  1.00  0.00     0.004 A 
ATOM     24  C   UNL A   1      35.807  23.801  25.644  1.00  0.00     0.025 A 
ENDBRANCH  17  18
ENDBRANCH  14  17
ENDBRANCH   8  14
ENDBRANCH   4   7
ENDBRANCH   2   3
ENDBRANCH   1   2
BRANCH   1  25
ATOM     25  C   UNL A   1      35.137  29.491  27.891  1.00  0.00     0.118 C 
BRANCH  25  26
ATOM     26  N   UNL A   1      35.211  30.296  29.102  1.00  0.00    -0.352 N 
ATOM     27  C   UNL A   1      36.246  30.461  29.987  1.00  0.00     0.251 C 
ATOM     28  H   UNL A   1      34.393  30.799  29.319  1.00  0.00     0.163 HD
ATOM     29  O   UNL A   1      36.030  30.989  31.075  1.00  0.00    -0.269 OA
BRANCH  27  30
ATOM     30  C   UNL A   1      37.611  30.006  29.642  1.00  0.00     0.039 A 
ATOM     31  C   UNL A   1      38.021  30.053  28.306  1.00  0.00     0.014 A 
ATOM     32  C   UNL A   1      38.470  29.493  30.619  1.00  0.00     0.014 A 
ATOM     33  C   UNL A   1      39.306  29.631  27.960  1.00  0.00     0.010 A 
ATOM     34  C   UNL A   1      39.775  29.142  30.284  1.00  0.00     0.010 A 
ATOM     35  C   UNL A   1      40.204  29.200  28.950  1.00  0.00    -0.014 A 
BRANCH  35  36
ATOM     36  C   UNL A   1      41.596  28.805  28.610  1.00  0.00     0.031 A 
ATOM     37  C   UNL A   1      42.697  29.830  28.624  1.00  0.00     0.074 A 
ATOM     38  C   UNL A   1      41.854  27.537  28.236  1.00  0.00     0.049 A 
ATOM     39  N   UNL A   1      43.954  29.693  28.288  1.00  0.00    -0.248 NA
ATOM     40  C   UNL A   1      42.335  31.193  29.048  1.00  0.00     0.031 C 
ATOM     41  C   UNL A   1      40.860  26.463  28.151  1.00  0.00     0.029 A 
ATOM     42  N   UNL A   1      43.025  26.933  27.853  1.00  0.00    -0.354 N 
ATOM     43  C   UNL A   1      44.529  30.949  28.450  1.00  0.00     0.074 A 
ATOM     44  C   UNL A   1      43.473  31.847  28.863  1.00  0.00     0.031 C 
ATOM     45  C   UNL A   1      41.468  25.328  27.774  1.00  0.00     0.029 A 
ATOM     46  C   UNL A   1      42.885  25.600  27.545  1.00  0.00     0.049 A 
ATOM     47  H   UNL A   1      43.885  27.409  27.803  1.00  0.00     0.167 HD
ATOM     48  C   UNL A   1      45.824  31.312  28.291  1.00  0.00     0.037 A 
ATOM     49  C   UNL A   1      43.793  24.698  27.124  1.00  0.00     0.037 A 
ATOM     50  C   UNL A   1      46.872  30.404  27.907  1.00  0.00     0.049 A 
ATOM     51  C   UNL A   1      45.221  25.129  26.941  1.00  0.00     0.074 A 
ATOM     52  C   UNL A   1      48.225  30.664  27.768  1.00  0.00     0.029 A 
ATOM     53  N   UNL A   1      46.690  29.062  27.602  1.00  0.00    -0.354 N 
ATOM     54  N   UNL A   1      45.755  26.311  27.138  1.00  0.00    -0.248 NA
ATOM     55  C   UNL A   1      46.172  24.109  26.478  1.00  0.00     0.031 C 
ATOM     56  C   UNL A   1      48.852  29.491  27.337  1.00  0.00     0.029 A 
ATOM     57  C   UNL A   1      47.900  28.487  27.256  1.00  0.00     0.049 A 
ATOM     58  H   UNL A   1      45.826  28.591  27.629  1.00  0.00     0.167 HD
ATOM     59  C   UNL A   1      47.108  26.172  26.845  1.00  0.00     0.074 A 
ATOM     60  C   UNL A   1      47.312  24.788  26.468  1.00  0.00     0.031 C 
ATOM     61  C   UNL A   1      48.089  27.106  26.885  1.00  0.00     0.037 A 
BRANCH  48  62
ATOM     62  C   UNL A   1      46.189  32.749  28.548  1.00  0.00     0.058 A 
ATOM     63  C   UNL A   1      46.486  33.190  29.848  1.00  0.00     0.135 A 
ATOM     64  C   UNL A   1      46.183  33.706  27.520  1.00  0.00     0.135 A 
ATOM     65  F   UNL A   1      46.511  32.320  30.869  1.00  0.00    -0.206 F 
ATOM     66  C   UNL A   1      46.750  34.529  30.121  1.00  0.00     0.059 A 
ATOM     67  C   UNL A   1      46.472  35.045  27.765  1.00  0.00     0.059 A 
ATOM     68  F   UNL A   1      45.926  33.335  26.255  1.00  0.00    -0.206 F 
ATOM     69  C   UNL A   1      46.740  35.449  29.072  1.00  0.00     0.060 A 
BRANCH  69  70
ATOM     70  S   UNL A   1      47.114  37.178  29.437  1.00  0.00     0.124 S 
ATOM     71  O   UNL A   1      46.274  37.428  30.601  1.00  0.00    -0.237 OA
ATOM     72  O   UNL A   1      48.552  37.132  29.685  1.00  0.00    -0.237 OA
ATOM     73  O   UNL A   1      46.721  37.874  28.215  1.00  0.00    -0.744 OA
ENDBRANCH  69  70
ENDBRANCH  48  62
BRANCH  49  74
ATOM     74  C   UNL A   1      43.374  23.291  26.881  1.00  0.00     0.058 A 
ATOM     75  C   UNL A   1      43.149  22.401  27.942  1.00  0.00     0.135 A 
ATOM     76  C   UNL A   1      43.239  22.799  25.575  1.00  0.00     0.135 A 
ATOM     77  F   UNL A   1      43.276  22.819  29.212  1.00  0.00    -0.206 F 
ATOM     78  C   UNL A   1      42.832  21.066  27.717  1.00  0.00     0.059 A 
ATOM     79  C   UNL A   1      42.898  21.473  25.324  1.00  0.00     0.059 A 
ATOM     80  F   UNL A   1      43.433  23.616  24.528  1.00  0.00    -0.206 F 
ATOM     81  C   UNL A   1      42.716  20.610  26.403  1.00  0.00     0.060 A 
BRANCH  81  82
ATOM     82  S   UNL A   1      42.327  18.867  26.133  1.00  0.00     0.124 S 
ATOM     83  O   UNL A   1      40.923  18.940  25.743  1.00  0.00    -0.237 OA
ATOM     84  O   UNL A   1      43.263  18.506  25.073  1.00  0.00    -0.237 OA
ATOM     85  O   UNL A   1      42.588  18.257  27.433  1.00  0.00    -0.744 OA
ENDBRANCH  81  82
ENDBRANCH  49  74
BRANCH  61  86
ATOM     86  C   UNL A   1      49.483  26.671  26.532  1.00  0.00     0.058 A 
ATOM     87  C   UNL A   1      49.957  26.801  25.217  1.00  0.00     0.135 A 
ATOM     88  C   UNL A   1      50.317  26.043  27.471  1.00  0.00     0.135 A 
ATOM     89  F   UNL A   1      49.197  27.389  24.278  1.00  0.00    -0.206 F 
ATOM     90  C   UNL A   1      51.199  26.303  24.839  1.00  0.00     0.059 A 
ATOM     91  C   UNL A   1      51.575  25.562  27.122  1.00  0.00     0.059 A 
ATOM     92  F   UNL A   1      49.915  25.905  28.744  1.00  0.00    -0.206 F 
ATOM     93  C   UNL A   1      51.999  25.680  25.797  1.00  0.00     0.060 A 
BRANCH  93  94
ATOM     94  S   UNL A   1      53.607  25.038  25.288  1.00  0.00     0.124 S 
ATOM     95  O   UNL A   1      54.469  25.497  26.372  1.00  0.00    -0.237 OA
ATOM     96  O   UNL A   1      53.362  23.600  25.237  1.00  0.00    -0.237 OA
ATOM     97  O   UNL A   1      53.832  25.674  23.993  1.00  0.00    -0.744 OA
ENDBRANCH  93  94
ENDBRANCH  61  86
ENDBRANCH  35  36
ENDBRANCH  27  30
ENDBRANCH  25  26
ENDBRANCH   1  25
TORSDOF 16
ENDMDL
MODEL 3
REMARK VINA RESULT:     -12.7      6.349     11.971
REMARK SMILES Cc1cccc(CS(=O)(=O)c2ccc(C(=O)NCCCNC(=O)c3ccc(-c4c5nc(c(-c6c(F)cc(S(=O)(=O)[O-])cc6F)c6ccc([nH]6)c(-c6c(F)cc(S(=O)(=O)[O-])cc6F)c6nc(c(-c7c(F)cc(S(=O)(=O)[O-])cc7F)c7ccc4[nH]7)C=C6)C=C5)cc3)cc2F)n1
REMARK SMILES IDX 19 1 18 2 17 3 15 4 16 5 14 7 11 8 12 9 91 10 13 11 90 12
REMARK SMILES IDX 92 13 8 14 9 15 10 16 7 17 6 18 1 19 2 20 3 21 93 22 4 23
REMARK SMILES IDX 5 24 20 25 21 26 22 27 23 29 24 30 25 31 89 32 26 33 88 34
REMARK SMILES IDX 27 35 28 36 29 37 82 38 30 39 87 40 81 41 83 42 31 43 86 44
REMARK SMILES IDX 80 45 79 46 32 48 66 49 45 50 65 51 46 52 49 53 64 54 84 55
REMARK SMILES IDX 47 56 48 57 63 59 85 60 50 61 33 62 34 63 43 64 35 65 36 66
REMARK SMILES IDX 42 67 44 68 37 69 38 70 39 71 40 72 41 73 67 74 68 75 77 76
REMARK SMILES IDX 69 77 70 78 76 79 78 80 71 81 72 82 73 83 74 84 75 85 51 86
REMARK SMILES IDX 52 87 61 88 53 89 54 90 60 91 62 92 55 93 56 94 57 95 58 96
REMARK SMILES IDX 59 97
REMARK H PARENT 17 6 21 28 83 47 49 58
REMARK Flexibility Score: inf
ROOT
ATOM      1  C   UNL A   1      39.039  22.141  26.246  1.00  0.00     0.042 C 
ENDROOT
BRANCH   1   2
ATOM      2  C   UNL A   1      37.758  22.510  25.502  1.00  0.00     0.118 C 
BRANCH   2   3
ATOM      3  N   UNL A   1      36.592  21.964  26.175  1.00  0.00    -0.352 N 
ATOM      4  C   UNL A   1      35.251  22.125  25.956  1.00  0.00     0.251 C 
ATOM      5  O   UNL A   1      34.464  21.493  26.660  1.00  0.00    -0.269 OA
ATOM      6  H   UNL A   1      36.807  21.366  26.927  1.00  0.00     0.163 HD
BRANCH   4   7
ATOM      7  C   UNL A   1      34.707  22.971  24.864  1.00  0.00     0.042 A 
ATOM      8  C   UNL A   1      33.707  24.733  22.913  1.00  0.00     0.103 A 
ATOM      9  C   UNL A   1      34.257  25.233  24.096  1.00  0.00     0.024 A 
ATOM     10  C   UNL A   1      33.655  23.358  22.718  1.00  0.00     0.142 A 
ATOM     11  C   UNL A   1      34.781  24.358  25.049  1.00  0.00     0.015 A 
ATOM     12  C   UNL A   1      34.164  22.478  23.678  1.00  0.00     0.054 A 
ATOM     13  F   UNL A   1      33.105  22.815  21.626  1.00  0.00    -0.206 F 
BRANCH   8  14
ATOM     14  S   UNL A   1      32.980  25.849  21.737  1.00  0.00     0.186 S 
ATOM     15  O   UNL A   1      33.136  25.220  20.435  1.00  0.00    -0.223 OA
ATOM     16  O   UNL A   1      33.568  27.160  21.945  1.00  0.00    -0.223 OA
BRANCH  14  17
ATOM     17  C   UNL A   1      31.259  26.032  22.173  1.00  0.00     0.198 C 
BRANCH  17  18
ATOM     18  C   UNL A   1      30.966  27.376  22.764  1.00  0.00     0.056 A 
ATOM     19  C   UNL A   1      29.103  30.344  21.650  1.00  0.00     0.067 C 
ATOM     20  C   UNL A   1      29.951  29.465  22.518  1.00  0.00     0.038 A 
ATOM     21  C   UNL A   1      30.306  29.838  23.804  1.00  0.00     0.023 A 
ATOM     22  N   UNL A   1      30.296  28.264  21.996  1.00  0.00    -0.257 NA
ATOM     23  C   UNL A   1      31.046  28.945  24.574  1.00  0.00     0.004 A 
ATOM     24  C   UNL A   1      31.382  27.699  24.052  1.00  0.00     0.025 A 
ENDBRANCH  17  18
ENDBRANCH  14  17
ENDBRANCH   8  14
ENDBRANCH   4   7
ENDBRANCH   2   3
ENDBRANCH   1   2
BRANCH   1  25
ATOM     25  C   UNL A   1      39.736  23.341  26.882  1.00  0.00     0.118 C 
BRANCH  25  26
ATOM     26  N   UNL A   1      40.945  23.712  26.161  1.00  0.00    -0.352 N 
ATOM     27  C   UNL A   1      41.680  24.869  26.214  1.00  0.00     0.251 C 
ATOM     28  H   UNL A   1      41.287  23.028  25.541  1.00  0.00     0.163 HD
ATOM     29  O   UNL A   1      42.528  25.083  25.350  1.00  0.00    -0.269 OA
BRANCH  27  30
ATOM     30  C   UNL A   1      41.458  25.854  27.295  1.00  0.00     0.039 A 
ATOM     31  C   UNL A   1      40.399  25.652  28.185  1.00  0.00     0.014 A 
ATOM     32  C   UNL A   1      42.257  26.996  27.407  1.00  0.00     0.014 A 
ATOM     33  C   UNL A   1      40.174  26.568  29.215  1.00  0.00     0.010 A 
ATOM     34  C   UNL A   1      42.076  27.870  28.476  1.00  0.00     0.010 A 
ATOM     35  C   UNL A   1      41.028  27.669  29.386  1.00  0.00    -0.014 A 
BRANCH  35  36
ATOM     36  C   UNL A   1      40.843  28.621  30.512  1.00  0.00     0.031 A 
ATOM     37  C   UNL A   1      41.705  28.517  31.741  1.00  0.00     0.074 A 
ATOM     38  C   UNL A   1      39.862  29.543  30.447  1.00  0.00     0.049 A 
ATOM     39  N   UNL A   1      41.644  29.207  32.850  1.00  0.00    -0.248 NA
ATOM     40  C   UNL A   1      42.757  27.487  31.732  1.00  0.00     0.031 C 
ATOM     41  C   UNL A   1      38.941  29.716  29.321  1.00  0.00     0.029 A 
ATOM     42  N   UNL A   1      39.470  30.503  31.345  1.00  0.00    -0.354 N 
ATOM     43  C   UNL A   1      42.639  28.691  33.673  1.00  0.00     0.074 A 
ATOM     44  C   UNL A   1      43.253  27.596  32.956  1.00  0.00     0.031 C 
ATOM     45  C   UNL A   1      38.114  30.740  29.582  1.00  0.00     0.029 A 
ATOM     46  C   UNL A   1      38.413  31.268  30.910  1.00  0.00     0.049 A 
ATOM     47  H   UNL A   1      39.904  30.632  32.218  1.00  0.00     0.167 HD
ATOM     48  C   UNL A   1      43.019  29.110  34.904  1.00  0.00     0.037 A 
ATOM     49  C   UNL A   1      37.757  32.279  31.513  1.00  0.00     0.037 A 
ATOM     50  C   UNL A   1      42.420  30.220  35.596  1.00  0.00     0.049 A 
ATOM     51  C   UNL A   1      38.188  32.715  32.885  1.00  0.00     0.074 A 
ATOM     52  C   UNL A   1      42.767  30.754  36.825  1.00  0.00     0.029 A 
ATOM     53  N   UNL A   1      41.351  30.968  35.123  1.00  0.00    -0.354 N 
ATOM     54  N   UNL A   1      39.158  32.243  33.632  1.00  0.00    -0.248 NA
ATOM     55  C   UNL A   1      37.439  33.820  33.500  1.00  0.00     0.031 C 
ATOM     56  C   UNL A   1      41.881  31.796  37.114  1.00  0.00     0.029 A 
ATOM     57  C   UNL A   1      41.013  31.945  36.044  1.00  0.00     0.049 A 
ATOM     58  H   UNL A   1      40.900  30.824  34.260  1.00  0.00     0.167 HD
ATOM     59  C   UNL A   1      39.150  33.006  34.794  1.00  0.00     0.074 A 
ATOM     60  C   UNL A   1      38.087  33.979  34.647  1.00  0.00     0.031 C 
ATOM     61  C   UNL A   1      39.952  32.909  35.882  1.00  0.00     0.037 A 
BRANCH  48  62
ATOM     62  C   UNL A   1      44.149  28.379  35.578  1.00  0.00     0.058 A 
ATOM     63  C   UNL A   1      43.888  27.323  36.466  1.00  0.00     0.135 A 
ATOM     64  C   UNL A   1      45.487  28.763  35.396  1.00  0.00     0.135 A 
ATOM     65  F   UNL A   1      42.629  26.909  36.675  1.00  0.00    -0.206 F 
ATOM     66  C   UNL A   1      44.912  26.684  37.160  1.00  0.00     0.059 A 
ATOM     67  C   UNL A   1      46.529  28.121  36.058  1.00  0.00     0.059 A 
ATOM     68  F   UNL A   1      45.794  29.753  34.542  1.00  0.00    -0.206 F 
ATOM     69  C   UNL A   1      46.230  27.091  36.949  1.00  0.00     0.060 A 
BRANCH  69  70
ATOM     70  S   UNL A   1      47.549  26.233  37.834  1.00  0.00     0.124 S 
ATOM     71  O   UNL A   1      48.235  27.336  38.495  1.00  0.00    -0.237 OA
ATOM     72  O   UNL A   1      46.798  25.333  38.704  1.00  0.00    -0.237 OA
ATOM     73  O   UNL A   1      48.299  25.575  36.766  1.00  0.00    -0.744 OA
ENDBRANCH  69  70
ENDBRANCH  48  62
BRANCH  49  74
ATOM     74  C   UNL A   1      36.644  32.962  30.799  1.00  0.00     0.058 A 
ATOM     75  C   UNL A   1      36.890  33.844  29.736  1.00  0.00     0.135 A 
ATOM     76  C   UNL A   1      35.314  32.780  31.205  1.00  0.00     0.135 A 
ATOM     77  F   UNL A   1      38.146  34.061  29.316  1.00  0.00    -0.206 F 
ATOM     78  C   UNL A   1      35.859  34.542  29.117  1.00  0.00     0.059 A 
ATOM     79  C   UNL A   1      34.262  33.449  30.585  1.00  0.00     0.059 A 
ATOM     80  F   UNL A   1      35.030  31.939  32.210  1.00  0.00    -0.206 F 
ATOM     81  C   UNL A   1      34.548  34.343  29.554  1.00  0.00     0.060 A 
BRANCH  81  82
ATOM     82  S   UNL A   1      33.227  35.278  28.754  1.00  0.00     0.124 S 
ATOM     83  O   UNL A   1      33.986  36.300  28.040  1.00  0.00    -0.237 OA
ATOM     84  O   UNL A   1      32.594  34.260  27.922  1.00  0.00    -0.237 OA
ATOM     85  O   UNL A   1      32.425  35.759  29.874  1.00  0.00    -0.744 OA
ENDBRANCH  81  82
ENDBRANCH  49  74
BRANCH  61  86
ATOM     86  C   UNL A   1      39.733  33.887  37.002  1.00  0.00     0.058 A 
ATOM     87  C   UNL A   1      40.387  35.129  36.999  1.00  0.00     0.135 A 
ATOM     88  C   UNL A   1      38.948  33.561  38.119  1.00  0.00     0.135 A 
ATOM     89  F   UNL A   1      41.153  35.489  35.957  1.00  0.00    -0.206 F 
ATOM     90  C   UNL A   1      40.290  36.004  38.076  1.00  0.00     0.059 A 
ATOM     91  C   UNL A   1      38.815  34.431  39.196  1.00  0.00     0.059 A 
ATOM     92  F   UNL A   1      38.293  32.390  38.164  1.00  0.00    -0.206 F 
ATOM     93  C   UNL A   1      39.506  35.644  39.173  1.00  0.00     0.060 A 
BRANCH  93  94
ATOM     94  S   UNL A   1      39.393  36.791  40.562  1.00  0.00     0.124 S 
ATOM     95  O   UNL A   1      38.418  36.127  41.419  1.00  0.00    -0.237 OA
ATOM     96  O   UNL A   1      40.766  36.810  41.058  1.00  0.00    -0.237 OA
ATOM     97  O   UNL A   1      38.942  38.033  39.941  1.00  0.00    -0.744 OA
ENDBRANCH  93  94
ENDBRANCH  61  86
ENDBRANCH  35  36
ENDBRANCH  27  30
ENDBRANCH  25  26
ENDBRANCH   1  25
TORSDOF 16
ENDMDL
