MODEL 1
REMARK VINA RESULT:     -12.7      0.000      0.000
REMARK SMILES Cc1ccc(C)c(OCc2ccc(C(=O)NCCCNC(=O)c3ccc(-c4c5nc(c(-c6c(F)cc(S(=O)(=O)[O-])cc6F)c6ccc([nH]6)c(-c6c(F)cc(S(=O)(=O)[O-])cc6F)c6nc(c(-c7c(F)cc(S(=O)(=O)[O-])cc7F)c7ccc4[nH]7)C=C6)C=C5)cc3)cc2)c1C
REMARK SMILES IDX 18 1 17 2 16 3 14 4 15 5 13 7 10 8 11 9 90 10 12 11 89 12
REMARK SMILES IDX 9 13 8 14 7 15 1 16 2 17 3 18 91 19 4 20 92 21 5 22 6 23
REMARK SMILES IDX 19 24 20 25 21 26 22 28 23 29 24 30 88 31 25 32 87 33 26 34
REMARK SMILES IDX 27 35 28 36 81 37 29 38 86 39 80 40 82 41 30 42 85 43 79 44
REMARK SMILES IDX 78 45 31 47 65 48 44 49 64 50 45 51 48 52 63 53 83 54 46 55
REMARK SMILES IDX 47 56 62 58 84 59 49 60 32 61 33 62 42 63 34 64 35 65 41 66
REMARK SMILES IDX 43 67 36 68 37 69 38 70 39 71 40 72 66 73 67 74 76 75 68 76
REMARK SMILES IDX 69 77 75 78 77 79 70 80 71 81 72 82 73 83 74 84 50 85 51 86
REMARK SMILES IDX 60 87 52 88 53 89 59 90 61 91 54 92 55 93 56 94 57 95 58 96
REMARK H PARENT 16 6 20 27 82 46 48 57
REMARK Flexibility Score: inf
ROOT
ATOM      1  C   UNL A   1      38.304  23.664  26.358  1.00  0.00     0.042 C 
ENDROOT
BRANCH   1   2
ATOM      2  C   UNL A   1      37.647  22.424  25.756  1.00  0.00     0.118 C 
BRANCH   2   3
ATOM      3  N   UNL A   1      37.426  22.601  24.336  1.00  0.00    -0.352 N 
ATOM      4  C   UNL A   1      36.333  22.963  23.599  1.00  0.00     0.251 C 
ATOM      5  O   UNL A   1      36.468  22.934  22.373  1.00  0.00    -0.269 OA
ATOM      6  H   UNL A   1      38.226  22.426  23.790  1.00  0.00     0.163 HD
BRANCH   4   7
ATOM      7  C   UNL A   1      35.049  23.458  24.178  1.00  0.00     0.039 A 
ATOM      8  C   UNL A   1      32.824  24.430  25.671  1.00  0.00    -0.011 A 
ATOM      9  C   UNL A   1      34.057  25.082  25.697  1.00  0.00     0.008 A 
ATOM     10  C   UNL A   1      32.696  23.343  24.794  1.00  0.00     0.008 A 
ATOM     11  C   UNL A   1      35.151  24.603  24.972  1.00  0.00     0.014 A 
ATOM     12  C   UNL A   1      33.787  22.879  24.043  1.00  0.00     0.014 A 
BRANCH   8  13
ATOM     13  C   UNL A   1      31.706  24.706  26.669  1.00  0.00     0.265 C 
BRANCH  13  14
ATOM     14  O   UNL A   1      30.633  25.593  26.353  1.00  0.00    -0.488 OA
BRANCH  14  15
ATOM     15  C   UNL A   1      30.867  26.821  25.800  1.00  0.00     0.125 A 
ATOM     16  C   UNL A   1      30.346  28.252  22.275  1.00  0.00     0.045 C 
ATOM     17  C   UNL A   1      30.736  28.097  23.718  1.00  0.00    -0.044 A 
ATOM     18  C   UNL A   1      31.413  29.144  24.353  1.00  0.00     0.004 A 
ATOM     19  C   UNL A   1      30.434  26.933  24.454  1.00  0.00    -0.006 A 
ATOM     20  C   UNL A   1      31.752  29.061  25.703  1.00  0.00     0.007 A 
ATOM     21  C   UNL A   1      29.701  25.770  23.829  1.00  0.00     0.049 C 
ATOM     22  C   UNL A   1      31.453  27.917  26.459  1.00  0.00    -0.009 A 
ATOM     23  C   UNL A   1      31.831  27.926  27.911  1.00  0.00     0.048 C 
ENDBRANCH  14  15
ENDBRANCH  13  14
ENDBRANCH   8  13
ENDBRANCH   4   7
ENDBRANCH   2   3
ENDBRANCH   1   2
BRANCH   1  24
ATOM     24  C   UNL A   1      39.669  23.370  26.976  1.00  0.00     0.118 C 
BRANCH  24  25
ATOM     25  N   UNL A   1      40.752  23.870  26.143  1.00  0.00    -0.352 N 
ATOM     26  C   UNL A   1      41.351  25.100  26.144  1.00  0.00     0.251 C 
ATOM     27  H   UNL A   1      41.103  23.231  25.481  1.00  0.00     0.163 HD
ATOM     28  O   UNL A   1      42.041  25.434  25.178  1.00  0.00    -0.269 OA
BRANCH  26  29
ATOM     29  C   UNL A   1      41.183  26.018  27.289  1.00  0.00     0.039 A 
ATOM     30  C   UNL A   1      40.201  25.736  28.241  1.00  0.00     0.014 A 
ATOM     31  C   UNL A   1      41.945  27.187  27.392  1.00  0.00     0.014 A 
ATOM     32  C   UNL A   1      40.002  26.610  29.310  1.00  0.00     0.010 A 
ATOM     33  C   UNL A   1      41.795  28.021  28.495  1.00  0.00     0.010 A 
ATOM     34  C   UNL A   1      40.808  27.752  29.453  1.00  0.00    -0.014 A 
BRANCH  34  35
ATOM     35  C   UNL A   1      40.611  28.685  30.588  1.00  0.00     0.031 A 
ATOM     36  C   UNL A   1      41.486  28.589  31.807  1.00  0.00     0.074 A 
ATOM     37  C   UNL A   1      39.618  29.592  30.532  1.00  0.00     0.049 A 
ATOM     38  N   UNL A   1      41.468  29.314  32.896  1.00  0.00    -0.248 NA
ATOM     39  C   UNL A   1      42.498  27.522  31.813  1.00  0.00     0.031 C 
ATOM     40  C   UNL A   1      38.677  29.746  29.421  1.00  0.00     0.029 A 
ATOM     41  N   UNL A   1      39.238  30.558  31.428  1.00  0.00    -0.354 N 
ATOM     42  C   UNL A   1      42.454  28.783  33.720  1.00  0.00     0.074 A 
ATOM     43  C   UNL A   1      43.011  27.641  33.028  1.00  0.00     0.031 C 
ATOM     44  C   UNL A   1      37.854  30.774  29.683  1.00  0.00     0.029 A 
ATOM     45  C   UNL A   1      38.192  31.333  30.988  1.00  0.00     0.049 A 
ATOM     46  H   UNL A   1      39.674  30.686  32.302  1.00  0.00     0.167 HD
ATOM     47  C   UNL A   1      42.872  29.220  34.934  1.00  0.00     0.037 A 
ATOM     48  C   UNL A   1      37.583  32.384  31.569  1.00  0.00     0.037 A 
ATOM     49  C   UNL A   1      42.322  30.367  35.607  1.00  0.00     0.049 A 
ATOM     50  C   UNL A   1      38.067  32.859  32.909  1.00  0.00     0.074 A 
ATOM     51  C   UNL A   1      42.707  30.932  36.810  1.00  0.00     0.029 A 
ATOM     52  N   UNL A   1      41.259  31.126  35.133  1.00  0.00    -0.354 N 
ATOM     53  N   UNL A   1      39.041  32.384  33.650  1.00  0.00    -0.248 NA
ATOM     54  C   UNL A   1      37.375  34.017  33.488  1.00  0.00     0.031 C 
ATOM     55  C   UNL A   1      41.855  32.010  37.080  1.00  0.00     0.029 A 
ATOM     56  C   UNL A   1      40.963  32.141  36.027  1.00  0.00     0.049 A 
ATOM     57  H   UNL A   1      40.786  30.965  34.285  1.00  0.00     0.167 HD
ATOM     58  C   UNL A   1      39.092  33.197  34.776  1.00  0.00     0.074 A 
ATOM     59  C   UNL A   1      38.059  34.201  34.610  1.00  0.00     0.031 C 
ATOM     60  C   UNL A   1      39.920  33.123  35.848  1.00  0.00     0.037 A 
BRANCH  47  61
ATOM     61  C   UNL A   1      43.972  28.438  35.599  1.00  0.00     0.058 A 
ATOM     62  C   UNL A   1      43.696  27.410  36.517  1.00  0.00     0.135 A 
ATOM     63  C   UNL A   1      45.319  28.737  35.343  1.00  0.00     0.135 A 
ATOM     64  F   UNL A   1      42.425  27.090  36.810  1.00  0.00    -0.206 F 
ATOM     65  C   UNL A   1      44.712  26.748  37.199  1.00  0.00     0.059 A 
ATOM     66  C   UNL A   1      46.354  28.069  35.993  1.00  0.00     0.059 A 
ATOM     67  F   UNL A   1      45.643  29.705  34.472  1.00  0.00    -0.206 F 
ATOM     68  C   UNL A   1      46.038  27.096  36.940  1.00  0.00     0.060 A 
BRANCH  68  69
ATOM     69  S   UNL A   1      47.348  26.270  37.870  1.00  0.00     0.124 S 
ATOM     70  O   UNL A   1      46.889  24.885  37.846  1.00  0.00    -0.237 OA
ATOM     71  O   UNL A   1      48.534  26.557  37.067  1.00  0.00    -0.237 OA
ATOM     72  O   UNL A   1      47.303  26.925  39.172  1.00  0.00    -0.744 OA
ENDBRANCH  68  69
ENDBRANCH  47  61
BRANCH  48  73
ATOM     73  C   UNL A   1      36.496  33.090  30.844  1.00  0.00     0.058 A 
ATOM     74  C   UNL A   1      35.162  32.952  31.256  1.00  0.00     0.135 A 
ATOM     75  C   UNL A   1      36.768  33.959  29.778  1.00  0.00     0.135 A 
ATOM     76  F   UNL A   1      34.854  32.129  32.269  1.00  0.00    -0.206 F 
ATOM     77  C   UNL A   1      34.134  33.654  30.636  1.00  0.00     0.059 A 
ATOM     78  C   UNL A   1      35.759  34.688  29.156  1.00  0.00     0.059 A 
ATOM     79  F   UNL A   1      38.031  34.137  29.361  1.00  0.00    -0.206 F 
ATOM     80  C   UNL A   1      34.444  34.528  29.593  1.00  0.00     0.060 A 
BRANCH  80  81
ATOM     81  S   UNL A   1      33.113  35.504  28.858  1.00  0.00     0.124 S 
ATOM     82  O   UNL A   1      33.861  36.481  28.075  1.00  0.00    -0.237 OA
ATOM     83  O   UNL A   1      32.382  34.498  28.094  1.00  0.00    -0.237 OA
ATOM     84  O   UNL A   1      32.406  36.033  30.020  1.00  0.00    -0.744 OA
ENDBRANCH  80  81
ENDBRANCH  48  73
BRANCH  60  85
ATOM     85  C   UNL A   1      39.744  34.166  36.915  1.00  0.00     0.058 A 
ATOM     86  C   UNL A   1      40.353  35.427  36.818  1.00  0.00     0.135 A 
ATOM     87  C   UNL A   1      38.947  33.906  38.041  1.00  0.00     0.135 A 
ATOM     88  F   UNL A   1      41.132  35.722  35.764  1.00  0.00    -0.206 F 
ATOM     89  C   UNL A   1      40.206  36.383  37.817  1.00  0.00     0.059 A 
ATOM     90  C   UNL A   1      38.766  34.856  39.041  1.00  0.00     0.059 A 
ATOM     91  F   UNL A   1      38.334  32.719  38.177  1.00  0.00    -0.206 F 
ATOM     92  C   UNL A   1      39.414  36.085  38.929  1.00  0.00     0.060 A 
BRANCH  92  93
ATOM     93  S   UNL A   1      39.224  37.335  40.218  1.00  0.00     0.124 S 
ATOM     94  O   UNL A   1      38.634  36.551  41.299  1.00  0.00    -0.237 OA
ATOM     95  O   UNL A   1      40.598  37.778  40.434  1.00  0.00    -0.237 OA
ATOM     96  O   UNL A   1      38.342  38.322  39.603  1.00  0.00    -0.744 OA
ENDBRANCH  92  93
ENDBRANCH  60  85
ENDBRANCH  34  35
ENDBRANCH  26  29
ENDBRANCH  24  25
ENDBRANCH   1  24
TORSDOF 16
ENDMDL
MODEL 2
REMARK VINA RESULT:     -12.6      6.469     12.093
REMARK SMILES Cc1ccc(C)c(OCc2ccc(C(=O)NCCCNC(=O)c3ccc(-c4c5nc(c(-c6c(F)cc(S(=O)(=O)[O-])cc6F)c6ccc([nH]6)c(-c6c(F)cc(S(=O)(=O)[O-])cc6F)c6nc(c(-c7c(F)cc(S(=O)(=O)[O-])cc7F)c7ccc4[nH]7)C=C6)C=C5)cc3)cc2)c1C
REMARK SMILES IDX 18 1 17 2 16 3 14 4 15 5 13 7 10 8 11 9 90 10 12 11 89 12
REMARK SMILES IDX 9 13 8 14 7 15 1 16 2 17 3 18 91 19 4 20 92 21 5 22 6 23
REMARK SMILES IDX 19 24 20 25 21 26 22 28 23 29 24 30 88 31 25 32 87 33 26 34
REMARK SMILES IDX 27 35 28 36 81 37 29 38 86 39 80 40 82 41 30 42 85 43 79 44
REMARK SMILES IDX 78 45 31 47 65 48 44 49 64 50 45 51 48 52 63 53 83 54 46 55
REMARK SMILES IDX 47 56 62 58 84 59 49 60 32 61 33 62 42 63 34 64 35 65 41 66
REMARK SMILES IDX 43 67 36 68 37 69 38 70 39 71 40 72 66 73 67 74 76 75 68 76
REMARK SMILES IDX 69 77 75 78 77 79 70 80 71 81 72 82 73 83 74 84 50 85 51 86
REMARK SMILES IDX 60 87 52 88 53 89 59 90 61 91 54 92 55 93 56 94 57 95 58 96
REMARK H PARENT 16 6 20 27 82 46 48 57
REMARK Flexibility Score: inf
ROOT
ATOM      1  C   UNL A   1      34.964  29.843  27.480  1.00  0.00     0.042 C 
ENDROOT
BRANCH   1   2
ATOM      2  C   UNL A   1      33.584  30.170  26.914  1.00  0.00     0.118 C 
BRANCH   2   3
ATOM      3  N   UNL A   1      32.560  29.393  27.581  1.00  0.00    -0.352 N 
ATOM      4  C   UNL A   1      31.899  28.242  27.253  1.00  0.00     0.251 C 
ATOM      5  O   UNL A   1      31.004  27.889  28.025  1.00  0.00    -0.269 OA
ATOM      6  H   UNL A   1      32.285  29.770  28.448  1.00  0.00     0.163 HD
BRANCH   4   7
ATOM      7  C   UNL A   1      32.246  27.370  26.092  1.00  0.00     0.039 A 
ATOM      8  C   UNL A   1      33.333  25.820  23.961  1.00  0.00    -0.011 A 
ATOM      9  C   UNL A   1      33.821  25.709  25.264  1.00  0.00     0.008 A 
ATOM     10  C   UNL A   1      32.213  26.642  23.769  1.00  0.00     0.008 A 
ATOM     11  C   UNL A   1      33.295  26.473  26.308  1.00  0.00     0.014 A 
ATOM     12  C   UNL A   1      31.665  27.388  24.824  1.00  0.00     0.014 A 
BRANCH   8  13
ATOM     13  C   UNL A   1      34.059  25.268  22.741  1.00  0.00     0.265 C 
BRANCH  13  14
ATOM     14  O   UNL A   1      33.928  23.899  22.357  1.00  0.00    -0.488 OA
BRANCH  14  15
ATOM     15  C   UNL A   1      34.261  22.887  23.213  1.00  0.00     0.125 A 
ATOM     16  C   UNL A   1      32.188  20.262  25.101  1.00  0.00     0.045 C 
ATOM     17  C   UNL A   1      33.331  21.100  24.601  1.00  0.00    -0.044 A 
ATOM     18  C   UNL A   1      34.609  20.885  25.127  1.00  0.00     0.004 A 
ATOM     19  C   UNL A   1      33.157  22.092  23.615  1.00  0.00    -0.006 A 
ATOM     20  C   UNL A   1      35.706  21.608  24.659  1.00  0.00     0.007 A 
ATOM     21  C   UNL A   1      31.804  22.371  23.003  1.00  0.00     0.049 C 
ATOM     22  C   UNL A   1      35.559  22.594  23.671  1.00  0.00    -0.009 A 
ATOM     23  C   UNL A   1      36.797  23.304  23.208  1.00  0.00     0.048 C 
ENDBRANCH  14  15
ENDBRANCH  13  14
ENDBRANCH   8  13
ENDBRANCH   4   7
ENDBRANCH   2   3
ENDBRANCH   1   2
BRANCH   1  24
ATOM     24  C   UNL A   1      35.627  31.041  28.156  1.00  0.00     0.118 C 
BRANCH  24  25
ATOM     25  N   UNL A   1      35.582  30.929  29.606  1.00  0.00    -0.352 N 
ATOM     26  C   UNL A   1      36.438  30.279  30.453  1.00  0.00     0.251 C 
ATOM     27  H   UNL A   1      34.826  31.387  30.040  1.00  0.00     0.163 HD
ATOM     28  O   UNL A   1      36.078  30.047  31.610  1.00  0.00    -0.269 OA
BRANCH  26  29
ATOM     29  C   UNL A   1      37.778  29.862  29.995  1.00  0.00     0.039 A 
ATOM     30  C   UNL A   1      38.672  29.324  30.923  1.00  0.00     0.014 A 
ATOM     31  C   UNL A   1      38.178  30.058  28.668  1.00  0.00     0.014 A 
ATOM     32  C   UNL A   1      39.956  28.958  30.516  1.00  0.00     0.010 A 
ATOM     33  C   UNL A   1      39.432  29.628  28.248  1.00  0.00     0.010 A 
ATOM     34  C   UNL A   1      40.340  29.094  29.172  1.00  0.00    -0.014 A 
BRANCH  34  35
ATOM     35  C   UNL A   1      41.699  28.702  28.727  1.00  0.00     0.031 A 
ATOM     36  C   UNL A   1      42.815  29.711  28.725  1.00  0.00     0.074 A 
ATOM     37  C   UNL A   1      41.915  27.447  28.291  1.00  0.00     0.049 A 
ATOM     38  N   UNL A   1      44.066  29.558  28.374  1.00  0.00    -0.248 NA
ATOM     39  C   UNL A   1      42.473  31.077  29.149  1.00  0.00     0.031 C 
ATOM     40  C   UNL A   1      40.898  26.398  28.204  1.00  0.00     0.029 A 
ATOM     41  N   UNL A   1      43.060  26.841  27.843  1.00  0.00    -0.354 N 
ATOM     42  C   UNL A   1      44.655  30.808  28.521  1.00  0.00     0.074 A 
ATOM     43  C   UNL A   1      43.612  31.719  28.939  1.00  0.00     0.031 C 
ATOM     44  C   UNL A   1      41.473  25.265  27.771  1.00  0.00     0.029 A 
ATOM     45  C   UNL A   1      42.890  25.515  27.525  1.00  0.00     0.049 A 
ATOM     46  H   UNL A   1      43.921  27.310  27.758  1.00  0.00     0.167 HD
ATOM     47  C   UNL A   1      45.953  31.161  28.346  1.00  0.00     0.037 A 
ATOM     48  C   UNL A   1      43.781  24.602  27.096  1.00  0.00     0.037 A 
ATOM     49  C   UNL A   1      46.987  30.243  27.946  1.00  0.00     0.049 A 
ATOM     50  C   UNL A   1      45.215  25.010  26.917  1.00  0.00     0.074 A 
ATOM     51  C   UNL A   1      48.341  30.479  27.793  1.00  0.00     0.029 A 
ATOM     52  N   UNL A   1      46.777  28.908  27.628  1.00  0.00    -0.354 N 
ATOM     53  N   UNL A   1      45.771  26.182  27.119  1.00  0.00    -0.248 NA
ATOM     54  C   UNL A   1      46.145  23.969  26.460  1.00  0.00     0.031 C 
ATOM     55  C   UNL A   1      48.945  29.295  27.350  1.00  0.00     0.029 A 
ATOM     56  C   UNL A   1      47.972  28.311  27.263  1.00  0.00     0.049 A 
ATOM     57  H   UNL A   1      45.905  28.451  27.659  1.00  0.00     0.167 HD
ATOM     58  C   UNL A   1      47.121  26.016  26.832  1.00  0.00     0.074 A 
ATOM     59  C   UNL A   1      47.298  24.627  26.455  1.00  0.00     0.031 C 
ATOM     60  C   UNL A   1      48.123  26.928  26.878  1.00  0.00     0.037 A 
BRANCH  47  61
ATOM     61  C   UNL A   1      46.306  32.605  28.583  1.00  0.00     0.058 A 
ATOM     62  C   UNL A   1      46.675  33.075  29.854  1.00  0.00     0.135 A 
ATOM     63  C   UNL A   1      46.244  33.538  27.536  1.00  0.00     0.135 A 
ATOM     64  F   UNL A   1      46.737  32.229  30.895  1.00  0.00    -0.206 F 
ATOM     65  C   UNL A   1      46.913  34.425  30.093  1.00  0.00     0.059 A 
ATOM     66  C   UNL A   1      46.505  34.890  27.744  1.00  0.00     0.059 A 
ATOM     67  F   UNL A   1      45.903  33.145  26.299  1.00  0.00    -0.206 F 
ATOM     68  C   UNL A   1      46.811  35.327  29.033  1.00  0.00     0.060 A 
BRANCH  68  69
ATOM     69  S   UNL A   1      47.069  37.084  29.362  1.00  0.00     0.124 S 
ATOM     70  O   UNL A   1      48.492  37.226  29.072  1.00  0.00    -0.237 OA
ATOM     71  O   UNL A   1      46.163  37.720  28.410  1.00  0.00    -0.237 OA
ATOM     72  O   UNL A   1      46.696  37.223  30.765  1.00  0.00    -0.744 OA
ENDBRANCH  68  69
ENDBRANCH  47  61
BRANCH  48  73
ATOM     73  C   UNL A   1      43.342  23.200  26.875  1.00  0.00     0.058 A 
ATOM     74  C   UNL A   1      43.228  22.688  25.574  1.00  0.00     0.135 A 
ATOM     75  C   UNL A   1      43.092  22.332  27.948  1.00  0.00     0.135 A 
ATOM     76  F   UNL A   1      43.454  23.484  24.518  1.00  0.00    -0.206 F 
ATOM     77  C   UNL A   1      42.883  21.361  25.343  1.00  0.00     0.059 A 
ATOM     78  C   UNL A   1      42.766  20.994  27.742  1.00  0.00     0.059 A 
ATOM     79  F   UNL A   1      43.206  22.772  29.210  1.00  0.00    -0.206 F 
ATOM     80  C   UNL A   1      42.664  20.519  26.435  1.00  0.00     0.060 A 
BRANCH  80  81
ATOM     81  S   UNL A   1      42.308  18.775  26.123  1.00  0.00     0.124 S 
ATOM     82  O   UNL A   1      40.906  18.827  25.726  1.00  0.00    -0.237 OA
ATOM     83  O   UNL A   1      43.261  18.453  25.066  1.00  0.00    -0.237 OA
ATOM     84  O   UNL A   1      42.577  18.144  27.411  1.00  0.00    -0.744 OA
ENDBRANCH  80  81
ENDBRANCH  48  73
BRANCH  60  85
ATOM     85  C   UNL A   1      49.501  26.443  26.523  1.00  0.00     0.058 A 
ATOM     86  C   UNL A   1      49.970  26.466  25.201  1.00  0.00     0.135 A 
ATOM     87  C   UNL A   1      50.364  25.961  27.520  1.00  0.00     0.135 A 
ATOM     88  F   UNL A   1      49.179  26.909  24.210  1.00  0.00    -0.206 F 
ATOM     89  C   UNL A   1      51.237  25.996  24.873  1.00  0.00     0.059 A 
ATOM     90  C   UNL A   1      51.645  25.509  27.218  1.00  0.00     0.059 A 
ATOM     91  F   UNL A   1      49.967  25.927  28.802  1.00  0.00    -0.206 F 
ATOM     92  C   UNL A   1      52.066  25.514  25.888  1.00  0.00     0.060 A 
BRANCH  92  93
ATOM     93  S   UNL A   1      53.711  24.911  25.454  1.00  0.00     0.124 S 
ATOM     94  O   UNL A   1      53.419  23.545  25.030  1.00  0.00    -0.237 OA
ATOM     95  O   UNL A   1      54.116  25.831  24.396  1.00  0.00    -0.237 OA
ATOM     96  O   UNL A   1      54.457  25.036  26.703  1.00  0.00    -0.744 OA
ENDBRANCH  92  93
ENDBRANCH  60  85
ENDBRANCH  34  35
ENDBRANCH  26  29
ENDBRANCH  24  25
ENDBRANCH   1  24
TORSDOF 16
ENDMDL
MODEL 3
REMARK VINA RESULT:     -12.6      1.220      1.970
REMARK SMILES Cc1ccc(C)c(OCc2ccc(C(=O)NCCCNC(=O)c3ccc(-c4c5nc(c(-c6c(F)cc(S(=O)(=O)[O-])cc6F)c6ccc([nH]6)c(-c6c(F)cc(S(=O)(=O)[O-])cc6F)c6nc(c(-c7c(F)cc(S(=O)(=O)[O-])cc7F)c7ccc4[nH]7)C=C6)C=C5)cc3)cc2)c1C
REMARK SMILES IDX 18 1 17 2 16 3 14 4 15 5 13 7 10 8 11 9 90 10 12 11 89 12
REMARK SMILES IDX 9 13 8 14 7 15 1 16 2 17 3 18 91 19 4 20 92 21 5 22 6 23
REMARK SMILES IDX 19 24 20 25 21 26 22 28 23 29 24 30 88 31 25 32 87 33 26 34
REMARK SMILES IDX 27 35 28 36 81 37 29 38 86 39 80 40 82 41 30 42 85 43 79 44
REMARK SMILES IDX 78 45 31 47 65 48 44 49 64 50 45 51 48 52 63 53 83 54 46 55
REMARK SMILES IDX 47 56 62 58 84 59 49 60 32 61 33 62 42 63 34 64 35 65 41 66
REMARK SMILES IDX 43 67 36 68 37 69 38 70 39 71 40 72 66 73 67 74 76 75 68 76
REMARK SMILES IDX 69 77 75 78 77 79 70 80 71 81 72 82 73 83 74 84 50 85 51 86
REMARK SMILES IDX 60 87 52 88 53 89 59 90 61 91 54 92 55 93 56 94 57 95 58 96
REMARK H PARENT 16 6 20 27 82 46 48 57
REMARK Flexibility Score: inf
ROOT
ATOM      1  C   UNL A   1      40.086  22.229  27.530  1.00  0.00     0.042 C 
ENDROOT
BRANCH   1   2
ATOM      2  C   UNL A   1      39.280  22.431  26.250  1.00  0.00     0.118 C 
BRANCH   2   3
ATOM      3  N   UNL A   1      38.982  21.159  25.626  1.00  0.00    -0.352 N 
ATOM      4  C   UNL A   1      37.899  20.686  24.938  1.00  0.00     0.251 C 
ATOM      5  O   UNL A   1      37.939  19.498  24.608  1.00  0.00    -0.269 OA
ATOM      6  H   UNL A   1      39.708  20.500  25.715  1.00  0.00     0.163 HD
BRANCH   4   7
ATOM      7  C   UNL A   1      36.743  21.524  24.503  1.00  0.00     0.039 A 
ATOM      8  C   UNL A   1      34.332  22.735  23.583  1.00  0.00    -0.011 A 
ATOM      9  C   UNL A   1      34.318  21.731  24.552  1.00  0.00     0.008 A 
ATOM     10  C   UNL A   1      35.589  23.198  23.164  1.00  0.00     0.008 A 
ATOM     11  C   UNL A   1      35.497  21.131  24.999  1.00  0.00     0.014 A 
ATOM     12  C   UNL A   1      36.775  22.616  23.636  1.00  0.00     0.014 A 
BRANCH   8  13
ATOM     13  C   UNL A   1      33.090  23.197  22.831  1.00  0.00     0.265 C 
BRANCH  13  14
ATOM     14  O   UNL A   1      32.216  24.183  23.379  1.00  0.00    -0.488 OA
BRANCH  14  15
ATOM     15  C   UNL A   1      32.700  25.247  24.086  1.00  0.00     0.125 A 
ATOM     16  C   UNL A   1      34.108  28.665  23.045  1.00  0.00     0.045 C 
ATOM     17  C   UNL A   1      33.680  27.477  23.860  1.00  0.00    -0.044 A 
ATOM     18  C   UNL A   1      33.918  27.479  25.238  1.00  0.00     0.004 A 
ATOM     19  C   UNL A   1      33.041  26.363  23.279  1.00  0.00    -0.006 A 
ATOM     20  C   UNL A   1      33.496  26.418  26.038  1.00  0.00     0.007 A 
ATOM     21  C   UNL A   1      32.751  26.299  21.798  1.00  0.00     0.049 C 
ATOM     22  C   UNL A   1      32.849  25.302  25.484  1.00  0.00    -0.009 A 
ATOM     23  C   UNL A   1      32.405  24.219  26.424  1.00  0.00     0.048 C 
ENDBRANCH  14  15
ENDBRANCH  13  14
ENDBRANCH   8  13
ENDBRANCH   4   7
ENDBRANCH   2   3
ENDBRANCH   1   2
BRANCH   1  24
ATOM     24  C   UNL A   1      41.308  23.141  27.612  1.00  0.00     0.118 C 
BRANCH  24  25
ATOM     25  N   UNL A   1      41.476  23.920  26.395  1.00  0.00    -0.352 N 
ATOM     26  C   UNL A   1      41.202  25.241  26.166  1.00  0.00     0.251 C 
ATOM     27  H   UNL A   1      41.839  23.425  25.625  1.00  0.00     0.163 HD
ATOM     28  O   UNL A   1      41.130  25.647  25.003  1.00  0.00    -0.269 OA
BRANCH  26  29
ATOM     29  C   UNL A   1      40.998  26.174  27.292  1.00  0.00     0.039 A 
ATOM     30  C   UNL A   1      41.888  27.238  27.457  1.00  0.00     0.014 A 
ATOM     31  C   UNL A   1      39.972  25.966  28.221  1.00  0.00     0.014 A 
ATOM     32  C   UNL A   1      41.732  28.109  28.536  1.00  0.00     0.010 A 
ATOM     33  C   UNL A   1      39.776  26.875  29.256  1.00  0.00     0.010 A 
ATOM     34  C   UNL A   1      40.667  27.942  29.435  1.00  0.00    -0.014 A 
BRANCH  34  35
ATOM     35  C   UNL A   1      40.488  28.865  30.582  1.00  0.00     0.031 A 
ATOM     36  C   UNL A   1      41.375  28.751  31.791  1.00  0.00     0.074 A 
ATOM     37  C   UNL A   1      39.501  29.780  30.545  1.00  0.00     0.049 A 
ATOM     38  N   UNL A   1      41.375  29.465  32.887  1.00  0.00    -0.248 NA
ATOM     39  C   UNL A   1      42.380  27.676  31.775  1.00  0.00     0.031 C 
ATOM     40  C   UNL A   1      38.550  29.951  29.446  1.00  0.00     0.029 A 
ATOM     41  N   UNL A   1      39.138  30.740  31.454  1.00  0.00    -0.354 N 
ATOM     42  C   UNL A   1      42.365  28.919  33.695  1.00  0.00     0.074 A 
ATOM     43  C   UNL A   1      42.906  27.779  32.986  1.00  0.00     0.031 C 
ATOM     44  C   UNL A   1      37.737  30.982  29.727  1.00  0.00     0.029 A 
ATOM     45  C   UNL A   1      38.092  31.526  31.034  1.00  0.00     0.049 A 
ATOM     46  H   UNL A   1      39.584  30.855  32.325  1.00  0.00     0.167 HD
ATOM     47  C   UNL A   1      42.799  29.341  34.908  1.00  0.00     0.037 A 
ATOM     48  C   UNL A   1      37.498  32.575  31.631  1.00  0.00     0.037 A 
ATOM     49  C   UNL A   1      42.265  30.485  35.598  1.00  0.00     0.049 A 
ATOM     50  C   UNL A   1      38.000  33.034  32.971  1.00  0.00     0.074 A 
ATOM     51  C   UNL A   1      42.666  31.035  36.802  1.00  0.00     0.029 A 
ATOM     52  N   UNL A   1      41.202  31.256  35.143  1.00  0.00    -0.354 N 
ATOM     53  N   UNL A   1      38.978  32.545  33.697  1.00  0.00    -0.248 NA
ATOM     54  C   UNL A   1      37.322  34.191  33.568  1.00  0.00     0.031 C 
ATOM     55  C   UNL A   1      41.825  32.117  37.092  1.00  0.00     0.029 A 
ATOM     56  C   UNL A   1      40.923  32.265  36.050  1.00  0.00     0.049 A 
ATOM     57  H   UNL A   1      40.719  31.107  34.299  1.00  0.00     0.167 HD
ATOM     58  C   UNL A   1      39.047  33.346  34.829  1.00  0.00     0.074 A 
ATOM     59  C   UNL A   1      38.019  34.359  34.685  1.00  0.00     0.031 C 
ATOM     60  C   UNL A   1      39.885  33.256  35.892  1.00  0.00     0.037 A 
BRANCH  47  61
ATOM     61  C   UNL A   1      43.900  28.544  35.554  1.00  0.00     0.058 A 
ATOM     62  C   UNL A   1      43.626  27.501  36.455  1.00  0.00     0.135 A 
ATOM     63  C   UNL A   1      45.247  28.845  35.296  1.00  0.00     0.135 A 
ATOM     64  F   UNL A   1      42.356  27.179  36.748  1.00  0.00    -0.206 F 
ATOM     65  C   UNL A   1      44.644  26.825  37.120  1.00  0.00     0.059 A 
ATOM     66  C   UNL A   1      46.284  28.163  35.929  1.00  0.00     0.059 A 
ATOM     67  F   UNL A   1      45.569  29.827  34.441  1.00  0.00    -0.206 F 
ATOM     68  C   UNL A   1      45.969  27.174  36.861  1.00  0.00     0.060 A 
BRANCH  68  69
ATOM     69  S   UNL A   1      47.282  26.329  37.769  1.00  0.00     0.124 S 
ATOM     70  O   UNL A   1      46.872  24.934  37.638  1.00  0.00    -0.237 OA
ATOM     71  O   UNL A   1      48.478  26.709  37.023  1.00  0.00    -0.237 OA
ATOM     72  O   UNL A   1      47.180  26.890  39.111  1.00  0.00    -0.744 OA
ENDBRANCH  68  69
ENDBRANCH  47  61
BRANCH  48  73
ATOM     73  C   UNL A   1      36.408  33.297  30.925  1.00  0.00     0.058 A 
ATOM     74  C   UNL A   1      35.080  33.183  31.364  1.00  0.00     0.135 A 
ATOM     75  C   UNL A   1      36.673  34.156  29.850  1.00  0.00     0.135 A 
ATOM     76  F   UNL A   1      34.779  32.369  32.387  1.00  0.00    -0.206 F 
ATOM     77  C   UNL A   1      34.052  33.899  30.762  1.00  0.00     0.059 A 
ATOM     78  C   UNL A   1      35.664  34.899  29.244  1.00  0.00     0.059 A 
ATOM     79  F   UNL A   1      37.931  34.312  29.407  1.00  0.00    -0.206 F 
ATOM     80  C   UNL A   1      34.356  34.763  29.708  1.00  0.00     0.060 A 
BRANCH  80  81
ATOM     81  S   UNL A   1      33.026  35.758  28.996  1.00  0.00     0.124 S 
ATOM     82  O   UNL A   1      33.776  36.812  28.322  1.00  0.00    -0.237 OA
ATOM     83  O   UNL A   1      32.355  34.795  28.128  1.00  0.00    -0.237 OA
ATOM     84  O   UNL A   1      32.259  36.176  30.165  1.00  0.00    -0.744 OA
ENDBRANCH  80  81
ENDBRANCH  48  73
BRANCH  60  85
ATOM     85  C   UNL A   1      39.728  34.290  36.971  1.00  0.00     0.058 A 
ATOM     86  C   UNL A   1      38.980  34.035  38.131  1.00  0.00     0.135 A 
ATOM     87  C   UNL A   1      40.345  35.545  36.849  1.00  0.00     0.135 A 
ATOM     88  F   UNL A   1      38.364  32.852  38.291  1.00  0.00    -0.206 F 
ATOM     89  C   UNL A   1      38.819  35.001  39.118  1.00  0.00     0.059 A 
ATOM     90  C   UNL A   1      40.218  36.518  37.836  1.00  0.00     0.059 A 
ATOM     91  F   UNL A   1      41.081  35.835  35.764  1.00  0.00    -0.206 F 
ATOM     92  C   UNL A   1      39.438  36.242  38.958  1.00  0.00     0.060 A 
BRANCH  92  93
ATOM     93  S   UNL A   1      39.229  37.489  40.248  1.00  0.00     0.124 S 
ATOM     94  O   UNL A   1      40.583  38.021  40.362  1.00  0.00    -0.237 OA
ATOM     95  O   UNL A   1      38.242  38.389  39.660  1.00  0.00    -0.237 OA
ATOM     96  O   UNL A   1      38.758  36.714  41.392  1.00  0.00    -0.744 OA
ENDBRANCH  92  93
ENDBRANCH  60  85
ENDBRANCH  34  35
ENDBRANCH  26  29
ENDBRANCH  24  25
ENDBRANCH   1  24
TORSDOF 16
ENDMDL
