MODEL 1
REMARK VINA RESULT:     -13.2      0.000      0.000
REMARK SMILES NS(=O)(=O)c1ccc(-n2nc(C(=O)NCCCNC(=O)c3ccc(-c4c5nc(c(-c6c(F)cc(S(=O)(=O)[O-])cc6F)c6ccc([nH]6)c(-c6c(F)cc(S(=O)(=O)[O-])cc6F)c6nc(c(-c7c(F)cc(S(=O)(=O)[O-])cc7F)c7ccc4[nH]7)C=C6)C=C5)cc3)cc2-c2cc3ccccc3s2)cc1
REMARK SMILES IDX 16 1 15 2 14 3 12 4 13 5 11 7 9 8 10 9 88 10 87 11 8 12 5 13
REMARK SMILES IDX 6 14 99 15 7 16 98 17 2 18 3 19 4 20 1 21 89 24 90 25 97 26
REMARK SMILES IDX 91 27 96 28 92 29 95 30 93 31 94 32 17 33 18 34 19 35 20 37
REMARK SMILES IDX 21 38 22 39 86 40 23 41 85 42 24 43 25 44 26 45 79 46 27 47
REMARK SMILES IDX 84 48 78 49 80 50 28 51 83 52 77 53 76 54 29 56 63 57 42 58
REMARK SMILES IDX 62 59 43 60 46 61 61 62 81 63 44 64 45 65 60 67 82 68 47 69
REMARK SMILES IDX 30 70 31 71 40 72 32 73 33 74 39 75 41 76 34 77 35 78 36 79
REMARK SMILES IDX 37 80 38 81 64 82 65 83 74 84 66 85 67 86 73 87 75 88 68 89
REMARK SMILES IDX 69 90 70 91 71 92 72 93 48 94 49 95 58 96 50 97 51 98 57 99
REMARK SMILES IDX 59 100 52 101 53 102 54 103 55 104 56 105
REMARK H PARENT 14 6 1 22 1 23 18 36 80 55 46 66
REMARK Flexibility Score: inf
ROOT
ATOM      1  C   UNL A   1      41.025  19.292  26.015  1.00  0.00     0.042 C 
ENDROOT
BRANCH   1   2
ATOM      2  C   UNL A   1      39.815  20.194  25.742  1.00  0.00     0.118 C 
BRANCH   2   3
ATOM      3  N   UNL A   1      39.963  21.520  26.332  1.00  0.00    -0.351 N 
ATOM      4  C   UNL A   1      39.081  22.586  26.429  1.00  0.00     0.271 C 
ATOM      5  O   UNL A   1      39.423  23.531  27.140  1.00  0.00    -0.267 OA
ATOM      6  H   UNL A   1      40.845  21.688  26.734  1.00  0.00     0.163 HD
BRANCH   4   7
ATOM      7  C   UNL A   1      37.765  22.527  25.761  1.00  0.00     0.151 A 
ATOM      8  N   UNL A   1      35.844  23.250  25.119  1.00  0.00    -0.231 N 
ATOM      9  N   UNL A   1      37.146  23.619  25.270  1.00  0.00    -0.162 NA
ATOM     10  C   UNL A   1      35.661  21.935  25.485  1.00  0.00     0.085 A 
ATOM     11  C   UNL A   1      36.938  21.410  25.556  1.00  0.00     0.066 A 
BRANCH   8  12
ATOM     12  C   UNL A   1      34.920  24.149  24.543  1.00  0.00     0.065 A 
ATOM     13  C   UNL A   1      33.174  26.034  23.480  1.00  0.00     0.082 A 
ATOM     14  C   UNL A   1      33.634  24.982  22.678  1.00  0.00     0.024 A 
ATOM     15  C   UNL A   1      33.575  26.146  24.813  1.00  0.00     0.024 A 
ATOM     16  C   UNL A   1      34.533  24.050  23.204  1.00  0.00     0.030 A 
ATOM     17  C   UNL A   1      34.422  25.183  25.354  1.00  0.00     0.030 A 
BRANCH  13  18
ATOM     18  S   UNL A   1      32.107  27.265  22.799  1.00  0.00     0.238 S 
ATOM     19  O   UNL A   1      32.888  28.440  22.464  1.00  0.00    -0.207 OA
ATOM     20  O   UNL A   1      30.900  27.322  23.579  1.00  0.00    -0.207 OA
BRANCH  18  21
ATOM     21  N   UNL A   1      31.667  26.616  21.308  1.00  0.00    -0.225 NA
ATOM     22  H   UNL A   1      31.301  27.357  20.710  1.00  0.00     0.137 HD
ATOM     23  H   UNL A   1      30.951  25.904  21.445  1.00  0.00     0.137 HD
ENDBRANCH  18  21
ENDBRANCH  13  18
ENDBRANCH   8  12
BRANCH  10  24
ATOM     24  C   UNL A   1      34.494  21.205  25.893  1.00  0.00     0.054 A 
ATOM     25  C   UNL A   1      33.697  21.530  26.984  1.00  0.00     0.031 A 
ATOM     26  S   UNL A   1      33.409  20.695  24.635  1.00  0.00    -0.134 S 
ATOM     27  C   UNL A   1      32.557  22.271  26.464  1.00  0.00    -0.007 A 
ATOM     28  C   UNL A   1      32.351  21.986  25.107  1.00  0.00     0.035 A 
ATOM     29  C   UNL A   1      31.773  23.289  27.054  1.00  0.00     0.009 A 
ATOM     30  C   UNL A   1      31.441  22.703  24.315  1.00  0.00     0.019 A 
ATOM     31  C   UNL A   1      30.902  24.045  26.260  1.00  0.00     0.001 A 
ATOM     32  C   UNL A   1      30.752  23.765  24.905  1.00  0.00     0.001 A 
ENDBRANCH  10  24
ENDBRANCH   4   7
ENDBRANCH   2   3
ENDBRANCH   1   2
BRANCH   1  33
ATOM     33  C   UNL A   1      42.242  20.075  26.473  1.00  0.00     0.118 C 
BRANCH  33  34
ATOM     34  N   UNL A   1      43.467  19.728  25.737  1.00  0.00    -0.352 N 
ATOM     35  C   UNL A   1      44.351  20.583  25.092  1.00  0.00     0.251 C 
ATOM     36  H   UNL A   1      43.690  18.769  25.697  1.00  0.00     0.163 HD
ATOM     37  O   UNL A   1      45.120  20.160  24.236  1.00  0.00    -0.269 OA
BRANCH  35  38
ATOM     38  C   UNL A   1      44.343  22.009  25.469  1.00  0.00     0.039 A 
ATOM     39  C   UNL A   1      43.479  22.945  24.892  1.00  0.00     0.014 A 
ATOM     40  C   UNL A   1      45.195  22.375  26.500  1.00  0.00     0.014 A 
ATOM     41  C   UNL A   1      43.417  24.227  25.443  1.00  0.00     0.010 A 
ATOM     42  C   UNL A   1      44.965  23.536  27.178  1.00  0.00     0.010 A 
ATOM     43  C   UNL A   1      44.148  24.504  26.611  1.00  0.00    -0.014 A 
BRANCH  43  44
ATOM     44  C   UNL A   1      43.975  25.738  27.374  1.00  0.00     0.031 A 
ATOM     45  C   UNL A   1      44.995  26.774  27.045  1.00  0.00     0.074 A 
ATOM     46  C   UNL A   1      42.827  26.001  28.047  1.00  0.00     0.049 A 
ATOM     47  N   UNL A   1      45.948  27.223  27.794  1.00  0.00    -0.248 NA
ATOM     48  C   UNL A   1      45.103  27.214  25.639  1.00  0.00     0.031 C 
ATOM     49  C   UNL A   1      41.615  25.169  28.124  1.00  0.00     0.029 A 
ATOM     50  N   UNL A   1      42.434  27.129  28.697  1.00  0.00    -0.354 N 
ATOM     51  C   UNL A   1      46.574  28.216  27.042  1.00  0.00     0.074 A 
ATOM     52  C   UNL A   1      46.209  27.958  25.679  1.00  0.00     0.031 C 
ATOM     53  C   UNL A   1      40.570  25.914  28.546  1.00  0.00     0.029 A 
ATOM     54  C   UNL A   1      41.060  27.220  28.942  1.00  0.00     0.049 A 
ATOM     55  H   UNL A   1      43.069  27.829  28.975  1.00  0.00     0.167 HD
ATOM     56  C   UNL A   1      47.056  29.344  27.640  1.00  0.00     0.037 A 
ATOM     57  C   UNL A   1      40.384  28.307  29.404  1.00  0.00     0.037 A 
ATOM     58  C   UNL A   1      47.173  29.140  29.067  1.00  0.00     0.049 A 
ATOM     59  C   UNL A   1      41.402  29.216  29.997  1.00  0.00     0.074 A 
ATOM     60  C   UNL A   1      47.822  28.219  29.869  1.00  0.00     0.029 A 
ATOM     61  N   UNL A   1      46.216  29.719  29.867  1.00  0.00    -0.354 N 
ATOM     62  N   UNL A   1      42.095  28.929  31.064  1.00  0.00    -0.248 NA
ATOM     63  C   UNL A   1      41.992  30.212  29.115  1.00  0.00     0.031 C 
ATOM     64  C   UNL A   1      46.905  27.942  30.928  1.00  0.00     0.029 A 
ATOM     65  C   UNL A   1      45.801  28.781  30.776  1.00  0.00     0.049 A 
ATOM     66  H   UNL A   1      45.886  30.644  29.798  1.00  0.00     0.167 HD
ATOM     67  C   UNL A   1      43.382  29.357  30.773  1.00  0.00     0.074 A 
ATOM     68  C   UNL A   1      43.243  30.197  29.583  1.00  0.00     0.031 C 
ATOM     69  C   UNL A   1      44.469  28.751  31.337  1.00  0.00     0.037 A 
BRANCH  56  70
ATOM     70  C   UNL A   1      46.995  30.742  27.035  1.00  0.00     0.058 A 
ATOM     71  C   UNL A   1      48.164  31.537  27.058  1.00  0.00     0.135 A 
ATOM     72  C   UNL A   1      45.810  31.441  26.708  1.00  0.00     0.135 A 
ATOM     73  F   UNL A   1      49.361  30.988  27.323  1.00  0.00    -0.206 F 
ATOM     74  C   UNL A   1      48.139  32.922  26.898  1.00  0.00     0.059 A 
ATOM     75  C   UNL A   1      45.771  32.816  26.498  1.00  0.00     0.059 A 
ATOM     76  F   UNL A   1      44.610  30.860  26.645  1.00  0.00    -0.206 F 
ATOM     77  C   UNL A   1      46.930  33.555  26.641  1.00  0.00     0.060 A 
BRANCH  77  78
ATOM     78  S   UNL A   1      46.872  35.350  26.529  1.00  0.00     0.124 S 
ATOM     79  O   UNL A   1      45.677  35.550  25.719  1.00  0.00    -0.237 OA
ATOM     80  O   UNL A   1      46.769  35.733  27.933  1.00  0.00    -0.237 OA
ATOM     81  O   UNL A   1      48.138  35.685  25.885  1.00  0.00    -0.744 OA
ENDBRANCH  77  78
ENDBRANCH  56  70
BRANCH  57  82
ATOM     82  C   UNL A   1      39.005  28.783  29.090  1.00  0.00     0.058 A 
ATOM     83  C   UNL A   1      38.055  28.984  30.112  1.00  0.00     0.135 A 
ATOM     84  C   UNL A   1      38.686  29.342  27.837  1.00  0.00     0.135 A 
ATOM     85  F   UNL A   1      38.276  28.496  31.342  1.00  0.00    -0.206 F 
ATOM     86  C   UNL A   1      36.897  29.750  29.922  1.00  0.00     0.059 A 
ATOM     87  C   UNL A   1      37.534  30.103  27.622  1.00  0.00     0.059 A 
ATOM     88  F   UNL A   1      39.537  29.246  26.805  1.00  0.00    -0.206 F 
ATOM     89  C   UNL A   1      36.659  30.330  28.678  1.00  0.00     0.060 A 
BRANCH  89  90
ATOM     90  S   UNL A   1      35.273  31.481  28.483  1.00  0.00     0.124 S 
ATOM     91  O   UNL A   1      35.847  32.503  27.614  1.00  0.00    -0.237 OA
ATOM     92  O   UNL A   1      34.250  30.634  27.878  1.00  0.00    -0.237 OA
ATOM     93  O   UNL A   1      34.993  31.910  29.850  1.00  0.00    -0.744 OA
ENDBRANCH  89  90
ENDBRANCH  57  82
BRANCH  69  94
ATOM     94  C   UNL A   1      44.255  27.843  32.520  1.00  0.00     0.058 A 
ATOM     95  C   UNL A   1      44.046  28.263  33.847  1.00  0.00     0.135 A 
ATOM     96  C   UNL A   1      44.120  26.472  32.257  1.00  0.00     0.135 A 
ATOM     97  F   UNL A   1      44.050  29.564  34.169  1.00  0.00    -0.206 F 
ATOM     98  C   UNL A   1      43.768  27.351  34.871  1.00  0.00     0.059 A 
ATOM     99  C   UNL A   1      43.808  25.552  33.251  1.00  0.00     0.059 A 
ATOM    100  F   UNL A   1      44.246  26.013  31.000  1.00  0.00    -0.206 F 
ATOM    101  C   UNL A   1      43.652  25.995  34.560  1.00  0.00     0.060 A 
BRANCH 101 102
ATOM    102  S   UNL A   1      43.258  24.814  35.867  1.00  0.00     0.124 S 
ATOM    103  O   UNL A   1      43.443  25.617  37.071  1.00  0.00    -0.237 OA
ATOM    104  O   UNL A   1      41.880  24.444  35.557  1.00  0.00    -0.237 OA
ATOM    105  O   UNL A   1      44.238  23.749  35.673  1.00  0.00    -0.744 OA
ENDBRANCH 101 102
ENDBRANCH  69  94
ENDBRANCH  43  44
ENDBRANCH  35  38
ENDBRANCH  33  34
ENDBRANCH   1  33
TORSDOF 17
ENDMDL
MODEL 2
REMARK VINA RESULT:     -13.0      3.259      9.499
REMARK SMILES NS(=O)(=O)c1ccc(-n2nc(C(=O)NCCCNC(=O)c3ccc(-c4c5nc(c(-c6c(F)cc(S(=O)(=O)[O-])cc6F)c6ccc([nH]6)c(-c6c(F)cc(S(=O)(=O)[O-])cc6F)c6nc(c(-c7c(F)cc(S(=O)(=O)[O-])cc7F)c7ccc4[nH]7)C=C6)C=C5)cc3)cc2-c2cc3ccccc3s2)cc1
REMARK SMILES IDX 16 1 15 2 14 3 12 4 13 5 11 7 9 8 10 9 88 10 87 11 8 12 5 13
REMARK SMILES IDX 6 14 99 15 7 16 98 17 2 18 3 19 4 20 1 21 89 24 90 25 97 26
REMARK SMILES IDX 91 27 96 28 92 29 95 30 93 31 94 32 17 33 18 34 19 35 20 37
REMARK SMILES IDX 21 38 22 39 86 40 23 41 85 42 24 43 25 44 26 45 79 46 27 47
REMARK SMILES IDX 84 48 78 49 80 50 28 51 83 52 77 53 76 54 29 56 63 57 42 58
REMARK SMILES IDX 62 59 43 60 46 61 61 62 81 63 44 64 45 65 60 67 82 68 47 69
REMARK SMILES IDX 30 70 31 71 40 72 32 73 33 74 39 75 41 76 34 77 35 78 36 79
REMARK SMILES IDX 37 80 38 81 64 82 65 83 74 84 66 85 67 86 73 87 75 88 68 89
REMARK SMILES IDX 69 90 70 91 71 92 72 93 48 94 49 95 58 96 50 97 51 98 57 99
REMARK SMILES IDX 59 100 52 101 53 102 54 103 55 104 56 105
REMARK H PARENT 14 6 1 22 1 23 18 36 80 55 46 66
REMARK Flexibility Score: inf
ROOT
ATOM      1  C   UNL A   1      32.930  34.366  28.583  1.00  0.00     0.042 C 
ENDROOT
BRANCH   1   2
ATOM      2  C   UNL A   1      33.057  33.070  27.773  1.00  0.00     0.118 C 
BRANCH   2   3
ATOM      3  N   UNL A   1      34.350  32.419  27.961  1.00  0.00    -0.351 N 
ATOM      4  C   UNL A   1      34.811  31.167  27.584  1.00  0.00     0.271 C 
ATOM      5  O   UNL A   1      36.015  30.949  27.726  1.00  0.00    -0.267 OA
ATOM      6  H   UNL A   1      35.012  32.966  28.441  1.00  0.00     0.163 HD
BRANCH   4   7
ATOM      7  C   UNL A   1      33.892  30.189  26.969  1.00  0.00     0.151 A 
ATOM      8  N   UNL A   1      33.277  28.285  26.177  1.00  0.00    -0.231 N 
ATOM      9  N   UNL A   1      33.986  28.862  27.187  1.00  0.00    -0.162 NA
ATOM     10  C   UNL A   1      32.726  29.244  25.356  1.00  0.00     0.085 A 
ATOM     11  C   UNL A   1      32.840  30.422  26.069  1.00  0.00     0.066 A 
BRANCH   8  12
ATOM     12  C   UNL A   1      33.105  26.884  26.148  1.00  0.00     0.065 A 
ATOM     13  C   UNL A   1      32.910  24.110  26.144  1.00  0.00     0.082 A 
ATOM     14  C   UNL A   1      31.827  24.883  26.580  1.00  0.00     0.024 A 
ATOM     15  C   UNL A   1      34.088  24.715  25.702  1.00  0.00     0.024 A 
ATOM     16  C   UNL A   1      31.934  26.277  26.608  1.00  0.00     0.030 A 
ATOM     17  C   UNL A   1      34.173  26.105  25.673  1.00  0.00     0.030 A 
BRANCH  13  18
ATOM     18  S   UNL A   1      32.814  22.348  26.187  1.00  0.00     0.238 S 
ATOM     19  O   UNL A   1      33.301  21.876  27.469  1.00  0.00    -0.207 OA
ATOM     20  O   UNL A   1      33.276  21.822  24.931  1.00  0.00    -0.207 OA
BRANCH  18  21
ATOM     21  N   UNL A   1      31.157  22.050  26.234  1.00  0.00    -0.225 NA
ATOM     22  H   UNL A   1      30.987  21.141  26.665  1.00  0.00     0.137 HD
ATOM     23  H   UNL A   1      30.784  22.052  25.285  1.00  0.00     0.137 HD
ENDBRANCH  18  21
ENDBRANCH  13  18
ENDBRANCH   8  12
BRANCH  10  24
ATOM     24  C   UNL A   1      32.266  29.195  23.997  1.00  0.00     0.054 A 
ATOM     25  C   UNL A   1      32.920  28.538  22.962  1.00  0.00     0.031 A 
ATOM     26  S   UNL A   1      30.569  28.913  23.754  1.00  0.00    -0.134 S 
ATOM     27  C   UNL A   1      32.265  27.247  22.806  1.00  0.00    -0.007 A 
ATOM     28  C   UNL A   1      30.963  27.280  23.322  1.00  0.00     0.035 A 
ATOM     29  C   UNL A   1      32.776  26.001  22.374  1.00  0.00     0.009 A 
ATOM     30  C   UNL A   1      30.181  26.124  23.470  1.00  0.00     0.019 A 
ATOM     31  C   UNL A   1      32.024  24.837  22.566  1.00  0.00     0.001 A 
ATOM     32  C   UNL A   1      30.750  24.897  23.123  1.00  0.00     0.001 A 
ENDBRANCH  10  24
ENDBRANCH   4   7
ENDBRANCH   2   3
ENDBRANCH   1   2
BRANCH   1  33
ATOM     33  C   UNL A   1      34.112  34.592  29.508  1.00  0.00     0.118 C 
BRANCH  33  34
ATOM     34  N   UNL A   1      33.831  34.237  30.907  1.00  0.00    -0.352 N 
ATOM     35  C   UNL A   1      34.406  33.227  31.667  1.00  0.00     0.251 C 
ATOM     36  H   UNL A   1      33.152  34.785  31.363  1.00  0.00     0.163 HD
ATOM     37  O   UNL A   1      33.853  32.813  32.679  1.00  0.00    -0.269 OA
BRANCH  35  38
ATOM     38  C   UNL A   1      35.701  32.674  31.227  1.00  0.00     0.039 A 
ATOM     39  C   UNL A   1      36.816  33.470  30.949  1.00  0.00     0.014 A 
ATOM     40  C   UNL A   1      35.789  31.290  31.173  1.00  0.00     0.014 A 
ATOM     41  C   UNL A   1      38.044  32.844  30.720  1.00  0.00     0.010 A 
ATOM     42  C   UNL A   1      37.018  30.697  31.184  1.00  0.00     0.010 A 
ATOM     43  C   UNL A   1      38.139  31.451  30.869  1.00  0.00    -0.014 A 
BRANCH  43  44
ATOM     44  C   UNL A   1      39.417  30.743  30.864  1.00  0.00     0.031 A 
ATOM     45  C   UNL A   1      39.973  30.535  32.231  1.00  0.00     0.074 A 
ATOM     46  C   UNL A   1      39.856  30.079  29.766  1.00  0.00     0.049 A 
ATOM     47  N   UNL A   1      41.025  31.072  32.756  1.00  0.00    -0.248 NA
ATOM     48  C   UNL A   1      39.143  29.805  33.211  1.00  0.00     0.031 C 
ATOM     49  C   UNL A   1      39.178  29.936  28.467  1.00  0.00     0.029 A 
ATOM     50  N   UNL A   1      40.937  29.268  29.608  1.00  0.00    -0.354 N 
ATOM     51  C   UNL A   1      41.139  30.503  34.024  1.00  0.00     0.074 A 
ATOM     52  C   UNL A   1      39.839  29.983  34.334  1.00  0.00     0.031 C 
ATOM     53  C   UNL A   1      39.720  28.911  27.774  1.00  0.00     0.029 A 
ATOM     54  C   UNL A   1      40.890  28.435  28.485  1.00  0.00     0.049 A 
ATOM     55  H   UNL A   1      41.694  29.268  30.237  1.00  0.00     0.167 HD
ATOM     56  C   UNL A   1      42.365  30.218  34.552  1.00  0.00     0.037 A 
ATOM     57  C   UNL A   1      41.740  27.413  28.193  1.00  0.00     0.037 A 
ATOM     58  C   UNL A   1      43.396  30.930  33.830  1.00  0.00     0.049 A 
ATOM     59  C   UNL A   1      42.948  27.613  29.037  1.00  0.00     0.074 A 
ATOM     60  C   UNL A   1      43.634  32.258  33.529  1.00  0.00     0.029 A 
ATOM     61  N   UNL A   1      44.157  30.207  32.943  1.00  0.00    -0.354 N 
ATOM     62  N   UNL A   1      43.770  28.617  28.899  1.00  0.00    -0.248 NA
ATOM     63  C   UNL A   1      42.953  26.974  30.344  1.00  0.00     0.031 C 
ATOM     64  C   UNL A   1      44.113  32.251  32.185  1.00  0.00     0.029 A 
ATOM     65  C   UNL A   1      44.244  30.923  31.778  1.00  0.00     0.049 A 
ATOM     66  H   UNL A   1      44.569  29.328  33.114  1.00  0.00     0.167 HD
ATOM     67  C   UNL A   1      44.062  29.015  30.195  1.00  0.00     0.074 A 
ATOM     68  C   UNL A   1      43.580  27.925  31.044  1.00  0.00     0.031 C 
ATOM     69  C   UNL A   1      44.386  30.312  30.476  1.00  0.00     0.037 A 
BRANCH  56  70
ATOM     70  C   UNL A   1      42.683  28.988  35.395  1.00  0.00     0.058 A 
ATOM     71  C   UNL A   1      43.497  29.149  36.540  1.00  0.00     0.135 A 
ATOM     72  C   UNL A   1      42.486  27.647  34.993  1.00  0.00     0.135 A 
ATOM     73  F   UNL A   1      43.736  30.370  37.045  1.00  0.00    -0.206 F 
ATOM     74  C   UNL A   1      44.160  28.085  37.152  1.00  0.00     0.059 A 
ATOM     75  C   UNL A   1      43.100  26.566  35.618  1.00  0.00     0.059 A 
ATOM     76  F   UNL A   1      41.755  27.300  33.931  1.00  0.00    -0.206 F 
ATOM     77  C   UNL A   1      43.971  26.797  36.666  1.00  0.00     0.060 A 
BRANCH  77  78
ATOM     78  S   UNL A   1      44.895  25.431  37.386  1.00  0.00     0.124 S 
ATOM     79  O   UNL A   1      44.542  25.555  38.794  1.00  0.00    -0.237 OA
ATOM     80  O   UNL A   1      44.331  24.285  36.679  1.00  0.00    -0.237 OA
ATOM     81  O   UNL A   1      46.279  25.749  37.048  1.00  0.00    -0.744 OA
ENDBRANCH  77  78
ENDBRANCH  56  70
BRANCH  57  82
ATOM     82  C   UNL A   1      41.474  26.113  27.510  1.00  0.00     0.058 A 
ATOM     83  C   UNL A   1      42.354  25.615  26.528  1.00  0.00     0.135 A 
ATOM     84  C   UNL A   1      40.536  25.193  28.017  1.00  0.00     0.135 A 
ATOM     85  F   UNL A   1      43.289  26.415  25.993  1.00  0.00    -0.206 F 
ATOM     86  C   UNL A   1      42.350  24.272  26.126  1.00  0.00     0.059 A 
ATOM     87  C   UNL A   1      40.507  23.852  27.626  1.00  0.00     0.059 A 
ATOM     88  F   UNL A   1      39.677  25.549  28.984  1.00  0.00    -0.206 F 
ATOM     89  C   UNL A   1      41.439  23.390  26.702  1.00  0.00     0.060 A 
BRANCH  89  90
ATOM     90  S   UNL A   1      41.559  21.620  26.336  1.00  0.00     0.124 S 
ATOM     91  O   UNL A   1      41.918  21.064  27.636  1.00  0.00    -0.237 OA
ATOM     92  O   UNL A   1      40.214  21.309  25.862  1.00  0.00    -0.237 OA
ATOM     93  O   UNL A   1      42.605  21.554  25.319  1.00  0.00    -0.744 OA
ENDBRANCH  89  90
ENDBRANCH  57  82
BRANCH  69  94
ATOM     94  C   UNL A   1      44.748  31.228  29.336  1.00  0.00     0.058 A 
ATOM     95  C   UNL A   1      45.999  31.280  28.693  1.00  0.00     0.135 A 
ATOM     96  C   UNL A   1      43.715  31.997  28.782  1.00  0.00     0.135 A 
ATOM     97  F   UNL A   1      47.013  30.497  29.090  1.00  0.00    -0.206 F 
ATOM     98  C   UNL A   1      46.221  32.101  27.583  1.00  0.00     0.059 A 
ATOM     99  C   UNL A   1      43.902  32.792  27.658  1.00  0.00     0.059 A 
ATOM    100  F   UNL A   1      42.480  31.945  29.310  1.00  0.00    -0.206 F 
ATOM    101  C   UNL A   1      45.163  32.856  27.073  1.00  0.00     0.060 A 
BRANCH 101 102
ATOM    102  S   UNL A   1      45.428  33.891  25.619  1.00  0.00     0.124 S 
ATOM    103  O   UNL A   1      46.884  33.924  25.529  1.00  0.00    -0.237 OA
ATOM    104  O   UNL A   1      44.744  33.145  24.567  1.00  0.00    -0.237 OA
ATOM    105  O   UNL A   1      44.799  35.158  25.982  1.00  0.00    -0.744 OA
ENDBRANCH 101 102
ENDBRANCH  69  94
ENDBRANCH  43  44
ENDBRANCH  35  38
ENDBRANCH  33  34
ENDBRANCH   1  33
TORSDOF 17
ENDMDL
MODEL 3
REMARK VINA RESULT:     -12.8      2.089      2.752
REMARK SMILES NS(=O)(=O)c1ccc(-n2nc(C(=O)NCCCNC(=O)c3ccc(-c4c5nc(c(-c6c(F)cc(S(=O)(=O)[O-])cc6F)c6ccc([nH]6)c(-c6c(F)cc(S(=O)(=O)[O-])cc6F)c6nc(c(-c7c(F)cc(S(=O)(=O)[O-])cc7F)c7ccc4[nH]7)C=C6)C=C5)cc3)cc2-c2cc3ccccc3s2)cc1
REMARK SMILES IDX 16 1 15 2 14 3 12 4 13 5 11 7 9 8 10 9 88 10 87 11 8 12 5 13
REMARK SMILES IDX 6 14 99 15 7 16 98 17 2 18 3 19 4 20 1 21 89 24 90 25 97 26
REMARK SMILES IDX 91 27 96 28 92 29 95 30 93 31 94 32 17 33 18 34 19 35 20 37
REMARK SMILES IDX 21 38 22 39 86 40 23 41 85 42 24 43 25 44 26 45 79 46 27 47
REMARK SMILES IDX 84 48 78 49 80 50 28 51 83 52 77 53 76 54 29 56 63 57 42 58
REMARK SMILES IDX 62 59 43 60 46 61 61 62 81 63 44 64 45 65 60 67 82 68 47 69
REMARK SMILES IDX 30 70 31 71 40 72 32 73 33 74 39 75 41 76 34 77 35 78 36 79
REMARK SMILES IDX 37 80 38 81 64 82 65 83 74 84 66 85 67 86 73 87 75 88 68 89
REMARK SMILES IDX 69 90 70 91 71 92 72 93 48 94 49 95 58 96 50 97 51 98 57 99
REMARK SMILES IDX 59 100 52 101 53 102 54 103 55 104 56 105
REMARK H PARENT 14 6 1 22 1 23 18 36 80 55 46 66
REMARK Flexibility Score: inf
ROOT
ATOM      1  C   UNL A   1      40.306  23.284  26.947  1.00  0.00     0.042 C 
ENDROOT
BRANCH   1   2
ATOM      2  C   UNL A   1      39.017  22.637  26.424  1.00  0.00     0.118 C 
BRANCH   2   3
ATOM      3  N   UNL A   1      39.221  21.258  25.994  1.00  0.00    -0.351 N 
ATOM      4  C   UNL A   1      38.417  20.396  25.264  1.00  0.00     0.271 C 
ATOM      5  O   UNL A   1      38.923  19.334  24.899  1.00  0.00    -0.267 OA
ATOM      6  H   UNL A   1      40.082  20.870  26.272  1.00  0.00     0.163 HD
BRANCH   4   7
ATOM      7  C   UNL A   1      37.046  20.794  24.888  1.00  0.00     0.151 A 
ATOM      8  N   UNL A   1      35.410  22.146  24.536  1.00  0.00    -0.231 N 
ATOM      9  N   UNL A   1      36.753  22.002  24.366  1.00  0.00    -0.162 NA
ATOM     10  C   UNL A   1      34.869  21.028  25.132  1.00  0.00     0.085 A 
ATOM     11  C   UNL A   1      35.853  20.064  25.028  1.00  0.00     0.066 A 
BRANCH   8  12
ATOM     12  C   UNL A   1      34.753  23.286  24.022  1.00  0.00     0.065 A 
ATOM     13  C   UNL A   1      33.582  25.614  23.053  1.00  0.00     0.082 A 
ATOM     14  C   UNL A   1      33.475  24.425  22.321  1.00  0.00     0.024 A 
ATOM     15  C   UNL A   1      34.264  25.646  24.271  1.00  0.00     0.024 A 
ATOM     16  C   UNL A   1      34.087  23.260  22.794  1.00  0.00     0.030 A 
ATOM     17  C   UNL A   1      34.821  24.471  24.772  1.00  0.00     0.030 A 
BRANCH  13  18
ATOM     18  S   UNL A   1      32.886  27.108  22.420  1.00  0.00     0.238 S 
ATOM     19  O   UNL A   1      33.878  27.789  21.611  1.00  0.00    -0.207 OA
ATOM     20  O   UNL A   1      32.146  27.760  23.466  1.00  0.00    -0.207 OA
BRANCH  18  21
ATOM     21  N   UNL A   1      31.743  26.564  21.310  1.00  0.00    -0.225 NA
ATOM     22  H   UNL A   1      31.173  27.350  20.997  1.00  0.00     0.137 HD
ATOM     23  H   UNL A   1      31.146  25.865  21.751  1.00  0.00     0.137 HD
ENDBRANCH  18  21
ENDBRANCH  13  18
ENDBRANCH   8  12
BRANCH  10  24
ATOM     24  C   UNL A   1      33.655  20.827  25.872  1.00  0.00     0.054 A 
ATOM     25  C   UNL A   1      33.284  21.552  26.997  1.00  0.00     0.031 A 
ATOM     26  S   UNL A   1      32.203  20.590  24.947  1.00  0.00    -0.134 S 
ATOM     27  C   UNL A   1      32.362  22.584  26.545  1.00  0.00    -0.007 A 
ATOM     28  C   UNL A   1      31.765  22.224  25.329  1.00  0.00     0.035 A 
ATOM     29  C   UNL A   1      32.113  23.882  27.048  1.00  0.00     0.009 A 
ATOM     30  C   UNL A   1      30.982  23.117  24.580  1.00  0.00     0.019 A 
ATOM     31  C   UNL A   1      31.378  24.795  26.283  1.00  0.00     0.001 A 
ATOM     32  C   UNL A   1      30.835  24.421  25.057  1.00  0.00     0.001 A 
ENDBRANCH  10  24
ENDBRANCH   4   7
ENDBRANCH   2   3
ENDBRANCH   1   2
BRANCH   1  33
ATOM     33  C   UNL A   1      41.405  22.268  27.202  1.00  0.00     0.118 C 
BRANCH  33  34
ATOM     34  N   UNL A   1      42.362  22.157  26.091  1.00  0.00    -0.352 N 
ATOM     35  C   UNL A   1      42.938  23.181  25.351  1.00  0.00     0.251 C 
ATOM     36  H   UNL A   1      42.630  21.243  25.842  1.00  0.00     0.163 HD
ATOM     37  O   UNL A   1      43.431  22.958  24.251  1.00  0.00    -0.269 OA
BRANCH  35  38
ATOM     38  C   UNL A   1      42.944  24.540  25.925  1.00  0.00     0.039 A 
ATOM     39  C   UNL A   1      42.181  25.591  25.406  1.00  0.00     0.014 A 
ATOM     40  C   UNL A   1      43.697  24.715  27.077  1.00  0.00     0.014 A 
ATOM     41  C   UNL A   1      42.110  26.785  26.127  1.00  0.00     0.010 A 
ATOM     42  C   UNL A   1      43.440  25.781  27.889  1.00  0.00     0.010 A 
ATOM     43  C   UNL A   1      42.724  26.859  27.388  1.00  0.00    -0.014 A 
BRANCH  43  44
ATOM     44  C   UNL A   1      42.519  27.982  28.300  1.00  0.00     0.031 A 
ATOM     45  C   UNL A   1      43.592  29.013  28.205  1.00  0.00     0.074 A 
ATOM     46  C   UNL A   1      41.324  28.196  28.905  1.00  0.00     0.049 A 
ATOM     47  N   UNL A   1      44.486  29.317  29.086  1.00  0.00    -0.248 NA
ATOM     48  C   UNL A   1      43.835  29.637  26.888  1.00  0.00     0.031 C 
ATOM     49  C   UNL A   1      40.087  27.410  28.763  1.00  0.00     0.029 A 
ATOM     50  N   UNL A   1      40.906  29.239  29.671  1.00  0.00    -0.354 N 
ATOM     51  C   UNL A   1      45.204  30.379  28.534  1.00  0.00     0.074 A 
ATOM     52  C   UNL A   1      44.953  30.325  27.123  1.00  0.00     0.031 C 
ATOM     53  C   UNL A   1      39.030  28.130  29.197  1.00  0.00     0.029 A 
ATOM     54  C   UNL A   1      39.518  29.350  29.811  1.00  0.00     0.049 A 
ATOM     55  H   UNL A   1      41.533  29.868  30.096  1.00  0.00     0.167 HD
ATOM     56  C   UNL A   1      45.662  31.395  29.323  1.00  0.00     0.037 A 
ATOM     57  C   UNL A   1      38.835  30.389  30.363  1.00  0.00     0.037 A 
ATOM     58  C   UNL A   1      45.647  30.992  30.712  1.00  0.00     0.049 A 
ATOM     59  C   UNL A   1      39.821  31.167  31.160  1.00  0.00     0.074 A 
ATOM     60  C   UNL A   1      46.197  29.946  31.428  1.00  0.00     0.029 A 
ATOM     61  N   UNL A   1      44.640  31.493  31.502  1.00  0.00    -0.354 N 
ATOM     62  N   UNL A   1      40.410  30.709  32.230  1.00  0.00    -0.248 NA
ATOM     63  C   UNL A   1      40.513  32.250  30.478  1.00  0.00     0.031 C 
ATOM     64  C   UNL A   1      45.184  29.563  32.358  1.00  0.00     0.029 A 
ATOM     65  C   UNL A   1      44.121  30.457  32.234  1.00  0.00     0.049 A 
ATOM     66  H   UNL A   1      44.343  32.432  31.537  1.00  0.00     0.167 HD
ATOM     67  C   UNL A   1      41.728  31.123  32.111  1.00  0.00     0.074 A 
ATOM     68  C   UNL A   1      41.717  32.122  31.042  1.00  0.00     0.031 C 
ATOM     69  C   UNL A   1      42.745  30.403  32.672  1.00  0.00     0.037 A 
BRANCH  56  70
ATOM     70  C   UNL A   1      45.692  32.863  28.916  1.00  0.00     0.058 A 
ATOM     71  C   UNL A   1      46.884  33.595  29.125  1.00  0.00     0.135 A 
ATOM     72  C   UNL A   1      44.559  33.653  28.614  1.00  0.00     0.135 A 
ATOM     73  F   UNL A   1      48.039  32.962  29.387  1.00  0.00    -0.206 F 
ATOM     74  C   UNL A   1      46.919  34.989  29.159  1.00  0.00     0.059 A 
ATOM     75  C   UNL A   1      44.582  35.044  28.596  1.00  0.00     0.059 A 
ATOM     76  F   UNL A   1      43.345  33.140  28.394  1.00  0.00    -0.206 F 
ATOM     77  C   UNL A   1      45.753  35.704  28.915  1.00  0.00     0.060 A 
BRANCH  77  78
ATOM     78  S   UNL A   1      45.767  37.499  29.052  1.00  0.00     0.124 S 
ATOM     79  O   UNL A   1      45.062  37.886  27.836  1.00  0.00    -0.237 OA
ATOM     80  O   UNL A   1      45.048  37.707  30.305  1.00  0.00    -0.237 OA
ATOM     81  O   UNL A   1      47.190  37.820  29.091  1.00  0.00    -0.744 OA
ENDBRANCH  77  78
ENDBRANCH  56  70
BRANCH  57  82
ATOM     82  C   UNL A   1      37.502  30.956  30.005  1.00  0.00     0.058 A 
ATOM     83  C   UNL A   1      36.675  31.542  30.984  1.00  0.00     0.135 A 
ATOM     84  C   UNL A   1      37.147  31.216  28.667  1.00  0.00     0.135 A 
ATOM     85  F   UNL A   1      36.939  31.359  32.287  1.00  0.00    -0.206 F 
ATOM     86  C   UNL A   1      35.607  32.389  30.658  1.00  0.00     0.059 A 
ATOM     87  C   UNL A   1      36.083  32.050  28.317  1.00  0.00     0.059 A 
ATOM     88  F   UNL A   1      37.889  30.741  27.655  1.00  0.00    -0.206 F 
ATOM     89  C   UNL A   1      35.335  32.659  29.319  1.00  0.00     0.060 A 
BRANCH  89  90
ATOM     90  S   UNL A   1      34.088  33.904  28.896  1.00  0.00     0.124 S 
ATOM     91  O   UNL A   1      33.217  33.166  27.987  1.00  0.00    -0.237 OA
ATOM     92  O   UNL A   1      33.518  34.227  30.200  1.00  0.00    -0.237 OA
ATOM     93  O   UNL A   1      34.871  34.973  28.281  1.00  0.00    -0.744 OA
ENDBRANCH  89  90
ENDBRANCH  57  82
BRANCH  69  94
ATOM     94  C   UNL A   1      42.403  29.350  33.695  1.00  0.00     0.058 A 
ATOM     95  C   UNL A   1      42.066  28.013  33.412  1.00  0.00     0.135 A 
ATOM     96  C   UNL A   1      42.563  29.695  35.044  1.00  0.00     0.135 A 
ATOM     97  F   UNL A   1      41.997  27.570  32.148  1.00  0.00    -0.206 F 
ATOM     98  C   UNL A   1      41.848  27.079  34.430  1.00  0.00     0.059 A 
ATOM     99  C   UNL A   1      42.387  28.775  36.071  1.00  0.00     0.059 A 
ATOM    100  F   UNL A   1      42.945  30.939  35.380  1.00  0.00    -0.206 F 
ATOM    101  C   UNL A   1      42.011  27.473  35.759  1.00  0.00     0.060 A 
BRANCH 101 102
ATOM    102  S   UNL A   1      41.767  26.267  37.080  1.00  0.00     0.124 S 
ATOM    103  O   UNL A   1      42.919  26.519  37.940  1.00  0.00    -0.237 OA
ATOM    104  O   UNL A   1      40.470  26.651  37.627  1.00  0.00    -0.237 OA
ATOM    105  O   UNL A   1      41.783  24.985  36.379  1.00  0.00    -0.744 OA
ENDBRANCH 101 102
ENDBRANCH  69  94
ENDBRANCH  43  44
ENDBRANCH  35  38
ENDBRANCH  33  34
ENDBRANCH   1  33
TORSDOF 17
ENDMDL
