MODEL 1
REMARK VINA RESULT:     -11.5      0.000      0.000
REMARK SMILES CCc1ccc(C[N@H+]2CC[C@@H](C(=O)NCCCNC(=O)c3ccc(-c4c5nc(c(-c6c(F)cc(S(=O)(=O)[O-])cc6F)c6ccc([nH]6)c(-c6c(F)cc(S(=O)(=O)[O-])cc6F)c6nc(c(-c7c(F)cc(S(=O)(=O)[O-])cc7F)c7ccc4[nH]7)C=C6)C=C5)cc3)[C@@H]2C)cc1
REMARK SMILES IDX 16 1 15 2 14 3 12 4 13 5 11 7 8 8 9 9 87 10 10 12 88 13 7 14
REMARK SMILES IDX 6 15 3 16 4 17 90 18 5 19 89 20 2 21 1 22 17 23 18 24 19 25
REMARK SMILES IDX 20 27 21 28 22 29 86 30 23 31 85 32 24 33 25 34 26 35 79 36
REMARK SMILES IDX 27 37 84 38 78 39 80 40 28 41 83 42 77 43 76 44 29 46 63 47
REMARK SMILES IDX 42 48 62 49 43 50 46 51 61 52 81 53 44 54 45 55 60 57 82 58
REMARK SMILES IDX 47 59 30 60 31 61 40 62 32 63 33 64 39 65 41 66 34 67 35 68
REMARK SMILES IDX 36 69 37 70 38 71 64 72 65 73 74 74 66 75 67 76 73 77 75 78
REMARK SMILES IDX 68 79 69 80 70 81 71 82 72 83 48 84 49 85 58 86 50 87 51 88
REMARK SMILES IDX 57 89 59 90 52 91 53 92 54 93 55 94 56 95
REMARK H PARENT 14 6 8 11 18 26 80 45 46 56
REMARK Flexibility Score: inf
ROOT
ATOM      1  C   UNL A   1      32.268  27.507  27.246  1.00  0.00     0.042 C 
ENDROOT
BRANCH   1   2
ATOM      2  C   UNL A   1      31.941  26.387  26.263  1.00  0.00     0.117 C 
BRANCH   2   3
ATOM      3  N   UNL A   1      31.364  25.245  26.933  1.00  0.00    -0.356 N 
ATOM      4  C   UNL A   1      31.683  23.929  26.846  1.00  0.00     0.229 C 
ATOM      5  O   UNL A   1      31.007  23.149  27.529  1.00  0.00    -0.275 OA
ATOM      6  H   UNL A   1      30.626  25.453  27.550  1.00  0.00     0.163 HD
BRANCH   4   7
ATOM      7  C   UNL A   1      32.844  23.392  26.017  1.00  0.00     0.142 C 
ATOM      8  N   UNL A   1      33.905  23.320  23.863  1.00  0.00    -0.328 N 
ATOM      9  C   UNL A   1      34.888  23.666  24.884  1.00  0.00     0.263 C 
ATOM     10  C   UNL A   1      32.607  23.080  24.528  1.00  0.00     0.193 C 
ATOM     11  H   UNL A   1      34.195  22.445  23.424  1.00  0.00     0.348 HD
ATOM     12  C   UNL A   1      34.087  24.267  26.026  1.00  0.00     0.081 C 
ATOM     13  C   UNL A   1      32.228  21.605  24.354  1.00  0.00     0.076 C 
BRANCH   8  14
ATOM     14  C   UNL A   1      33.905  24.117  22.624  1.00  0.00     0.299 C 
BRANCH  14  15
ATOM     15  C   UNL A   1      33.143  25.432  22.601  1.00  0.00     0.006 A 
ATOM     16  C   UNL A   1      31.629  27.824  22.798  1.00  0.00    -0.048 A 
ATOM     17  C   UNL A   1      31.068  26.670  22.243  1.00  0.00     0.004 A 
ATOM     18  C   UNL A   1      32.981  27.807  23.140  1.00  0.00     0.004 A 
ATOM     19  C   UNL A   1      31.823  25.491  22.133  1.00  0.00     0.010 A 
ATOM     20  C   UNL A   1      33.730  26.634  23.019  1.00  0.00     0.010 A 
BRANCH  16  21
ATOM     21  C   UNL A   1      30.794  29.054  23.057  1.00  0.00     0.032 C 
ATOM     22  C   UNL A   1      30.988  29.582  24.475  1.00  0.00     0.009 C 
ENDBRANCH  16  21
ENDBRANCH  14  15
ENDBRANCH   8  14
ENDBRANCH   4   7
ENDBRANCH   2   3
ENDBRANCH   1   2
BRANCH   1  23
ATOM     23  C   UNL A   1      33.536  28.283  26.915  1.00  0.00     0.118 C 
BRANCH  23  24
ATOM     24  N   UNL A   1      33.477  29.690  27.305  1.00  0.00    -0.352 N 
ATOM     25  C   UNL A   1      34.358  30.505  27.964  1.00  0.00     0.251 C 
ATOM     26  H   UNL A   1      32.641  30.140  27.041  1.00  0.00     0.163 HD
ATOM     27  O   UNL A   1      33.991  31.634  28.307  1.00  0.00    -0.269 OA
BRANCH  25  28
ATOM     28  C   UNL A   1      35.731  30.073  28.275  1.00  0.00     0.039 A 
ATOM     29  C   UNL A   1      36.051  29.669  29.578  1.00  0.00     0.014 A 
ATOM     30  C   UNL A   1      36.729  30.143  27.304  1.00  0.00     0.014 A 
ATOM     31  C   UNL A   1      37.359  29.292  29.890  1.00  0.00     0.010 A 
ATOM     32  C   UNL A   1      38.001  29.668  27.585  1.00  0.00     0.010 A 
ATOM     33  C   UNL A   1      38.337  29.268  28.886  1.00  0.00    -0.014 A 
BRANCH  33  34
ATOM     34  C   UNL A   1      39.750  28.907  29.150  1.00  0.00     0.031 A 
ATOM     35  C   UNL A   1      40.693  29.977  29.631  1.00  0.00     0.074 A 
ATOM     36  C   UNL A   1      40.202  27.680  28.831  1.00  0.00     0.049 A 
ATOM     37  N   UNL A   1      41.998  29.969  29.691  1.00  0.00    -0.248 NA
ATOM     38  C   UNL A   1      40.081  31.251  30.046  1.00  0.00     0.031 C 
ATOM     39  C   UNL A   1      39.380  26.580  28.322  1.00  0.00     0.029 A 
ATOM     40  N   UNL A   1      41.472  27.166  28.852  1.00  0.00    -0.354 N 
ATOM     41  C   UNL A   1      42.363  31.247  30.103  1.00  0.00     0.074 A 
ATOM     42  C   UNL A   1      41.145  32.017  30.225  1.00  0.00     0.031 C 
ATOM     43  C   UNL A   1      40.167  25.520  28.081  1.00  0.00     0.029 A 
ATOM     44  C   UNL A   1      41.551  25.881  28.370  1.00  0.00     0.049 A 
ATOM     45  H   UNL A   1      42.252  27.668  29.181  1.00  0.00     0.167 HD
ATOM     46  C   UNL A   1      43.601  31.726  30.371  1.00  0.00     0.037 A 
ATOM     47  C   UNL A   1      42.625  25.095  28.161  1.00  0.00     0.037 A 
ATOM     48  C   UNL A   1      44.793  30.924  30.285  1.00  0.00     0.049 A 
ATOM     49  C   UNL A   1      43.989  25.632  28.495  1.00  0.00     0.074 A 
ATOM     50  C   UNL A   1      46.093  31.274  30.598  1.00  0.00     0.029 A 
ATOM     51  N   UNL A   1      44.826  29.603  29.855  1.00  0.00    -0.354 N 
ATOM     52  N   UNL A   1      44.320  26.829  28.924  1.00  0.00    -0.248 NA
ATOM     53  C   UNL A   1      45.124  24.716  28.327  1.00  0.00     0.031 C 
ATOM     54  C   UNL A   1      46.917  30.177  30.321  1.00  0.00     0.029 A 
ATOM     55  C   UNL A   1      46.124  29.127  29.884  1.00  0.00     0.049 A 
ATOM     56  H   UNL A   1      44.039  29.083  29.573  1.00  0.00     0.167 HD
ATOM     57  C   UNL A   1      45.698  26.802  29.100  1.00  0.00     0.074 A 
ATOM     58  C   UNL A   1      46.136  25.467  28.741  1.00  0.00     0.031 C 
ATOM     59  C   UNL A   1      46.528  27.788  29.523  1.00  0.00     0.037 A 
BRANCH  46  60
ATOM     60  C   UNL A   1      43.716  33.172  30.777  1.00  0.00     0.058 A 
ATOM     61  C   UNL A   1      43.876  34.199  29.831  1.00  0.00     0.135 A 
ATOM     62  C   UNL A   1      43.678  33.538  32.133  1.00  0.00     0.135 A 
ATOM     63  F   UNL A   1      43.935  33.909  28.521  1.00  0.00    -0.206 F 
ATOM     64  C   UNL A   1      44.046  35.525  30.215  1.00  0.00     0.059 A 
ATOM     65  C   UNL A   1      43.810  34.865  32.538  1.00  0.00     0.059 A 
ATOM     66  F   UNL A   1      43.526  32.602  33.083  1.00  0.00    -0.206 F 
ATOM     67  C   UNL A   1      44.018  35.848  31.572  1.00  0.00     0.060 A 
BRANCH  67  68
ATOM     68  S   UNL A   1      44.264  37.569  32.055  1.00  0.00     0.124 S 
ATOM     69  O   UNL A   1      43.366  37.679  33.202  1.00  0.00    -0.237 OA
ATOM     70  O   UNL A   1      45.690  37.606  32.363  1.00  0.00    -0.237 OA
ATOM     71  O   UNL A   1      43.862  38.318  30.869  1.00  0.00    -0.744 OA
ENDBRANCH  67  68
ENDBRANCH  46  60
BRANCH  47  72
ATOM     72  C   UNL A   1      42.434  23.716  27.639  1.00  0.00     0.058 A 
ATOM     73  C   UNL A   1      42.447  23.464  26.260  1.00  0.00     0.135 A 
ATOM     74  C   UNL A   1      42.299  22.618  28.503  1.00  0.00     0.135 A 
ATOM     75  F   UNL A   1      42.569  24.482  25.394  1.00  0.00    -0.206 F 
ATOM     76  C   UNL A   1      42.334  22.173  25.753  1.00  0.00     0.059 A 
ATOM     77  C   UNL A   1      42.208  21.314  28.021  1.00  0.00     0.059 A 
ATOM     78  F   UNL A   1      42.300  22.802  29.832  1.00  0.00    -0.206 F 
ATOM     79  C   UNL A   1      42.225  21.103  26.643  1.00  0.00     0.060 A 
BRANCH  79  80
ATOM     80  S   UNL A   1      42.166  19.426  25.974  1.00  0.00     0.124 S 
ATOM     81  O   UNL A   1      43.031  19.546  24.805  1.00  0.00    -0.237 OA
ATOM     82  O   UNL A   1      42.697  18.637  27.082  1.00  0.00    -0.237 OA
ATOM     83  O   UNL A   1      40.748  19.225  25.694  1.00  0.00    -0.744 OA
ENDBRANCH  79  80
ENDBRANCH  47  72
BRANCH  59  84
ATOM     84  C   UNL A   1      47.987  27.451  29.655  1.00  0.00     0.058 A 
ATOM     85  C   UNL A   1      48.894  27.675  28.607  1.00  0.00     0.135 A 
ATOM     86  C   UNL A   1      48.491  26.956  30.869  1.00  0.00     0.135 A 
ATOM     87  F   UNL A   1      48.460  28.141  27.426  1.00  0.00    -0.206 F 
ATOM     88  C   UNL A   1      50.248  27.398  28.752  1.00  0.00     0.059 A 
ATOM     89  C   UNL A   1      49.846  26.700  31.044  1.00  0.00     0.059 A 
ATOM     90  F   UNL A   1      47.666  26.736  31.905  1.00  0.00    -0.206 F 
ATOM     91  C   UNL A   1      50.715  26.914  29.976  1.00  0.00     0.060 A 
BRANCH  91  92
ATOM     92  S   UNL A   1      52.482  26.596  30.161  1.00  0.00     0.124 S 
ATOM     93  O   UNL A   1      52.484  25.506  31.131  1.00  0.00    -0.237 OA
ATOM     94  O   UNL A   1      52.879  26.237  28.804  1.00  0.00    -0.237 OA
ATOM     95  O   UNL A   1      53.007  27.869  30.646  1.00  0.00    -0.744 OA
ENDBRANCH  91  92
ENDBRANCH  59  84
ENDBRANCH  33  34
ENDBRANCH  25  28
ENDBRANCH  23  24
ENDBRANCH   1  23
TORSDOF 16
ENDMDL
MODEL 2
REMARK VINA RESULT:     -11.5      1.416      3.239
REMARK SMILES CCc1ccc(C[N@H+]2CC[C@@H](C(=O)NCCCNC(=O)c3ccc(-c4c5nc(c(-c6c(F)cc(S(=O)(=O)[O-])cc6F)c6ccc([nH]6)c(-c6c(F)cc(S(=O)(=O)[O-])cc6F)c6nc(c(-c7c(F)cc(S(=O)(=O)[O-])cc7F)c7ccc4[nH]7)C=C6)C=C5)cc3)[C@@H]2C)cc1
REMARK SMILES IDX 16 1 15 2 14 3 12 4 13 5 11 7 8 8 9 9 87 10 10 12 88 13 7 14
REMARK SMILES IDX 6 15 3 16 4 17 90 18 5 19 89 20 2 21 1 22 17 23 18 24 19 25
REMARK SMILES IDX 20 27 21 28 22 29 86 30 23 31 85 32 24 33 25 34 26 35 79 36
REMARK SMILES IDX 27 37 84 38 78 39 80 40 28 41 83 42 77 43 76 44 29 46 63 47
REMARK SMILES IDX 42 48 62 49 43 50 46 51 61 52 81 53 44 54 45 55 60 57 82 58
REMARK SMILES IDX 47 59 30 60 31 61 40 62 32 63 33 64 39 65 41 66 34 67 35 68
REMARK SMILES IDX 36 69 37 70 38 71 64 72 65 73 74 74 66 75 67 76 73 77 75 78
REMARK SMILES IDX 68 79 69 80 70 81 71 82 72 83 48 84 49 85 58 86 50 87 51 88
REMARK SMILES IDX 57 89 59 90 52 91 53 92 54 93 55 94 56 95
REMARK H PARENT 14 6 8 11 18 26 80 45 46 56
REMARK Flexibility Score: inf
ROOT
ATOM      1  C   UNL A   1      33.987  28.074  25.847  1.00  0.00     0.042 C 
ENDROOT
BRANCH   1   2
ATOM      2  C   UNL A   1      32.852  27.735  24.885  1.00  0.00     0.117 C 
BRANCH   2   3
ATOM      3  N   UNL A   1      31.771  27.055  25.559  1.00  0.00    -0.356 N 
ATOM      4  C   UNL A   1      31.588  25.733  25.802  1.00  0.00     0.229 C 
ATOM      5  O   UNL A   1      30.548  25.419  26.395  1.00  0.00    -0.275 OA
ATOM      6  H   UNL A   1      31.055  27.642  25.894  1.00  0.00     0.163 HD
BRANCH   4   7
ATOM      7  C   UNL A   1      32.606  24.658  25.444  1.00  0.00     0.142 C 
ATOM      8  N   UNL A   1      32.972  22.466  24.530  1.00  0.00    -0.328 N 
ATOM      9  C   UNL A   1      33.861  23.424  23.882  1.00  0.00     0.263 C 
ATOM     10  C   UNL A   1      32.195  23.179  25.566  1.00  0.00     0.193 C 
ATOM     11  H   UNL A   1      33.545  21.765  25.000  1.00  0.00     0.348 HD
ATOM     12  C   UNL A   1      33.184  24.774  24.043  1.00  0.00     0.081 C 
ATOM     13  C   UNL A   1      32.593  22.635  26.942  1.00  0.00     0.076 C 
BRANCH   8  14
ATOM     14  C   UNL A   1      32.252  21.515  23.665  1.00  0.00     0.299 C 
BRANCH  14  15
ATOM     15  C   UNL A   1      32.423  20.026  23.913  1.00  0.00     0.006 A 
ATOM     16  C   UNL A   1      33.002  17.281  24.337  1.00  0.00    -0.048 A 
ATOM     17  C   UNL A   1      32.719  17.758  23.055  1.00  0.00     0.004 A 
ATOM     18  C   UNL A   1      32.876  18.157  25.416  1.00  0.00     0.004 A 
ATOM     19  C   UNL A   1      32.419  19.114  22.848  1.00  0.00     0.010 A 
ATOM     20  C   UNL A   1      32.567  19.503  25.205  1.00  0.00     0.010 A 
BRANCH  16  21
ATOM     21  C   UNL A   1      33.467  15.863  24.561  1.00  0.00     0.032 C 
ATOM     22  C   UNL A   1      32.589  15.132  25.572  1.00  0.00     0.009 C 
ENDBRANCH  16  21
ENDBRANCH  14  15
ENDBRANCH   8  14
ENDBRANCH   4   7
ENDBRANCH   2   3
ENDBRANCH   1   2
BRANCH   1  23
ATOM     23  C   UNL A   1      33.537  28.337  27.279  1.00  0.00     0.118 C 
BRANCH  23  24
ATOM     24  N   UNL A   1      33.506  29.756  27.627  1.00  0.00    -0.352 N 
ATOM     25  C   UNL A   1      34.425  30.586  28.212  1.00  0.00     0.251 C 
ATOM     26  H   UNL A   1      32.658  30.203  27.396  1.00  0.00     0.163 HD
ATOM     27  O   UNL A   1      34.083  31.727  28.539  1.00  0.00    -0.269 OA
BRANCH  25  28
ATOM     28  C   UNL A   1      35.811  30.155  28.460  1.00  0.00     0.039 A 
ATOM     29  C   UNL A   1      36.184  29.727  29.741  1.00  0.00     0.014 A 
ATOM     30  C   UNL A   1      36.770  30.249  27.453  1.00  0.00     0.014 A 
ATOM     31  C   UNL A   1      37.506  29.352  29.994  1.00  0.00     0.010 A 
ATOM     32  C   UNL A   1      38.054  29.775  27.674  1.00  0.00     0.010 A 
ATOM     33  C   UNL A   1      38.443  29.352  28.953  1.00  0.00    -0.014 A 
BRANCH  33  34
ATOM     34  C   UNL A   1      39.867  28.993  29.154  1.00  0.00     0.031 A 
ATOM     35  C   UNL A   1      40.833  30.070  29.573  1.00  0.00     0.074 A 
ATOM     36  C   UNL A   1      40.303  27.762  28.832  1.00  0.00     0.049 A 
ATOM     37  N   UNL A   1      42.138  30.062  29.571  1.00  0.00    -0.248 NA
ATOM     38  C   UNL A   1      40.241  31.351  29.999  1.00  0.00     0.031 C 
ATOM     39  C   UNL A   1      39.457  26.656  28.380  1.00  0.00     0.029 A 
ATOM     40  N   UNL A   1      41.572  27.247  28.800  1.00  0.00    -0.354 N 
ATOM     41  C   UNL A   1      42.524  31.345  29.946  1.00  0.00     0.074 A 
ATOM     42  C   UNL A   1      41.313  32.118  30.116  1.00  0.00     0.031 C 
ATOM     43  C   UNL A   1      40.232  25.591  28.117  1.00  0.00     0.029 A 
ATOM     44  C   UNL A   1      41.628  25.955  28.333  1.00  0.00     0.049 A 
ATOM     45  H   UNL A   1      42.368  27.753  29.084  1.00  0.00     0.167 HD
ATOM     46  C   UNL A   1      43.773  31.826  30.148  1.00  0.00     0.037 A 
ATOM     47  C   UNL A   1      42.691  25.165  28.085  1.00  0.00     0.037 A 
ATOM     48  C   UNL A   1      44.960  31.022  30.017  1.00  0.00     0.049 A 
ATOM     49  C   UNL A   1      44.070  25.706  28.346  1.00  0.00     0.074 A 
ATOM     50  C   UNL A   1      46.273  31.376  30.262  1.00  0.00     0.029 A 
ATOM     51  N   UNL A   1      44.971  29.695  29.606  1.00  0.00    -0.354 N 
ATOM     52  N   UNL A   1      44.421  26.908  28.740  1.00  0.00    -0.248 NA
ATOM     53  C   UNL A   1      45.194  24.786  28.137  1.00  0.00     0.031 C 
ATOM     54  C   UNL A   1      47.082  30.274  29.962  1.00  0.00     0.029 A 
ATOM     55  C   UNL A   1      46.269  29.218  29.579  1.00  0.00     0.049 A 
ATOM     56  H   UNL A   1      44.171  29.172  29.369  1.00  0.00     0.167 HD
ATOM     57  C   UNL A   1      45.806  26.883  28.851  1.00  0.00     0.074 A 
ATOM     58  C   UNL A   1      46.225  25.542  28.491  1.00  0.00     0.031 C 
ATOM     59  C   UNL A   1      46.655  27.874  29.219  1.00  0.00     0.037 A 
BRANCH  46  60
ATOM     60  C   UNL A   1      43.908  33.278  30.527  1.00  0.00     0.058 A 
ATOM     61  C   UNL A   1      43.936  34.299  29.561  1.00  0.00     0.135 A 
ATOM     62  C   UNL A   1      44.023  33.657  31.875  1.00  0.00     0.135 A 
ATOM     63  F   UNL A   1      43.846  33.998  28.256  1.00  0.00    -0.206 F 
ATOM     64  C   UNL A   1      44.125  35.632  29.912  1.00  0.00     0.059 A 
ATOM     65  C   UNL A   1      44.176  34.989  32.252  1.00  0.00     0.059 A 
ATOM     66  F   UNL A   1      44.001  32.728  32.844  1.00  0.00    -0.206 F 
ATOM     67  C   UNL A   1      44.251  35.967  31.260  1.00  0.00     0.060 A 
BRANCH  67  68
ATOM     68  S   UNL A   1      44.519  37.697  31.699  1.00  0.00     0.124 S 
ATOM     69  O   UNL A   1      44.109  38.374  30.472  1.00  0.00    -0.237 OA
ATOM     70  O   UNL A   1      43.631  37.870  32.844  1.00  0.00    -0.237 OA
ATOM     71  O   UNL A   1      45.946  37.755  32.001  1.00  0.00    -0.744 OA
ENDBRANCH  67  68
ENDBRANCH  46  60
BRANCH  47  72
ATOM     72  C   UNL A   1      42.474  23.779  27.594  1.00  0.00     0.058 A 
ATOM     73  C   UNL A   1      42.401  23.509  26.219  1.00  0.00     0.135 A 
ATOM     74  C   UNL A   1      42.400  22.690  28.478  1.00  0.00     0.135 A 
ATOM     75  F   UNL A   1      42.463  24.517  25.335  1.00  0.00    -0.206 F 
ATOM     76  C   UNL A   1      42.264  22.212  25.736  1.00  0.00     0.059 A 
ATOM     77  C   UNL A   1      42.286  21.381  28.018  1.00  0.00     0.059 A 
ATOM     78  F   UNL A   1      42.484  22.892  29.802  1.00  0.00    -0.206 F 
ATOM     79  C   UNL A   1      42.217  21.153  26.645  1.00  0.00     0.060 A 
BRANCH  79  80
ATOM     80  S   UNL A   1      42.125  19.467  26.001  1.00  0.00     0.124 S 
ATOM     81  O   UNL A   1      42.662  18.697  27.117  1.00  0.00    -0.237 OA
ATOM     82  O   UNL A   1      40.695  19.314  25.749  1.00  0.00    -0.237 OA
ATOM     83  O   UNL A   1      42.962  19.517  24.807  1.00  0.00    -0.744 OA
ENDBRANCH  79  80
ENDBRANCH  47  72
BRANCH  59  84
ATOM     84  C   UNL A   1      48.119  27.538  29.286  1.00  0.00     0.058 A 
ATOM     85  C   UNL A   1      48.983  27.788  28.209  1.00  0.00     0.135 A 
ATOM     86  C   UNL A   1      48.670  27.015  30.467  1.00  0.00     0.135 A 
ATOM     87  F   UNL A   1      48.503  28.280  27.057  1.00  0.00    -0.206 F 
ATOM     88  C   UNL A   1      50.343  27.511  28.295  1.00  0.00     0.059 A 
ATOM     89  C   UNL A   1      50.031  26.758  30.583  1.00  0.00     0.059 A 
ATOM     90  F   UNL A   1      47.887  26.770  31.529  1.00  0.00    -0.206 F 
ATOM     91  C   UNL A   1      50.858  27.000  29.488  1.00  0.00     0.060 A 
BRANCH  91  92
ATOM     92  S   UNL A   1      52.631  26.681  29.597  1.00  0.00     0.124 S 
ATOM     93  O   UNL A   1      53.167  28.035  29.689  1.00  0.00    -0.237 OA
ATOM     94  O   UNL A   1      52.730  25.875  30.809  1.00  0.00    -0.237 OA
ATOM     95  O   UNL A   1      52.926  25.972  28.355  1.00  0.00    -0.744 OA
ENDBRANCH  91  92
ENDBRANCH  59  84
ENDBRANCH  33  34
ENDBRANCH  25  28
ENDBRANCH  23  24
ENDBRANCH   1  23
TORSDOF 16
ENDMDL
MODEL 3
REMARK VINA RESULT:     -11.4      1.283      2.735
REMARK SMILES CCc1ccc(C[N@H+]2CC[C@@H](C(=O)NCCCNC(=O)c3ccc(-c4c5nc(c(-c6c(F)cc(S(=O)(=O)[O-])cc6F)c6ccc([nH]6)c(-c6c(F)cc(S(=O)(=O)[O-])cc6F)c6nc(c(-c7c(F)cc(S(=O)(=O)[O-])cc7F)c7ccc4[nH]7)C=C6)C=C5)cc3)[C@@H]2C)cc1
REMARK SMILES IDX 16 1 15 2 14 3 12 4 13 5 11 7 8 8 9 9 87 10 10 12 88 13 7 14
REMARK SMILES IDX 6 15 3 16 4 17 90 18 5 19 89 20 2 21 1 22 17 23 18 24 19 25
REMARK SMILES IDX 20 27 21 28 22 29 86 30 23 31 85 32 24 33 25 34 26 35 79 36
REMARK SMILES IDX 27 37 84 38 78 39 80 40 28 41 83 42 77 43 76 44 29 46 63 47
REMARK SMILES IDX 42 48 62 49 43 50 46 51 61 52 81 53 44 54 45 55 60 57 82 58
REMARK SMILES IDX 47 59 30 60 31 61 40 62 32 63 33 64 39 65 41 66 34 67 35 68
REMARK SMILES IDX 36 69 37 70 38 71 64 72 65 73 74 74 66 75 67 76 73 77 75 78
REMARK SMILES IDX 68 79 69 80 70 81 71 82 72 83 48 84 49 85 58 86 50 87 51 88
REMARK SMILES IDX 57 89 59 90 52 91 53 92 54 93 55 94 56 95
REMARK H PARENT 14 6 8 11 18 26 80 45 46 56
REMARK Flexibility Score: inf
ROOT
ATOM      1  C   UNL A   1      33.363  29.018  25.753  1.00  0.00     0.042 C 
ENDROOT
BRANCH   1   2
ATOM      2  C   UNL A   1      31.860  28.774  25.643  1.00  0.00     0.117 C 
BRANCH   2   3
ATOM      3  N   UNL A   1      31.456  27.610  26.396  1.00  0.00    -0.356 N 
ATOM      4  C   UNL A   1      31.293  26.324  25.995  1.00  0.00     0.229 C 
ATOM      5  O   UNL A   1      30.917  25.519  26.856  1.00  0.00    -0.275 OA
ATOM      6  H   UNL A   1      31.269  27.774  27.349  1.00  0.00     0.163 HD
BRANCH   4   7
ATOM      7  C   UNL A   1      31.603  25.831  24.587  1.00  0.00     0.142 C 
ATOM      8  N   UNL A   1      32.597  24.110  23.237  1.00  0.00    -0.328 N 
ATOM      9  C   UNL A   1      31.244  24.384  22.767  1.00  0.00     0.263 C 
ATOM     10  C   UNL A   1      32.900  25.035  24.350  1.00  0.00     0.193 C 
ATOM     11  H   UNL A   1      33.247  24.316  22.478  1.00  0.00     0.348 HD
ATOM     12  C   UNL A   1      30.515  24.975  23.961  1.00  0.00     0.081 C 
ATOM     13  C   UNL A   1      34.025  25.980  23.915  1.00  0.00     0.076 C 
BRANCH   8  14
ATOM     14  C   UNL A   1      32.989  22.698  23.392  1.00  0.00     0.299 C 
BRANCH  14  15
ATOM     15  C   UNL A   1      34.382  22.378  23.909  1.00  0.00     0.006 A 
ATOM     16  C   UNL A   1      36.979  22.017  24.994  1.00  0.00    -0.048 A 
ATOM     17  C   UNL A   1      36.807  22.618  23.744  1.00  0.00     0.004 A 
ATOM     18  C   UNL A   1      35.858  21.491  25.638  1.00  0.00     0.004 A 
ATOM     19  C   UNL A   1      35.523  22.784  23.202  1.00  0.00     0.010 A 
ATOM     20  C   UNL A   1      34.584  21.650  25.089  1.00  0.00     0.010 A 
BRANCH  16  21
ATOM     21  C   UNL A   1      38.333  21.960  25.657  1.00  0.00     0.032 C 
ATOM     22  C   UNL A   1      38.663  23.260  26.384  1.00  0.00     0.009 C 
ENDBRANCH  16  21
ENDBRANCH  14  15
ENDBRANCH   8  14
ENDBRANCH   4   7
ENDBRANCH   2   3
ENDBRANCH   1   2
BRANCH   1  23
ATOM     23  C   UNL A   1      33.914  28.910  27.169  1.00  0.00     0.118 C 
BRANCH  23  24
ATOM     24  N   UNL A   1      33.851  30.165  27.915  1.00  0.00    -0.352 N 
ATOM     25  C   UNL A   1      34.751  30.807  28.723  1.00  0.00     0.251 C 
ATOM     26  H   UNL A   1      32.995  30.643  27.817  1.00  0.00     0.163 HD
ATOM     27  O   UNL A   1      34.384  31.797  29.365  1.00  0.00    -0.269 OA
BRANCH  25  28
ATOM     28  C   UNL A   1      36.146  30.351  28.846  1.00  0.00     0.039 A 
ATOM     29  C   UNL A   1      36.601  29.842  30.070  1.00  0.00     0.014 A 
ATOM     30  C   UNL A   1      37.033  30.500  27.782  1.00  0.00     0.014 A 
ATOM     31  C   UNL A   1      37.932  29.441  30.206  1.00  0.00     0.010 A 
ATOM     32  C   UNL A   1      38.324  30.003  27.884  1.00  0.00     0.010 A 
ATOM     33  C   UNL A   1      38.795  29.498  29.104  1.00  0.00    -0.014 A 
BRANCH  33  34
ATOM     34  C   UNL A   1      40.226  29.116  29.183  1.00  0.00     0.031 A 
ATOM     35  C   UNL A   1      41.243  30.182  29.491  1.00  0.00     0.074 A 
ATOM     36  C   UNL A   1      40.609  27.871  28.846  1.00  0.00     0.049 A 
ATOM     37  N   UNL A   1      42.543  30.149  29.371  1.00  0.00    -0.248 NA
ATOM     38  C   UNL A   1      40.715  31.481  29.943  1.00  0.00     0.031 C 
ATOM     39  C   UNL A   1      39.707  26.773  28.495  1.00  0.00     0.029 A 
ATOM     40  N   UNL A   1      41.861  27.332  28.710  1.00  0.00    -0.354 N 
ATOM     41  C   UNL A   1      42.983  31.431  29.684  1.00  0.00     0.074 A 
ATOM     42  C   UNL A   1      41.806  32.230  29.947  1.00  0.00     0.031 C 
ATOM     43  C   UNL A   1      40.436  25.689  28.184  1.00  0.00     0.029 A 
ATOM     44  C   UNL A   1      41.852  26.031  28.266  1.00  0.00     0.049 A 
ATOM     45  H   UNL A   1      42.688  27.828  28.910  1.00  0.00     0.167 HD
ATOM     46  C   UNL A   1      44.253  31.893  29.763  1.00  0.00     0.037 A 
ATOM     47  C   UNL A   1      42.874  25.217  27.938  1.00  0.00     0.037 A 
ATOM     48  C   UNL A   1      45.409  31.064  29.540  1.00  0.00     0.049 A 
ATOM     49  C   UNL A   1      44.280  25.736  28.062  1.00  0.00     0.074 A 
ATOM     50  C   UNL A   1      46.745  31.398  29.659  1.00  0.00     0.029 A 
ATOM     51  N   UNL A   1      45.360  29.730  29.156  1.00  0.00    -0.354 N 
ATOM     52  N   UNL A   1      44.686  26.938  28.399  1.00  0.00    -0.248 NA
ATOM     53  C   UNL A   1      45.365  24.792  27.771  1.00  0.00     0.031 C 
ATOM     54  C   UNL A   1      47.505  30.275  29.309  1.00  0.00     0.029 A 
ATOM     55  C   UNL A   1      46.642  29.228  29.022  1.00  0.00     0.049 A 
ATOM     56  H   UNL A   1      44.534  29.217  29.003  1.00  0.00     0.167 HD
ATOM     57  C   UNL A   1      46.075  26.889  28.385  1.00  0.00     0.074 A 
ATOM     58  C   UNL A   1      46.437  25.534  28.016  1.00  0.00     0.031 C 
ATOM     59  C   UNL A   1      46.971  27.871  28.655  1.00  0.00     0.037 A 
BRANCH  46  60
ATOM     60  C   UNL A   1      44.447  33.349  30.099  1.00  0.00     0.058 A 
ATOM     61  C   UNL A   1      44.547  34.334  29.102  1.00  0.00     0.135 A 
ATOM     62  C   UNL A   1      44.546  33.766  31.436  1.00  0.00     0.135 A 
ATOM     63  F   UNL A   1      44.474  33.995  27.805  1.00  0.00    -0.206 F 
ATOM     64  C   UNL A   1      44.789  35.668  29.415  1.00  0.00     0.059 A 
ATOM     65  C   UNL A   1      44.753  35.101  31.775  1.00  0.00     0.059 A 
ATOM     66  F   UNL A   1      44.457  32.870  32.433  1.00  0.00    -0.206 F 
ATOM     67  C   UNL A   1      44.898  36.041  30.755  1.00  0.00     0.060 A 
BRANCH  67  68
ATOM     68  S   UNL A   1      45.236  37.770  31.145  1.00  0.00     0.124 S 
ATOM     69  O   UNL A   1      44.762  38.438  29.937  1.00  0.00    -0.237 OA
ATOM     70  O   UNL A   1      44.430  37.984  32.343  1.00  0.00    -0.237 OA
ATOM     71  O   UNL A   1      46.680  37.797  31.352  1.00  0.00    -0.744 OA
ENDBRANCH  67  68
ENDBRANCH  46  60
BRANCH  47  72
ATOM     72  C   UNL A   1      42.590  23.826  27.496  1.00  0.00     0.058 A 
ATOM     73  C   UNL A   1      42.516  23.509  26.132  1.00  0.00     0.135 A 
ATOM     74  C   UNL A   1      42.451  22.777  28.419  1.00  0.00     0.135 A 
ATOM     75  F   UNL A   1      42.638  24.479  25.212  1.00  0.00    -0.206 F 
ATOM     76  C   UNL A   1      42.315  22.203  25.696  1.00  0.00     0.059 A 
ATOM     77  C   UNL A   1      42.273  21.459  28.007  1.00  0.00     0.059 A 
ATOM     78  F   UNL A   1      42.534  23.023  29.736  1.00  0.00    -0.206 F 
ATOM     79  C   UNL A   1      42.205  21.183  26.642  1.00  0.00     0.060 A 
BRANCH  79  80
ATOM     80  S   UNL A   1      42.031  19.482  26.060  1.00  0.00     0.124 S 
ATOM     81  O   UNL A   1      40.616  19.433  25.711  1.00  0.00    -0.237 OA
ATOM     82  O   UNL A   1      42.967  19.446  24.940  1.00  0.00    -0.237 OA
ATOM     83  O   UNL A   1      42.424  18.688  27.220  1.00  0.00    -0.744 OA
ENDBRANCH  79  80
ENDBRANCH  47  72
BRANCH  59  84
ATOM     84  C   UNL A   1      48.428  27.508  28.596  1.00  0.00     0.058 A 
ATOM     85  C   UNL A   1      49.178  27.655  27.419  1.00  0.00     0.135 A 
ATOM     86  C   UNL A   1      49.094  27.067  29.751  1.00  0.00     0.135 A 
ATOM     87  F   UNL A   1      48.586  28.067  26.287  1.00  0.00    -0.206 F 
ATOM     88  C   UNL A   1      50.535  27.355  27.384  1.00  0.00     0.059 A 
ATOM     89  C   UNL A   1      50.456  26.789  29.745  1.00  0.00     0.059 A 
ATOM     90  F   UNL A   1      48.423  26.921  30.905  1.00  0.00    -0.206 F 
ATOM     91  C   UNL A   1      51.166  26.926  28.554  1.00  0.00     0.060 A 
BRANCH  91  92
ATOM     92  S   UNL A   1      52.936  26.578  28.503  1.00  0.00     0.124 S 
ATOM     93  O   UNL A   1      53.019  25.640  27.389  1.00  0.00    -0.237 OA
ATOM     94  O   UNL A   1      53.508  27.899  28.263  1.00  0.00    -0.237 OA
ATOM     95  O   UNL A   1      53.209  26.014  29.821  1.00  0.00    -0.744 OA
ENDBRANCH  91  92
ENDBRANCH  59  84
ENDBRANCH  33  34
ENDBRANCH  25  28
ENDBRANCH  23  24
ENDBRANCH   1  23
TORSDOF 16
ENDMDL
