MODEL 1
REMARK VINA RESULT:     -13.6      0.000      0.000
REMARK SMILES Cc1noc2c1-c1c(c(C(=O)NCCCNC(=O)c3ccc(-c4c5nc(c(-c6c(F)cc(S(=O)(=O)[O-])cc6F)c6ccc([nH]6)c(-c6c(F)cc(S(=O)(=O)[O-])cc6F)c6nc(c(-c7c(F)cc(S(=O)(=O)[O-])cc7F)c7ccc4[nH]7)C=C6)C=C5)cc3)nn1C)CC2
REMARK SMILES IDX 16 1 17 2 18 3 15 5 14 6 13 7 12 8 10 9 11 10 9 12 1 13 2 14
REMARK SMILES IDX 3 15 6 16 4 17 5 18 7 19 89 20 8 21 86 22 88 23 85 24 87 25
REMARK SMILES IDX 19 26 20 27 84 28 21 29 83 30 22 31 23 32 24 33 77 34 25 35
REMARK SMILES IDX 82 36 76 37 78 38 26 39 81 40 75 41 74 42 27 44 61 45 40 46
REMARK SMILES IDX 60 47 41 48 44 49 59 50 79 51 42 52 43 53 58 55 80 56 45 57
REMARK SMILES IDX 28 58 29 59 38 60 30 61 31 62 37 63 39 64 32 65 33 66 34 67
REMARK SMILES IDX 35 68 36 69 62 70 63 71 72 72 64 73 65 74 71 75 73 76 66 77
REMARK SMILES IDX 67 78 68 79 69 80 70 81 46 82 47 83 56 84 48 85 49 86 55 87
REMARK SMILES IDX 57 88 50 89 51 90 52 91 53 92 54 93
REMARK H PARENT 16 4 12 11 78 43 44 54
REMARK Flexibility Score: inf
ROOT
ATOM      1  N   UNL A   1      38.930  21.845  26.532  1.00  0.00    -0.352 N 
ATOM      2  C   UNL A   1      39.968  22.325  27.322  1.00  0.00     0.251 C 
ATOM      3  O   UNL A   1      40.673  21.579  27.993  1.00  0.00    -0.269 OA
ATOM      4  H   UNL A   1      38.622  20.926  26.711  1.00  0.00     0.163 HD
ENDROOT
BRANCH   1   5
ATOM      5  C   UNL A   1      38.248  22.581  25.453  1.00  0.00     0.118 C 
BRANCH   5   6
ATOM      6  C   UNL A   1      37.250  21.768  24.683  1.00  0.00     0.042 C 
BRANCH   6   7
ATOM      7  C   UNL A   1      36.097  21.304  25.546  1.00  0.00     0.118 C 
BRANCH   7   8
ATOM      8  N   UNL A   1      35.371  20.113  25.254  1.00  0.00    -0.351 N 
ATOM      9  C   UNL A   1      34.090  20.039  24.718  1.00  0.00     0.272 C 
ATOM     10  O   UNL A   1      33.753  18.915  24.333  1.00  0.00    -0.267 OA
ATOM     11  H   UNL A   1      35.821  19.259  25.449  1.00  0.00     0.163 HD
BRANCH   9  12
ATOM     12  C   UNL A   1      33.131  21.209  24.661  1.00  0.00     0.154 A 
ATOM     13  C   UNL A   1      30.071  25.884  25.621  1.00  0.00     0.071 C 
ATOM     14  C   UNL A   1      30.894  25.636  24.421  1.00  0.00     0.090 A 
ATOM     15  N   UNL A   1      31.047  26.651  23.549  1.00  0.00    -0.084 NA
ATOM     16  C   UNL A   1      31.629  24.507  24.012  1.00  0.00     0.066 A 
ATOM     17  O   UNL A   1      31.870  26.178  22.541  1.00  0.00    -0.360 OA
ATOM     18  C   UNL A   1      32.195  24.904  22.826  1.00  0.00     0.146 A 
ATOM     19  C   UNL A   1      31.957  23.137  24.481  1.00  0.00     0.077 A 
ATOM     20  C   UNL A   1      33.030  24.130  21.897  1.00  0.00     0.084 C 
ATOM     21  C   UNL A   1      32.972  22.416  23.854  1.00  0.00     0.012 A 
ATOM     22  N   UNL A   1      31.486  22.348  25.475  1.00  0.00    -0.267 N 
ATOM     23  C   UNL A   1      33.731  23.009  22.671  1.00  0.00     0.048 C 
ATOM     24  N   UNL A   1      32.148  21.194  25.589  1.00  0.00    -0.167 NA
ATOM     25  C   UNL A   1      30.358  22.556  26.347  1.00  0.00     0.174 C 
ENDBRANCH   9  12
ENDBRANCH   7   8
ENDBRANCH   6   7
ENDBRANCH   5   6
ENDBRANCH   1   5
BRANCH   2  26
ATOM     26  C   UNL A   1      40.172  23.783  27.317  1.00  0.00     0.039 A 
ATOM     27  C   UNL A   1      39.112  24.690  27.267  1.00  0.00     0.014 A 
ATOM     28  C   UNL A   1      41.456  24.186  27.645  1.00  0.00     0.014 A 
ATOM     29  C   UNL A   1      39.348  25.997  27.689  1.00  0.00     0.010 A 
ATOM     30  C   UNL A   1      41.594  25.360  28.325  1.00  0.00     0.010 A 
ATOM     31  C   UNL A   1      40.587  26.313  28.271  1.00  0.00    -0.014 A 
BRANCH  31  32
ATOM     32  C   UNL A   1      40.844  27.588  28.933  1.00  0.00     0.031 A 
ATOM     33  C   UNL A   1      41.911  28.415  28.308  1.00  0.00     0.074 A 
ATOM     34  C   UNL A   1      40.031  28.079  29.898  1.00  0.00     0.049 A 
ATOM     35  N   UNL A   1      43.106  28.607  28.758  1.00  0.00    -0.248 NA
ATOM     36  C   UNL A   1      41.703  28.945  26.951  1.00  0.00     0.031 C 
ATOM     37  C   UNL A   1      38.772  27.523  30.417  1.00  0.00     0.029 A 
ATOM     38  N   UNL A   1      40.112  29.261  30.561  1.00  0.00    -0.354 N 
ATOM     39  C   UNL A   1      43.702  29.510  27.883  1.00  0.00     0.074 A 
ATOM     40  C   UNL A   1      42.895  29.491  26.691  1.00  0.00     0.031 C 
ATOM     41  C   UNL A   1      38.094  28.471  31.097  1.00  0.00     0.029 A 
ATOM     42  C   UNL A   1      38.952  29.629  31.239  1.00  0.00     0.049 A 
ATOM     43  H   UNL A   1      40.926  29.815  30.561  1.00  0.00     0.167 HD
ATOM     44  C   UNL A   1      44.642  30.395  28.324  1.00  0.00     0.037 A 
ATOM     45  C   UNL A   1      38.714  30.806  31.871  1.00  0.00     0.037 A 
ATOM     46  C   UNL A   1      45.114  30.028  29.640  1.00  0.00     0.049 A 
ATOM     47  C   UNL A   1      40.047  31.404  32.160  1.00  0.00     0.074 A 
ATOM     48  C   UNL A   1      45.680  28.888  30.181  1.00  0.00     0.029 A 
ATOM     49  N   UNL A   1      44.642  30.749  30.714  1.00  0.00    -0.354 N 
ATOM     50  N   UNL A   1      40.904  30.871  32.991  1.00  0.00    -0.248 NA
ATOM     51  C   UNL A   1      40.624  32.282  31.153  1.00  0.00     0.031 C 
ATOM     52  C   UNL A   1      45.061  28.742  31.458  1.00  0.00     0.029 A 
ATOM     53  C   UNL A   1      44.235  29.847  31.666  1.00  0.00     0.049 A 
ATOM     54  H   UNL A   1      44.603  31.730  30.785  1.00  0.00     0.167 HD
ATOM     55  C   UNL A   1      42.134  30.984  32.358  1.00  0.00     0.074 A 
ATOM     56  C   UNL A   1      41.910  31.931  31.265  1.00  0.00     0.031 C 
ATOM     57  C   UNL A   1      43.137  30.081  32.581  1.00  0.00     0.037 A 
BRANCH  44  58
ATOM     58  C   UNL A   1      44.851  31.786  27.767  1.00  0.00     0.058 A 
ATOM     59  C   UNL A   1      46.069  32.088  27.120  1.00  0.00     0.135 A 
ATOM     60  C   UNL A   1      44.041  32.900  28.082  1.00  0.00     0.135 A 
ATOM     61  F   UNL A   1      46.919  31.108  26.771  1.00  0.00    -0.206 F 
ATOM     62  C   UNL A   1      46.490  33.398  26.888  1.00  0.00     0.059 A 
ATOM     63  C   UNL A   1      44.416  34.210  27.810  1.00  0.00     0.059 A 
ATOM     64  F   UNL A   1      42.894  32.786  28.759  1.00  0.00    -0.206 F 
ATOM     65  C   UNL A   1      45.661  34.453  27.253  1.00  0.00     0.060 A 
BRANCH  65  66
ATOM     66  S   UNL A   1      46.242  36.145  27.052  1.00  0.00     0.124 S 
ATOM     67  O   UNL A   1      47.012  36.042  25.818  1.00  0.00    -0.237 OA
ATOM     68  O   UNL A   1      44.987  36.885  26.965  1.00  0.00    -0.237 OA
ATOM     69  O   UNL A   1      47.019  36.378  28.266  1.00  0.00    -0.744 OA
ENDBRANCH  65  66
ENDBRANCH  44  58
BRANCH  45  70
ATOM     70  C   UNL A   1      37.437  31.569  31.925  1.00  0.00     0.058 A 
ATOM     71  C   UNL A   1      36.833  31.897  33.153  1.00  0.00     0.135 A 
ATOM     72  C   UNL A   1      36.924  32.232  30.790  1.00  0.00     0.135 A 
ATOM     73  F   UNL A   1      37.264  31.328  34.289  1.00  0.00    -0.206 F 
ATOM     74  C   UNL A   1      35.826  32.866  33.256  1.00  0.00     0.059 A 
ATOM     75  C   UNL A   1      35.914  33.192  30.868  1.00  0.00     0.059 A 
ATOM     76  F   UNL A   1      37.454  32.037  29.573  1.00  0.00    -0.206 F 
ATOM     77  C   UNL A   1      35.390  33.526  32.109  1.00  0.00     0.060 A 
BRANCH  77  78
ATOM     78  S   UNL A   1      34.235  34.913  32.258  1.00  0.00     0.124 S 
ATOM     79  O   UNL A   1      34.027  35.285  30.864  1.00  0.00    -0.237 OA
ATOM     80  O   UNL A   1      33.096  34.296  32.930  1.00  0.00    -0.237 OA
ATOM     81  O   UNL A   1      34.973  35.884  33.062  1.00  0.00    -0.744 OA
ENDBRANCH  77  78
ENDBRANCH  45  70
BRANCH  57  82
ATOM     82  C   UNL A   1      42.998  29.111  33.731  1.00  0.00     0.058 A 
ATOM     83  C   UNL A   1      43.271  29.416  35.077  1.00  0.00     0.135 A 
ATOM     84  C   UNL A   1      42.411  27.864  33.472  1.00  0.00     0.135 A 
ATOM     85  F   UNL A   1      43.726  30.625  35.433  1.00  0.00    -0.206 F 
ATOM     86  C   UNL A   1      43.023  28.506  36.108  1.00  0.00     0.059 A 
ATOM     87  C   UNL A   1      42.123  26.953  34.485  1.00  0.00     0.059 A 
ATOM     88  F   UNL A   1      42.060  27.532  32.218  1.00  0.00    -0.206 F 
ATOM     89  C   UNL A   1      42.450  27.273  35.801  1.00  0.00     0.060 A 
BRANCH  89  90
ATOM     90  S   UNL A   1      42.082  26.113  37.136  1.00  0.00     0.124 S 
ATOM     91  O   UNL A   1      40.679  26.401  37.413  1.00  0.00    -0.237 OA
ATOM     92  O   UNL A   1      42.353  24.819  36.516  1.00  0.00    -0.237 OA
ATOM     93  O   UNL A   1      43.018  26.498  38.190  1.00  0.00    -0.744 OA
ENDBRANCH  89  90
ENDBRANCH  57  82
ENDBRANCH  31  32
ENDBRANCH   2  26
TORSDOF 13
ENDMDL
MODEL 2
REMARK VINA RESULT:     -13.6      1.123      1.461
REMARK SMILES Cc1noc2c1-c1c(c(C(=O)NCCCNC(=O)c3ccc(-c4c5nc(c(-c6c(F)cc(S(=O)(=O)[O-])cc6F)c6ccc([nH]6)c(-c6c(F)cc(S(=O)(=O)[O-])cc6F)c6nc(c(-c7c(F)cc(S(=O)(=O)[O-])cc7F)c7ccc4[nH]7)C=C6)C=C5)cc3)nn1C)CC2
REMARK SMILES IDX 16 1 17 2 18 3 15 5 14 6 13 7 12 8 10 9 11 10 9 12 1 13 2 14
REMARK SMILES IDX 3 15 6 16 4 17 5 18 7 19 89 20 8 21 86 22 88 23 85 24 87 25
REMARK SMILES IDX 19 26 20 27 84 28 21 29 83 30 22 31 23 32 24 33 77 34 25 35
REMARK SMILES IDX 82 36 76 37 78 38 26 39 81 40 75 41 74 42 27 44 61 45 40 46
REMARK SMILES IDX 60 47 41 48 44 49 59 50 79 51 42 52 43 53 58 55 80 56 45 57
REMARK SMILES IDX 28 58 29 59 38 60 30 61 31 62 37 63 39 64 32 65 33 66 34 67
REMARK SMILES IDX 35 68 36 69 62 70 63 71 72 72 64 73 65 74 71 75 73 76 66 77
REMARK SMILES IDX 67 78 68 79 69 80 70 81 46 82 47 83 56 84 48 85 49 86 55 87
REMARK SMILES IDX 57 88 50 89 51 90 52 91 53 92 54 93
REMARK H PARENT 16 4 12 11 78 43 44 54
REMARK Flexibility Score: inf
ROOT
ATOM      1  N   UNL A   1      38.963  21.821  26.537  1.00  0.00    -0.352 N 
ATOM      2  C   UNL A   1      40.002  22.293  27.332  1.00  0.00     0.251 C 
ATOM      3  O   UNL A   1      40.695  21.542  28.010  1.00  0.00    -0.269 OA
ATOM      4  H   UNL A   1      38.644  20.907  26.716  1.00  0.00     0.163 HD
ENDROOT
BRANCH   1   5
ATOM      5  C   UNL A   1      38.297  22.562  25.450  1.00  0.00     0.118 C 
BRANCH   5   6
ATOM      6  C   UNL A   1      36.863  22.905  25.724  1.00  0.00     0.042 C 
BRANCH   6   7
ATOM      7  C   UNL A   1      36.030  21.685  26.052  1.00  0.00     0.118 C 
BRANCH   7   8
ATOM      8  N   UNL A   1      35.034  21.706  27.070  1.00  0.00    -0.351 N 
ATOM      9  C   UNL A   1      33.813  22.369  27.014  1.00  0.00     0.272 C 
ATOM     10  O   UNL A   1      33.014  22.060  27.905  1.00  0.00    -0.267 OA
ATOM     11  H   UNL A   1      35.228  21.201  27.892  1.00  0.00     0.163 HD
BRANCH   9  12
ATOM     12  C   UNL A   1      33.480  23.441  25.998  1.00  0.00     0.154 A 
ATOM     13  C   UNL A   1      33.377  27.981  22.605  1.00  0.00     0.071 C 
ATOM     14  C   UNL A   1      33.269  26.580  22.156  1.00  0.00     0.090 A 
ATOM     15  N   UNL A   1      33.290  26.346  20.829  1.00  0.00    -0.084 NA
ATOM     16  C   UNL A   1      33.197  25.372  22.877  1.00  0.00     0.066 A 
ATOM     17  O   UNL A   1      33.202  24.973  20.673  1.00  0.00    -0.360 OA
ATOM     18  C   UNL A   1      33.136  24.414  21.895  1.00  0.00     0.146 A 
ATOM     19  C   UNL A   1      33.196  24.890  24.280  1.00  0.00     0.077 A 
ATOM     20  C   UNL A   1      32.991  22.958  22.035  1.00  0.00     0.084 C 
ATOM     21  C   UNL A   1      33.368  23.531  24.544  1.00  0.00     0.012 A 
ATOM     22  N   UNL A   1      33.082  25.500  25.484  1.00  0.00    -0.267 N 
ATOM     23  C   UNL A   1      33.528  22.531  23.404  1.00  0.00     0.048 C 
ATOM     24  N   UNL A   1      33.224  24.664  26.514  1.00  0.00    -0.167 NA
ATOM     25  C   UNL A   1      32.768  26.874  25.781  1.00  0.00     0.174 C 
ENDBRANCH   9  12
ENDBRANCH   7   8
ENDBRANCH   6   7
ENDBRANCH   5   6
ENDBRANCH   1   5
BRANCH   2  26
ATOM     26  C   UNL A   1      40.221  23.748  27.323  1.00  0.00     0.039 A 
ATOM     27  C   UNL A   1      39.173  24.667  27.240  1.00  0.00     0.014 A 
ATOM     28  C   UNL A   1      41.501  24.140  27.683  1.00  0.00     0.014 A 
ATOM     29  C   UNL A   1      39.412  25.974  27.659  1.00  0.00     0.010 A 
ATOM     30  C   UNL A   1      41.633  25.317  28.360  1.00  0.00     0.010 A 
ATOM     31  C   UNL A   1      40.638  26.280  28.273  1.00  0.00    -0.014 A 
BRANCH  31  32
ATOM     32  C   UNL A   1      40.891  27.556  28.934  1.00  0.00     0.031 A 
ATOM     33  C   UNL A   1      41.962  28.381  28.314  1.00  0.00     0.074 A 
ATOM     34  C   UNL A   1      40.072  28.050  29.893  1.00  0.00     0.049 A 
ATOM     35  N   UNL A   1      43.155  28.575  28.772  1.00  0.00    -0.248 NA
ATOM     36  C   UNL A   1      41.764  28.909  26.954  1.00  0.00     0.031 C 
ATOM     37  C   UNL A   1      38.809  27.496  30.404  1.00  0.00     0.029 A 
ATOM     38  N   UNL A   1      40.149  29.234  30.553  1.00  0.00    -0.354 N 
ATOM     39  C   UNL A   1      43.757  29.475  27.899  1.00  0.00     0.074 A 
ATOM     40  C   UNL A   1      42.959  29.453  26.702  1.00  0.00     0.031 C 
ATOM     41  C   UNL A   1      38.127  28.446  31.077  1.00  0.00     0.029 A 
ATOM     42  C   UNL A   1      38.985  29.604  31.222  1.00  0.00     0.049 A 
ATOM     43  H   UNL A   1      40.963  29.787  30.558  1.00  0.00     0.167 HD
ATOM     44  C   UNL A   1      44.694  30.361  28.345  1.00  0.00     0.037 A 
ATOM     45  C   UNL A   1      38.743  30.782  31.850  1.00  0.00     0.037 A 
ATOM     46  C   UNL A   1      45.158  29.996  29.665  1.00  0.00     0.049 A 
ATOM     47  C   UNL A   1      40.074  31.380  32.147  1.00  0.00     0.074 A 
ATOM     48  C   UNL A   1      45.719  28.857  30.212  1.00  0.00     0.029 A 
ATOM     49  N   UNL A   1      44.678  30.720  30.734  1.00  0.00    -0.354 N 
ATOM     50  N   UNL A   1      40.925  30.849  32.985  1.00  0.00    -0.248 NA
ATOM     51  C   UNL A   1      40.658  32.256  31.142  1.00  0.00     0.031 C 
ATOM     52  C   UNL A   1      45.092  28.714  31.485  1.00  0.00     0.029 A 
ATOM     53  C   UNL A   1      44.264  29.821  31.684  1.00  0.00     0.049 A 
ATOM     54  H   UNL A   1      44.639  31.701  30.802  1.00  0.00     0.167 HD
ATOM     55  C   UNL A   1      42.159  30.960  32.360  1.00  0.00     0.074 A 
ATOM     56  C   UNL A   1      41.943  31.905  31.263  1.00  0.00     0.031 C 
ATOM     57  C   UNL A   1      43.160  30.057  32.591  1.00  0.00     0.037 A 
BRANCH  44  58
ATOM     58  C   UNL A   1      44.908  31.751  27.785  1.00  0.00     0.058 A 
ATOM     59  C   UNL A   1      46.131  32.051  27.149  1.00  0.00     0.135 A 
ATOM     60  C   UNL A   1      44.095  32.865  28.091  1.00  0.00     0.135 A 
ATOM     61  F   UNL A   1      46.984  31.071  26.809  1.00  0.00    -0.206 F 
ATOM     62  C   UNL A   1      46.553  33.361  26.917  1.00  0.00     0.059 A 
ATOM     63  C   UNL A   1      44.472  34.174  27.819  1.00  0.00     0.059 A 
ATOM     64  F   UNL A   1      42.942  32.752  28.759  1.00  0.00    -0.206 F 
ATOM     65  C   UNL A   1      45.721  34.416  27.272  1.00  0.00     0.060 A 
BRANCH  65  66
ATOM     66  S   UNL A   1      46.304  36.108  27.072  1.00  0.00     0.124 S 
ATOM     67  O   UNL A   1      47.092  36.000  25.850  1.00  0.00    -0.237 OA
ATOM     68  O   UNL A   1      45.050  36.846  26.963  1.00  0.00    -0.237 OA
ATOM     69  O   UNL A   1      47.062  36.348  28.296  1.00  0.00    -0.744 OA
ENDBRANCH  65  66
ENDBRANCH  44  58
BRANCH  45  70
ATOM     70  C   UNL A   1      37.466  31.546  31.894  1.00  0.00     0.058 A 
ATOM     71  C   UNL A   1      36.850  31.870  33.117  1.00  0.00     0.135 A 
ATOM     72  C   UNL A   1      36.964  32.213  30.756  1.00  0.00     0.135 A 
ATOM     73  F   UNL A   1      37.268  31.296  34.255  1.00  0.00    -0.206 F 
ATOM     74  C   UNL A   1      35.842  32.839  33.213  1.00  0.00     0.059 A 
ATOM     75  C   UNL A   1      35.955  33.173  30.827  1.00  0.00     0.059 A 
ATOM     76  F   UNL A   1      37.507  32.022  29.544  1.00  0.00    -0.206 F 
ATOM     77  C   UNL A   1      35.418  33.504  32.064  1.00  0.00     0.060 A 
BRANCH  77  78
ATOM     78  S   UNL A   1      34.263  34.890  32.206  1.00  0.00     0.124 S 
ATOM     79  O   UNL A   1      34.018  35.225  30.808  1.00  0.00    -0.237 OA
ATOM     80  O   UNL A   1      33.143  34.288  32.922  1.00  0.00    -0.237 OA
ATOM     81  O   UNL A   1      35.018  35.884  32.965  1.00  0.00    -0.744 OA
ENDBRANCH  77  78
ENDBRANCH  45  70
BRANCH  57  82
ATOM     82  C   UNL A   1      43.013  29.090  33.743  1.00  0.00     0.058 A 
ATOM     83  C   UNL A   1      43.292  29.393  35.088  1.00  0.00     0.135 A 
ATOM     84  C   UNL A   1      42.412  27.848  33.486  1.00  0.00     0.135 A 
ATOM     85  F   UNL A   1      43.761  30.597  35.442  1.00  0.00    -0.206 F 
ATOM     86  C   UNL A   1      43.036  28.486  36.121  1.00  0.00     0.059 A 
ATOM     87  C   UNL A   1      42.117  26.942  34.501  1.00  0.00     0.059 A 
ATOM     88  F   UNL A   1      42.056  27.519  32.233  1.00  0.00    -0.206 F 
ATOM     89  C   UNL A   1      42.449  27.260  35.816  1.00  0.00     0.060 A 
BRANCH  89  90
ATOM     90  S   UNL A   1      42.072  26.105  37.152  1.00  0.00     0.124 S 
ATOM     91  O   UNL A   1      42.323  24.814  36.520  1.00  0.00    -0.237 OA
ATOM     92  O   UNL A   1      43.021  26.498  38.190  1.00  0.00    -0.237 OA
ATOM     93  O   UNL A   1      40.672  26.385  37.461  1.00  0.00    -0.744 OA
ENDBRANCH  89  90
ENDBRANCH  57  82
ENDBRANCH  31  32
ENDBRANCH   2  26
TORSDOF 13
ENDMDL
MODEL 3
REMARK VINA RESULT:     -13.4      3.185      9.505
REMARK SMILES Cc1noc2c1-c1c(c(C(=O)NCCCNC(=O)c3ccc(-c4c5nc(c(-c6c(F)cc(S(=O)(=O)[O-])cc6F)c6ccc([nH]6)c(-c6c(F)cc(S(=O)(=O)[O-])cc6F)c6nc(c(-c7c(F)cc(S(=O)(=O)[O-])cc7F)c7ccc4[nH]7)C=C6)C=C5)cc3)nn1C)CC2
REMARK SMILES IDX 16 1 17 2 18 3 15 5 14 6 13 7 12 8 10 9 11 10 9 12 1 13 2 14
REMARK SMILES IDX 3 15 6 16 4 17 5 18 7 19 89 20 8 21 86 22 88 23 85 24 87 25
REMARK SMILES IDX 19 26 20 27 84 28 21 29 83 30 22 31 23 32 24 33 77 34 25 35
REMARK SMILES IDX 82 36 76 37 78 38 26 39 81 40 75 41 74 42 27 44 61 45 40 46
REMARK SMILES IDX 60 47 41 48 44 49 59 50 79 51 42 52 43 53 58 55 80 56 45 57
REMARK SMILES IDX 28 58 29 59 38 60 30 61 31 62 37 63 39 64 32 65 33 66 34 67
REMARK SMILES IDX 35 68 36 69 62 70 63 71 72 72 64 73 65 74 71 75 73 76 66 77
REMARK SMILES IDX 67 78 68 79 69 80 70 81 46 82 47 83 56 84 48 85 49 86 55 87
REMARK SMILES IDX 57 88 50 89 51 90 52 91 53 92 54 93
REMARK H PARENT 16 4 12 11 78 43 44 54
REMARK Flexibility Score: inf
ROOT
ATOM      1  N   UNL A   1      34.298  31.329  27.200  1.00  0.00    -0.352 N 
ATOM      2  C   UNL A   1      35.442  31.947  27.693  1.00  0.00     0.251 C 
ATOM      3  O   UNL A   1      35.653  33.144  27.538  1.00  0.00    -0.269 OA
ATOM      4  H   UNL A   1      33.783  31.822  26.520  1.00  0.00     0.163 HD
ENDROOT
BRANCH   1   5
ATOM      5  C   UNL A   1      33.784  30.007  27.602  1.00  0.00     0.118 C 
BRANCH   5   6
ATOM      6  C   UNL A   1      33.535  29.067  26.460  1.00  0.00     0.042 C 
BRANCH   6   7
ATOM      7  C   UNL A   1      33.004  29.777  25.234  1.00  0.00     0.118 C 
BRANCH   7   8
ATOM      8  N   UNL A   1      33.529  29.526  23.933  1.00  0.00    -0.351 N 
ATOM      9  C   UNL A   1      33.501  28.314  23.254  1.00  0.00     0.272 C 
ATOM     10  O   UNL A   1      33.802  28.382  22.057  1.00  0.00    -0.267 OA
ATOM     11  H   UNL A   1      33.952  30.285  23.471  1.00  0.00     0.163 HD
BRANCH   9  12
ATOM     12  C   UNL A   1      33.199  26.984  23.912  1.00  0.00     0.154 A 
ATOM     13  C   UNL A   1      33.017  22.382  27.218  1.00  0.00     0.071 C 
ATOM     14  C   UNL A   1      31.865  23.243  26.893  1.00  0.00     0.090 A 
ATOM     15  N   UNL A   1      30.707  23.006  27.540  1.00  0.00    -0.084 NA
ATOM     16  C   UNL A   1      31.742  24.352  26.034  1.00  0.00     0.066 A 
ATOM     17  O   UNL A   1      29.804  23.951  27.083  1.00  0.00    -0.360 OA
ATOM     18  C   UNL A   1      30.431  24.732  26.184  1.00  0.00     0.146 A 
ATOM     19  C   UNL A   1      32.571  25.170  25.114  1.00  0.00     0.077 A 
ATOM     20  C   UNL A   1      29.695  25.802  25.496  1.00  0.00     0.084 C 
ATOM     21  C   UNL A   1      32.081  26.385  24.637  1.00  0.00     0.012 A 
ATOM     22  N   UNL A   1      33.812  25.027  24.591  1.00  0.00    -0.267 N 
ATOM     23  C   UNL A   1      30.689  26.870  25.028  1.00  0.00     0.048 C 
ATOM     24  N   UNL A   1      34.198  26.075  23.859  1.00  0.00    -0.167 NA
ATOM     25  C   UNL A   1      34.706  23.900  24.663  1.00  0.00     0.174 C 
ENDBRANCH   9  12
ENDBRANCH   7   8
ENDBRANCH   6   7
ENDBRANCH   5   6
ENDBRANCH   1   5
BRANCH   2  26
ATOM     26  C   UNL A   1      36.395  31.081  28.408  1.00  0.00     0.039 A 
ATOM     27  C   UNL A   1      36.515  29.716  28.144  1.00  0.00     0.014 A 
ATOM     28  C   UNL A   1      37.346  31.763  29.150  1.00  0.00     0.014 A 
ATOM     29  C   UNL A   1      37.689  29.074  28.532  1.00  0.00     0.010 A 
ATOM     30  C   UNL A   1      38.587  31.203  29.249  1.00  0.00     0.010 A 
ATOM     31  C   UNL A   1      38.750  29.842  29.039  1.00  0.00    -0.014 A 
BRANCH  31  32
ATOM     32  C   UNL A   1      40.083  29.291  29.265  1.00  0.00     0.031 A 
ATOM     33  C   UNL A   1      40.450  29.105  30.695  1.00  0.00     0.074 A 
ATOM     34  C   UNL A   1      40.836  28.784  28.261  1.00  0.00     0.049 A 
ATOM     35  N   UNL A   1      41.269  29.827  31.385  1.00  0.00    -0.248 NA
ATOM     36  C   UNL A   1      39.702  28.130  31.505  1.00  0.00     0.031 C 
ATOM     37  C   UNL A   1      40.494  28.621  26.840  1.00  0.00     0.029 A 
ATOM     38  N   UNL A   1      42.059  28.196  28.326  1.00  0.00    -0.354 N 
ATOM     39  C   UNL A   1      41.350  29.221  32.635  1.00  0.00     0.074 A 
ATOM     40  C   UNL A   1      40.209  28.349  32.722  1.00  0.00     0.031 C 
ATOM     41  C   UNL A   1      41.353  27.762  26.253  1.00  0.00     0.029 A 
ATOM     42  C   UNL A   1      42.418  27.474  27.191  1.00  0.00     0.049 A 
ATOM     43  H   UNL A   1      42.644  28.275  29.113  1.00  0.00     0.167 HD
ATOM     44  C   UNL A   1      42.499  29.283  33.369  1.00  0.00     0.037 A 
ATOM     45  C   UNL A   1      43.516  26.692  27.034  1.00  0.00     0.037 A 
ATOM     46  C   UNL A   1      43.396  30.283  32.833  1.00  0.00     0.049 A 
ATOM     47  C   UNL A   1      44.502  27.144  28.054  1.00  0.00     0.074 A 
ATOM     48  C   UNL A   1      43.287  31.634  32.564  1.00  0.00     0.029 A 
ATOM     49  N   UNL A   1      44.473  29.845  32.095  1.00  0.00    -0.354 N 
ATOM     50  N   UNL A   1      45.063  28.325  28.032  1.00  0.00    -0.248 NA
ATOM     51  C   UNL A   1      44.466  26.499  29.358  1.00  0.00     0.031 C 
ATOM     52  C   UNL A   1      43.948  31.813  31.313  1.00  0.00     0.029 A 
ATOM     53  C   UNL A   1      44.508  30.588  30.942  1.00  0.00     0.049 A 
ATOM     54  H   UNL A   1      45.101  29.131  32.348  1.00  0.00     0.167 HD
ATOM     55  C   UNL A   1      45.046  28.753  29.352  1.00  0.00     0.074 A 
ATOM     56  C   UNL A   1      44.738  27.555  30.133  1.00  0.00     0.031 C 
ATOM     57  C   UNL A   1      44.981  30.082  29.670  1.00  0.00     0.037 A 
BRANCH  44  58
ATOM     58  C   UNL A   1      42.986  28.201  34.308  1.00  0.00     0.058 A 
ATOM     59  C   UNL A   1      43.292  28.541  35.643  1.00  0.00     0.135 A 
ATOM     60  C   UNL A   1      43.432  26.928  33.890  1.00  0.00     0.135 A 
ATOM     61  F   UNL A   1      42.917  29.727  36.150  1.00  0.00    -0.206 F 
ATOM     62  C   UNL A   1      44.058  27.718  36.469  1.00  0.00     0.059 A 
ATOM     63  C   UNL A   1      44.149  26.069  34.715  1.00  0.00     0.059 A 
ATOM     64  F   UNL A   1      43.285  26.490  32.635  1.00  0.00    -0.206 F 
ATOM     65  C   UNL A   1      44.496  26.490  35.988  1.00  0.00     0.060 A 
BRANCH  65  66
ATOM     66  S   UNL A   1      45.571  25.471  37.010  1.00  0.00     0.124 S 
ATOM     67  O   UNL A   1      44.631  24.964  38.003  1.00  0.00    -0.237 OA
ATOM     68  O   UNL A   1      46.070  24.497  36.045  1.00  0.00    -0.237 OA
ATOM     69  O   UNL A   1      46.563  26.421  37.504  1.00  0.00    -0.744 OA
ENDBRANCH  65  66
ENDBRANCH  44  58
BRANCH  45  70
ATOM     70  C   UNL A   1      43.616  25.398  26.305  1.00  0.00     0.058 A 
ATOM     71  C   UNL A   1      44.584  25.196  25.303  1.00  0.00     0.135 A 
ATOM     72  C   UNL A   1      42.951  24.240  26.760  1.00  0.00     0.135 A 
ATOM     73  F   UNL A   1      45.278  26.237  24.818  1.00  0.00    -0.206 F 
ATOM     74  C   UNL A   1      44.914  23.920  24.828  1.00  0.00     0.059 A 
ATOM     75  C   UNL A   1      43.256  22.960  26.293  1.00  0.00     0.059 A 
ATOM     76  F   UNL A   1      42.045  24.302  27.747  1.00  0.00    -0.206 F 
ATOM     77  C   UNL A   1      44.260  22.804  25.347  1.00  0.00     0.060 A 
BRANCH  77  78
ATOM     78  S   UNL A   1      44.815  21.144  24.885  1.00  0.00     0.124 S 
ATOM     79  O   UNL A   1      43.898  20.297  25.638  1.00  0.00    -0.237 OA
ATOM     80  O   UNL A   1      44.635  21.150  23.437  1.00  0.00    -0.237 OA
ATOM     81  O   UNL A   1      46.205  21.115  25.334  1.00  0.00    -0.744 OA
ENDBRANCH  77  78
ENDBRANCH  45  70
BRANCH  57  82
ATOM     82  C   UNL A   1      45.204  31.102  28.578  1.00  0.00     0.058 A 
ATOM     83  C   UNL A   1      44.229  31.516  27.653  1.00  0.00     0.135 A 
ATOM     84  C   UNL A   1      46.420  31.803  28.573  1.00  0.00     0.135 A 
ATOM     85  F   UNL A   1      43.001  30.983  27.658  1.00  0.00    -0.206 F 
ATOM     86  C   UNL A   1      44.469  32.540  26.732  1.00  0.00     0.059 A 
ATOM     87  C   UNL A   1      46.670  32.849  27.688  1.00  0.00     0.059 A 
ATOM     88  F   UNL A   1      47.371  31.508  29.474  1.00  0.00    -0.206 F 
ATOM     89  C   UNL A   1      45.696  33.200  26.756  1.00  0.00     0.060 A 
BRANCH  89  90
ATOM     90  S   UNL A   1      45.992  34.556  25.601  1.00  0.00     0.124 S 
ATOM     91  O   UNL A   1      47.422  34.428  25.339  1.00  0.00    -0.237 OA
ATOM     92  O   UNL A   1      45.111  34.222  24.485  1.00  0.00    -0.237 OA
ATOM     93  O   UNL A   1      45.601  35.743  26.359  1.00  0.00    -0.744 OA
ENDBRANCH  89  90
ENDBRANCH  57  82
ENDBRANCH  31  32
ENDBRANCH   2  26
TORSDOF 13
ENDMDL
