MODEL 1
REMARK VINA RESULT:     -12.6      0.000      0.000
REMARK SMILES Cc1ccc(C)c(NC(=O)/C=C/C(=O)NCCCNC(=O)c2ccc(-c3c4nc(c(-c5c(F)cc(S(=O)(=O)[O-])cc5F)c5ccc([nH]5)c(-c5c(F)cc(S(=O)(=O)[O-])cc5F)c5nc(c(-c6c(F)cc(S(=O)(=O)[O-])cc6F)c6ccc3[nH]6)C=C5)C=C4)cc2)c1
REMARK SMILES IDX 17 1 16 2 15 3 13 4 14 5 12 7 11 8 9 9 8 10 10 12 7 13 1 14
REMARK SMILES IDX 2 15 3 16 88 17 4 18 5 19 6 20 18 21 19 22 20 23 21 25 22 26
REMARK SMILES IDX 23 27 87 28 24 29 86 30 25 31 26 32 27 33 80 34 28 35 85 36
REMARK SMILES IDX 79 37 81 38 29 39 84 40 78 41 77 42 30 44 64 45 43 46 63 47
REMARK SMILES IDX 44 48 47 49 62 50 82 51 45 52 46 53 61 55 83 56 48 57 31 58
REMARK SMILES IDX 32 59 41 60 33 61 34 62 40 63 42 64 35 65 36 66 37 67 38 68
REMARK SMILES IDX 39 69 65 70 66 71 75 72 67 73 68 74 74 75 76 76 69 77 70 78
REMARK SMILES IDX 71 79 72 80 73 81 49 82 50 83 59 84 51 85 52 86 58 87 60 88
REMARK SMILES IDX 53 89 54 90 55 91 56 92 57 93
REMARK H PARENT 15 6 8 11 19 24 81 43 47 54
REMARK Flexibility Score: inf
ROOT
ATOM      1  C   UNL A   1      38.878  21.788  25.890  1.00  0.00     0.042 C 
ENDROOT
BRANCH   1   2
ATOM      2  C   UNL A   1      38.157  23.137  26.026  1.00  0.00     0.118 C 
BRANCH   2   3
ATOM      3  N   UNL A   1      37.526  23.535  24.787  1.00  0.00    -0.352 N 
ATOM      4  C   UNL A   1      36.356  23.027  24.308  1.00  0.00     0.244 C 
ATOM      5  O   UNL A   1      36.175  22.894  23.115  1.00  0.00    -0.270 OA
ATOM      6  H   UNL A   1      37.977  24.226  24.250  1.00  0.00     0.163 HD
BRANCH   4   7
ATOM      7  C   UNL A   1      35.337  22.709  25.331  1.00  0.00     0.077 C 
ATOM      8  C   UNL A   1      35.184  21.454  25.767  1.00  0.00     0.077 C 
BRANCH   8   9
ATOM      9  C   UNL A   1      34.011  21.206  26.605  1.00  0.00     0.248 C 
ATOM     10  N   UNL A   1      33.162  20.174  26.351  1.00  0.00    -0.322 N 
ATOM     11  H   UNL A   1      32.514  20.050  27.082  1.00  0.00     0.170 HD
ATOM     12  O   UNL A   1      33.819  21.918  27.594  1.00  0.00    -0.270 OA
BRANCH  10  13
ATOM     13  C   UNL A   1      32.963  19.231  25.313  1.00  0.00     0.044 A 
ATOM     14  C   UNL A   1      32.668  15.403  25.371  1.00  0.00     0.044 C 
ATOM     15  C   UNL A   1      32.807  16.809  24.877  1.00  0.00    -0.049 A 
ATOM     16  C   UNL A   1      32.727  17.055  23.513  1.00  0.00     0.004 A 
ATOM     17  C   UNL A   1      32.961  17.891  25.757  1.00  0.00     0.029 A 
ATOM     18  C   UNL A   1      32.681  18.362  23.058  1.00  0.00     0.006 A 
ATOM     19  C   UNL A   1      32.704  19.454  23.951  1.00  0.00    -0.027 A 
ATOM     20  C   UNL A   1      32.330  20.752  23.315  1.00  0.00     0.046 C 
ENDBRANCH  10  13
ENDBRANCH   8   9
ENDBRANCH   4   7
ENDBRANCH   2   3
ENDBRANCH   1   2
BRANCH   1  21
ATOM     21  C   UNL A   1      40.168  21.660  26.697  1.00  0.00     0.118 C 
BRANCH  21  22
ATOM     22  N   UNL A   1      41.356  21.943  25.888  1.00  0.00    -0.352 N 
ATOM     23  C   UNL A   1      42.176  23.036  25.694  1.00  0.00     0.251 C 
ATOM     24  H   UNL A   1      41.637  21.165  25.354  1.00  0.00     0.163 HD
ATOM     25  O   UNL A   1      42.993  22.976  24.774  1.00  0.00    -0.269 OA
BRANCH  23  26
ATOM     26  C   UNL A   1      42.105  24.257  26.530  1.00  0.00     0.039 A 
ATOM     27  C   UNL A   1      42.928  24.441  27.644  1.00  0.00     0.014 A 
ATOM     28  C   UNL A   1      41.178  25.244  26.242  1.00  0.00     0.014 A 
ATOM     29  C   UNL A   1      42.729  25.570  28.443  1.00  0.00     0.010 A 
ATOM     30  C   UNL A   1      41.247  26.490  26.783  1.00  0.00     0.010 A 
ATOM     31  C   UNL A   1      41.859  26.579  28.002  1.00  0.00    -0.014 A 
BRANCH  31  32
ATOM     32  C   UNL A   1      41.669  27.828  28.705  1.00  0.00     0.031 A 
ATOM     33  C   UNL A   1      42.677  28.812  28.298  1.00  0.00     0.074 A 
ATOM     34  C   UNL A   1      40.595  28.193  29.435  1.00  0.00     0.049 A 
ATOM     35  N   UNL A   1      43.830  28.973  28.847  1.00  0.00    -0.248 NA
ATOM     36  C   UNL A   1      42.520  29.481  26.998  1.00  0.00     0.031 C 
ATOM     37  C   UNL A   1      39.306  27.519  29.619  1.00  0.00     0.029 A 
ATOM     38  N   UNL A   1      40.439  29.342  30.146  1.00  0.00    -0.354 N 
ATOM     39  C   UNL A   1      44.419  29.994  28.127  1.00  0.00     0.074 A 
ATOM     40  C   UNL A   1      43.726  30.038  26.866  1.00  0.00     0.031 C 
ATOM     41  C   UNL A   1      38.450  28.354  30.259  1.00  0.00     0.029 A 
ATOM     42  C   UNL A   1      39.164  29.560  30.652  1.00  0.00     0.049 A 
ATOM     43  H   UNL A   1      41.178  29.975  30.292  1.00  0.00     0.167 HD
ATOM     44  C   UNL A   1      45.188  30.919  28.759  1.00  0.00     0.037 A 
ATOM     45  C   UNL A   1      38.749  30.670  31.318  1.00  0.00     0.037 A 
ATOM     46  C   UNL A   1      45.465  30.519  30.124  1.00  0.00     0.049 A 
ATOM     47  C   UNL A   1      39.972  31.327  31.861  1.00  0.00     0.074 A 
ATOM     48  C   UNL A   1      46.024  29.401  30.716  1.00  0.00     0.029 A 
ATOM     49  N   UNL A   1      44.746  31.146  31.117  1.00  0.00    -0.354 N 
ATOM     50  N   UNL A   1      40.723  30.809  32.796  1.00  0.00    -0.248 NA
ATOM     51  C   UNL A   1      40.612  32.357  31.057  1.00  0.00     0.031 C 
ATOM     52  C   UNL A   1      45.245  29.167  31.888  1.00  0.00     0.029 A 
ATOM     53  C   UNL A   1      44.301  30.189  31.995  1.00  0.00     0.049 A 
ATOM     54  H   UNL A   1      44.579  32.114  31.184  1.00  0.00     0.167 HD
ATOM     55  C   UNL A   1      42.023  31.108  32.413  1.00  0.00     0.074 A 
ATOM     56  C   UNL A   1      41.887  32.153  31.401  1.00  0.00     0.031 C 
ATOM     57  C   UNL A   1      43.063  30.284  32.743  1.00  0.00     0.037 A 
BRANCH  44  58
ATOM     58  C   UNL A   1      45.344  32.339  28.291  1.00  0.00     0.058 A 
ATOM     59  C   UNL A   1      46.641  32.837  28.070  1.00  0.00     0.135 A 
ATOM     60  C   UNL A   1      44.307  33.300  28.283  1.00  0.00     0.135 A 
ATOM     61  F   UNL A   1      47.699  32.011  28.079  1.00  0.00    -0.206 F 
ATOM     62  C   UNL A   1      46.896  34.196  27.908  1.00  0.00     0.059 A 
ATOM     63  C   UNL A   1      44.531  34.650  28.058  1.00  0.00     0.059 A 
ATOM     64  F   UNL A   1      43.040  33.000  28.594  1.00  0.00    -0.206 F 
ATOM     65  C   UNL A   1      45.833  35.094  27.911  1.00  0.00     0.060 A 
BRANCH  65  66
ATOM     66  S   UNL A   1      46.164  36.857  27.780  1.00  0.00     0.124 S 
ATOM     67  O   UNL A   1      45.035  37.302  26.974  1.00  0.00    -0.237 OA
ATOM     68  O   UNL A   1      46.157  37.269  29.180  1.00  0.00    -0.237 OA
ATOM     69  O   UNL A   1      47.469  36.903  27.126  1.00  0.00    -0.744 OA
ENDBRANCH  65  66
ENDBRANCH  44  58
BRANCH  45  70
ATOM     70  C   UNL A   1      37.435  31.370  31.274  1.00  0.00     0.058 A 
ATOM     71  C   UNL A   1      36.541  31.301  32.361  1.00  0.00     0.135 A 
ATOM     72  C   UNL A   1      37.165  32.366  30.317  1.00  0.00     0.135 A 
ATOM     73  F   UNL A   1      36.721  30.389  33.329  1.00  0.00    -0.206 F 
ATOM     74  C   UNL A   1      35.493  32.214  32.530  1.00  0.00     0.059 A 
ATOM     75  C   UNL A   1      36.121  33.281  30.458  1.00  0.00     0.059 A 
ATOM     76  F   UNL A   1      37.971  32.544  29.261  1.00  0.00    -0.206 F 
ATOM     77  C   UNL A   1      35.308  33.220  31.584  1.00  0.00     0.060 A 
BRANCH  77  78
ATOM     78  S   UNL A   1      34.096  34.525  31.902  1.00  0.00     0.124 S 
ATOM     79  O   UNL A   1      34.940  35.608  32.396  1.00  0.00    -0.237 OA
ATOM     80  O   UNL A   1      33.508  34.729  30.582  1.00  0.00    -0.237 OA
ATOM     81  O   UNL A   1      33.205  33.927  32.892  1.00  0.00    -0.744 OA
ENDBRANCH  77  78
ENDBRANCH  45  70
BRANCH  57  82
ATOM     82  C   UNL A   1      42.839  29.263  33.833  1.00  0.00     0.058 A 
ATOM     83  C   UNL A   1      42.940  29.513  35.213  1.00  0.00     0.135 A 
ATOM     84  C   UNL A   1      42.389  27.988  33.450  1.00  0.00     0.135 A 
ATOM     85  F   UNL A   1      43.259  30.731  35.674  1.00  0.00    -0.206 F 
ATOM     86  C   UNL A   1      42.659  28.527  36.163  1.00  0.00     0.059 A 
ATOM     87  C   UNL A   1      42.070  27.002  34.379  1.00  0.00     0.059 A 
ATOM     88  F   UNL A   1      42.216  27.700  32.149  1.00  0.00    -0.206 F 
ATOM     89  C   UNL A   1      42.225  27.273  35.736  1.00  0.00     0.060 A 
BRANCH  89  90
ATOM     90  S   UNL A   1      41.810  26.015  36.964  1.00  0.00     0.124 S 
ATOM     91  O   UNL A   1      41.952  24.780  36.200  1.00  0.00    -0.237 OA
ATOM     92  O   UNL A   1      42.813  26.237  38.001  1.00  0.00    -0.237 OA
ATOM     93  O   UNL A   1      40.442  26.352  37.351  1.00  0.00    -0.744 OA
ENDBRANCH  89  90
ENDBRANCH  57  82
ENDBRANCH  31  32
ENDBRANCH  23  26
ENDBRANCH  21  22
ENDBRANCH   1  21
TORSDOF 15
ENDMDL
MODEL 2
REMARK VINA RESULT:     -12.5      2.474      3.568
REMARK SMILES Cc1ccc(C)c(NC(=O)/C=C/C(=O)NCCCNC(=O)c2ccc(-c3c4nc(c(-c5c(F)cc(S(=O)(=O)[O-])cc5F)c5ccc([nH]5)c(-c5c(F)cc(S(=O)(=O)[O-])cc5F)c5nc(c(-c6c(F)cc(S(=O)(=O)[O-])cc6F)c6ccc3[nH]6)C=C5)C=C4)cc2)c1
REMARK SMILES IDX 17 1 16 2 15 3 13 4 14 5 12 7 11 8 9 9 8 10 10 12 7 13 1 14
REMARK SMILES IDX 2 15 3 16 88 17 4 18 5 19 6 20 18 21 19 22 20 23 21 25 22 26
REMARK SMILES IDX 23 27 87 28 24 29 86 30 25 31 26 32 27 33 80 34 28 35 85 36
REMARK SMILES IDX 79 37 81 38 29 39 84 40 78 41 77 42 30 44 64 45 43 46 63 47
REMARK SMILES IDX 44 48 47 49 62 50 82 51 45 52 46 53 61 55 83 56 48 57 31 58
REMARK SMILES IDX 32 59 41 60 33 61 34 62 40 63 42 64 35 65 36 66 37 67 38 68
REMARK SMILES IDX 39 69 65 70 66 71 75 72 67 73 68 74 74 75 76 76 69 77 70 78
REMARK SMILES IDX 71 79 72 80 73 81 49 82 50 83 59 84 51 85 52 86 58 87 60 88
REMARK SMILES IDX 53 89 54 90 55 91 56 92 57 93
REMARK H PARENT 15 6 8 11 19 24 81 43 47 54
REMARK Flexibility Score: inf
ROOT
ATOM      1  C   UNL A   1      36.370  21.605  25.708  1.00  0.00     0.042 C 
ENDROOT
BRANCH   1   2
ATOM      2  C   UNL A   1      35.027  22.351  25.702  1.00  0.00     0.118 C 
BRANCH   2   3
ATOM      3  N   UNL A   1      34.135  21.840  24.685  1.00  0.00    -0.352 N 
ATOM      4  C   UNL A   1      32.863  21.404  24.909  1.00  0.00     0.244 C 
ATOM      5  O   UNL A   1      32.395  20.485  24.267  1.00  0.00    -0.270 OA
ATOM      6  H   UNL A   1      34.473  21.805  23.760  1.00  0.00     0.163 HD
BRANCH   4   7
ATOM      7  C   UNL A   1      32.107  22.154  25.934  1.00  0.00     0.077 C 
ATOM      8  C   UNL A   1      30.848  22.541  25.699  1.00  0.00     0.077 C 
BRANCH   8   9
ATOM      9  C   UNL A   1      30.269  23.462  26.678  1.00  0.00     0.248 C 
ATOM     10  N   UNL A   1      30.210  24.800  26.443  1.00  0.00    -0.322 N 
ATOM     11  H   UNL A   1      29.664  25.263  27.120  1.00  0.00     0.170 HD
ATOM     12  O   UNL A   1      29.777  23.007  27.712  1.00  0.00    -0.270 OA
BRANCH  10  13
ATOM     13  C   UNL A   1      30.727  25.706  25.484  1.00  0.00     0.044 A 
ATOM     14  C   UNL A   1      28.985  28.162  23.101  1.00  0.00     0.044 C 
ATOM     15  C   UNL A   1      30.039  27.326  23.757  1.00  0.00    -0.049 A 
ATOM     16  C   UNL A   1      31.366  27.505  23.390  1.00  0.00     0.004 A 
ATOM     17  C   UNL A   1      29.730  26.405  24.770  1.00  0.00     0.029 A 
ATOM     18  C   UNL A   1      32.364  26.866  24.108  1.00  0.00     0.006 A 
ATOM     19  C   UNL A   1      32.063  26.040  25.211  1.00  0.00    -0.027 A 
ATOM     20  C   UNL A   1      33.256  25.699  26.042  1.00  0.00     0.046 C 
ENDBRANCH  10  13
ENDBRANCH   8   9
ENDBRANCH   4   7
ENDBRANCH   2   3
ENDBRANCH   1   2
BRANCH   1  21
ATOM     21  C   UNL A   1      37.603  22.495  25.584  1.00  0.00     0.118 C 
BRANCH  21  22
ATOM     22  N   UNL A   1      38.803  21.856  26.131  1.00  0.00    -0.352 N 
ATOM     23  C   UNL A   1      39.934  22.290  26.791  1.00  0.00     0.251 C 
ATOM     24  H   UNL A   1      38.801  20.881  25.993  1.00  0.00     0.163 HD
ATOM     25  O   UNL A   1      40.850  21.481  26.941  1.00  0.00    -0.269 OA
BRANCH  23  26
ATOM     26  C   UNL A   1      40.087  23.670  27.309  1.00  0.00     0.039 A 
ATOM     27  C   UNL A   1      39.126  24.658  27.079  1.00  0.00     0.014 A 
ATOM     28  C   UNL A   1      41.225  24.026  28.013  1.00  0.00     0.014 A 
ATOM     29  C   UNL A   1      39.392  25.962  27.509  1.00  0.00     0.010 A 
ATOM     30  C   UNL A   1      41.301  25.170  28.745  1.00  0.00     0.010 A 
ATOM     31  C   UNL A   1      40.507  26.201  28.328  1.00  0.00    -0.014 A 
BRANCH  31  32
ATOM     32  C   UNL A   1      40.805  27.491  28.907  1.00  0.00     0.031 A 
ATOM     33  C   UNL A   1      41.942  28.117  28.224  1.00  0.00     0.074 A 
ATOM     34  C   UNL A   1      40.036  28.194  29.764  1.00  0.00     0.049 A 
ATOM     35  N   UNL A   1      43.180  27.971  28.545  1.00  0.00    -0.248 NA
ATOM     36  C   UNL A   1      41.720  28.722  26.903  1.00  0.00     0.031 C 
ATOM     37  C   UNL A   1      38.676  27.933  30.242  1.00  0.00     0.029 A 
ATOM     38  N   UNL A   1      40.342  29.380  30.357  1.00  0.00    -0.354 N 
ATOM     39  C   UNL A   1      43.871  28.733  27.624  1.00  0.00     0.074 A 
ATOM     40  C   UNL A   1      42.982  28.900  26.503  1.00  0.00     0.031 C 
ATOM     41  C   UNL A   1      38.222  29.016  30.921  1.00  0.00     0.029 A 
ATOM     42  C   UNL A   1      39.300  29.986  31.047  1.00  0.00     0.049 A 
ATOM     43  H   UNL A   1      41.239  29.781  30.301  1.00  0.00     0.167 HD
ATOM     44  C   UNL A   1      44.971  29.433  28.005  1.00  0.00     0.037 A 
ATOM     45  C   UNL A   1      39.341  31.207  31.643  1.00  0.00     0.037 A 
ATOM     46  C   UNL A   1      45.392  29.054  29.338  1.00  0.00     0.049 A 
ATOM     47  C   UNL A   1      40.779  31.514  31.890  1.00  0.00     0.074 A 
ATOM     48  C   UNL A   1      45.731  27.859  29.948  1.00  0.00     0.029 A 
ATOM     49  N   UNL A   1      45.081  29.921  30.362  1.00  0.00    -0.354 N 
ATOM     50  N   UNL A   1      41.530  30.860  32.735  1.00  0.00    -0.248 NA
ATOM     51  C   UNL A   1      41.504  32.266  30.876  1.00  0.00     0.031 C 
ATOM     52  C   UNL A   1      45.164  27.932  31.256  1.00  0.00     0.029 A 
ATOM     53  C   UNL A   1      44.574  29.187  31.406  1.00  0.00     0.049 A 
ATOM     54  H   UNL A   1      45.199  30.898  30.347  1.00  0.00     0.167 HD
ATOM     55  C   UNL A   1      42.760  30.747  32.103  1.00  0.00     0.074 A 
ATOM     56  C   UNL A   1      42.717  31.724  31.017  1.00  0.00     0.031 C 
ATOM     57  C   UNL A   1      43.580  29.680  32.341  1.00  0.00     0.037 A 
BRANCH  44  58
ATOM     58  C   UNL A   1      45.412  30.718  27.359  1.00  0.00     0.058 A 
ATOM     59  C   UNL A   1      46.748  30.833  26.934  1.00  0.00     0.135 A 
ATOM     60  C   UNL A   1      44.660  31.915  27.358  1.00  0.00     0.135 A 
ATOM     61  F   UNL A   1      47.554  29.760  26.918  1.00  0.00    -0.206 F 
ATOM     62  C   UNL A   1      47.311  32.058  26.585  1.00  0.00     0.059 A 
ATOM     63  C   UNL A   1      45.183  33.134  26.952  1.00  0.00     0.059 A 
ATOM     64  F   UNL A   1      43.416  31.989  27.846  1.00  0.00    -0.206 F 
ATOM     65  C   UNL A   1      46.520  33.203  26.605  1.00  0.00     0.060 A 
BRANCH  65  66
ATOM     66  S   UNL A   1      47.263  34.797  26.231  1.00  0.00     0.124 S 
ATOM     67  O   UNL A   1      46.083  35.604  25.944  1.00  0.00    -0.237 OA
ATOM     68  O   UNL A   1      47.963  35.102  27.475  1.00  0.00    -0.237 OA
ATOM     69  O   UNL A   1      48.125  34.505  25.090  1.00  0.00    -0.744 OA
ENDBRANCH  65  66
ENDBRANCH  44  58
BRANCH  45  70
ATOM     70  C   UNL A   1      38.285  32.252  31.746  1.00  0.00     0.058 A 
ATOM     71  C   UNL A   1      37.599  32.703  30.602  1.00  0.00     0.135 A 
ATOM     72  C   UNL A   1      37.713  32.597  32.985  1.00  0.00     0.135 A 
ATOM     73  F   UNL A   1      38.064  32.417  29.376  1.00  0.00    -0.206 F 
ATOM     74  C   UNL A   1      36.378  33.384  30.680  1.00  0.00     0.059 A 
ATOM     75  C   UNL A   1      36.502  33.283  33.088  1.00  0.00     0.059 A 
ATOM     76  F   UNL A   1      38.263  32.189  34.137  1.00  0.00    -0.206 F 
ATOM     77  C   UNL A   1      35.822  33.645  31.930  1.00  0.00     0.060 A 
BRANCH  77  78
ATOM     78  S   UNL A   1      34.151  34.331  32.034  1.00  0.00     0.124 S 
ATOM     79  O   UNL A   1      34.408  35.674  32.545  1.00  0.00    -0.237 OA
ATOM     80  O   UNL A   1      33.697  34.252  30.650  1.00  0.00    -0.237 OA
ATOM     81  O   UNL A   1      33.471  33.430  32.962  1.00  0.00    -0.744 OA
ENDBRANCH  77  78
ENDBRANCH  45  70
BRANCH  57  82
ATOM     82  C   UNL A   1      43.307  28.834  33.562  1.00  0.00     0.058 A 
ATOM     83  C   UNL A   1      43.790  29.097  34.856  1.00  0.00     0.135 A 
ATOM     84  C   UNL A   1      42.413  27.759  33.423  1.00  0.00     0.135 A 
ATOM     85  F   UNL A   1      44.563  30.164  35.102  1.00  0.00    -0.206 F 
ATOM     86  C   UNL A   1      43.442  28.297  35.948  1.00  0.00     0.059 A 
ATOM     87  C   UNL A   1      42.026  26.971  34.503  1.00  0.00     0.059 A 
ATOM     88  F   UNL A   1      41.869  27.488  32.225  1.00  0.00    -0.206 F 
ATOM     89  C   UNL A   1      42.559  27.235  35.761  1.00  0.00     0.060 A 
BRANCH  89  90
ATOM     90  S   UNL A   1      42.067  26.233  37.182  1.00  0.00     0.124 S 
ATOM     91  O   UNL A   1      42.111  24.881  36.636  1.00  0.00    -0.237 OA
ATOM     92  O   UNL A   1      43.094  26.552  38.169  1.00  0.00    -0.237 OA
ATOM     93  O   UNL A   1      40.731  26.730  37.505  1.00  0.00    -0.744 OA
ENDBRANCH  89  90
ENDBRANCH  57  82
ENDBRANCH  31  32
ENDBRANCH  23  26
ENDBRANCH  21  22
ENDBRANCH   1  21
TORSDOF 15
ENDMDL
MODEL 3
REMARK VINA RESULT:     -12.4      2.015      3.515
REMARK SMILES Cc1ccc(C)c(NC(=O)/C=C/C(=O)NCCCNC(=O)c2ccc(-c3c4nc(c(-c5c(F)cc(S(=O)(=O)[O-])cc5F)c5ccc([nH]5)c(-c5c(F)cc(S(=O)(=O)[O-])cc5F)c5nc(c(-c6c(F)cc(S(=O)(=O)[O-])cc6F)c6ccc3[nH]6)C=C5)C=C4)cc2)c1
REMARK SMILES IDX 17 1 16 2 15 3 13 4 14 5 12 7 11 8 9 9 8 10 10 12 7 13 1 14
REMARK SMILES IDX 2 15 3 16 88 17 4 18 5 19 6 20 18 21 19 22 20 23 21 25 22 26
REMARK SMILES IDX 23 27 87 28 24 29 86 30 25 31 26 32 27 33 80 34 28 35 85 36
REMARK SMILES IDX 79 37 81 38 29 39 84 40 78 41 77 42 30 44 64 45 43 46 63 47
REMARK SMILES IDX 44 48 47 49 62 50 82 51 45 52 46 53 61 55 83 56 48 57 31 58
REMARK SMILES IDX 32 59 41 60 33 61 34 62 40 63 42 64 35 65 36 66 37 67 38 68
REMARK SMILES IDX 39 69 65 70 66 71 75 72 67 73 68 74 74 75 76 76 69 77 70 78
REMARK SMILES IDX 71 79 72 80 73 81 49 82 50 83 59 84 51 85 52 86 58 87 60 88
REMARK SMILES IDX 53 89 54 90 55 91 56 92 57 93
REMARK H PARENT 15 6 8 11 19 24 81 43 47 54
REMARK Flexibility Score: inf
ROOT
ATOM      1  C   UNL A   1      38.528  21.809  25.440  1.00  0.00     0.042 C 
ENDROOT
BRANCH   1   2
ATOM      2  C   UNL A   1      37.440  22.890  25.526  1.00  0.00     0.118 C 
BRANCH   2   3
ATOM      3  N   UNL A   1      36.224  22.381  26.121  1.00  0.00    -0.352 N 
ATOM      4  C   UNL A   1      35.136  23.136  26.442  1.00  0.00     0.244 C 
ATOM      5  O   UNL A   1      34.456  22.870  27.413  1.00  0.00    -0.270 OA
ATOM      6  H   UNL A   1      36.180  21.415  26.307  1.00  0.00     0.163 HD
BRANCH   4   7
ATOM      7  C   UNL A   1      34.834  24.242  25.509  1.00  0.00     0.077 C 
ATOM      8  C   UNL A   1      33.884  24.103  24.578  1.00  0.00     0.077 C 
BRANCH   8   9
ATOM      9  C   UNL A   1      33.817  25.162  23.570  1.00  0.00     0.248 C 
ATOM     10  N   UNL A   1      33.487  26.438  23.904  1.00  0.00    -0.322 N 
ATOM     11  H   UNL A   1      33.630  27.057  23.152  1.00  0.00     0.170 HD
ATOM     12  O   UNL A   1      34.118  24.900  22.403  1.00  0.00    -0.270 OA
BRANCH  10  13
ATOM     13  C   UNL A   1      32.991  27.113  25.046  1.00  0.00     0.044 A 
ATOM     14  C   UNL A   1      34.693  29.478  27.547  1.00  0.00     0.044 C 
ATOM     15  C   UNL A   1      33.684  28.578  26.905  1.00  0.00    -0.049 A 
ATOM     16  C   UNL A   1      32.412  28.491  27.453  1.00  0.00     0.004 A 
ATOM     17  C   UNL A   1      33.971  27.862  25.732  1.00  0.00     0.029 A 
ATOM     18  C   UNL A   1      31.422  27.801  26.774  1.00  0.00     0.006 A 
ATOM     19  C   UNL A   1      31.675  27.188  25.529  1.00  0.00    -0.027 A 
ATOM     20  C   UNL A   1      30.435  26.774  24.807  1.00  0.00     0.046 C 
ENDBRANCH  10  13
ENDBRANCH   8   9
ENDBRANCH   4   7
ENDBRANCH   2   3
ENDBRANCH   1   2
BRANCH   1  21
ATOM     21  C   UNL A   1      39.469  21.742  26.639  1.00  0.00     0.118 C 
BRANCH  21  22
ATOM     22  N   UNL A   1      40.876  21.850  26.244  1.00  0.00    -0.352 N 
ATOM     23  C   UNL A   1      41.813  22.862  26.210  1.00  0.00     0.251 C 
ATOM     24  H   UNL A   1      41.240  20.992  25.927  1.00  0.00     0.163 HD
ATOM     25  O   UNL A   1      42.873  22.635  25.627  1.00  0.00    -0.269 OA
BRANCH  23  26
ATOM     26  C   UNL A   1      41.590  24.190  26.829  1.00  0.00     0.039 A 
ATOM     27  C   UNL A   1      40.645  25.091  26.331  1.00  0.00     0.014 A 
ATOM     28  C   UNL A   1      42.356  24.590  27.911  1.00  0.00     0.014 A 
ATOM     29  C   UNL A   1      40.569  26.364  26.903  1.00  0.00     0.010 A 
ATOM     30  C   UNL A   1      42.020  25.654  28.689  1.00  0.00     0.010 A 
ATOM     31  C   UNL A   1      41.288  26.633  28.078  1.00  0.00    -0.014 A 
BRANCH  31  32
ATOM     32  C   UNL A   1      41.191  27.882  28.800  1.00  0.00     0.031 A 
ATOM     33  C   UNL A   1      42.209  28.831  28.335  1.00  0.00     0.074 A 
ATOM     34  C   UNL A   1      40.182  28.281  29.599  1.00  0.00     0.049 A 
ATOM     35  N   UNL A   1      43.400  28.942  28.810  1.00  0.00    -0.248 NA
ATOM     36  C   UNL A   1      41.994  29.516  27.052  1.00  0.00     0.031 C 
ATOM     37  C   UNL A   1      38.882  27.655  29.862  1.00  0.00     0.029 A 
ATOM     38  N   UNL A   1      40.116  29.429  30.327  1.00  0.00    -0.354 N 
ATOM     39  C   UNL A   1      43.981  29.946  28.060  1.00  0.00     0.074 A 
ATOM     40  C   UNL A   1      43.211  30.029  26.846  1.00  0.00     0.031 C 
ATOM     41  C   UNL A   1      38.102  28.517  30.561  1.00  0.00     0.029 A 
ATOM     42  C   UNL A   1      38.886  29.691  30.916  1.00  0.00     0.049 A 
ATOM     43  H   UNL A   1      40.887  30.032  30.429  1.00  0.00     0.167 HD
ATOM     44  C   UNL A   1      44.824  30.835  28.647  1.00  0.00     0.037 A 
ATOM     45  C   UNL A   1      38.557  30.810  31.614  1.00  0.00     0.037 A 
ATOM     46  C   UNL A   1      45.173  30.413  29.988  1.00  0.00     0.049 A 
ATOM     47  C   UNL A   1      39.838  31.414  32.082  1.00  0.00     0.074 A 
ATOM     48  C   UNL A   1      45.725  29.269  30.536  1.00  0.00     0.029 A 
ATOM     49  N   UNL A   1      44.543  31.058  31.030  1.00  0.00    -0.354 N 
ATOM     50  N   UNL A   1      40.627  30.860  32.962  1.00  0.00    -0.248 NA
ATOM     51  C   UNL A   1      40.464  32.427  31.245  1.00  0.00     0.031 C 
ATOM     52  C   UNL A   1      45.014  29.054  31.755  1.00  0.00     0.029 A 
ATOM     53  C   UNL A   1      44.119  30.111  31.928  1.00  0.00     0.049 A 
ATOM     54  H   UNL A   1      44.418  32.031  31.114  1.00  0.00     0.167 HD
ATOM     55  C   UNL A   1      41.910  31.112  32.499  1.00  0.00     0.074 A 
ATOM     56  C   UNL A   1      41.750  32.171  31.504  1.00  0.00     0.031 C 
ATOM     57  C   UNL A   1      42.935  30.246  32.755  1.00  0.00     0.037 A 
BRANCH  44  58
ATOM     58  C   UNL A   1      45.005  32.253  28.180  1.00  0.00     0.058 A 
ATOM     59  C   UNL A   1      46.288  32.674  27.789  1.00  0.00     0.135 A 
ATOM     60  C   UNL A   1      44.039  33.275  28.325  1.00  0.00     0.135 A 
ATOM     61  F   UNL A   1      47.283  31.785  27.642  1.00  0.00    -0.206 F 
ATOM     62  C   UNL A   1      46.605  34.019  27.609  1.00  0.00     0.059 A 
ATOM     63  C   UNL A   1      44.316  34.613  28.088  1.00  0.00     0.059 A 
ATOM     64  F   UNL A   1      42.811  33.047  28.804  1.00  0.00    -0.206 F 
ATOM     65  C   UNL A   1      45.611  34.980  27.769  1.00  0.00     0.060 A 
BRANCH  65  66
ATOM     66  S   UNL A   1      46.033  36.721  27.615  1.00  0.00     0.124 S 
ATOM     67  O   UNL A   1      46.497  36.783  26.234  1.00  0.00    -0.237 OA
ATOM     68  O   UNL A   1      44.754  37.366  27.893  1.00  0.00    -0.237 OA
ATOM     69  O   UNL A   1      47.058  36.908  28.638  1.00  0.00    -0.744 OA
ENDBRANCH  65  66
ENDBRANCH  44  58
BRANCH  45  70
ATOM     70  C   UNL A   1      37.272  31.560  31.659  1.00  0.00     0.058 A 
ATOM     71  C   UNL A   1      36.660  31.875  32.889  1.00  0.00     0.135 A 
ATOM     72  C   UNL A   1      36.785  32.251  30.534  1.00  0.00     0.135 A 
ATOM     73  F   UNL A   1      37.062  31.273  34.019  1.00  0.00    -0.206 F 
ATOM     74  C   UNL A   1      35.683  32.871  33.008  1.00  0.00     0.059 A 
ATOM     75  C   UNL A   1      35.805  33.241  30.626  1.00  0.00     0.059 A 
ATOM     76  F   UNL A   1      37.318  32.056  29.320  1.00  0.00    -0.206 F 
ATOM     77  C   UNL A   1      35.281  33.570  31.871  1.00  0.00     0.060 A 
BRANCH  77  78
ATOM     78  S   UNL A   1      34.181  34.995  32.047  1.00  0.00     0.124 S 
ATOM     79  O   UNL A   1      35.003  35.917  32.825  1.00  0.00    -0.237 OA
ATOM     80  O   UNL A   1      33.940  35.373  30.659  1.00  0.00    -0.237 OA
ATOM     81  O   UNL A   1      33.024  34.445  32.749  1.00  0.00    -0.744 OA
ENDBRANCH  77  78
ENDBRANCH  45  70
BRANCH  57  82
ATOM     82  C   UNL A   1      42.743  29.225  33.851  1.00  0.00     0.058 A 
ATOM     83  C   UNL A   1      42.937  29.460  35.224  1.00  0.00     0.135 A 
ATOM     84  C   UNL A   1      42.225  27.970  33.488  1.00  0.00     0.135 A 
ATOM     85  F   UNL A   1      43.328  30.662  35.671  1.00  0.00    -0.206 F 
ATOM     86  C   UNL A   1      42.680  28.477  36.183  1.00  0.00     0.059 A 
ATOM     87  C   UNL A   1      41.928  26.989  34.430  1.00  0.00     0.059 A 
ATOM     88  F   UNL A   1      41.961  27.699  32.199  1.00  0.00    -0.206 F 
ATOM     89  C   UNL A   1      42.176  27.242  35.776  1.00  0.00     0.060 A 
BRANCH  89  90
ATOM     90  S   UNL A   1      41.792  25.990  37.019  1.00  0.00     0.124 S 
ATOM     91  O   UNL A   1      40.439  26.358  37.420  1.00  0.00    -0.237 OA
ATOM     92  O   UNL A   1      41.914  24.744  36.267  1.00  0.00    -0.237 OA
ATOM     93  O   UNL A   1      42.819  26.193  38.039  1.00  0.00    -0.744 OA
ENDBRANCH  89  90
ENDBRANCH  57  82
ENDBRANCH  31  32
ENDBRANCH  23  26
ENDBRANCH  21  22
ENDBRANCH   1  21
TORSDOF 15
ENDMDL
