MODEL 1
REMARK VINA RESULT:     -11.6      0.000      0.000
REMARK SMILES COc1ccc(CCN2/C(=[NH+]/C(=O)CCC(=O)NCCCNC(=O)c3ccc(-c4c5nc(c(-c6c(F)cc(S(=O)(=O)[O-])cc6F)c6ccc([nH]6)c(-c6c(F)cc(S(=O)(=O)[O-])cc6F)c6nc(c(-c7c(F)cc(S(=O)(=O)[O-])cc7F)c7ccc4[nH]7)C=C6)C=C5)cc3)S[C@@H]3CS(=O)(=O)C[C@@H]32)cc1
REMARK SMILES IDX 16 1 17 2 18 3 15 5 14 6 12 7 9 8 10 9 98 10 11 11 91 12
REMARK SMILES IDX 92 13 97 14 93 16 94 17 13 18 95 19 96 20 8 21 7 22 6 23
REMARK SMILES IDX 3 24 4 25 100 26 5 27 99 28 2 29 1 30 19 31 20 32 21 33
REMARK SMILES IDX 22 34 23 35 24 37 25 38 26 39 90 40 27 41 89 42 28 43 29 44
REMARK SMILES IDX 30 45 83 46 31 47 88 48 82 49 84 50 32 51 87 52 81 53 80 54
REMARK SMILES IDX 33 56 67 57 46 58 66 59 47 60 50 61 65 62 85 63 48 64 49 65
REMARK SMILES IDX 64 67 86 68 51 69 34 70 35 71 44 72 36 73 37 74 43 75 45 76
REMARK SMILES IDX 38 77 39 78 40 79 41 80 42 81 68 82 69 83 78 84 70 85 71 86
REMARK SMILES IDX 77 87 79 88 72 89 73 90 74 91 75 92 76 93 52 94 53 95 62 96
REMARK SMILES IDX 54 97 55 98 61 99 63 100 56 101 57 102 58 103 59 104 60 105
REMARK H PARENT 18 4 11 15 22 36 84 55 50 66
REMARK Flexibility Score: inf
ROOT
ATOM      1  C   UNL A   1      35.231  32.692  28.214  1.00  0.00     0.220 C 
ATOM      2  O   UNL A   1      36.242  32.590  27.513  1.00  0.00    -0.275 OA
ATOM      3  N   UNL A   1      35.211  33.703  29.136  1.00  0.00    -0.356 N 
ATOM      4  H   UNL A   1      35.962  34.332  29.038  1.00  0.00     0.163 HD
ENDROOT
BRANCH   1   5
ATOM      5  C   UNL A   1      34.061  31.750  27.977  1.00  0.00     0.112 C 
BRANCH   5   6
ATOM      6  C   UNL A   1      34.501  30.331  27.609  1.00  0.00     0.138 C 
BRANCH   6   7
ATOM      7  C   UNL A   1      33.773  29.937  26.354  1.00  0.00     0.308 C 
ATOM      8  N   UNL A   1      33.544  26.725  24.757  1.00  0.00    -0.251 N 
ATOM      9  C   UNL A   1      33.588  28.102  24.936  1.00  0.00     0.314 C 
ATOM     10  C   UNL A   1      32.462  26.298  23.783  1.00  0.00     0.206 C 
ATOM     11  N   UNL A   1      34.024  28.642  26.019  1.00  0.00    -0.205 N 
ATOM     12  S   UNL A   1      32.809  28.914  23.591  1.00  0.00    -0.030 SA
ATOM     13  C   UNL A   1      31.629  27.578  23.467  1.00  0.00     0.120 C 
ATOM     14  C   UNL A   1      31.296  25.331  24.013  1.00  0.00     0.187 C 
ATOM     15  H   UNL A   1      34.562  28.093  26.633  1.00  0.00     0.316 HD
ATOM     16  C   UNL A   1      30.514  27.751  24.518  1.00  0.00     0.156 C 
ATOM     17  S   UNL A   1      29.885  26.116  24.726  1.00  0.00     0.155 S 
ATOM     18  O   UNL A   1      32.888  30.659  25.906  1.00  0.00    -0.247 OA
ATOM     19  O   UNL A   1      29.802  25.756  26.136  1.00  0.00    -0.229 OA
ATOM     20  O   UNL A   1      28.753  25.916  23.861  1.00  0.00    -0.229 OA
BRANCH   8  21
ATOM     21  C   UNL A   1      34.468  25.891  25.582  1.00  0.00     0.242 C 
BRANCH  21  22
ATOM     22  C   UNL A   1      34.946  24.435  25.411  1.00  0.00     0.081 C 
BRANCH  22  23
ATOM     23  C   UNL A   1      34.086  23.244  25.241  1.00  0.00    -0.044 A 
ATOM     24  C   UNL A   1      32.594  20.919  25.123  1.00  0.00     0.118 A 
ATOM     25  C   UNL A   1      33.366  21.313  24.032  1.00  0.00     0.046 A 
ATOM     26  C   UNL A   1      32.478  21.733  26.246  1.00  0.00     0.046 A 
ATOM     27  C   UNL A   1      34.083  22.496  24.075  1.00  0.00     0.007 A 
ATOM     28  C   UNL A   1      33.217  22.905  26.298  1.00  0.00     0.007 A 
BRANCH  24  29
ATOM     29  O   UNL A   1      32.058  19.665  25.067  1.00  0.00    -0.497 OA
ATOM     30  C   UNL A   1      32.558  18.915  23.968  1.00  0.00     0.278 C 
ENDBRANCH  24  29
ENDBRANCH  22  23
ENDBRANCH  21  22
ENDBRANCH   8  21
ENDBRANCH   6   7
ENDBRANCH   5   6
ENDBRANCH   1   5
BRANCH   3  31
ATOM     31  C   UNL A   1      34.304  34.048  30.242  1.00  0.00     0.117 C 
BRANCH  31  32
ATOM     32  C   UNL A   1      34.892  33.689  31.621  1.00  0.00     0.042 C 
BRANCH  32  33
ATOM     33  C   UNL A   1      35.013  32.225  32.209  1.00  0.00     0.118 C 
BRANCH  33  34
ATOM     34  N   UNL A   1      35.649  31.218  31.241  1.00  0.00    -0.352 N 
ATOM     35  C   UNL A   1      36.575  30.158  31.505  1.00  0.00     0.251 C 
ATOM     36  H   UNL A   1      35.379  31.314  30.299  1.00  0.00     0.163 HD
ATOM     37  O   UNL A   1      36.527  29.529  32.555  1.00  0.00    -0.269 OA
BRANCH  35  38
ATOM     38  C   UNL A   1      37.845  29.954  30.571  1.00  0.00     0.039 A 
ATOM     39  C   UNL A   1      37.975  29.923  29.166  1.00  0.00     0.014 A 
ATOM     40  C   UNL A   1      39.050  29.755  31.237  1.00  0.00     0.014 A 
ATOM     41  C   UNL A   1      39.275  29.862  28.504  1.00  0.00     0.010 A 
ATOM     42  C   UNL A   1      40.330  29.813  30.614  1.00  0.00     0.010 A 
ATOM     43  C   UNL A   1      40.489  29.846  29.223  1.00  0.00    -0.014 A 
BRANCH  43  44
ATOM     44  C   UNL A   1      41.901  29.605  28.668  1.00  0.00     0.031 A 
ATOM     45  C   UNL A   1      42.269  28.176  28.253  1.00  0.00     0.074 A 
ATOM     46  C   UNL A   1      42.926  30.499  28.680  1.00  0.00     0.049 A 
ATOM     47  N   UNL A   1      43.419  27.665  27.875  1.00  0.00    -0.248 NA
ATOM     48  C   UNL A   1      41.185  27.185  28.337  1.00  0.00     0.031 C 
ATOM     49  C   UNL A   1      42.852  31.885  29.134  1.00  0.00     0.029 A 
ATOM     50  N   UNL A   1      44.268  30.353  28.336  1.00  0.00    -0.354 N 
ATOM     51  C   UNL A   1      43.195  26.300  27.691  1.00  0.00     0.074 A 
ATOM     52  C   UNL A   1      41.822  26.055  28.077  1.00  0.00     0.031 C 
ATOM     53  C   UNL A   1      44.075  32.451  29.058  1.00  0.00     0.029 A 
ATOM     54  C   UNL A   1      45.047  31.478  28.549  1.00  0.00     0.049 A 
ATOM     55  H   UNL A   1      44.635  29.517  27.970  1.00  0.00     0.167 HD
ATOM     56  C   UNL A   1      44.018  25.327  27.219  1.00  0.00     0.037 A 
ATOM     57  C   UNL A   1      46.372  31.714  28.362  1.00  0.00     0.037 A 
ATOM     58  C   UNL A   1      45.392  25.522  26.836  1.00  0.00     0.049 A 
ATOM     59  C   UNL A   1      47.287  30.626  27.822  1.00  0.00     0.074 A 
ATOM     60  C   UNL A   1      46.268  24.608  26.273  1.00  0.00     0.029 A 
ATOM     61  N   UNL A   1      46.099  26.702  26.991  1.00  0.00    -0.354 N 
ATOM     62  N   UNL A   1      47.004  29.383  27.514  1.00  0.00    -0.248 NA
ATOM     63  C   UNL A   1      48.703  30.979  27.590  1.00  0.00     0.031 C 
ATOM     64  C   UNL A   1      47.517  25.222  26.132  1.00  0.00     0.029 A 
ATOM     65  C   UNL A   1      47.403  26.536  26.551  1.00  0.00     0.049 A 
ATOM     66  H   UNL A   1      45.730  27.538  27.360  1.00  0.00     0.167 HD
ATOM     67  C   UNL A   1      48.184  28.829  27.014  1.00  0.00     0.074 A 
ATOM     68  C   UNL A   1      49.187  29.867  27.054  1.00  0.00     0.031 C 
ATOM     69  C   UNL A   1      48.407  27.571  26.558  1.00  0.00     0.037 A 
BRANCH  56  70
ATOM     70  C   UNL A   1      43.432  23.943  27.050  1.00  0.00     0.058 A 
ATOM     71  C   UNL A   1      42.956  23.507  25.802  1.00  0.00     0.135 A 
ATOM     72  C   UNL A   1      43.378  23.033  28.119  1.00  0.00     0.135 A 
ATOM     73  F   UNL A   1      42.979  24.332  24.742  1.00  0.00    -0.206 F 
ATOM     74  C   UNL A   1      42.400  22.244  25.631  1.00  0.00     0.059 A 
ATOM     75  C   UNL A   1      42.859  21.749  27.962  1.00  0.00     0.059 A 
ATOM     76  F   UNL A   1      43.832  23.385  29.332  1.00  0.00    -0.206 F 
ATOM     77  C   UNL A   1      42.353  21.372  26.718  1.00  0.00     0.060 A 
BRANCH  77  78
ATOM     78  S   UNL A   1      41.619  19.741  26.474  1.00  0.00     0.124 S 
ATOM     79  O   UNL A   1      42.309  19.289  25.268  1.00  0.00    -0.237 OA
ATOM     80  O   UNL A   1      41.982  19.049  27.706  1.00  0.00    -0.237 OA
ATOM     81  O   UNL A   1      40.197  20.027  26.312  1.00  0.00    -0.744 OA
ENDBRANCH  77  78
ENDBRANCH  56  70
BRANCH  57  82
ATOM     82  C   UNL A   1      46.961  33.071  28.629  1.00  0.00     0.058 A 
ATOM     83  C   UNL A   1      47.520  33.377  29.883  1.00  0.00     0.135 A 
ATOM     84  C   UNL A   1      46.928  34.102  27.677  1.00  0.00     0.135 A 
ATOM     85  F   UNL A   1      47.548  32.445  30.848  1.00  0.00    -0.206 F 
ATOM     86  C   UNL A   1      48.013  34.646  30.187  1.00  0.00     0.059 A 
ATOM     87  C   UNL A   1      47.440  35.374  27.947  1.00  0.00     0.059 A 
ATOM     88  F   UNL A   1      46.398  33.879  26.464  1.00  0.00    -0.206 F 
ATOM     89  C   UNL A   1      47.974  35.638  29.208  1.00  0.00     0.060 A 
BRANCH  89  90
ATOM     90  S   UNL A   1      48.676  37.261  29.597  1.00  0.00     0.124 S 
ATOM     91  O   UNL A   1      49.207  37.043  30.937  1.00  0.00    -0.237 OA
ATOM     92  O   UNL A   1      49.665  37.426  28.536  1.00  0.00    -0.237 OA
ATOM     93  O   UNL A   1      47.524  38.154  29.511  1.00  0.00    -0.744 OA
ENDBRANCH  89  90
ENDBRANCH  57  82
BRANCH  69  94
ATOM     94  C   UNL A   1      49.767  27.232  25.998  1.00  0.00     0.058 A 
ATOM     95  C   UNL A   1      50.809  26.742  26.800  1.00  0.00     0.135 A 
ATOM     96  C   UNL A   1      50.003  27.317  24.614  1.00  0.00     0.135 A 
ATOM     97  F   UNL A   1      50.645  26.638  28.129  1.00  0.00    -0.206 F 
ATOM     98  C   UNL A   1      52.035  26.365  26.258  1.00  0.00     0.059 A 
ATOM     99  C   UNL A   1      51.210  26.919  24.045  1.00  0.00     0.059 A 
ATOM    100  F   UNL A   1      49.041  27.767  23.791  1.00  0.00    -0.206 F 
ATOM    101  C   UNL A   1      52.225  26.450  24.877  1.00  0.00     0.060 A 
BRANCH 101 102
ATOM    102  S   UNL A   1      53.802  25.907  24.181  1.00  0.00     0.124 S 
ATOM    103  O   UNL A   1      53.921  24.562  24.732  1.00  0.00    -0.237 OA
ATOM    104  O   UNL A   1      53.552  25.984  22.746  1.00  0.00    -0.237 OA
ATOM    105  O   UNL A   1      54.758  26.883  24.697  1.00  0.00    -0.744 OA
ENDBRANCH 101 102
ENDBRANCH  69  94
ENDBRANCH  43  44
ENDBRANCH  35  38
ENDBRANCH  33  34
ENDBRANCH  32  33
ENDBRANCH  31  32
ENDBRANCH   3  31
TORSDOF 19
ENDMDL
MODEL 2
REMARK VINA RESULT:     -11.5      0.877      7.942
REMARK SMILES COc1ccc(CCN2/C(=[NH+]/C(=O)CCC(=O)NCCCNC(=O)c3ccc(-c4c5nc(c(-c6c(F)cc(S(=O)(=O)[O-])cc6F)c6ccc([nH]6)c(-c6c(F)cc(S(=O)(=O)[O-])cc6F)c6nc(c(-c7c(F)cc(S(=O)(=O)[O-])cc7F)c7ccc4[nH]7)C=C6)C=C5)cc3)S[C@@H]3CS(=O)(=O)C[C@@H]32)cc1
REMARK SMILES IDX 16 1 17 2 18 3 15 5 14 6 12 7 9 8 10 9 98 10 11 11 91 12
REMARK SMILES IDX 92 13 97 14 93 16 94 17 13 18 95 19 96 20 8 21 7 22 6 23
REMARK SMILES IDX 3 24 4 25 100 26 5 27 99 28 2 29 1 30 19 31 20 32 21 33
REMARK SMILES IDX 22 34 23 35 24 37 25 38 26 39 90 40 27 41 89 42 28 43 29 44
REMARK SMILES IDX 30 45 83 46 31 47 88 48 82 49 84 50 32 51 87 52 81 53 80 54
REMARK SMILES IDX 33 56 67 57 46 58 66 59 47 60 50 61 65 62 85 63 48 64 49 65
REMARK SMILES IDX 64 67 86 68 51 69 34 70 35 71 44 72 36 73 37 74 43 75 45 76
REMARK SMILES IDX 38 77 39 78 40 79 41 80 42 81 68 82 69 83 78 84 70 85 71 86
REMARK SMILES IDX 77 87 79 88 72 89 73 90 74 91 75 92 76 93 52 94 53 95 62 96
REMARK SMILES IDX 54 97 55 98 61 99 63 100 56 101 57 102 58 103 59 104 60 105
REMARK H PARENT 18 4 11 15 22 36 84 55 50 66
REMARK Flexibility Score: inf
ROOT
ATOM      1  C   UNL A   1      34.945  32.616  28.007  1.00  0.00     0.220 C 
ATOM      2  O   UNL A   1      35.953  32.453  27.312  1.00  0.00    -0.275 OA
ATOM      3  N   UNL A   1      34.742  33.866  28.527  1.00  0.00    -0.356 N 
ATOM      4  H   UNL A   1      35.360  34.541  28.166  1.00  0.00     0.163 HD
ENDROOT
BRANCH   1   5
ATOM      5  C   UNL A   1      33.972  31.463  28.190  1.00  0.00     0.112 C 
BRANCH   5   6
ATOM      6  C   UNL A   1      34.530  30.126  27.694  1.00  0.00     0.138 C 
BRANCH   6   7
ATOM      7  C   UNL A   1      33.814  29.776  26.419  1.00  0.00     0.308 C 
ATOM      8  N   UNL A   1      33.520  26.600  24.761  1.00  0.00    -0.251 N 
ATOM      9  C   UNL A   1      33.601  27.972  24.965  1.00  0.00     0.314 C 
ATOM     10  C   UNL A   1      32.444  26.224  23.759  1.00  0.00     0.206 C 
ATOM     11  N   UNL A   1      34.032  28.480  26.065  1.00  0.00    -0.205 N 
ATOM     12  S   UNL A   1      32.871  28.831  23.622  1.00  0.00    -0.030 SA
ATOM     13  C   UNL A   1      31.655  27.533  23.452  1.00  0.00     0.120 C 
ATOM     14  C   UNL A   1      31.246  25.287  23.951  1.00  0.00     0.187 C 
ATOM     15  H   UNL A   1      34.542  27.904  26.680  1.00  0.00     0.316 HD
ATOM     16  C   UNL A   1      30.526  27.721  24.486  1.00  0.00     0.156 C 
ATOM     17  S   UNL A   1      29.846  26.102  24.653  1.00  0.00     0.155 S 
ATOM     18  O   UNL A   1      32.959  30.532  25.969  1.00  0.00    -0.247 OA
ATOM     19  O   UNL A   1      29.725  25.719  26.054  1.00  0.00    -0.229 OA
ATOM     20  O   UNL A   1      28.725  25.951  23.763  1.00  0.00    -0.229 OA
BRANCH   8  21
ATOM     21  C   UNL A   1      34.403  25.725  25.587  1.00  0.00     0.242 C 
BRANCH  21  22
ATOM     22  C   UNL A   1      35.084  24.380  25.267  1.00  0.00     0.081 C 
BRANCH  22  23
ATOM     23  C   UNL A   1      34.437  23.049  25.257  1.00  0.00    -0.044 A 
ATOM     24  C   UNL A   1      33.020  20.677  25.157  1.00  0.00     0.118 A 
ATOM     25  C   UNL A   1      33.595  21.100  26.354  1.00  0.00     0.046 A 
ATOM     26  C   UNL A   1      33.232  21.380  23.975  1.00  0.00     0.046 A 
ATOM     27  C   UNL A   1      34.337  22.268  26.396  1.00  0.00     0.007 A 
ATOM     28  C   UNL A   1      33.954  22.563  24.025  1.00  0.00     0.007 A 
BRANCH  24  29
ATOM     29  O   UNL A   1      32.167  19.614  25.237  1.00  0.00    -0.497 OA
ATOM     30  C   UNL A   1      32.857  18.378  25.362  1.00  0.00     0.278 C 
ENDBRANCH  24  29
ENDBRANCH  22  23
ENDBRANCH  21  22
ENDBRANCH   8  21
ENDBRANCH   6   7
ENDBRANCH   5   6
ENDBRANCH   1   5
BRANCH   3  31
ATOM     31  C   UNL A   1      33.793  34.411  29.510  1.00  0.00     0.117 C 
BRANCH  31  32
ATOM     32  C   UNL A   1      34.401  34.513  30.923  1.00  0.00     0.042 C 
BRANCH  32  33
ATOM     33  C   UNL A   1      34.382  33.365  32.011  1.00  0.00     0.118 C 
BRANCH  33  34
ATOM     34  N   UNL A   1      35.161  32.108  31.601  1.00  0.00    -0.352 N 
ATOM     35  C   UNL A   1      36.313  31.511  32.205  1.00  0.00     0.251 C 
ATOM     36  H   UNL A   1      34.817  31.642  30.804  1.00  0.00     0.163 HD
ATOM     37  O   UNL A   1      36.474  31.543  33.420  1.00  0.00    -0.269 OA
BRANCH  35  38
ATOM     38  C   UNL A   1      37.535  31.036  31.304  1.00  0.00     0.039 A 
ATOM     39  C   UNL A   1      37.732  31.071  29.908  1.00  0.00     0.014 A 
ATOM     40  C   UNL A   1      38.602  30.472  31.996  1.00  0.00     0.014 A 
ATOM     41  C   UNL A   1      39.005  30.706  29.291  1.00  0.00     0.010 A 
ATOM     42  C   UNL A   1      39.884  30.225  31.426  1.00  0.00     0.010 A 
ATOM     43  C   UNL A   1      40.126  30.311  30.050  1.00  0.00    -0.014 A 
BRANCH  43  44
ATOM     44  C   UNL A   1      41.453  29.736  29.529  1.00  0.00     0.031 A 
ATOM     45  C   UNL A   1      42.599  30.718  29.263  1.00  0.00     0.074 A 
ATOM     46  C   UNL A   1      41.655  28.461  29.100  1.00  0.00     0.049 A 
ATOM     47  N   UNL A   1      43.774  30.529  28.707  1.00  0.00    -0.248 NA
ATOM     48  C   UNL A   1      42.343  32.117  29.634  1.00  0.00     0.031 C 
ATOM     49  C   UNL A   1      40.680  27.375  29.143  1.00  0.00     0.029 A 
ATOM     50  N   UNL A   1      42.757  27.868  28.487  1.00  0.00    -0.354 N 
ATOM     51  C   UNL A   1      44.384  31.783  28.653  1.00  0.00     0.074 A 
ATOM     52  C   UNL A   1      43.414  32.731  29.158  1.00  0.00     0.031 C 
ATOM     53  C   UNL A   1      41.210  26.269  28.577  1.00  0.00     0.029 A 
ATOM     54  C   UNL A   1      42.574  26.547  28.117  1.00  0.00     0.049 A 
ATOM     55  H   UNL A   1      43.600  28.351  28.330  1.00  0.00     0.167 HD
ATOM     56  C   UNL A   1      45.634  32.140  28.257  1.00  0.00     0.037 A 
ATOM     57  C   UNL A   1      43.389  25.658  27.491  1.00  0.00     0.037 A 
ATOM     58  C   UNL A   1      46.625  31.234  27.736  1.00  0.00     0.049 A 
ATOM     59  C   UNL A   1      44.791  26.058  27.061  1.00  0.00     0.074 A 
ATOM     60  C   UNL A   1      47.940  31.502  27.390  1.00  0.00     0.029 A 
ATOM     61  N   UNL A   1      46.411  29.893  27.468  1.00  0.00    -0.354 N 
ATOM     62  N   UNL A   1      45.390  27.220  27.165  1.00  0.00    -0.248 NA
ATOM     63  C   UNL A   1      45.637  25.018  26.440  1.00  0.00     0.031 C 
ATOM     64  C   UNL A   1      48.506  30.334  26.868  1.00  0.00     0.029 A 
ATOM     65  C   UNL A   1      47.562  29.324  26.946  1.00  0.00     0.049 A 
ATOM     66  H   UNL A   1      45.565  29.413  27.625  1.00  0.00     0.167 HD
ATOM     67  C   UNL A   1      46.684  27.036  26.671  1.00  0.00     0.074 A 
ATOM     68  C   UNL A   1      46.789  25.653  26.269  1.00  0.00     0.031 C 
ATOM     69  C   UNL A   1      47.691  27.939  26.568  1.00  0.00     0.037 A 
BRANCH  56  70
ATOM     70  C   UNL A   1      46.024  33.593  28.412  1.00  0.00     0.058 A 
ATOM     71  C   UNL A   1      45.824  34.511  27.367  1.00  0.00     0.135 A 
ATOM     72  C   UNL A   1      46.561  34.084  29.614  1.00  0.00     0.135 A 
ATOM     73  F   UNL A   1      45.316  34.100  26.194  1.00  0.00    -0.206 F 
ATOM     74  C   UNL A   1      46.191  35.847  27.486  1.00  0.00     0.059 A 
ATOM     75  C   UNL A   1      46.901  35.427  29.768  1.00  0.00     0.059 A 
ATOM     76  F   UNL A   1      46.761  33.260  30.654  1.00  0.00    -0.206 F 
ATOM     77  C   UNL A   1      46.731  36.296  28.691  1.00  0.00     0.060 A 
BRANCH  77  78
ATOM     78  S   UNL A   1      47.207  38.033  28.819  1.00  0.00     0.124 S 
ATOM     79  O   UNL A   1      46.018  38.615  29.434  1.00  0.00    -0.237 OA
ATOM     80  O   UNL A   1      48.391  37.969  29.668  1.00  0.00    -0.237 OA
ATOM     81  O   UNL A   1      47.451  38.423  27.434  1.00  0.00    -0.744 OA
ENDBRANCH  77  78
ENDBRANCH  56  70
BRANCH  57  82
ATOM     82  C   UNL A   1      42.950  24.240  27.255  1.00  0.00     0.058 A 
ATOM     83  C   UNL A   1      42.376  23.860  26.027  1.00  0.00     0.135 A 
ATOM     84  C   UNL A   1      43.032  23.255  28.252  1.00  0.00     0.135 A 
ATOM     85  F   UNL A   1      42.236  24.766  25.047  1.00  0.00    -0.206 F 
ATOM     86  C   UNL A   1      41.896  22.571  25.799  1.00  0.00     0.059 A 
ATOM     87  C   UNL A   1      42.583  21.949  28.039  1.00  0.00     0.059 A 
ATOM     88  F   UNL A   1      43.558  23.555  29.449  1.00  0.00    -0.206 F 
ATOM     89  C   UNL A   1      42.010  21.619  26.811  1.00  0.00     0.060 A 
BRANCH  89  90
ATOM     90  S   UNL A   1      41.440  19.933  26.476  1.00  0.00     0.124 S 
ATOM     91  O   UNL A   1      41.682  19.277  27.755  1.00  0.00    -0.237 OA
ATOM     92  O   UNL A   1      40.039  20.151  26.126  1.00  0.00    -0.237 OA
ATOM     93  O   UNL A   1      42.293  19.503  25.373  1.00  0.00    -0.744 OA
ENDBRANCH  89  90
ENDBRANCH  57  82
BRANCH  69  94
ATOM     94  C   UNL A   1      49.033  27.473  26.058  1.00  0.00     0.058 A 
ATOM     95  C   UNL A   1      49.338  27.416  24.690  1.00  0.00     0.135 A 
ATOM     96  C   UNL A   1      50.064  27.161  26.964  1.00  0.00     0.135 A 
ATOM     97  F   UNL A   1      48.397  27.701  23.776  1.00  0.00    -0.206 F 
ATOM     98  C   UNL A   1      50.605  27.053  24.237  1.00  0.00     0.059 A 
ATOM     99  C   UNL A   1      51.345  26.824  26.535  1.00  0.00     0.059 A 
ATOM    100  F   UNL A   1      49.837  27.209  28.287  1.00  0.00    -0.206 F 
ATOM    101  C   UNL A   1      51.606  26.765  25.167  1.00  0.00     0.060 A 
BRANCH 101 102
ATOM    102  S   UNL A   1      53.258  26.349  24.567  1.00  0.00     0.124 S 
ATOM    103  O   UNL A   1      54.104  26.922  25.609  1.00  0.00    -0.237 OA
ATOM    104  O   UNL A   1      53.214  24.892  24.517  1.00  0.00    -0.237 OA
ATOM    105  O   UNL A   1      53.327  27.013  23.268  1.00  0.00    -0.744 OA
ENDBRANCH 101 102
ENDBRANCH  69  94
ENDBRANCH  43  44
ENDBRANCH  35  38
ENDBRANCH  33  34
ENDBRANCH  32  33
ENDBRANCH  31  32
ENDBRANCH   3  31
TORSDOF 19
ENDMDL
MODEL 3
REMARK VINA RESULT:     -11.4      1.335      8.060
REMARK SMILES COc1ccc(CCN2/C(=[NH+]/C(=O)CCC(=O)NCCCNC(=O)c3ccc(-c4c5nc(c(-c6c(F)cc(S(=O)(=O)[O-])cc6F)c6ccc([nH]6)c(-c6c(F)cc(S(=O)(=O)[O-])cc6F)c6nc(c(-c7c(F)cc(S(=O)(=O)[O-])cc7F)c7ccc4[nH]7)C=C6)C=C5)cc3)S[C@@H]3CS(=O)(=O)C[C@@H]32)cc1
REMARK SMILES IDX 16 1 17 2 18 3 15 5 14 6 12 7 9 8 10 9 98 10 11 11 91 12
REMARK SMILES IDX 92 13 97 14 93 16 94 17 13 18 95 19 96 20 8 21 7 22 6 23
REMARK SMILES IDX 3 24 4 25 100 26 5 27 99 28 2 29 1 30 19 31 20 32 21 33
REMARK SMILES IDX 22 34 23 35 24 37 25 38 26 39 90 40 27 41 89 42 28 43 29 44
REMARK SMILES IDX 30 45 83 46 31 47 88 48 82 49 84 50 32 51 87 52 81 53 80 54
REMARK SMILES IDX 33 56 67 57 46 58 66 59 47 60 50 61 65 62 85 63 48 64 49 65
REMARK SMILES IDX 64 67 86 68 51 69 34 70 35 71 44 72 36 73 37 74 43 75 45 76
REMARK SMILES IDX 38 77 39 78 40 79 41 80 42 81 68 82 69 83 78 84 70 85 71 86
REMARK SMILES IDX 77 87 79 88 72 89 73 90 74 91 75 92 76 93 52 94 53 95 62 96
REMARK SMILES IDX 54 97 55 98 61 99 63 100 56 101 57 102 58 103 59 104 60 105
REMARK H PARENT 18 4 11 15 22 36 84 55 50 66
REMARK Flexibility Score: inf
ROOT
ATOM      1  C   UNL A   1      34.858  31.320  27.643  1.00  0.00     0.220 C 
ATOM      2  O   UNL A   1      35.888  30.750  27.270  1.00  0.00    -0.275 OA
ATOM      3  N   UNL A   1      34.982  32.615  28.067  1.00  0.00    -0.356 N 
ATOM      4  H   UNL A   1      35.871  32.997  27.892  1.00  0.00     0.163 HD
ENDROOT
BRANCH   1   5
ATOM      5  C   UNL A   1      33.528  30.590  27.552  1.00  0.00     0.112 C 
BRANCH   5   6
ATOM      6  C   UNL A   1      33.682  29.107  27.205  1.00  0.00     0.138 C 
BRANCH   6   7
ATOM      7  C   UNL A   1      33.241  28.923  25.779  1.00  0.00     0.308 C 
ATOM      8  N   UNL A   1      30.476  27.038  24.467  1.00  0.00    -0.251 N 
ATOM      9  C   UNL A   1      31.720  27.650  24.564  1.00  0.00     0.314 C 
ATOM     10  C   UNL A   1      29.827  27.250  23.112  1.00  0.00     0.206 C 
ATOM     11  N   UNL A   1      32.208  28.041  25.687  1.00  0.00    -0.205 N 
ATOM     12  S   UNL A   1      32.372  27.955  22.965  1.00  0.00    -0.030 SA
ATOM     13  C   UNL A   1      30.724  28.274  22.353  1.00  0.00     0.120 C 
ATOM     14  C   UNL A   1      28.464  27.875  22.793  1.00  0.00     0.187 C 
ATOM     15  H   UNL A   1      31.818  27.686  26.518  1.00  0.00     0.316 HD
ATOM     16  C   UNL A   1      30.292  29.712  22.704  1.00  0.00     0.156 C 
ATOM     17  S   UNL A   1      28.531  29.635  22.669  1.00  0.00     0.155 S 
ATOM     18  O   UNL A   1      33.631  29.698  24.912  1.00  0.00    -0.247 OA
ATOM     19  O   UNL A   1      27.951  30.218  23.872  1.00  0.00    -0.229 OA
ATOM     20  O   UNL A   1      28.052  30.029  21.371  1.00  0.00    -0.229 OA
BRANCH   8  21
ATOM     21  C   UNL A   1      29.940  26.365  25.688  1.00  0.00     0.242 C 
BRANCH  21  22
ATOM     22  C   UNL A   1      29.905  24.878  26.094  1.00  0.00     0.081 C 
BRANCH  22  23
ATOM     23  C   UNL A   1      31.057  23.951  26.126  1.00  0.00    -0.044 A 
ATOM     24  C   UNL A   1      33.312  22.355  26.002  1.00  0.00     0.118 A 
ATOM     25  C   UNL A   1      32.048  21.799  25.808  1.00  0.00     0.046 A 
ATOM     26  C   UNL A   1      33.457  23.691  26.360  1.00  0.00     0.046 A 
ATOM     27  C   UNL A   1      30.916  22.590  25.908  1.00  0.00     0.007 A 
ATOM     28  C   UNL A   1      32.324  24.487  26.434  1.00  0.00     0.007 A 
BRANCH  24  29
ATOM     29  O   UNL A   1      34.378  21.550  25.718  1.00  0.00    -0.497 OA
ATOM     30  C   UNL A   1      34.078  20.595  24.710  1.00  0.00     0.278 C 
ENDBRANCH  24  29
ENDBRANCH  22  23
ENDBRANCH  21  22
ENDBRANCH   8  21
ENDBRANCH   6   7
ENDBRANCH   5   6
ENDBRANCH   1   5
BRANCH   3  31
ATOM     31  C   UNL A   1      34.064  33.556  28.729  1.00  0.00     0.117 C 
BRANCH  31  32
ATOM     32  C   UNL A   1      34.513  33.908  30.162  1.00  0.00     0.042 C 
BRANCH  32  33
ATOM     33  C   UNL A   1      34.500  32.914  31.393  1.00  0.00     0.118 C 
BRANCH  33  34
ATOM     34  N   UNL A   1      35.402  31.686  31.208  1.00  0.00    -0.352 N 
ATOM     35  C   UNL A   1      36.647  31.365  31.837  1.00  0.00     0.251 C 
ATOM     36  H   UNL A   1      35.075  31.019  30.562  1.00  0.00     0.163 HD
ATOM     37  O   UNL A   1      36.865  31.687  33.000  1.00  0.00    -0.269 OA
BRANCH  35  38
ATOM     38  C   UNL A   1      37.868  30.830  30.971  1.00  0.00     0.039 A 
ATOM     39  C   UNL A   1      38.083  30.808  29.577  1.00  0.00     0.014 A 
ATOM     40  C   UNL A   1      38.913  30.268  31.696  1.00  0.00     0.014 A 
ATOM     41  C   UNL A   1      39.354  30.393  28.990  1.00  0.00     0.010 A 
ATOM     42  C   UNL A   1      40.197  29.972  31.153  1.00  0.00     0.010 A 
ATOM     43  C   UNL A   1      40.457  30.002  29.778  1.00  0.00    -0.014 A 
BRANCH  43  44
ATOM     44  C   UNL A   1      41.776  29.378  29.295  1.00  0.00     0.031 A 
ATOM     45  C   UNL A   1      42.970  30.315  29.078  1.00  0.00     0.074 A 
ATOM     46  C   UNL A   1      41.942  28.101  28.859  1.00  0.00     0.049 A 
ATOM     47  N   UNL A   1      44.155  30.084  28.560  1.00  0.00    -0.248 NA
ATOM     48  C   UNL A   1      42.758  31.721  29.456  1.00  0.00     0.031 C 
ATOM     49  C   UNL A   1      40.923  27.055  28.857  1.00  0.00     0.029 A 
ATOM     50  N   UNL A   1      43.039  27.469  28.277  1.00  0.00    -0.354 N 
ATOM     51  C   UNL A   1      44.816  31.313  28.541  1.00  0.00     0.074 A 
ATOM     52  C   UNL A   1      43.869  32.295  29.024  1.00  0.00     0.031 C 
ATOM     53  C   UNL A   1      41.427  25.934  28.297  1.00  0.00     0.029 A 
ATOM     54  C   UNL A   1      42.816  26.160  27.886  1.00  0.00     0.049 A 
ATOM     55  H   UNL A   1      43.906  27.919  28.154  1.00  0.00     0.167 HD
ATOM     56  C   UNL A   1      46.092  31.623  28.192  1.00  0.00     0.037 A 
ATOM     57  C   UNL A   1      43.615  25.245  27.278  1.00  0.00     0.037 A 
ATOM     58  C   UNL A   1      47.063  30.683  27.695  1.00  0.00     0.049 A 
ATOM     59  C   UNL A   1      45.047  25.592  26.900  1.00  0.00     0.074 A 
ATOM     60  C   UNL A   1      48.399  30.900  27.396  1.00  0.00     0.029 A 
ATOM     61  N   UNL A   1      46.804  29.354  27.404  1.00  0.00    -0.354 N 
ATOM     62  N   UNL A   1      45.688  26.728  27.038  1.00  0.00    -0.248 NA
ATOM     63  C   UNL A   1      45.871  24.524  26.297  1.00  0.00     0.031 C 
ATOM     64  C   UNL A   1      48.935  29.715  26.880  1.00  0.00     0.029 A 
ATOM     65  C   UNL A   1      47.949  28.744  26.915  1.00  0.00     0.049 A 
ATOM     66  H   UNL A   1      45.935  28.908  27.527  1.00  0.00     0.167 HD
ATOM     67  C   UNL A   1      46.989  26.496  26.585  1.00  0.00     0.074 A 
ATOM     68  C   UNL A   1      47.052  25.114  26.172  1.00  0.00     0.031 C 
ATOM     69  C   UNL A   1      48.035  27.358  26.526  1.00  0.00     0.037 A 
BRANCH  56  70
ATOM     70  C   UNL A   1      46.534  33.057  28.376  1.00  0.00     0.058 A 
ATOM     71  C   UNL A   1      47.083  33.495  29.593  1.00  0.00     0.135 A 
ATOM     72  C   UNL A   1      46.450  33.991  27.329  1.00  0.00     0.135 A 
ATOM     73  F   UNL A   1      47.188  32.648  30.631  1.00  0.00    -0.206 F 
ATOM     74  C   UNL A   1      47.481  34.813  29.786  1.00  0.00     0.059 A 
ATOM     75  C   UNL A   1      46.877  35.309  27.488  1.00  0.00     0.059 A 
ATOM     76  F   UNL A   1      45.950  33.630  26.138  1.00  0.00    -0.206 F 
ATOM     77  C   UNL A   1      47.371  35.714  28.727  1.00  0.00     0.060 A 
BRANCH  77  78
ATOM     78  S   UNL A   1      47.886  37.423  29.003  1.00  0.00     0.124 S 
ATOM     79  O   UNL A   1      46.772  38.161  28.415  1.00  0.00    -0.237 OA
ATOM     80  O   UNL A   1      47.988  37.485  30.457  1.00  0.00    -0.237 OA
ATOM     81  O   UNL A   1      49.152  37.518  28.284  1.00  0.00    -0.744 OA
ENDBRANCH  77  78
ENDBRANCH  56  70
BRANCH  57  82
ATOM     82  C   UNL A   1      43.128  23.848  27.012  1.00  0.00     0.058 A 
ATOM     83  C   UNL A   1      43.063  22.900  28.050  1.00  0.00     0.135 A 
ATOM     84  C   UNL A   1      42.777  23.410  25.726  1.00  0.00     0.135 A 
ATOM     85  F   UNL A   1      43.420  23.249  29.296  1.00  0.00    -0.206 F 
ATOM     86  C   UNL A   1      42.680  21.579  27.825  1.00  0.00     0.059 A 
ATOM     87  C   UNL A   1      42.365  22.098  25.479  1.00  0.00     0.059 A 
ATOM     88  F   UNL A   1      42.828  24.261  24.690  1.00  0.00    -0.206 F 
ATOM     89  C   UNL A   1      42.326  21.187  26.535  1.00  0.00     0.060 A 
BRANCH  89  90
ATOM     90  S   UNL A   1      41.771  19.484  26.271  1.00  0.00     0.124 S 
ATOM     91  O   UNL A   1      40.324  19.648  26.211  1.00  0.00    -0.237 OA
ATOM     92  O   UNL A   1      42.428  19.142  25.013  1.00  0.00    -0.237 OA
ATOM     93  O   UNL A   1      42.280  18.781  27.445  1.00  0.00    -0.744 OA
ENDBRANCH  89  90
ENDBRANCH  57  82
BRANCH  69  94
ATOM     94  C   UNL A   1      49.374  26.843  26.057  1.00  0.00     0.058 A 
ATOM     95  C   UNL A   1      49.813  26.991  24.732  1.00  0.00     0.135 A 
ATOM     96  C   UNL A   1      50.271  26.268  26.975  1.00  0.00     0.135 A 
ATOM     97  F   UNL A   1      49.003  27.531  23.809  1.00  0.00    -0.206 F 
ATOM     98  C   UNL A   1      51.081  26.575  24.331  1.00  0.00     0.059 A 
ATOM     99  C   UNL A   1      51.554  25.872  26.604  1.00  0.00     0.059 A 
ATOM    100  F   UNL A   1      49.914  26.111  28.261  1.00  0.00    -0.206 F 
ATOM    101  C   UNL A   1      51.949  26.022  25.276  1.00  0.00     0.060 A 
BRANCH 101 102
ATOM    102  S   UNL A   1      53.609  25.537  24.754  1.00  0.00     0.124 S 
ATOM    103  O   UNL A   1      54.435  26.154  25.786  1.00  0.00    -0.237 OA
ATOM    104  O   UNL A   1      53.533  24.081  24.787  1.00  0.00    -0.237 OA
ATOM    105  O   UNL A   1      53.732  26.122  23.421  1.00  0.00    -0.744 OA
ENDBRANCH 101 102
ENDBRANCH  69  94
ENDBRANCH  43  44
ENDBRANCH  35  38
ENDBRANCH  33  34
ENDBRANCH  32  33
ENDBRANCH  31  32
ENDBRANCH   3  31
TORSDOF 19
ENDMDL
