MODEL 1
REMARK VINA RESULT:     -13.6      0.000      0.000
REMARK SMILES Cc1ccc([C@@H]2[C@H](C(=O)NCCCNC(=O)c3ccc(-c4c5nc(c(-c6c(F)cc(S(=O)(=O)[O-])cc6F)c6ccc([nH]6)c(-c6c(F)cc(S(=O)(=O)[O-])cc6F)c6nc(c(-c7c(F)cc(S(=O)(=O)[O-])cc7F)c7ccc4[nH]7)C=C6)C=C5)cc3)c3ccccc3C(=O)N2c2ccccc2)cc1
REMARK SMILES IDX 13 1 12 2 11 3 10 4 8 5 9 6 7 8 6 9 91 10 83 11 89 12 84 13
REMARK SMILES IDX 88 14 90 15 85 16 87 17 86 18 5 19 1 20 2 21 3 22 99 23 4 24
REMARK SMILES IDX 98 25 92 26 93 27 97 28 94 29 96 30 95 31 14 32 15 33 16 35
REMARK SMILES IDX 17 36 18 37 82 38 19 39 81 40 20 41 21 42 22 43 75 44 23 45
REMARK SMILES IDX 80 46 74 47 76 48 24 49 79 50 73 51 72 52 25 54 59 55 38 56
REMARK SMILES IDX 58 57 39 58 42 59 57 60 77 61 40 62 41 63 56 65 78 66 43 67
REMARK SMILES IDX 26 68 27 69 36 70 28 71 29 72 35 73 37 74 30 75 31 76 32 77
REMARK SMILES IDX 33 78 34 79 60 80 61 81 70 82 62 83 63 84 69 85 71 86 64 87
REMARK SMILES IDX 65 88 66 89 67 90 68 91 44 92 45 93 54 94 46 95 47 96 53 97
REMARK SMILES IDX 55 98 48 99 49 100 50 101 51 102 52 103
REMARK H PARENT 10 7 14 34 76 53 42 64
REMARK Flexibility Score: inf
ROOT
ATOM      1  C   UNL A   1      34.194  29.347  28.127  1.00  0.00     0.118 C 
ENDROOT
BRANCH   1   2
ATOM      2  C   UNL A   1      33.826  29.085  26.671  1.00  0.00     0.042 C 
BRANCH   2   3
ATOM      3  C   UNL A   1      34.638  27.979  26.016  1.00  0.00     0.117 C 
BRANCH   3   4
ATOM      4  N   UNL A   1      33.800  26.830  25.688  1.00  0.00    -0.355 N 
ATOM      5  C   UNL A   1      34.348  25.600  25.432  1.00  0.00     0.230 C 
ATOM      6  O   UNL A   1      34.500  24.817  26.372  1.00  0.00    -0.274 OA
ATOM      7  H   UNL A   1      32.823  26.940  25.650  1.00  0.00     0.163 HD
BRANCH   5   8
ATOM      8  C   UNL A   1      34.645  25.171  23.989  1.00  0.00     0.137 C 
ATOM      9  C   UNL A   1      34.868  23.619  23.919  1.00  0.00     0.138 C 
ATOM     10  N   UNL A   1      33.564  22.936  23.839  1.00  0.00    -0.300 N 
ATOM     11  C   UNL A   1      33.643  25.566  22.897  1.00  0.00    -0.020 A 
ATOM     12  C   UNL A   1      32.993  23.132  22.572  1.00  0.00     0.259 C 
ATOM     13  C   UNL A   1      33.481  26.906  22.526  1.00  0.00     0.005 A 
ATOM     14  C   UNL A   1      32.899  24.584  22.197  1.00  0.00     0.044 A 
ATOM     15  O   UNL A   1      32.526  22.249  21.862  1.00  0.00    -0.269 OA
ATOM     16  C   UNL A   1      32.545  27.266  21.551  1.00  0.00     0.000 A 
ATOM     17  C   UNL A   1      31.995  24.946  21.193  1.00  0.00     0.014 A 
ATOM     18  C   UNL A   1      31.804  26.291  20.886  1.00  0.00     0.001 A 
BRANCH   9  19
ATOM     19  C   UNL A   1      36.058  23.007  24.654  1.00  0.00    -0.024 A 
ATOM     20  C   UNL A   1      39.630  21.051  26.114  1.00  0.00     0.044 C 
ATOM     21  C   UNL A   1      38.338  21.714  25.744  1.00  0.00    -0.051 A 
ATOM     22  C   UNL A   1      38.175  23.098  25.855  1.00  0.00     0.004 A 
ATOM     23  C   UNL A   1      37.305  20.963  25.188  1.00  0.00     0.004 A 
ATOM     24  C   UNL A   1      37.022  23.727  25.365  1.00  0.00     0.006 A 
ATOM     25  C   UNL A   1      36.186  21.601  24.652  1.00  0.00     0.006 A 
ENDBRANCH   9  19
BRANCH  10  26
ATOM     26  C   UNL A   1      32.626  22.844  24.945  1.00  0.00     0.045 A 
ATOM     27  C   UNL A   1      31.406  23.553  24.885  1.00  0.00     0.026 A 
ATOM     28  C   UNL A   1      32.898  22.177  26.143  1.00  0.00     0.026 A 
ATOM     29  C   UNL A   1      30.553  23.660  25.988  1.00  0.00     0.002 A 
ATOM     30  C   UNL A   1      32.026  22.247  27.239  1.00  0.00     0.002 A 
ATOM     31  C   UNL A   1      30.866  23.008  27.171  1.00  0.00     0.000 A 
ENDBRANCH  10  26
ENDBRANCH   5   8
ENDBRANCH   3   4
ENDBRANCH   2   3
ENDBRANCH   1   2
BRANCH   1  32
ATOM     32  N   UNL A   1      34.890  30.618  28.287  1.00  0.00    -0.352 N 
ATOM     33  C   UNL A   1      36.197  30.850  28.682  1.00  0.00     0.251 C 
ATOM     34  H   UNL A   1      34.358  31.422  28.088  1.00  0.00     0.163 HD
ATOM     35  O   UNL A   1      36.607  31.944  29.002  1.00  0.00    -0.269 OA
BRANCH  33  36
ATOM     36  C   UNL A   1      37.121  29.704  28.574  1.00  0.00     0.039 A 
ATOM     37  C   UNL A   1      37.342  28.956  29.736  1.00  0.00     0.014 A 
ATOM     38  C   UNL A   1      37.940  29.578  27.457  1.00  0.00     0.014 A 
ATOM     39  C   UNL A   1      38.505  28.200  29.843  1.00  0.00     0.010 A 
ATOM     40  C   UNL A   1      39.134  28.903  27.599  1.00  0.00     0.010 A 
ATOM     41  C   UNL A   1      39.433  28.252  28.803  1.00  0.00    -0.014 A 
BRANCH  41  42
ATOM     42  C   UNL A   1      40.783  27.721  28.916  1.00  0.00     0.031 A 
ATOM     43  C   UNL A   1      41.071  26.345  28.467  1.00  0.00     0.074 A 
ATOM     44  C   UNL A   1      41.777  28.511  29.374  1.00  0.00     0.049 A 
ATOM     45  N   UNL A   1      42.036  25.624  28.929  1.00  0.00    -0.248 NA
ATOM     46  C   UNL A   1      40.260  25.653  27.470  1.00  0.00     0.031 C 
ATOM     47  C   UNL A   1      43.212  28.252  29.309  1.00  0.00     0.029 A 
ATOM     48  N   UNL A   1      41.665  29.644  30.182  1.00  0.00    -0.354 N 
ATOM     49  C   UNL A   1      42.145  24.515  28.123  1.00  0.00     0.074 A 
ATOM     50  C   UNL A   1      40.981  24.545  27.269  1.00  0.00     0.031 C 
ATOM     51  C   UNL A   1      43.834  29.018  30.220  1.00  0.00     0.029 A 
ATOM     52  C   UNL A   1      42.807  29.686  31.001  1.00  0.00     0.049 A 
ATOM     53  H   UNL A   1      40.924  30.293  30.177  1.00  0.00     0.167 HD
ATOM     54  C   UNL A   1      43.280  23.762  28.155  1.00  0.00     0.037 A 
ATOM     55  C   UNL A   1      42.697  29.611  32.360  1.00  0.00     0.037 A 
ATOM     56  C   UNL A   1      44.235  24.283  29.127  1.00  0.00     0.049 A 
ATOM     57  C   UNL A   1      43.365  28.392  32.955  1.00  0.00     0.074 A 
ATOM     58  C   UNL A   1      45.309  25.148  29.000  1.00  0.00     0.029 A 
ATOM     59  N   UNL A   1      43.948  24.211  30.487  1.00  0.00    -0.354 N 
ATOM     60  N   UNL A   1      43.683  27.325  32.273  1.00  0.00    -0.248 NA
ATOM     61  C   UNL A   1      43.738  28.278  34.362  1.00  0.00     0.031 C 
ATOM     62  C   UNL A   1      45.631  25.646  30.283  1.00  0.00     0.029 A 
ATOM     63  C   UNL A   1      44.769  25.068  31.197  1.00  0.00     0.049 A 
ATOM     64  H   UNL A   1      43.257  23.634  30.886  1.00  0.00     0.167 HD
ATOM     65  C   UNL A   1      44.266  26.398  33.102  1.00  0.00     0.074 A 
ATOM     66  C   UNL A   1      44.296  27.054  34.396  1.00  0.00     0.031 C 
ATOM     67  C   UNL A   1      44.677  25.175  32.646  1.00  0.00     0.037 A 
BRANCH  54  68
ATOM     68  C   UNL A   1      43.611  22.777  27.062  1.00  0.00     0.058 A 
ATOM     69  C   UNL A   1      43.054  21.481  27.058  1.00  0.00     0.135 A 
ATOM     70  C   UNL A   1      44.525  23.040  26.024  1.00  0.00     0.135 A 
ATOM     71  F   UNL A   1      42.127  21.110  27.950  1.00  0.00    -0.206 F 
ATOM     72  C   UNL A   1      43.448  20.492  26.157  1.00  0.00     0.059 A 
ATOM     73  C   UNL A   1      44.971  22.053  25.138  1.00  0.00     0.059 A 
ATOM     74  F   UNL A   1      45.013  24.277  25.838  1.00  0.00    -0.206 F 
ATOM     75  C   UNL A   1      44.431  20.775  25.219  1.00  0.00     0.060 A 
BRANCH  75  76
ATOM     76  S   UNL A   1      45.001  19.445  24.142  1.00  0.00     0.124 S 
ATOM     77  O   UNL A   1      46.453  19.549  24.261  1.00  0.00    -0.237 OA
ATOM     78  O   UNL A   1      44.396  18.273  24.765  1.00  0.00    -0.237 OA
ATOM     79  O   UNL A   1      44.460  19.812  22.837  1.00  0.00    -0.744 OA
ENDBRANCH  75  76
ENDBRANCH  54  68
BRANCH  55  80
ATOM     80  C   UNL A   1      41.479  30.289  32.886  1.00  0.00     0.058 A 
ATOM     81  C   UNL A   1      40.364  29.484  33.196  1.00  0.00     0.135 A 
ATOM     82  C   UNL A   1      41.535  31.562  33.471  1.00  0.00     0.135 A 
ATOM     83  F   UNL A   1      40.253  28.259  32.654  1.00  0.00    -0.206 F 
ATOM     84  C   UNL A   1      39.430  29.855  34.158  1.00  0.00     0.059 A 
ATOM     85  C   UNL A   1      40.603  31.959  34.436  1.00  0.00     0.059 A 
ATOM     86  F   UNL A   1      42.568  32.377  33.216  1.00  0.00    -0.206 F 
ATOM     87  C   UNL A   1      39.594  31.071  34.817  1.00  0.00     0.060 A 
BRANCH  87  88
ATOM     88  S   UNL A   1      38.571  31.386  36.277  1.00  0.00     0.124 S 
ATOM     89  O   UNL A   1      37.487  32.187  35.719  1.00  0.00    -0.237 OA
ATOM     90  O   UNL A   1      38.200  30.033  36.693  1.00  0.00    -0.237 OA
ATOM     91  O   UNL A   1      39.478  32.087  37.176  1.00  0.00    -0.744 OA
ENDBRANCH  87  88
ENDBRANCH  55  80
BRANCH  67  92
ATOM     92  C   UNL A   1      45.144  24.000  33.484  1.00  0.00     0.058 A 
ATOM     93  C   UNL A   1      46.442  23.857  34.001  1.00  0.00     0.135 A 
ATOM     94  C   UNL A   1      44.214  23.017  33.916  1.00  0.00     0.135 A 
ATOM     95  F   UNL A   1      47.392  24.773  33.769  1.00  0.00    -0.206 F 
ATOM     96  C   UNL A   1      46.808  22.791  34.828  1.00  0.00     0.059 A 
ATOM     97  C   UNL A   1      44.543  21.983  34.787  1.00  0.00     0.059 A 
ATOM     98  F   UNL A   1      42.933  23.036  33.517  1.00  0.00    -0.206 F 
ATOM     99  C   UNL A   1      45.852  21.859  35.218  1.00  0.00     0.060 A 
BRANCH  99 100
ATOM    100  S   UNL A   1      46.298  20.526  36.344  1.00  0.00     0.124 S 
ATOM    101  O   UNL A   1      45.632  19.385  35.721  1.00  0.00    -0.237 OA
ATOM    102  O   UNL A   1      47.757  20.518  36.275  1.00  0.00    -0.237 OA
ATOM    103  O   UNL A   1      45.742  20.964  37.619  1.00  0.00    -0.744 OA
ENDBRANCH  99 100
ENDBRANCH  67  92
ENDBRANCH  41  42
ENDBRANCH  33  36
ENDBRANCH   1  32
TORSDOF 15
ENDMDL
MODEL 2
REMARK VINA RESULT:     -13.1      4.725     11.145
REMARK SMILES Cc1ccc([C@@H]2[C@H](C(=O)NCCCNC(=O)c3ccc(-c4c5nc(c(-c6c(F)cc(S(=O)(=O)[O-])cc6F)c6ccc([nH]6)c(-c6c(F)cc(S(=O)(=O)[O-])cc6F)c6nc(c(-c7c(F)cc(S(=O)(=O)[O-])cc7F)c7ccc4[nH]7)C=C6)C=C5)cc3)c3ccccc3C(=O)N2c2ccccc2)cc1
REMARK SMILES IDX 13 1 12 2 11 3 10 4 8 5 9 6 7 8 6 9 91 10 83 11 89 12 84 13
REMARK SMILES IDX 88 14 90 15 85 16 87 17 86 18 5 19 1 20 2 21 3 22 99 23 4 24
REMARK SMILES IDX 98 25 92 26 93 27 97 28 94 29 96 30 95 31 14 32 15 33 16 35
REMARK SMILES IDX 17 36 18 37 82 38 19 39 81 40 20 41 21 42 22 43 75 44 23 45
REMARK SMILES IDX 80 46 74 47 76 48 24 49 79 50 73 51 72 52 25 54 59 55 38 56
REMARK SMILES IDX 58 57 39 58 42 59 57 60 77 61 40 62 41 63 56 65 78 66 43 67
REMARK SMILES IDX 26 68 27 69 36 70 28 71 29 72 35 73 37 74 30 75 31 76 32 77
REMARK SMILES IDX 33 78 34 79 60 80 61 81 70 82 62 83 63 84 69 85 71 86 64 87
REMARK SMILES IDX 65 88 66 89 67 90 68 91 44 92 45 93 54 94 46 95 47 96 53 97
REMARK SMILES IDX 55 98 48 99 49 100 50 101 51 102 52 103
REMARK H PARENT 10 7 14 34 76 53 42 64
REMARK Flexibility Score: inf
ROOT
ATOM      1  C   UNL A   1      38.340  23.710  25.351  1.00  0.00     0.118 C 
ENDROOT
BRANCH   1   2
ATOM      2  C   UNL A   1      36.943  23.270  25.772  1.00  0.00     0.042 C 
BRANCH   2   3
ATOM      3  C   UNL A   1      36.081  24.392  26.330  1.00  0.00     0.117 C 
BRANCH   3   4
ATOM      4  N   UNL A   1      34.905  24.621  25.496  1.00  0.00    -0.355 N 
ATOM      5  C   UNL A   1      34.138  25.747  25.642  1.00  0.00     0.230 C 
ATOM      6  O   UNL A   1      34.415  26.739  24.965  1.00  0.00    -0.274 OA
ATOM      7  H   UNL A   1      34.658  23.953  24.816  1.00  0.00     0.163 HD
BRANCH   5   8
ATOM      8  C   UNL A   1      32.891  25.721  26.535  1.00  0.00     0.137 C 
ATOM      9  C   UNL A   1      31.980  26.964  26.232  1.00  0.00     0.138 C 
ATOM     10  N   UNL A   1      31.130  26.679  25.061  1.00  0.00    -0.300 N 
ATOM     11  C   UNL A   1      32.013  24.463  26.518  1.00  0.00    -0.020 A 
ATOM     12  C   UNL A   1      30.131  25.754  25.403  1.00  0.00     0.259 C 
ATOM     13  C   UNL A   1      32.486  23.255  27.045  1.00  0.00     0.005 A 
ATOM     14  C   UNL A   1      30.687  24.503  26.021  1.00  0.00     0.044 A 
ATOM     15  O   UNL A   1      28.938  25.878  25.156  1.00  0.00    -0.269 OA
ATOM     16  C   UNL A   1      31.695  22.102  27.000  1.00  0.00     0.000 A 
ATOM     17  C   UNL A   1      29.885  23.356  26.017  1.00  0.00     0.014 A 
ATOM     18  C   UNL A   1      30.400  22.151  26.488  1.00  0.00     0.001 A 
BRANCH   9  19
ATOM     19  C   UNL A   1      32.515  28.364  26.521  1.00  0.00    -0.024 A 
ATOM     20  C   UNL A   1      33.461  32.412  27.719  1.00  0.00     0.044 C 
ATOM     21  C   UNL A   1      33.221  31.032  27.188  1.00  0.00    -0.051 A 
ATOM     22  C   UNL A   1      34.032  29.958  27.567  1.00  0.00     0.004 A 
ATOM     23  C   UNL A   1      32.116  30.780  26.376  1.00  0.00     0.004 A 
ATOM     24  C   UNL A   1      33.711  28.646  27.188  1.00  0.00     0.006 A 
ATOM     25  C   UNL A   1      31.771  29.467  26.052  1.00  0.00     0.006 A 
ENDBRANCH   9  19
BRANCH  10  26
ATOM     26  C   UNL A   1      31.627  26.593  23.698  1.00  0.00     0.045 A 
ATOM     27  C   UNL A   1      31.616  25.350  23.028  1.00  0.00     0.026 A 
ATOM     28  C   UNL A   1      32.233  27.658  23.023  1.00  0.00     0.026 A 
ATOM     29  C   UNL A   1      32.252  25.163  21.796  1.00  0.00     0.002 A 
ATOM     30  C   UNL A   1      32.837  27.485  21.768  1.00  0.00     0.002 A 
ATOM     31  C   UNL A   1      32.868  26.233  21.166  1.00  0.00     0.000 A 
ENDBRANCH  10  26
ENDBRANCH   5   8
ENDBRANCH   3   4
ENDBRANCH   2   3
ENDBRANCH   1   2
BRANCH   1  32
ATOM     32  N   UNL A   1      39.360  23.221  26.271  1.00  0.00    -0.352 N 
ATOM     33  C   UNL A   1      40.155  23.939  27.149  1.00  0.00     0.251 C 
ATOM     34  H   UNL A   1      39.504  22.247  26.269  1.00  0.00     0.163 HD
ATOM     35  O   UNL A   1      41.124  23.465  27.701  1.00  0.00    -0.269 OA
BRANCH  33  36
ATOM     36  C   UNL A   1      39.688  25.297  27.487  1.00  0.00     0.039 A 
ATOM     37  C   UNL A   1      40.248  26.359  26.766  1.00  0.00     0.014 A 
ATOM     38  C   UNL A   1      38.962  25.510  28.655  1.00  0.00     0.014 A 
ATOM     39  C   UNL A   1      40.230  27.635  27.317  1.00  0.00     0.010 A 
ATOM     40  C   UNL A   1      39.025  26.756  29.242  1.00  0.00     0.010 A 
ATOM     41  C   UNL A   1      39.693  27.803  28.594  1.00  0.00    -0.014 A 
BRANCH  41  42
ATOM     42  C   UNL A   1      39.857  29.024  29.369  1.00  0.00     0.031 A 
ATOM     43  C   UNL A   1      38.803  30.057  29.342  1.00  0.00     0.074 A 
ATOM     44  C   UNL A   1      40.942  29.178  30.157  1.00  0.00     0.049 A 
ATOM     45  N   UNL A   1      39.017  31.309  29.568  1.00  0.00    -0.248 NA
ATOM     46  C   UNL A   1      37.411  29.758  29.022  1.00  0.00     0.031 C 
ATOM     47  C   UNL A   1      41.148  30.187  31.190  1.00  0.00     0.029 A 
ATOM     48  N   UNL A   1      42.182  28.547  30.036  1.00  0.00    -0.354 N 
ATOM     49  C   UNL A   1      37.792  31.921  29.694  1.00  0.00     0.074 A 
ATOM     50  C   UNL A   1      36.823  30.930  29.285  1.00  0.00     0.031 C 
ATOM     51  C   UNL A   1      42.463  30.292  31.440  1.00  0.00     0.029 A 
ATOM     52  C   UNL A   1      43.158  29.459  30.473  1.00  0.00     0.049 A 
ATOM     53  H   UNL A   1      42.342  27.632  29.706  1.00  0.00     0.167 HD
ATOM     54  C   UNL A   1      37.705  33.152  30.272  1.00  0.00     0.037 A 
ATOM     55  C   UNL A   1      44.129  29.906  29.623  1.00  0.00     0.037 A 
ATOM     56  C   UNL A   1      39.020  33.653  30.653  1.00  0.00     0.049 A 
ATOM     57  C   UNL A   1      44.075  31.397  29.373  1.00  0.00     0.074 A 
ATOM     58  C   UNL A   1      39.721  33.602  31.847  1.00  0.00     0.029 A 
ATOM     59  N   UNL A   1      39.944  33.994  29.670  1.00  0.00    -0.354 N 
ATOM     60  N   UNL A   1      43.029  32.141  29.606  1.00  0.00    -0.248 NA
ATOM     61  C   UNL A   1      45.198  32.171  28.850  1.00  0.00     0.031 C 
ATOM     62  C   UNL A   1      41.085  33.854  31.571  1.00  0.00     0.029 A 
ATOM     63  C   UNL A   1      41.213  34.081  30.213  1.00  0.00     0.049 A 
ATOM     64  H   UNL A   1      39.725  34.150  28.723  1.00  0.00     0.167 HD
ATOM     65  C   UNL A   1      43.299  33.445  29.268  1.00  0.00     0.074 A 
ATOM     66  C   UNL A   1      44.679  33.413  28.821  1.00  0.00     0.031 C 
ATOM     67  C   UNL A   1      42.363  34.435  29.393  1.00  0.00     0.037 A 
BRANCH  54  68
ATOM     68  C   UNL A   1      36.392  33.706  30.766  1.00  0.00     0.058 A 
ATOM     69  C   UNL A   1      35.510  34.378  29.894  1.00  0.00     0.135 A 
ATOM     70  C   UNL A   1      35.981  33.656  32.112  1.00  0.00     0.135 A 
ATOM     71  F   UNL A   1      35.743  34.452  28.578  1.00  0.00    -0.206 F 
ATOM     72  C   UNL A   1      34.363  35.036  30.338  1.00  0.00     0.059 A 
ATOM     73  C   UNL A   1      34.862  34.346  32.590  1.00  0.00     0.059 A 
ATOM     74  F   UNL A   1      36.662  32.925  33.010  1.00  0.00    -0.206 F 
ATOM     75  C   UNL A   1      34.062  35.044  31.693  1.00  0.00     0.060 A 
BRANCH  75  76
ATOM     76  S   UNL A   1      32.636  35.997  32.250  1.00  0.00     0.124 S 
ATOM     77  O   UNL A   1      32.295  36.771  31.060  1.00  0.00    -0.237 OA
ATOM     78  O   UNL A   1      31.693  34.944  32.614  1.00  0.00    -0.237 OA
ATOM     79  O   UNL A   1      33.165  36.778  33.364  1.00  0.00    -0.744 OA
ENDBRANCH  75  76
ENDBRANCH  54  68
BRANCH  55  80
ATOM     80  C   UNL A   1      44.579  28.868  28.653  1.00  0.00     0.058 A 
ATOM     81  C   UNL A   1      44.039  28.912  27.352  1.00  0.00     0.135 A 
ATOM     82  C   UNL A   1      45.777  28.162  28.828  1.00  0.00     0.135 A 
ATOM     83  F   UNL A   1      42.886  29.566  27.128  1.00  0.00    -0.206 F 
ATOM     84  C   UNL A   1      44.727  28.414  26.250  1.00  0.00     0.059 A 
ATOM     85  C   UNL A   1      46.483  27.647  27.735  1.00  0.00     0.059 A 
ATOM     86  F   UNL A   1      46.342  28.082  30.041  1.00  0.00    -0.206 F 
ATOM     87  C   UNL A   1      45.979  27.837  26.446  1.00  0.00     0.060 A 
BRANCH  87  88
ATOM     88  S   UNL A   1      46.991  27.496  24.985  1.00  0.00     0.124 S 
ATOM     89  O   UNL A   1      48.327  27.392  25.561  1.00  0.00    -0.237 OA
ATOM     90  O   UNL A   1      46.419  26.240  24.498  1.00  0.00    -0.237 OA
ATOM     91  O   UNL A   1      46.756  28.657  24.137  1.00  0.00    -0.744 OA
ENDBRANCH  87  88
ENDBRANCH  55  80
BRANCH  67  92
ATOM     92  C   UNL A   1      42.464  35.856  28.874  1.00  0.00     0.058 A 
ATOM     93  C   UNL A   1      43.229  36.870  29.474  1.00  0.00     0.135 A 
ATOM     94  C   UNL A   1      41.877  36.205  27.629  1.00  0.00     0.135 A 
ATOM     95  F   UNL A   1      43.932  36.647  30.593  1.00  0.00    -0.206 F 
ATOM     96  C   UNL A   1      43.350  38.148  28.920  1.00  0.00     0.059 A 
ATOM     97  C   UNL A   1      42.034  37.452  27.031  1.00  0.00     0.059 A 
ATOM     98  F   UNL A   1      41.133  35.332  26.932  1.00  0.00    -0.206 F 
ATOM     99  C   UNL A   1      42.751  38.430  27.697  1.00  0.00     0.060 A 
BRANCH  99 100
ATOM    100  S   UNL A   1      42.964  40.051  26.941  1.00  0.00     0.124 S 
ATOM    101  O   UNL A   1      41.761  40.148  26.119  1.00  0.00    -0.237 OA
ATOM    102  O   UNL A   1      43.012  40.943  28.095  1.00  0.00    -0.237 OA
ATOM    103  O   UNL A   1      44.220  39.917  26.210  1.00  0.00    -0.744 OA
ENDBRANCH  99 100
ENDBRANCH  67  92
ENDBRANCH  41  42
ENDBRANCH  33  36
ENDBRANCH   1  32
TORSDOF 15
ENDMDL
MODEL 3
REMARK VINA RESULT:     -11.9      5.666     11.199
REMARK SMILES Cc1ccc([C@@H]2[C@H](C(=O)NCCCNC(=O)c3ccc(-c4c5nc(c(-c6c(F)cc(S(=O)(=O)[O-])cc6F)c6ccc([nH]6)c(-c6c(F)cc(S(=O)(=O)[O-])cc6F)c6nc(c(-c7c(F)cc(S(=O)(=O)[O-])cc7F)c7ccc4[nH]7)C=C6)C=C5)cc3)c3ccccc3C(=O)N2c2ccccc2)cc1
REMARK SMILES IDX 13 1 12 2 11 3 10 4 8 5 9 6 7 8 6 9 91 10 83 11 89 12 84 13
REMARK SMILES IDX 88 14 90 15 85 16 87 17 86 18 5 19 1 20 2 21 3 22 99 23 4 24
REMARK SMILES IDX 98 25 92 26 93 27 97 28 94 29 96 30 95 31 14 32 15 33 16 35
REMARK SMILES IDX 17 36 18 37 82 38 19 39 81 40 20 41 21 42 22 43 75 44 23 45
REMARK SMILES IDX 80 46 74 47 76 48 24 49 79 50 73 51 72 52 25 54 59 55 38 56
REMARK SMILES IDX 58 57 39 58 42 59 57 60 77 61 40 62 41 63 56 65 78 66 43 67
REMARK SMILES IDX 26 68 27 69 36 70 28 71 29 72 35 73 37 74 30 75 31 76 32 77
REMARK SMILES IDX 33 78 34 79 60 80 61 81 70 82 62 83 63 84 69 85 71 86 64 87
REMARK SMILES IDX 65 88 66 89 67 90 68 91 44 92 45 93 54 94 46 95 47 96 53 97
REMARK SMILES IDX 55 98 48 99 49 100 50 101 51 102 52 103
REMARK H PARENT 10 7 14 34 76 53 42 64
REMARK Flexibility Score: inf
ROOT
ATOM      1  C   UNL A   1      46.225  29.348  26.286  1.00  0.00     0.118 C 
ENDROOT
BRANCH   1   2
ATOM      2  C   UNL A   1      46.770  28.630  25.057  1.00  0.00     0.042 C 
BRANCH   2   3
ATOM      3  C   UNL A   1      46.184  27.243  24.839  1.00  0.00     0.117 C 
BRANCH   3   4
ATOM      4  N   UNL A   1      45.327  26.849  25.952  1.00  0.00    -0.355 N 
ATOM      5  C   UNL A   1      44.707  25.627  25.975  1.00  0.00     0.230 C 
ATOM      6  O   UNL A   1      45.291  24.681  26.508  1.00  0.00    -0.274 OA
ATOM      7  H   UNL A   1      45.191  27.473  26.702  1.00  0.00     0.163 HD
BRANCH   5   8
ATOM      8  C   UNL A   1      43.269  25.480  25.460  1.00  0.00     0.137 C 
ATOM      9  C   UNL A   1      42.651  24.124  25.953  1.00  0.00     0.138 C 
ATOM     10  N   UNL A   1      42.129  24.288  27.322  1.00  0.00    -0.300 N 
ATOM     11  C   UNL A   1      42.272  26.605  25.766  1.00  0.00    -0.020 A 
ATOM     12  C   UNL A   1      40.961  25.066  27.304  1.00  0.00     0.259 C 
ATOM     13  C   UNL A   1      42.416  27.867  25.177  1.00  0.00     0.005 A 
ATOM     14  C   UNL A   1      41.153  26.382  26.606  1.00  0.00     0.044 A 
ATOM     15  O   UNL A   1      39.910  24.778  27.864  1.00  0.00    -0.269 OA
ATOM     16  C   UNL A   1      41.523  28.899  25.482  1.00  0.00     0.000 A 
ATOM     17  C   UNL A   1      40.239  27.407  26.874  1.00  0.00     0.014 A 
ATOM     18  C   UNL A   1      40.439  28.672  26.328  1.00  0.00     0.001 A 
BRANCH   9  19
ATOM     19  C   UNL A   1      43.266  22.811  25.473  1.00  0.00    -0.024 A 
ATOM     20  C   UNL A   1      45.613  19.378  24.280  1.00  0.00     0.044 C 
ATOM     21  C   UNL A   1      44.696  20.519  24.602  1.00  0.00    -0.051 A 
ATOM     22  C   UNL A   1      43.774  20.436  25.650  1.00  0.00     0.004 A 
ATOM     23  C   UNL A   1      44.818  21.725  23.914  1.00  0.00     0.004 A 
ATOM     24  C   UNL A   1      43.028  21.556  26.042  1.00  0.00     0.006 A 
ATOM     25  C   UNL A   1      44.115  22.850  24.346  1.00  0.00     0.006 A 
ENDBRANCH   9  19
BRANCH  10  26
ATOM     26  C   UNL A   1      42.968  24.440  28.499  1.00  0.00     0.045 A 
ATOM     27  C   UNL A   1      43.466  23.292  29.154  1.00  0.00     0.026 A 
ATOM     28  C   UNL A   1      43.235  25.670  29.110  1.00  0.00     0.026 A 
ATOM     29  C   UNL A   1      44.113  23.365  30.392  1.00  0.00     0.002 A 
ATOM     30  C   UNL A   1      43.921  25.751  30.331  1.00  0.00     0.002 A 
ATOM     31  C   UNL A   1      44.337  24.598  30.985  1.00  0.00     0.000 A 
ENDBRANCH  10  26
ENDBRANCH   5   8
ENDBRANCH   3   4
ENDBRANCH   2   3
ENDBRANCH   1   2
BRANCH   1  32
ATOM     32  N   UNL A   1      45.716  30.673  25.954  1.00  0.00    -0.352 N 
ATOM     33  C   UNL A   1      44.655  31.363  26.517  1.00  0.00     0.251 C 
ATOM     34  H   UNL A   1      46.191  31.143  25.231  1.00  0.00     0.163 HD
ATOM     35  O   UNL A   1      44.174  32.357  26.019  1.00  0.00    -0.269 OA
BRANCH  33  36
ATOM     36  C   UNL A   1      44.208  30.896  27.844  1.00  0.00     0.039 A 
ATOM     37  C   UNL A   1      43.353  29.789  27.872  1.00  0.00     0.014 A 
ATOM     38  C   UNL A   1      44.393  31.705  28.961  1.00  0.00     0.014 A 
ATOM     39  C   UNL A   1      42.538  29.591  28.981  1.00  0.00     0.010 A 
ATOM     40  C   UNL A   1      43.522  31.561  30.020  1.00  0.00     0.010 A 
ATOM     41  C   UNL A   1      42.570  30.533  30.010  1.00  0.00    -0.014 A 
BRANCH  41  42
ATOM     42  C   UNL A   1      41.586  30.572  31.081  1.00  0.00     0.031 A 
ATOM     43  C   UNL A   1      40.548  31.623  31.086  1.00  0.00     0.074 A 
ATOM     44  C   UNL A   1      41.589  29.613  32.031  1.00  0.00     0.049 A 
ATOM     45  N   UNL A   1      39.960  32.049  32.152  1.00  0.00    -0.248 NA
ATOM     46  C   UNL A   1      40.110  32.306  29.873  1.00  0.00     0.031 C 
ATOM     47  C   UNL A   1      40.544  29.336  33.010  1.00  0.00     0.029 A 
ATOM     48  N   UNL A   1      42.657  28.805  32.425  1.00  0.00    -0.354 N 
ATOM     49  C   UNL A   1      38.905  32.836  31.754  1.00  0.00     0.074 A 
ATOM     50  C   UNL A   1      39.076  33.018  30.332  1.00  0.00     0.031 C 
ATOM     51  C   UNL A   1      41.072  28.631  34.023  1.00  0.00     0.029 A 
ATOM     52  C   UNL A   1      42.506  28.557  33.801  1.00  0.00     0.049 A 
ATOM     53  H   UNL A   1      43.381  28.471  31.846  1.00  0.00     0.167 HD
ATOM     54  C   UNL A   1      37.911  33.134  32.637  1.00  0.00     0.037 A 
ATOM     55  C   UNL A   1      43.450  28.973  34.695  1.00  0.00     0.037 A 
ATOM     56  C   UNL A   1      38.173  32.550  33.948  1.00  0.00     0.049 A 
ATOM     57  C   UNL A   1      42.935  29.986  35.692  1.00  0.00     0.074 A 
ATOM     58  C   UNL A   1      37.766  31.362  34.532  1.00  0.00     0.029 A 
ATOM     59  N   UNL A   1      39.229  33.025  34.719  1.00  0.00    -0.354 N 
ATOM     60  N   UNL A   1      41.849  30.691  35.525  1.00  0.00    -0.248 NA
ATOM     61  C   UNL A   1      43.593  30.281  36.962  1.00  0.00     0.031 C 
ATOM     62  C   UNL A   1      38.623  31.089  35.624  1.00  0.00     0.029 A 
ATOM     63  C   UNL A   1      39.537  32.122  35.721  1.00  0.00     0.049 A 
ATOM     64  H   UNL A   1      39.693  33.881  34.572  1.00  0.00     0.167 HD
ATOM     65  C   UNL A   1      41.661  31.521  36.603  1.00  0.00     0.074 A 
ATOM     66  C   UNL A   1      42.770  31.208  37.485  1.00  0.00     0.031 C 
ATOM     67  C   UNL A   1      40.603  32.387  36.676  1.00  0.00     0.037 A 
BRANCH  54  68
ATOM     68  C   UNL A   1      36.576  33.667  32.180  1.00  0.00     0.058 A 
ATOM     69  C   UNL A   1      35.884  33.072  31.105  1.00  0.00     0.135 A 
ATOM     70  C   UNL A   1      35.960  34.807  32.732  1.00  0.00     0.135 A 
ATOM     71  F   UNL A   1      36.322  31.949  30.521  1.00  0.00    -0.206 F 
ATOM     72  C   UNL A   1      34.727  33.623  30.553  1.00  0.00     0.059 A 
ATOM     73  C   UNL A   1      34.827  35.404  32.169  1.00  0.00     0.059 A 
ATOM     74  F   UNL A   1      36.446  35.377  33.847  1.00  0.00    -0.206 F 
ATOM     75  C   UNL A   1      34.222  34.807  31.070  1.00  0.00     0.060 A 
BRANCH  75  76
ATOM     76  S   UNL A   1      32.791  35.554  30.265  1.00  0.00     0.124 S 
ATOM     77  O   UNL A   1      33.284  36.887  29.928  1.00  0.00    -0.237 OA
ATOM     78  O   UNL A   1      32.575  34.654  29.137  1.00  0.00    -0.237 OA
ATOM     79  O   UNL A   1      31.764  35.521  31.302  1.00  0.00    -0.744 OA
ENDBRANCH  75  76
ENDBRANCH  54  68
BRANCH  55  80
ATOM     80  C   UNL A   1      44.838  28.899  34.156  1.00  0.00     0.058 A 
ATOM     81  C   UNL A   1      45.475  27.641  34.160  1.00  0.00     0.135 A 
ATOM     82  C   UNL A   1      45.347  29.874  33.289  1.00  0.00     0.135 A 
ATOM     83  F   UNL A   1      45.035  26.671  34.980  1.00  0.00    -0.206 F 
ATOM     84  C   UNL A   1      46.466  27.314  33.241  1.00  0.00     0.059 A 
ATOM     85  C   UNL A   1      46.349  29.570  32.360  1.00  0.00     0.059 A 
ATOM     86  F   UNL A   1      44.787  31.092  33.238  1.00  0.00    -0.206 F 
ATOM     87  C   UNL A   1      46.853  28.268  32.303  1.00  0.00     0.060 A 
BRANCH  87  88
ATOM     88  S   UNL A   1      47.895  27.727  30.925  1.00  0.00     0.124 S 
ATOM     89  O   UNL A   1      47.581  26.305  30.851  1.00  0.00    -0.237 OA
ATOM     90  O   UNL A   1      47.390  28.539  29.818  1.00  0.00    -0.237 OA
ATOM     91  O   UNL A   1      49.241  28.055  31.374  1.00  0.00    -0.744 OA
ENDBRANCH  87  88
ENDBRANCH  55  80
BRANCH  67  92
ATOM     92  C   UNL A   1      40.393  33.485  37.701  1.00  0.00     0.058 A 
ATOM     93  C   UNL A   1      41.116  34.688  37.737  1.00  0.00     0.135 A 
ATOM     94  C   UNL A   1      39.318  33.402  38.625  1.00  0.00     0.135 A 
ATOM     95  F   UNL A   1      42.084  34.950  36.848  1.00  0.00    -0.206 F 
ATOM     96  C   UNL A   1      40.840  35.704  38.657  1.00  0.00     0.059 A 
ATOM     97  C   UNL A   1      38.989  34.426  39.509  1.00  0.00     0.059 A 
ATOM     98  F   UNL A   1      38.530  32.319  38.694  1.00  0.00    -0.206 F 
ATOM     99  C   UNL A   1      39.773  35.566  39.538  1.00  0.00     0.060 A 
BRANCH  99 100
ATOM    100  S   UNL A   1      39.364  36.901  40.676  1.00  0.00     0.124 S 
ATOM    101  O   UNL A   1      38.599  37.795  39.813  1.00  0.00    -0.237 OA
ATOM    102  O   UNL A   1      38.597  36.218  41.714  1.00  0.00    -0.237 OA
ATOM    103  O   UNL A   1      40.672  37.393  41.097  1.00  0.00    -0.744 OA
ENDBRANCH  99 100
ENDBRANCH  67  92
ENDBRANCH  41  42
ENDBRANCH  33  36
ENDBRANCH   1  32
TORSDOF 15
ENDMDL
