MODEL 1
REMARK VINA RESULT:     -13.6      0.000      0.000
REMARK SMILES CCN(Cc1ccccn1)C(=O)NC(=O)CCCC(=O)NCCCNC(=O)c1ccc(-c2c3nc(c(-c4c(F)cc(S(=O)(=O)[O-])cc4F)c4ccc([nH]4)c(-c4c(F)cc(S(=O)(=O)[O-])cc4F)c4nc(c(-c5c(F)cc(S(=O)(=O)[O-])cc5F)c5ccc2[nH]5)C=C4)C=C3)cc1
REMARK SMILES IDX 19 1 20 2 21 3 18 5 17 6 16 7 14 8 11 9 12 10 13 11 15 13
REMARK SMILES IDX 3 14 2 15 1 16 4 17 5 18 6 19 10 20 7 21 9 22 8 23 22 24
REMARK SMILES IDX 23 25 24 26 25 27 26 28 27 30 28 31 29 32 93 33 30 34 92 35
REMARK SMILES IDX 31 36 32 37 33 38 86 39 34 40 91 41 85 42 87 43 35 44 90 45
REMARK SMILES IDX 84 46 83 47 36 49 70 50 49 51 69 52 50 53 53 54 68 55 88 56
REMARK SMILES IDX 51 57 52 58 67 60 89 61 54 62 37 63 38 64 47 65 39 66 40 67
REMARK SMILES IDX 46 68 48 69 41 70 42 71 43 72 44 73 45 74 71 75 72 76 81 77
REMARK SMILES IDX 73 78 74 79 80 80 82 81 75 82 76 83 77 84 78 85 79 86 55 87
REMARK SMILES IDX 56 88 65 89 57 90 58 91 64 92 66 93 59 94 60 95 61 96 62 97
REMARK SMILES IDX 63 98
REMARK H PARENT 21 4 13 12 25 29 87 48 53 59
REMARK Flexibility Score: inf
ROOT
ATOM      1  C   UNL A   1      38.896  23.851  26.868  1.00  0.00     0.220 C 
ATOM      2  O   UNL A   1      38.690  25.025  27.244  1.00  0.00    -0.275 OA
ATOM      3  N   UNL A   1      40.065  23.315  27.479  1.00  0.00    -0.356 N 
ATOM      4  H   UNL A   1      40.326  23.960  28.174  1.00  0.00     0.163 HD
ENDROOT
BRANCH   1   5
ATOM      5  C   UNL A   1      37.661  23.236  25.839  1.00  0.00     0.100 C 
BRANCH   5   6
ATOM      6  C   UNL A   1      36.514  23.646  24.711  1.00  0.00     0.020 C 
BRANCH   6   7
ATOM      7  C   UNL A   1      34.986  24.047  24.817  1.00  0.00     0.101 C 
BRANCH   7   8
ATOM      8  C   UNL A   1      34.014  24.306  23.641  1.00  0.00     0.227 C 
ATOM      9  C   UNL A   1      32.008  23.180  24.510  1.00  0.00     0.324 C 
ATOM     10  O   UNL A   1      30.834  23.518  24.666  1.00  0.00    -0.248 OA
ATOM     11  N   UNL A   1      32.735  23.857  23.607  1.00  0.00    -0.278 N 
ATOM     12  H   UNL A   1      32.256  24.062  22.772  1.00  0.00     0.174 HD
ATOM     13  O   UNL A   1      34.396  24.926  22.641  1.00  0.00    -0.275 OA
BRANCH   9  14
ATOM     14  N   UNL A   1      32.613  22.142  25.201  1.00  0.00    -0.319 N 
BRANCH  14  15
ATOM     15  C   UNL A   1      32.468  22.496  26.759  1.00  0.00     0.118 C 
ATOM     16  C   UNL A   1      33.651  22.284  27.709  1.00  0.00     0.027 C 
ENDBRANCH  14  15
BRANCH  14  17
ATOM     17  C   UNL A   1      33.071  20.660  24.325  1.00  0.00     0.177 C 
BRANCH  17  18
ATOM     18  C   UNL A   1      32.355  19.108  23.795  1.00  0.00     0.060 A 
ATOM     19  C   UNL A   1      33.148  17.981  22.546  1.00  0.00     0.026 A 
ATOM     20  N   UNL A   1      32.146  18.495  25.414  1.00  0.00    -0.259 NA
ATOM     21  C   UNL A   1      34.031  16.493  23.150  1.00  0.00     0.004 A 
ATOM     22  C   UNL A   1      32.934  17.068  25.938  1.00  0.00     0.111 A 
ATOM     23  C   UNL A   1      33.842  16.036  24.871  1.00  0.00     0.020 A 
ENDBRANCH  17  18
ENDBRANCH  14  17
ENDBRANCH   9  14
ENDBRANCH   7   8
ENDBRANCH   6   7
ENDBRANCH   5   6
ENDBRANCH   1   5
BRANCH   3  24
ATOM     24  C   UNL A   1      41.281  21.992  27.552  1.00  0.00     0.117 C 
BRANCH  24  25
ATOM     25  C   UNL A   1      41.573  20.932  25.987  1.00  0.00     0.042 C 
BRANCH  25  26
ATOM     26  C   UNL A   1      42.850  19.153  26.009  1.00  0.00     0.118 C 
BRANCH  26  27
ATOM     27  N   UNL A   1      44.543  19.148  25.917  1.00  0.00    -0.352 N 
ATOM     28  C   UNL A   1      45.279  19.805  24.960  1.00  0.00     0.251 C 
ATOM     29  H   UNL A   1      45.035  18.635  26.600  1.00  0.00     0.163 HD
ATOM     30  O   UNL A   1      46.113  19.282  24.238  1.00  0.00    -0.269 OA
BRANCH  28  31
ATOM     31  C   UNL A   1      45.082  21.234  25.016  1.00  0.00     0.039 A 
ATOM     32  C   UNL A   1      44.506  21.972  23.985  1.00  0.00     0.014 A 
ATOM     33  C   UNL A   1      45.493  21.781  26.232  1.00  0.00     0.014 A 
ATOM     34  C   UNL A   1      44.367  23.337  24.180  1.00  0.00     0.010 A 
ATOM     35  C   UNL A   1      45.294  23.108  26.449  1.00  0.00     0.010 A 
ATOM     36  C   UNL A   1      44.797  23.887  25.396  1.00  0.00    -0.014 A 
BRANCH  36  37
ATOM     37  C   UNL A   1      44.987  25.319  25.601  1.00  0.00     0.031 A 
ATOM     38  C   UNL A   1      46.405  25.802  25.520  1.00  0.00     0.074 A 
ATOM     39  C   UNL A   1      43.972  26.026  26.108  1.00  0.00     0.049 A 
ATOM     40  N   UNL A   1      46.944  26.861  26.049  1.00  0.00    -0.248 NA
ATOM     41  C   UNL A   1      47.369  24.900  24.850  1.00  0.00     0.031 C 
ATOM     42  C   UNL A   1      42.602  25.539  26.291  1.00  0.00     0.029 A 
ATOM     43  N   UNL A   1      43.960  27.284  26.627  1.00  0.00    -0.354 N 
ATOM     44  C   UNL A   1      48.307  26.735  25.810  1.00  0.00     0.074 A 
ATOM     45  C   UNL A   1      48.525  25.463  25.164  1.00  0.00     0.031 C 
ATOM     46  C   UNL A   1      41.880  26.496  26.899  1.00  0.00     0.029 A 
ATOM     47  C   UNL A   1      42.752  27.631  27.174  1.00  0.00     0.049 A 
ATOM     48  H   UNL A   1      44.741  27.884  26.611  1.00  0.00     0.167 HD
ATOM     49  C   UNL A   1      49.277  27.634  26.082  1.00  0.00     0.037 A 
ATOM     50  C   UNL A   1      42.423  28.750  27.840  1.00  0.00     0.037 A 
ATOM     51  C   UNL A   1      48.984  28.910  26.671  1.00  0.00     0.049 A 
ATOM     52  C   UNL A   1      43.504  29.780  28.037  1.00  0.00     0.074 A 
ATOM     53  C   UNL A   1      49.837  29.965  26.925  1.00  0.00     0.029 A 
ATOM     54  N   UNL A   1      47.713  29.308  27.070  1.00  0.00    -0.354 N 
ATOM     55  N   UNL A   1      44.784  29.696  27.751  1.00  0.00    -0.248 NA
ATOM     56  C   UNL A   1      43.096  31.059  28.622  1.00  0.00     0.031 C 
ATOM     57  C   UNL A   1      49.080  31.001  27.485  1.00  0.00     0.029 A 
ATOM     58  C   UNL A   1      47.752  30.601  27.547  1.00  0.00     0.049 A 
ATOM     59  H   UNL A   1      46.904  28.750  27.019  1.00  0.00     0.167 HD
ATOM     60  C   UNL A   1      45.330  30.927  28.089  1.00  0.00     0.074 A 
ATOM     61  C   UNL A   1      44.235  31.738  28.589  1.00  0.00     0.031 C 
ATOM     62  C   UNL A   1      46.614  31.361  28.001  1.00  0.00     0.037 A 
BRANCH  49  63
ATOM     63  C   UNL A   1      50.686  27.298  25.686  1.00  0.00     0.058 A 
ATOM     64  C   UNL A   1      51.181  27.618  24.411  1.00  0.00     0.135 A 
ATOM     65  C   UNL A   1      51.568  26.685  26.590  1.00  0.00     0.135 A 
ATOM     66  F   UNL A   1      50.378  28.182  23.494  1.00  0.00    -0.206 F 
ATOM     67  C   UNL A   1      52.490  27.331  24.040  1.00  0.00     0.059 A 
ATOM     68  C   UNL A   1      52.893  26.416  26.252  1.00  0.00     0.059 A 
ATOM     69  F   UNL A   1      51.148  26.343  27.819  1.00  0.00    -0.206 F 
ATOM     70  C   UNL A   1      53.342  26.738  24.972  1.00  0.00     0.060 A 
BRANCH  70  71
ATOM     71  S   UNL A   1      55.053  26.431  24.489  1.00  0.00     0.124 S 
ATOM     72  O   UNL A   1      55.767  27.417  25.295  1.00  0.00    -0.237 OA
ATOM     73  O   UNL A   1      55.242  25.038  24.881  1.00  0.00    -0.237 OA
ATOM     74  O   UNL A   1      55.052  26.679  23.051  1.00  0.00    -0.744 OA
ENDBRANCH  70  71
ENDBRANCH  49  63
BRANCH  50  75
ATOM     75  C   UNL A   1      41.030  28.970  28.294  1.00  0.00     0.058 A 
ATOM     76  C   UNL A   1      40.023  29.269  27.364  1.00  0.00     0.135 A 
ATOM     77  C   UNL A   1      40.665  28.871  29.645  1.00  0.00     0.135 A 
ATOM     78  F   UNL A   1      40.322  29.350  26.058  1.00  0.00    -0.206 F 
ATOM     79  C   UNL A   1      38.714  29.512  27.760  1.00  0.00     0.059 A 
ATOM     80  C   UNL A   1      39.354  29.086  30.064  1.00  0.00     0.059 A 
ATOM     81  F   UNL A   1      41.582  28.545  30.569  1.00  0.00    -0.206 F 
ATOM     82  C   UNL A   1      38.392  29.428  29.115  1.00  0.00     0.060 A 
BRANCH  82  83
ATOM     83  S   UNL A   1      36.689  29.758  29.616  1.00  0.00     0.124 S 
ATOM     84  O   UNL A   1      35.945  29.249  28.470  1.00  0.00    -0.237 OA
ATOM     85  O   UNL A   1      36.575  28.983  30.848  1.00  0.00    -0.237 OA
ATOM     86  O   UNL A   1      36.666  31.207  29.791  1.00  0.00    -0.744 OA
ENDBRANCH  82  83
ENDBRANCH  50  75
BRANCH  62  87
ATOM     87  C   UNL A   1      46.873  32.780  28.401  1.00  0.00     0.058 A 
ATOM     88  C   UNL A   1      47.244  33.117  29.709  1.00  0.00     0.135 A 
ATOM     89  C   UNL A   1      46.813  33.802  27.440  1.00  0.00     0.135 A 
ATOM     90  F   UNL A   1      47.307  32.171  30.659  1.00  0.00    -0.206 F 
ATOM     91  C   UNL A   1      47.525  34.430  30.060  1.00  0.00     0.059 A 
ATOM     92  C   UNL A   1      47.120  35.116  27.762  1.00  0.00     0.059 A 
ATOM     93  F   UNL A   1      46.477  33.519  26.170  1.00  0.00    -0.206 F 
ATOM     94  C   UNL A   1      47.464  35.422  29.078  1.00  0.00     0.060 A 
BRANCH  94  95
ATOM     95  S   UNL A   1      47.873  37.116  29.540  1.00  0.00     0.124 S 
ATOM     96  O   UNL A   1      49.157  36.934  30.207  1.00  0.00    -0.237 OA
ATOM     97  O   UNL A   1      47.919  37.789  28.247  1.00  0.00    -0.237 OA
ATOM     98  O   UNL A   1      46.765  37.508  30.405  1.00  0.00    -0.744 OA
ENDBRANCH  94  95
ENDBRANCH  62  87
ENDBRANCH  36  37
ENDBRANCH  28  31
ENDBRANCH  26  27
ENDBRANCH  25  26
ENDBRANCH  24  25
ENDBRANCH   3  24
TORSDOF 20
ENDMDL
MODEL 2
REMARK VINA RESULT:     -13.2      5.049     10.325
REMARK SMILES CCN(Cc1ccccn1)C(=O)NC(=O)CCCC(=O)NCCCNC(=O)c1ccc(-c2c3nc(c(-c4c(F)cc(S(=O)(=O)[O-])cc4F)c4ccc([nH]4)c(-c4c(F)cc(S(=O)(=O)[O-])cc4F)c4nc(c(-c5c(F)cc(S(=O)(=O)[O-])cc5F)c5ccc2[nH]5)C=C4)C=C3)cc1
REMARK SMILES IDX 19 1 20 2 21 3 18 5 17 6 16 7 14 8 11 9 12 10 13 11 15 13
REMARK SMILES IDX 3 14 2 15 1 16 4 17 5 18 6 19 10 20 7 21 9 22 8 23 22 24
REMARK SMILES IDX 23 25 24 26 25 27 26 28 27 30 28 31 29 32 93 33 30 34 92 35
REMARK SMILES IDX 31 36 32 37 33 38 86 39 34 40 91 41 85 42 87 43 35 44 90 45
REMARK SMILES IDX 84 46 83 47 36 49 70 50 49 51 69 52 50 53 53 54 68 55 88 56
REMARK SMILES IDX 51 57 52 58 67 60 89 61 54 62 37 63 38 64 47 65 39 66 40 67
REMARK SMILES IDX 46 68 48 69 41 70 42 71 43 72 44 73 45 74 71 75 72 76 81 77
REMARK SMILES IDX 73 78 74 79 80 80 82 81 75 82 76 83 77 84 78 85 79 86 55 87
REMARK SMILES IDX 56 88 65 89 57 90 58 91 64 92 66 93 59 94 60 95 61 96 62 97
REMARK SMILES IDX 63 98
REMARK H PARENT 21 4 13 12 25 29 87 48 53 59
REMARK Flexibility Score: inf
ROOT
ATOM      1  C   UNL A   1      30.680  24.138  26.224  1.00  0.00     0.220 C 
ATOM      2  O   UNL A   1      30.373  23.463  27.230  1.00  0.00    -0.275 OA
ATOM      3  N   UNL A   1      30.898  25.502  26.567  1.00  0.00    -0.356 N 
ATOM      4  H   UNL A   1      30.909  25.534  27.551  1.00  0.00     0.163 HD
ENDROOT
BRANCH   1   5
ATOM      5  C   UNL A   1      30.844  23.195  24.794  1.00  0.00     0.100 C 
BRANCH   5   6
ATOM      6  C   UNL A   1      31.914  22.341  23.853  1.00  0.00     0.020 C 
BRANCH   6   7
ATOM      7  C   UNL A   1      32.812  21.065  24.121  1.00  0.00     0.101 C 
BRANCH   7   8
ATOM      8  C   UNL A   1      32.757  20.139  25.359  1.00  0.00     0.227 C 
ATOM      9  C   UNL A   1      33.694  21.659  27.050  1.00  0.00     0.324 C 
ATOM     10  O   UNL A   1      33.324  22.040  28.161  1.00  0.00    -0.248 OA
ATOM     11  N   UNL A   1      33.195  20.501  26.591  1.00  0.00    -0.278 N 
ATOM     12  H   UNL A   1      33.137  19.788  27.267  1.00  0.00     0.174 HD
ATOM     13  O   UNL A   1      32.328  18.983  25.256  1.00  0.00    -0.275 OA
BRANCH   9  14
ATOM     14  N   UNL A   1      34.598  22.349  26.258  1.00  0.00    -0.319 N 
BRANCH  14  15
ATOM     15  C   UNL A   1      34.104  23.876  26.239  1.00  0.00     0.118 C 
ATOM     16  C   UNL A   1      34.614  24.835  25.158  1.00  0.00     0.027 C 
ENDBRANCH  14  15
BRANCH  14  17
ATOM     17  C   UNL A   1      36.113  21.552  25.765  1.00  0.00     0.177 C 
BRANCH  17  18
ATOM     18  C   UNL A   1      37.764  21.972  25.216  1.00  0.00     0.060 A 
ATOM     19  C   UNL A   1      38.908  23.095  26.159  1.00  0.00     0.026 A 
ATOM     20  N   UNL A   1      38.260  20.315  24.999  1.00  0.00    -0.259 NA
ATOM     21  C   UNL A   1      40.252  22.338  27.149  1.00  0.00     0.004 A 
ATOM     22  C   UNL A   1      39.559  19.646  25.892  1.00  0.00     0.111 A 
ATOM     23  C   UNL A   1      40.584  20.592  26.933  1.00  0.00     0.020 A 
ENDBRANCH  17  18
ENDBRANCH  14  17
ENDBRANCH   9  14
ENDBRANCH   7   8
ENDBRANCH   6   7
ENDBRANCH   5   6
ENDBRANCH   1   5
BRANCH   3  24
ATOM     24  C   UNL A   1      31.162  27.193  26.016  1.00  0.00     0.117 C 
BRANCH  24  25
ATOM     25  C   UNL A   1      32.116  28.390  27.164  1.00  0.00     0.042 C 
BRANCH  25  26
ATOM     26  C   UNL A   1      34.214  28.909  26.818  1.00  0.00     0.118 C 
BRANCH  26  27
ATOM     27  N   UNL A   1      34.880  30.464  26.924  1.00  0.00    -0.352 N 
ATOM     28  C   UNL A   1      35.281  31.068  28.092  1.00  0.00     0.251 C 
ATOM     29  H   UNL A   1      34.987  30.972  26.087  1.00  0.00     0.163 HD
ATOM     30  O   UNL A   1      34.897  32.159  28.483  1.00  0.00    -0.269 OA
BRANCH  28  31
ATOM     31  C   UNL A   1      36.352  30.342  28.734  1.00  0.00     0.039 A 
ATOM     32  C   UNL A   1      36.171  29.531  29.850  1.00  0.00     0.014 A 
ATOM     33  C   UNL A   1      37.576  30.513  28.084  1.00  0.00     0.014 A 
ATOM     34  C   UNL A   1      37.286  28.883  30.355  1.00  0.00     0.010 A 
ATOM     35  C   UNL A   1      38.655  29.824  28.538  1.00  0.00     0.010 A 
ATOM     36  C   UNL A   1      38.518  29.070  29.711  1.00  0.00    -0.014 A 
BRANCH  36  37
ATOM     37  C   UNL A   1      39.796  28.701  30.310  1.00  0.00     0.031 A 
ATOM     38  C   UNL A   1      40.306  29.632  31.370  1.00  0.00     0.074 A 
ATOM     39  C   UNL A   1      40.531  27.763  29.704  1.00  0.00     0.049 A 
ATOM     40  N   UNL A   1      41.528  29.830  31.770  1.00  0.00    -0.248 NA
ATOM     41  C   UNL A   1      39.313  30.547  31.974  1.00  0.00     0.031 C 
ATOM     42  C   UNL A   1      40.085  26.913  28.597  1.00  0.00     0.029 A 
ATOM     43  N   UNL A   1      41.836  27.422  29.893  1.00  0.00    -0.354 N 
ATOM     44  C   UNL A   1      41.456  30.913  32.639  1.00  0.00     0.074 A 
ATOM     45  C   UNL A   1      40.091  31.380  32.648  1.00  0.00     0.031 C 
ATOM     46  C   UNL A   1      41.115  26.149  28.196  1.00  0.00     0.029 A 
ATOM     47  C   UNL A   1      42.287  26.493  28.992  1.00  0.00     0.049 A 
ATOM     48  H   UNL A   1      42.398  27.805  30.606  1.00  0.00     0.167 HD
ATOM     49  C   UNL A   1      42.451  31.434  33.388  1.00  0.00     0.037 A 
ATOM     50  C   UNL A   1      43.529  26.006  28.841  1.00  0.00     0.037 A 
ATOM     51  C   UNL A   1      43.776  30.882  33.379  1.00  0.00     0.049 A 
ATOM     52  C   UNL A   1      44.596  26.535  29.761  1.00  0.00     0.074 A 
ATOM     53  C   UNL A   1      44.869  31.235  34.145  1.00  0.00     0.029 A 
ATOM     54  N   UNL A   1      44.171  29.822  32.570  1.00  0.00    -0.354 N 
ATOM     55  N   UNL A   1      44.519  27.513  30.636  1.00  0.00    -0.248 NA
ATOM     56  C   UNL A   1      45.907  25.885  29.694  1.00  0.00     0.031 C 
ATOM     57  C   UNL A   1      45.928  30.391  33.793  1.00  0.00     0.029 A 
ATOM     58  C   UNL A   1      45.483  29.492  32.832  1.00  0.00     0.049 A 
ATOM     59  H   UNL A   1      43.598  29.374  31.907  1.00  0.00     0.167 HD
ATOM     60  C   UNL A   1      45.763  27.572  31.251  1.00  0.00     0.074 A 
ATOM     61  C   UNL A   1      46.566  26.522  30.652  1.00  0.00     0.031 C 
ATOM     62  C   UNL A   1      46.213  28.411  32.219  1.00  0.00     0.037 A 
BRANCH  49  63
ATOM     63  C   UNL A   1      42.125  32.583  34.299  1.00  0.00     0.058 A 
ATOM     64  C   UNL A   1      42.235  33.914  33.862  1.00  0.00     0.135 A 
ATOM     65  C   UNL A   1      41.664  32.365  35.607  1.00  0.00     0.135 A 
ATOM     66  F   UNL A   1      42.695  34.187  32.630  1.00  0.00    -0.206 F 
ATOM     67  C   UNL A   1      41.916  34.985  34.690  1.00  0.00     0.059 A 
ATOM     68  C   UNL A   1      41.308  33.420  36.443  1.00  0.00     0.059 A 
ATOM     69  F   UNL A   1      41.552  31.115  36.085  1.00  0.00    -0.206 F 
ATOM     70  C   UNL A   1      41.444  34.727  35.976  1.00  0.00     0.060 A 
BRANCH  70  71
ATOM     71  S   UNL A   1      40.977  36.130  37.011  1.00  0.00     0.124 S 
ATOM     72  O   UNL A   1      40.484  35.460  38.210  1.00  0.00    -0.237 OA
ATOM     73  O   UNL A   1      42.242  36.843  37.158  1.00  0.00    -0.237 OA
ATOM     74  O   UNL A   1      39.964  36.817  36.215  1.00  0.00    -0.744 OA
ENDBRANCH  70  71
ENDBRANCH  49  63
BRANCH  50  75
ATOM     75  C   UNL A   1      43.801  24.942  27.845  1.00  0.00     0.058 A 
ATOM     76  C   UNL A   1      44.212  25.278  26.547  1.00  0.00     0.135 A 
ATOM     77  C   UNL A   1      43.680  23.581  28.162  1.00  0.00     0.135 A 
ATOM     78  F   UNL A   1      44.364  26.567  26.206  1.00  0.00    -0.206 F 
ATOM     79  C   UNL A   1      44.444  24.307  25.582  1.00  0.00     0.059 A 
ATOM     80  C   UNL A   1      43.932  22.588  27.219  1.00  0.00     0.059 A 
ATOM     81  F   UNL A   1      43.332  23.205  29.403  1.00  0.00    -0.206 F 
ATOM     82  C   UNL A   1      44.292  22.964  25.925  1.00  0.00     0.060 A 
BRANCH  82  83
ATOM     83  S   UNL A   1      44.587  21.713  24.657  1.00  0.00     0.124 S 
ATOM     84  O   UNL A   1      45.946  21.291  24.975  1.00  0.00    -0.237 OA
ATOM     85  O   UNL A   1      43.534  20.740  24.934  1.00  0.00    -0.237 OA
ATOM     86  O   UNL A   1      44.431  22.457  23.410  1.00  0.00    -0.744 OA
ENDBRANCH  82  83
ENDBRANCH  50  75
BRANCH  62  87
ATOM     87  C   UNL A   1      47.607  28.178  32.715  1.00  0.00     0.058 A 
ATOM     88  C   UNL A   1      48.705  28.838  32.148  1.00  0.00     0.135 A 
ATOM     89  C   UNL A   1      47.829  27.335  33.814  1.00  0.00     0.135 A 
ATOM     90  F   UNL A   1      48.537  29.649  31.092  1.00  0.00    -0.206 F 
ATOM     91  C   UNL A   1      49.989  28.651  32.643  1.00  0.00     0.059 A 
ATOM     92  C   UNL A   1      49.099  27.157  34.344  1.00  0.00     0.059 A 
ATOM     93  F   UNL A   1      46.801  26.695  34.397  1.00  0.00    -0.206 F 
ATOM     94  C   UNL A   1      50.174  27.810  33.743  1.00  0.00     0.060 A 
BRANCH  94  95
ATOM     95  S   UNL A   1      51.841  27.610  34.400  1.00  0.00     0.124 S 
ATOM     96  O   UNL A   1      51.719  26.350  35.125  1.00  0.00    -0.237 OA
ATOM     97  O   UNL A   1      52.652  27.570  33.188  1.00  0.00    -0.237 OA
ATOM     98  O   UNL A   1      52.023  28.798  35.229  1.00  0.00    -0.744 OA
ENDBRANCH  94  95
ENDBRANCH  62  87
ENDBRANCH  36  37
ENDBRANCH  28  31
ENDBRANCH  26  27
ENDBRANCH  25  26
ENDBRANCH  24  25
ENDBRANCH   3  24
TORSDOF 20
ENDMDL
MODEL 3
REMARK VINA RESULT:     -13.2      1.643      3.323
REMARK SMILES CCN(Cc1ccccn1)C(=O)NC(=O)CCCC(=O)NCCCNC(=O)c1ccc(-c2c3nc(c(-c4c(F)cc(S(=O)(=O)[O-])cc4F)c4ccc([nH]4)c(-c4c(F)cc(S(=O)(=O)[O-])cc4F)c4nc(c(-c5c(F)cc(S(=O)(=O)[O-])cc5F)c5ccc2[nH]5)C=C4)C=C3)cc1
REMARK SMILES IDX 19 1 20 2 21 3 18 5 17 6 16 7 14 8 11 9 12 10 13 11 15 13
REMARK SMILES IDX 3 14 2 15 1 16 4 17 5 18 6 19 10 20 7 21 9 22 8 23 22 24
REMARK SMILES IDX 23 25 24 26 25 27 26 28 27 30 28 31 29 32 93 33 30 34 92 35
REMARK SMILES IDX 31 36 32 37 33 38 86 39 34 40 91 41 85 42 87 43 35 44 90 45
REMARK SMILES IDX 84 46 83 47 36 49 70 50 49 51 69 52 50 53 53 54 68 55 88 56
REMARK SMILES IDX 51 57 52 58 67 60 89 61 54 62 37 63 38 64 47 65 39 66 40 67
REMARK SMILES IDX 46 68 48 69 41 70 42 71 43 72 44 73 45 74 71 75 72 76 81 77
REMARK SMILES IDX 73 78 74 79 80 80 82 81 75 82 76 83 77 84 78 85 79 86 55 87
REMARK SMILES IDX 56 88 65 89 57 90 58 91 64 92 66 93 59 94 60 95 61 96 62 97
REMARK SMILES IDX 63 98
REMARK H PARENT 21 4 13 12 25 29 87 48 53 59
REMARK Flexibility Score: inf
ROOT
ATOM      1  C   UNL A   1      38.690  23.908  26.847  1.00  0.00     0.220 C 
ATOM      2  O   UNL A   1      38.587  25.094  27.227  1.00  0.00    -0.275 OA
ATOM      3  N   UNL A   1      39.776  23.253  27.492  1.00  0.00    -0.356 N 
ATOM      4  H   UNL A   1      40.075  23.864  28.204  1.00  0.00     0.163 HD
ENDROOT
BRANCH   1   5
ATOM      5  C   UNL A   1      37.438  23.427  25.768  1.00  0.00     0.100 C 
BRANCH   5   6
ATOM      6  C   UNL A   1      35.842  23.651  25.362  1.00  0.00     0.020 C 
BRANCH   6   7
ATOM      7  C   UNL A   1      34.573  22.706  25.399  1.00  0.00     0.101 C 
BRANCH   7   8
ATOM      8  C   UNL A   1      33.857  22.167  26.660  1.00  0.00     0.227 C 
ATOM      9  C   UNL A   1      31.530  22.701  26.071  1.00  0.00     0.324 C 
ATOM     10  O   UNL A   1      30.485  22.051  26.028  1.00  0.00    -0.248 OA
ATOM     11  N   UNL A   1      32.517  22.241  26.856  1.00  0.00    -0.278 N 
ATOM     12  H   UNL A   1      32.215  21.897  27.727  1.00  0.00     0.174 HD
ATOM     13  O   UNL A   1      34.511  21.665  27.582  1.00  0.00    -0.275 OA
BRANCH   9  14
ATOM     14  N   UNL A   1      31.738  23.877  25.368  1.00  0.00    -0.319 N 
BRANCH  14  15
ATOM     15  C   UNL A   1      31.281  23.584  23.858  1.00  0.00     0.118 C 
ATOM     16  C   UNL A   1      31.835  24.433  22.709  1.00  0.00     0.027 C 
ENDBRANCH  14  15
BRANCH  14  17
ATOM     17  C   UNL A   1      32.112  25.373  26.260  1.00  0.00     0.177 C 
BRANCH  17  18
ATOM     18  C   UNL A   1      33.259  26.745  26.209  1.00  0.00     0.060 A 
ATOM     19  C   UNL A   1      33.752  27.619  24.643  1.00  0.00     0.026 A 
ATOM     20  N   UNL A   1      32.413  27.674  27.418  1.00  0.00    -0.259 NA
ATOM     21  C   UNL A   1      32.980  29.239  24.269  1.00  0.00     0.004 A 
ATOM     22  C   UNL A   1      31.753  29.213  27.062  1.00  0.00     0.111 A 
ATOM     23  C   UNL A   1      32.022  30.039  25.554  1.00  0.00     0.020 A 
ENDBRANCH  17  18
ENDBRANCH  14  17
ENDBRANCH   9  14
ENDBRANCH   7   8
ENDBRANCH   6   7
ENDBRANCH   5   6
ENDBRANCH   1   5
BRANCH   3  24
ATOM     24  C   UNL A   1      40.851  21.815  27.595  1.00  0.00     0.117 C 
BRANCH  24  25
ATOM     25  C   UNL A   1      41.407  20.972  25.970  1.00  0.00     0.042 C 
BRANCH  25  26
ATOM     26  C   UNL A   1      42.659  19.176  25.961  1.00  0.00     0.118 C 
BRANCH  26  27
ATOM     27  N   UNL A   1      44.352  19.150  25.911  1.00  0.00    -0.352 N 
ATOM     28  C   UNL A   1      45.120  19.798  24.973  1.00  0.00     0.251 C 
ATOM     29  H   UNL A   1      44.821  18.630  26.604  1.00  0.00     0.163 HD
ATOM     30  O   UNL A   1      45.966  19.266  24.271  1.00  0.00    -0.269 OA
BRANCH  28  31
ATOM     31  C   UNL A   1      44.940  21.230  25.026  1.00  0.00     0.039 A 
ATOM     32  C   UNL A   1      44.407  21.978  23.980  1.00  0.00     0.014 A 
ATOM     33  C   UNL A   1      45.318  21.770  26.257  1.00  0.00     0.014 A 
ATOM     34  C   UNL A   1      44.279  23.344  24.173  1.00  0.00     0.010 A 
ATOM     35  C   UNL A   1      45.129  23.098  26.470  1.00  0.00     0.010 A 
ATOM     36  C   UNL A   1      44.677  23.886  25.404  1.00  0.00    -0.014 A 
BRANCH  36  37
ATOM     37  C   UNL A   1      44.878  25.315  25.619  1.00  0.00     0.031 A 
ATOM     38  C   UNL A   1      46.300  25.786  25.541  1.00  0.00     0.074 A 
ATOM     39  C   UNL A   1      43.869  26.026  26.132  1.00  0.00     0.049 A 
ATOM     40  N   UNL A   1      46.847  26.838  26.077  1.00  0.00    -0.248 NA
ATOM     41  C   UNL A   1      47.256  24.882  24.865  1.00  0.00     0.031 C 
ATOM     42  C   UNL A   1      42.495  25.549  26.312  1.00  0.00     0.029 A 
ATOM     43  N   UNL A   1      43.868  27.281  26.660  1.00  0.00    -0.354 N 
ATOM     44  C   UNL A   1      48.210  26.702  25.836  1.00  0.00     0.074 A 
ATOM     45  C   UNL A   1      48.417  25.434  25.182  1.00  0.00     0.031 C 
ATOM     46  C   UNL A   1      41.782  26.508  26.926  1.00  0.00     0.029 A 
ATOM     47  C   UNL A   1      42.662  27.634  27.209  1.00  0.00     0.049 A 
ATOM     48  H   UNL A   1      44.653  27.875  26.647  1.00  0.00     0.167 HD
ATOM     49  C   UNL A   1      49.187  27.592  26.114  1.00  0.00     0.037 A 
ATOM     50  C   UNL A   1      42.343  28.750  27.883  1.00  0.00     0.037 A 
ATOM     51  C   UNL A   1      48.904  28.867  26.713  1.00  0.00     0.049 A 
ATOM     52  C   UNL A   1      43.431  29.771  28.086  1.00  0.00     0.074 A 
ATOM     53  C   UNL A   1      49.766  29.913  26.974  1.00  0.00     0.029 A 
ATOM     54  N   UNL A   1      47.636  29.272  27.114  1.00  0.00    -0.354 N 
ATOM     55  N   UNL A   1      44.711  29.678  27.800  1.00  0.00    -0.248 NA
ATOM     56  C   UNL A   1      43.035  31.049  28.681  1.00  0.00     0.031 C 
ATOM     57  C   UNL A   1      49.018  30.950  27.541  1.00  0.00     0.029 A 
ATOM     58  C   UNL A   1      47.686  30.561  27.601  1.00  0.00     0.049 A 
ATOM     59  H   UNL A   1      46.823  28.720  27.060  1.00  0.00     0.167 HD
ATOM     60  C   UNL A   1      45.267  30.902  28.146  1.00  0.00     0.074 A 
ATOM     61  C   UNL A   1      44.179  31.719  28.652  1.00  0.00     0.031 C 
ATOM     62  C   UNL A   1      46.554  31.326  28.061  1.00  0.00     0.037 A 
BRANCH  49  63
ATOM     63  C   UNL A   1      50.593  27.248  25.716  1.00  0.00     0.058 A 
ATOM     64  C   UNL A   1      51.081  27.545  24.432  1.00  0.00     0.135 A 
ATOM     65  C   UNL A   1      51.480  26.650  26.625  1.00  0.00     0.135 A 
ATOM     66  F   UNL A   1      50.271  28.093  23.510  1.00  0.00    -0.206 F 
ATOM     67  C   UNL A   1      52.386  27.249  24.058  1.00  0.00     0.059 A 
ATOM     68  C   UNL A   1      52.802  26.373  26.283  1.00  0.00     0.059 A 
ATOM     69  F   UNL A   1      51.068  26.330  27.862  1.00  0.00    -0.206 F 
ATOM     70  C   UNL A   1      53.243  26.672  24.994  1.00  0.00     0.060 A 
BRANCH  70  71
ATOM     71  S   UNL A   1      54.952  26.355  24.507  1.00  0.00     0.124 S 
ATOM     72  O   UNL A   1      55.670  27.361  25.283  1.00  0.00    -0.237 OA
ATOM     73  O   UNL A   1      55.145  24.972  24.931  1.00  0.00    -0.237 OA
ATOM     74  O   UNL A   1      54.939  26.567  23.063  1.00  0.00    -0.744 OA
ENDBRANCH  70  71
ENDBRANCH  49  63
BRANCH  50  75
ATOM     75  C   UNL A   1      40.951  28.979  28.339  1.00  0.00     0.058 A 
ATOM     76  C   UNL A   1      39.940  29.259  27.408  1.00  0.00     0.135 A 
ATOM     77  C   UNL A   1      40.593  28.905  29.693  1.00  0.00     0.135 A 
ATOM     78  F   UNL A   1      40.233  29.317  26.100  1.00  0.00    -0.206 F 
ATOM     79  C   UNL A   1      38.633  29.510  27.805  1.00  0.00     0.059 A 
ATOM     80  C   UNL A   1      39.284  29.127  30.114  1.00  0.00     0.059 A 
ATOM     81  F   UNL A   1      41.514  28.597  30.619  1.00  0.00    -0.206 F 
ATOM     82  C   UNL A   1      38.317  29.451  29.163  1.00  0.00     0.060 A 
BRANCH  82  83
ATOM     83  S   UNL A   1      36.616  29.789  29.665  1.00  0.00     0.124 S 
ATOM     84  O   UNL A   1      36.529  29.045  30.916  1.00  0.00    -0.237 OA
ATOM     85  O   UNL A   1      36.615  31.244  29.785  1.00  0.00    -0.237 OA
ATOM     86  O   UNL A   1      35.828  29.258  28.557  1.00  0.00    -0.744 OA
ENDBRANCH  82  83
ENDBRANCH  50  75
BRANCH  62  87
ATOM     87  C   UNL A   1      46.824  32.741  28.470  1.00  0.00     0.058 A 
ATOM     88  C   UNL A   1      46.728  33.799  27.556  1.00  0.00     0.135 A 
ATOM     89  C   UNL A   1      47.116  33.041  29.810  1.00  0.00     0.135 A 
ATOM     90  F   UNL A   1      46.456  33.555  26.264  1.00  0.00    -0.206 F 
ATOM     91  C   UNL A   1      46.936  35.113  27.953  1.00  0.00     0.059 A 
ATOM     92  C   UNL A   1      47.298  34.349  30.234  1.00  0.00     0.059 A 
ATOM     93  F   UNL A   1      47.202  32.058  30.721  1.00  0.00    -0.206 F 
ATOM     94  C   UNL A   1      47.218  35.377  29.295  1.00  0.00     0.060 A 
BRANCH  94  95
ATOM     95  S   UNL A   1      47.444  37.092  29.805  1.00  0.00     0.124 S 
ATOM     96  O   UNL A   1      46.353  37.752  29.097  1.00  0.00    -0.237 OA
ATOM     97  O   UNL A   1      47.303  37.008  31.254  1.00  0.00    -0.237 OA
ATOM     98  O   UNL A   1      48.787  37.411  29.330  1.00  0.00    -0.744 OA
ENDBRANCH  94  95
ENDBRANCH  62  87
ENDBRANCH  36  37
ENDBRANCH  28  31
ENDBRANCH  26  27
ENDBRANCH  25  26
ENDBRANCH  24  25
ENDBRANCH   3  24
TORSDOF 20
ENDMDL
