MODEL 1
REMARK VINA RESULT:     -13.0      0.000      0.000
REMARK SMILES COc1ccc([C@H]2[C@H](C(=O)NCCCNC(=O)c3ccc(-c4c5nc(c(-c6c(F)cc(S(=O)(=O)[O-])cc6F)c6ccc([nH]6)c(-c6c(F)cc(S(=O)(=O)[O-])cc6F)c6nc(c(-c7c(F)cc(S(=O)(=O)[O-])cc7F)c7ccc4[nH]7)C=C6)C=C5)cc3)CCN2c2ccc(F)cc2)cc1
REMARK SMILES IDX 13 1 12 2 11 3 9 4 10 5 8 7 7 8 86 9 84 10 85 11 6 12 3 13
REMARK SMILES IDX 4 14 95 15 5 16 94 17 2 18 1 19 87 20 88 21 93 22 89 23
REMARK SMILES IDX 92 24 90 25 91 26 14 27 15 28 16 29 17 31 18 32 19 33 83 34
REMARK SMILES IDX 20 35 82 36 21 37 22 38 23 39 76 40 24 41 81 42 75 43 77 44
REMARK SMILES IDX 25 45 80 46 74 47 73 48 26 50 60 51 39 52 59 53 40 54 43 55
REMARK SMILES IDX 58 56 78 57 41 58 42 59 57 61 79 62 44 63 27 64 28 65 37 66
REMARK SMILES IDX 29 67 30 68 36 69 38 70 31 71 32 72 33 73 34 74 35 75 61 76
REMARK SMILES IDX 62 77 71 78 63 79 64 80 70 81 72 82 65 83 66 84 67 85 68 86
REMARK SMILES IDX 69 87 45 88 46 89 55 90 47 91 48 92 54 93 56 94 49 95 50 96
REMARK SMILES IDX 51 97 52 98 53 99
REMARK H PARENT 11 6 15 30 77 49 43 60
REMARK Flexibility Score: inf
ROOT
ATOM      1  C   UNL A   1      40.491  21.769  27.240  1.00  0.00     0.042 C 
ENDROOT
BRANCH   1   2
ATOM      2  C   UNL A   1      39.543  21.981  26.066  1.00  0.00     0.117 C 
BRANCH   2   3
ATOM      3  N   UNL A   1      38.446  22.873  26.406  1.00  0.00    -0.356 N 
ATOM      4  C   UNL A   1      37.188  23.032  25.929  1.00  0.00     0.225 C 
ATOM      5  O   UNL A   1      36.561  23.991  26.403  1.00  0.00    -0.275 OA
ATOM      6  H   UNL A   1      38.665  23.493  27.139  1.00  0.00     0.163 HD
BRANCH   4   7
ATOM      7  C   UNL A   1      36.498  22.180  24.866  1.00  0.00     0.107 C 
ATOM      8  C   UNL A   1      35.044  21.837  25.251  1.00  0.00     0.125 C 
ATOM      9  N   UNL A   1      34.294  22.838  24.474  1.00  0.00    -0.364 N 
ATOM     10  C   UNL A   1      36.429  22.689  23.433  1.00  0.00     0.037 C 
ATOM     11  C   UNL A   1      34.975  23.119  23.209  1.00  0.00     0.118 C 
BRANCH   8  12
ATOM     12  C   UNL A   1      34.662  20.409  24.821  1.00  0.00    -0.024 A 
ATOM     13  C   UNL A   1      33.892  17.741  24.257  1.00  0.00     0.118 A 
ATOM     14  C   UNL A   1      32.956  18.772  24.209  1.00  0.00     0.047 A 
ATOM     15  C   UNL A   1      35.227  18.047  24.492  1.00  0.00     0.047 A 
ATOM     16  C   UNL A   1      33.334  20.094  24.486  1.00  0.00     0.010 A 
ATOM     17  C   UNL A   1      35.605  19.366  24.761  1.00  0.00     0.010 A 
BRANCH  13  18
ATOM     18  O   UNL A   1      33.417  16.478  24.028  1.00  0.00    -0.497 OA
ATOM     19  C   UNL A   1      33.278  15.677  25.200  1.00  0.00     0.278 C 
ENDBRANCH  13  18
ENDBRANCH   8  12
BRANCH   9  20
ATOM     20  C   UNL A   1      33.098  23.421  24.836  1.00  0.00     0.037 A 
ATOM     21  C   UNL A   1      32.007  23.459  23.949  1.00  0.00     0.029 A 
ATOM     22  C   UNL A   1      32.920  24.066  26.073  1.00  0.00     0.029 A 
ATOM     23  C   UNL A   1      30.831  24.158  24.247  1.00  0.00     0.041 A 
ATOM     24  C   UNL A   1      31.760  24.792  26.370  1.00  0.00     0.041 A 
ATOM     25  C   UNL A   1      30.729  24.840  25.446  1.00  0.00     0.123 A 
ATOM     26  F   UNL A   1      29.630  25.557  25.712  1.00  0.00    -0.207 F 
ENDBRANCH   9  20
ENDBRANCH   4   7
ENDBRANCH   2   3
ENDBRANCH   1   2
BRANCH   1  27
ATOM     27  C   UNL A   1      41.532  22.864  27.426  1.00  0.00     0.118 C 
BRANCH  27  28
ATOM     28  N   UNL A   1      41.574  23.781  26.300  1.00  0.00    -0.352 N 
ATOM     29  C   UNL A   1      41.342  25.133  26.210  1.00  0.00     0.251 C 
ATOM     30  H   UNL A   1      41.811  23.357  25.445  1.00  0.00     0.163 HD
ATOM     31  O   UNL A   1      41.237  25.616  25.081  1.00  0.00    -0.269 OA
BRANCH  29  32
ATOM     32  C   UNL A   1      41.214  26.019  27.398  1.00  0.00     0.039 A 
ATOM     33  C   UNL A   1      40.077  25.871  28.205  1.00  0.00     0.014 A 
ATOM     34  C   UNL A   1      42.112  27.048  27.690  1.00  0.00     0.014 A 
ATOM     35  C   UNL A   1      39.860  26.724  29.293  1.00  0.00     0.010 A 
ATOM     36  C   UNL A   1      41.944  27.839  28.832  1.00  0.00     0.010 A 
ATOM     37  C   UNL A   1      40.802  27.708  29.632  1.00  0.00    -0.014 A 
BRANCH  37  38
ATOM     38  C   UNL A   1      40.568  28.610  30.795  1.00  0.00     0.031 A 
ATOM     39  C   UNL A   1      41.412  28.505  32.042  1.00  0.00     0.074 A 
ATOM     40  C   UNL A   1      39.588  29.535  30.733  1.00  0.00     0.049 A 
ATOM     41  N   UNL A   1      41.388  29.243  33.123  1.00  0.00    -0.248 NA
ATOM     42  C   UNL A   1      42.394  27.410  32.094  1.00  0.00     0.031 C 
ATOM     43  C   UNL A   1      38.653  29.700  29.617  1.00  0.00     0.029 A 
ATOM     44  N   UNL A   1      39.222  30.518  31.619  1.00  0.00    -0.354 N 
ATOM     45  C   UNL A   1      42.335  28.698  33.983  1.00  0.00     0.074 A 
ATOM     46  C   UNL A   1      42.877  27.532  33.322  1.00  0.00     0.031 C 
ATOM     47  C   UNL A   1      37.858  30.753  29.862  1.00  0.00     0.029 A 
ATOM     48  C   UNL A   1      38.204  31.322  31.161  1.00  0.00     0.049 A 
ATOM     49  H   UNL A   1      39.649  30.637  32.497  1.00  0.00     0.167 HD
ATOM     50  C   UNL A   1      42.741  29.142  35.199  1.00  0.00     0.037 A 
ATOM     51  C   UNL A   1      37.627  32.407  31.714  1.00  0.00     0.037 A 
ATOM     52  C   UNL A   1      42.221  30.319  35.845  1.00  0.00     0.049 A 
ATOM     53  C   UNL A   1      38.126  32.910  33.040  1.00  0.00     0.074 A 
ATOM     54  C   UNL A   1      42.604  30.882  37.051  1.00  0.00     0.029 A 
ATOM     55  N   UNL A   1      41.210  31.121  35.337  1.00  0.00    -0.354 N 
ATOM     56  N   UNL A   1      39.070  32.419  33.807  1.00  0.00    -0.248 NA
ATOM     57  C   UNL A   1      37.491  34.126  33.568  1.00  0.00     0.031 C 
ATOM     58  C   UNL A   1      41.800  32.005  37.287  1.00  0.00     0.029 A 
ATOM     59  C   UNL A   1      40.947  32.167  36.207  1.00  0.00     0.049 A 
ATOM     60  H   UNL A   1      40.746  30.970  34.481  1.00  0.00     0.167 HD
ATOM     61  C   UNL A   1      39.158  33.277  34.898  1.00  0.00     0.074 A 
ATOM     62  C   UNL A   1      38.183  34.328  34.681  1.00  0.00     0.031 C 
ATOM     63  C   UNL A   1      39.971  33.203  35.981  1.00  0.00     0.037 A 
BRANCH  50  64
ATOM     64  C   UNL A   1      43.808  28.348  35.907  1.00  0.00     0.058 A 
ATOM     65  C   UNL A   1      43.487  27.277  36.757  1.00  0.00     0.135 A 
ATOM     66  C   UNL A   1      45.168  28.645  35.718  1.00  0.00     0.135 A 
ATOM     67  F   UNL A   1      42.204  26.956  36.985  1.00  0.00    -0.206 F 
ATOM     68  C   UNL A   1      44.472  26.556  37.426  1.00  0.00     0.059 A 
ATOM     69  C   UNL A   1      46.171  27.919  36.354  1.00  0.00     0.059 A 
ATOM     70  F   UNL A   1      45.534  29.655  34.913  1.00  0.00    -0.206 F 
ATOM     71  C   UNL A   1      45.812  26.887  37.222  1.00  0.00     0.060 A 
BRANCH  71  72
ATOM     72  S   UNL A   1      47.080  25.952  38.103  1.00  0.00     0.124 S 
ATOM     73  O   UNL A   1      46.984  26.526  39.444  1.00  0.00    -0.237 OA
ATOM     74  O   UNL A   1      46.604  24.576  37.971  1.00  0.00    -0.237 OA
ATOM     75  O   UNL A   1      48.301  26.260  37.373  1.00  0.00    -0.744 OA
ENDBRANCH  71  72
ENDBRANCH  50  64
BRANCH  51  76
ATOM     76  C   UNL A   1      36.549  33.122  30.982  1.00  0.00     0.058 A 
ATOM     77  C   UNL A   1      35.203  32.972  31.352  1.00  0.00     0.135 A 
ATOM     78  C   UNL A   1      36.841  33.989  29.917  1.00  0.00     0.135 A 
ATOM     79  F   UNL A   1      34.874  32.149  32.360  1.00  0.00    -0.206 F 
ATOM     80  C   UNL A   1      34.184  33.646  30.690  1.00  0.00     0.059 A 
ATOM     81  C   UNL A   1      35.840  34.694  29.254  1.00  0.00     0.059 A 
ATOM     82  F   UNL A   1      38.112  34.178  29.534  1.00  0.00    -0.206 F 
ATOM     83  C   UNL A   1      34.514  34.510  29.643  1.00  0.00     0.060 A 
BRANCH  83  84
ATOM     84  S   UNL A   1      33.190  35.431  28.830  1.00  0.00     0.124 S 
ATOM     85  O   UNL A   1      33.946  36.358  27.996  1.00  0.00    -0.237 OA
ATOM     86  O   UNL A   1      32.470  34.377  28.121  1.00  0.00    -0.237 OA
ATOM     87  O   UNL A   1      32.464  36.032  29.946  1.00  0.00    -0.744 OA
ENDBRANCH  83  84
ENDBRANCH  51  76
BRANCH  63  88
ATOM     88  C   UNL A   1      39.855  34.303  37.000  1.00  0.00     0.058 A 
ATOM     89  C   UNL A   1      39.035  34.177  38.133  1.00  0.00     0.135 A 
ATOM     90  C   UNL A   1      40.579  35.497  36.844  1.00  0.00     0.135 A 
ATOM     91  F   UNL A   1      38.320  33.058  38.328  1.00  0.00    -0.206 F 
ATOM     92  C   UNL A   1      38.903  35.213  39.052  1.00  0.00     0.059 A 
ATOM     93  C   UNL A   1      40.482  36.535  37.766  1.00  0.00     0.059 A 
ATOM     94  F   UNL A   1      41.389  35.663  35.787  1.00  0.00    -0.206 F 
ATOM     95  C   UNL A   1      39.625  36.391  38.856  1.00  0.00     0.060 A 
BRANCH  95  96
ATOM     96  S   UNL A   1      39.440  37.734  40.049  1.00  0.00     0.124 S 
ATOM     97  O   UNL A   1      38.225  38.385  39.570  1.00  0.00    -0.237 OA
ATOM     98  O   UNL A   1      39.318  37.017  41.315  1.00  0.00    -0.237 OA
ATOM     99  O   UNL A   1      40.671  38.502  39.887  1.00  0.00    -0.744 OA
ENDBRANCH  95  96
ENDBRANCH  63  88
ENDBRANCH  37  38
ENDBRANCH  29  32
ENDBRANCH  27  28
ENDBRANCH   1  27
TORSDOF 16
ENDMDL
MODEL 2
REMARK VINA RESULT:     -12.6      1.548      3.080
REMARK SMILES COc1ccc([C@H]2[C@H](C(=O)NCCCNC(=O)c3ccc(-c4c5nc(c(-c6c(F)cc(S(=O)(=O)[O-])cc6F)c6ccc([nH]6)c(-c6c(F)cc(S(=O)(=O)[O-])cc6F)c6nc(c(-c7c(F)cc(S(=O)(=O)[O-])cc7F)c7ccc4[nH]7)C=C6)C=C5)cc3)CCN2c2ccc(F)cc2)cc1
REMARK SMILES IDX 13 1 12 2 11 3 9 4 10 5 8 7 7 8 86 9 84 10 85 11 6 12 3 13
REMARK SMILES IDX 4 14 95 15 5 16 94 17 2 18 1 19 87 20 88 21 93 22 89 23
REMARK SMILES IDX 92 24 90 25 91 26 14 27 15 28 16 29 17 31 18 32 19 33 83 34
REMARK SMILES IDX 20 35 82 36 21 37 22 38 23 39 76 40 24 41 81 42 75 43 77 44
REMARK SMILES IDX 25 45 80 46 74 47 73 48 26 50 60 51 39 52 59 53 40 54 43 55
REMARK SMILES IDX 58 56 78 57 41 58 42 59 57 61 79 62 44 63 27 64 28 65 37 66
REMARK SMILES IDX 29 67 30 68 36 69 38 70 31 71 32 72 33 73 34 74 35 75 61 76
REMARK SMILES IDX 62 77 71 78 63 79 64 80 70 81 72 82 65 83 66 84 67 85 68 86
REMARK SMILES IDX 69 87 45 88 46 89 55 90 47 91 48 92 54 93 56 94 49 95 50 96
REMARK SMILES IDX 51 97 52 98 53 99
REMARK H PARENT 11 6 15 30 77 49 43 60
REMARK Flexibility Score: inf
ROOT
ATOM      1  C   UNL A   1      39.266  22.397  26.488  1.00  0.00     0.042 C 
ENDROOT
BRANCH   1   2
ATOM      2  C   UNL A   1      38.199  23.402  26.074  1.00  0.00     0.117 C 
BRANCH   2   3
ATOM      3  N   UNL A   1      37.835  23.265  24.674  1.00  0.00    -0.356 N 
ATOM      4  C   UNL A   1      36.653  23.226  24.013  1.00  0.00     0.225 C 
ATOM      5  O   UNL A   1      36.734  22.983  22.800  1.00  0.00    -0.275 OA
ATOM      6  H   UNL A   1      38.616  23.184  24.078  1.00  0.00     0.163 HD
BRANCH   4   7
ATOM      7  C   UNL A   1      35.263  23.418  24.614  1.00  0.00     0.107 C 
ATOM      8  C   UNL A   1      34.207  22.524  23.932  1.00  0.00     0.125 C 
ATOM      9  N   UNL A   1      34.112  21.406  24.885  1.00  0.00    -0.364 N 
ATOM     10  C   UNL A   1      35.063  23.212  26.110  1.00  0.00     0.037 C 
ATOM     11  C   UNL A   1      34.313  21.883  26.254  1.00  0.00     0.118 C 
BRANCH   8  12
ATOM     12  C   UNL A   1      32.853  23.245  23.794  1.00  0.00    -0.024 A 
ATOM     13  C   UNL A   1      30.465  24.763  23.643  1.00  0.00     0.118 A 
ATOM     14  C   UNL A   1      31.424  24.850  22.635  1.00  0.00     0.047 A 
ATOM     15  C   UNL A   1      30.650  23.854  24.677  1.00  0.00     0.047 A 
ATOM     16  C   UNL A   1      32.606  24.099  22.706  1.00  0.00     0.010 A 
ATOM     17  C   UNL A   1      31.825  23.099  24.744  1.00  0.00     0.010 A 
BRANCH  13  18
ATOM     18  O   UNL A   1      29.373  25.578  23.514  1.00  0.00    -0.497 OA
ATOM     19  C   UNL A   1      29.373  26.710  24.382  1.00  0.00     0.278 C 
ENDBRANCH  13  18
ENDBRANCH   8  12
BRANCH   9  20
ATOM     20  C   UNL A   1      33.837  20.092  24.574  1.00  0.00     0.037 A 
ATOM     21  C   UNL A   1      34.808  19.086  24.729  1.00  0.00     0.029 A 
ATOM     22  C   UNL A   1      32.605  19.691  24.026  1.00  0.00     0.029 A 
ATOM     23  C   UNL A   1      34.594  17.772  24.298  1.00  0.00     0.041 A 
ATOM     24  C   UNL A   1      32.390  18.386  23.564  1.00  0.00     0.041 A 
ATOM     25  C   UNL A   1      33.393  17.440  23.695  1.00  0.00     0.123 A 
ATOM     26  F   UNL A   1      33.203  16.200  23.230  1.00  0.00    -0.207 F 
ENDBRANCH   9  20
ENDBRANCH   4   7
ENDBRANCH   2   3
ENDBRANCH   1   2
BRANCH   1  27
ATOM     27  C   UNL A   1      40.535  23.012  27.063  1.00  0.00     0.118 C 
BRANCH  27  28
ATOM     28  N   UNL A   1      41.197  23.893  26.116  1.00  0.00    -0.352 N 
ATOM     29  C   UNL A   1      41.353  25.258  26.089  1.00  0.00     0.251 C 
ATOM     30  H   UNL A   1      41.610  23.427  25.354  1.00  0.00     0.163 HD
ATOM     31  O   UNL A   1      41.777  25.759  25.046  1.00  0.00    -0.269 OA
BRANCH  29  32
ATOM     32  C   UNL A   1      41.035  26.139  27.245  1.00  0.00     0.039 A 
ATOM     33  C   UNL A   1      41.856  27.253  27.463  1.00  0.00     0.014 A 
ATOM     34  C   UNL A   1      40.029  25.856  28.172  1.00  0.00     0.014 A 
ATOM     35  C   UNL A   1      41.656  28.077  28.577  1.00  0.00     0.010 A 
ATOM     36  C   UNL A   1      39.768  26.733  29.231  1.00  0.00     0.010 A 
ATOM     37  C   UNL A   1      40.596  27.838  29.465  1.00  0.00    -0.014 A 
BRANCH  37  38
ATOM     38  C   UNL A   1      40.385  28.724  30.646  1.00  0.00     0.031 A 
ATOM     39  C   UNL A   1      41.248  28.593  31.877  1.00  0.00     0.074 A 
ATOM     40  C   UNL A   1      39.411  29.655  30.614  1.00  0.00     0.049 A 
ATOM     41  N   UNL A   1      41.246  29.314  32.971  1.00  0.00    -0.248 NA
ATOM     42  C   UNL A   1      42.224  27.492  31.896  1.00  0.00     0.031 C 
ATOM     43  C   UNL A   1      38.460  29.844  29.515  1.00  0.00     0.029 A 
ATOM     44  N   UNL A   1      39.066  30.627  31.521  1.00  0.00    -0.354 N 
ATOM     45  C   UNL A   1      42.203  28.750  33.806  1.00  0.00     0.074 A 
ATOM     46  C   UNL A   1      42.727  27.591  33.119  1.00  0.00     0.031 C 
ATOM     47  C   UNL A   1      37.675  30.898  29.790  1.00  0.00     0.029 A 
ATOM     48  C   UNL A   1      38.046  31.444  31.092  1.00  0.00     0.049 A 
ATOM     49  H   UNL A   1      39.506  30.728  32.395  1.00  0.00     0.167 HD
ATOM     50  C   UNL A   1      42.630  29.171  35.024  1.00  0.00     0.037 A 
ATOM     51  C   UNL A   1      37.484  32.523  31.671  1.00  0.00     0.037 A 
ATOM     52  C   UNL A   1      42.129  30.342  35.696  1.00  0.00     0.049 A 
ATOM     53  C   UNL A   1      38.007  33.003  32.996  1.00  0.00     0.074 A 
ATOM     54  C   UNL A   1      42.533  30.883  36.905  1.00  0.00     0.029 A 
ATOM     55  N   UNL A   1      41.114  31.158  35.216  1.00  0.00    -0.354 N 
ATOM     56  N   UNL A   1      38.960  32.494  33.741  1.00  0.00    -0.248 NA
ATOM     57  C   UNL A   1      37.388  34.213  33.554  1.00  0.00     0.031 C 
ATOM     58  C   UNL A   1      41.741  32.007  37.171  1.00  0.00     0.029 A 
ATOM     59  C   UNL A   1      40.872  32.191  36.107  1.00  0.00     0.049 A 
ATOM     60  H   UNL A   1      40.637  31.023  34.366  1.00  0.00     0.167 HD
ATOM     61  C   UNL A   1      39.070  33.334  34.844  1.00  0.00     0.074 A 
ATOM     62  C   UNL A   1      38.099  34.393  34.659  1.00  0.00     0.031 C 
ATOM     63  C   UNL A   1      39.899  33.237  35.913  1.00  0.00     0.037 A 
BRANCH  50  64
ATOM     64  C   UNL A   1      43.703  28.360  35.702  1.00  0.00     0.058 A 
ATOM     65  C   UNL A   1      43.388  27.320  36.592  1.00  0.00     0.135 A 
ATOM     66  C   UNL A   1      45.062  28.608  35.444  1.00  0.00     0.135 A 
ATOM     67  F   UNL A   1      42.107  27.046  36.886  1.00  0.00    -0.206 F 
ATOM     68  C   UNL A   1      44.379  26.583  37.233  1.00  0.00     0.059 A 
ATOM     69  C   UNL A   1      46.069  27.864  36.052  1.00  0.00     0.059 A 
ATOM     70  F   UNL A   1      45.422  29.586  34.599  1.00  0.00    -0.206 F 
ATOM     71  C   UNL A   1      45.718  26.865  36.960  1.00  0.00     0.060 A 
BRANCH  71  72
ATOM     72  S   UNL A   1      46.995  25.910  37.806  1.00  0.00     0.124 S 
ATOM     73  O   UNL A   1      46.209  25.209  38.820  1.00  0.00    -0.237 OA
ATOM     74  O   UNL A   1      47.524  25.072  36.730  1.00  0.00    -0.237 OA
ATOM     75  O   UNL A   1      47.907  26.926  38.309  1.00  0.00    -0.744 OA
ENDBRANCH  71  72
ENDBRANCH  50  64
BRANCH  51  76
ATOM     76  C   UNL A   1      36.400  33.257  30.967  1.00  0.00     0.058 A 
ATOM     77  C   UNL A   1      35.073  33.191  31.420  1.00  0.00     0.135 A 
ATOM     78  C   UNL A   1      36.668  34.059  29.847  1.00  0.00     0.135 A 
ATOM     79  F   UNL A   1      34.765  32.432  32.483  1.00  0.00    -0.206 F 
ATOM     80  C   UNL A   1      34.049  33.884  30.784  1.00  0.00     0.059 A 
ATOM     81  C   UNL A   1      35.665  34.782  29.208  1.00  0.00     0.059 A 
ATOM     82  F   UNL A   1      37.923  34.166  29.383  1.00  0.00    -0.206 F 
ATOM     83  C   UNL A   1      34.356  34.682  29.680  1.00  0.00     0.060 A 
BRANCH  83  84
ATOM     84  S   UNL A   1      33.032  35.629  28.900  1.00  0.00     0.124 S 
ATOM     85  O   UNL A   1      32.426  34.626  28.031  1.00  0.00    -0.237 OA
ATOM     86  O   UNL A   1      32.231  36.045  30.047  1.00  0.00    -0.237 OA
ATOM     87  O   UNL A   1      33.745  36.707  28.221  1.00  0.00    -0.744 OA
ENDBRANCH  83  84
ENDBRANCH  51  76
BRANCH  63  88
ATOM     88  C   UNL A   1      39.807  34.321  36.951  1.00  0.00     0.058 A 
ATOM     89  C   UNL A   1      38.959  34.207  38.064  1.00  0.00     0.135 A 
ATOM     90  C   UNL A   1      40.580  35.487  36.833  1.00  0.00     0.135 A 
ATOM     91  F   UNL A   1      38.196  33.114  38.223  1.00  0.00    -0.206 F 
ATOM     92  C   UNL A   1      38.849  35.229  39.001  1.00  0.00     0.059 A 
ATOM     93  C   UNL A   1      40.506  36.511  37.773  1.00  0.00     0.059 A 
ATOM     94  F   UNL A   1      41.419  35.641  35.796  1.00  0.00    -0.206 F 
ATOM     95  C   UNL A   1      39.621  36.381  38.843  1.00  0.00     0.060 A 
BRANCH  95  96
ATOM     96  S   UNL A   1      39.466  37.707  40.058  1.00  0.00     0.124 S 
ATOM     97  O   UNL A   1      38.249  38.376  39.607  1.00  0.00    -0.237 OA
ATOM     98  O   UNL A   1      39.357  36.973  41.315  1.00  0.00    -0.237 OA
ATOM     99  O   UNL A   1      40.701  38.468  39.889  1.00  0.00    -0.744 OA
ENDBRANCH  95  96
ENDBRANCH  63  88
ENDBRANCH  37  38
ENDBRANCH  29  32
ENDBRANCH  27  28
ENDBRANCH   1  27
TORSDOF 16
ENDMDL
MODEL 3
REMARK VINA RESULT:     -12.6      6.722     12.450
REMARK SMILES COc1ccc([C@H]2[C@H](C(=O)NCCCNC(=O)c3ccc(-c4c5nc(c(-c6c(F)cc(S(=O)(=O)[O-])cc6F)c6ccc([nH]6)c(-c6c(F)cc(S(=O)(=O)[O-])cc6F)c6nc(c(-c7c(F)cc(S(=O)(=O)[O-])cc7F)c7ccc4[nH]7)C=C6)C=C5)cc3)CCN2c2ccc(F)cc2)cc1
REMARK SMILES IDX 13 1 12 2 11 3 9 4 10 5 8 7 7 8 86 9 84 10 85 11 6 12 3 13
REMARK SMILES IDX 4 14 95 15 5 16 94 17 2 18 1 19 87 20 88 21 93 22 89 23
REMARK SMILES IDX 92 24 90 25 91 26 14 27 15 28 16 29 17 31 18 32 19 33 83 34
REMARK SMILES IDX 20 35 82 36 21 37 22 38 23 39 76 40 24 41 81 42 75 43 77 44
REMARK SMILES IDX 25 45 80 46 74 47 73 48 26 50 60 51 39 52 59 53 40 54 43 55
REMARK SMILES IDX 58 56 78 57 41 58 42 59 57 61 79 62 44 63 27 64 28 65 37 66
REMARK SMILES IDX 29 67 30 68 36 69 38 70 31 71 32 72 33 73 34 74 35 75 61 76
REMARK SMILES IDX 62 77 71 78 63 79 64 80 70 81 72 82 65 83 66 84 67 85 68 86
REMARK SMILES IDX 69 87 45 88 46 89 55 90 47 91 48 92 54 93 56 94 49 95 50 96
REMARK SMILES IDX 51 97 52 98 53 99
REMARK H PARENT 11 6 15 30 77 49 43 60
REMARK Flexibility Score: inf
ROOT
ATOM      1  C   UNL A   1      34.370  32.658  28.907  1.00  0.00     0.042 C 
ENDROOT
BRANCH   1   2
ATOM      2  C   UNL A   1      33.815  32.034  27.633  1.00  0.00     0.117 C 
BRANCH   2   3
ATOM      3  N   UNL A   1      34.473  30.780  27.309  1.00  0.00    -0.356 N 
ATOM      4  C   UNL A   1      34.032  29.581  26.858  1.00  0.00     0.225 C 
ATOM      5  O   UNL A   1      34.892  28.689  26.800  1.00  0.00    -0.275 OA
ATOM      6  H   UNL A   1      35.448  30.808  27.446  1.00  0.00     0.163 HD
BRANCH   4   7
ATOM      7  C   UNL A   1      32.603  29.225  26.454  1.00  0.00     0.107 C 
ATOM      8  C   UNL A   1      32.560  28.323  25.203  1.00  0.00     0.125 C 
ATOM      9  N   UNL A   1      32.377  26.993  25.809  1.00  0.00    -0.364 N 
ATOM     10  C   UNL A   1      31.688  28.553  27.469  1.00  0.00     0.037 C 
ATOM     11  C   UNL A   1      31.565  27.092  27.023  1.00  0.00     0.118 C 
BRANCH   8  12
ATOM     12  C   UNL A   1      31.375  28.677  24.286  1.00  0.00    -0.024 A 
ATOM     13  C   UNL A   1      29.356  29.407  22.437  1.00  0.00     0.118 A 
ATOM     14  C   UNL A   1      29.964  28.155  22.362  1.00  0.00     0.047 A 
ATOM     15  C   UNL A   1      29.683  30.258  23.485  1.00  0.00     0.047 A 
ATOM     16  C   UNL A   1      30.963  27.790  23.277  1.00  0.00     0.010 A 
ATOM     17  C   UNL A   1      30.674  29.891  24.401  1.00  0.00     0.010 A 
BRANCH  13  18
ATOM     18  O   UNL A   1      28.435  29.693  21.465  1.00  0.00    -0.497 OA
ATOM     19  C   UNL A   1      28.116  31.077  21.342  1.00  0.00     0.278 C 
ENDBRANCH  13  18
ENDBRANCH   8  12
BRANCH   9  20
ATOM     20  C   UNL A   1      32.854  25.800  25.312  1.00  0.00     0.037 A 
ATOM     21  C   UNL A   1      31.979  24.770  24.919  1.00  0.00     0.029 A 
ATOM     22  C   UNL A   1      34.229  25.514  25.232  1.00  0.00     0.029 A 
ATOM     23  C   UNL A   1      32.442  23.506  24.536  1.00  0.00     0.041 A 
ATOM     24  C   UNL A   1      34.703  24.244  24.878  1.00  0.00     0.041 A 
ATOM     25  C   UNL A   1      33.801  23.248  24.543  1.00  0.00     0.123 A 
ATOM     26  F   UNL A   1      34.247  22.025  24.232  1.00  0.00    -0.207 F 
ENDBRANCH   9  20
ENDBRANCH   4   7
ENDBRANCH   2   3
ENDBRANCH   1   2
BRANCH   1  27
ATOM     27  C   UNL A   1      35.760  32.177  29.300  1.00  0.00     0.118 C 
BRANCH  27  28
ATOM     28  N   UNL A   1      35.760  31.477  30.573  1.00  0.00    -0.352 N 
ATOM     29  C   UNL A   1      36.567  30.484  31.074  1.00  0.00     0.251 C 
ATOM     30  H   UNL A   1      35.051  31.768  31.192  1.00  0.00     0.163 HD
ATOM     31  O   UNL A   1      36.201  29.923  32.108  1.00  0.00    -0.269 OA
BRANCH  29  32
ATOM     32  C   UNL A   1      37.840  30.065  30.427  1.00  0.00     0.039 A 
ATOM     33  C   UNL A   1      38.917  29.731  31.260  1.00  0.00     0.014 A 
ATOM     34  C   UNL A   1      38.042  30.083  29.045  1.00  0.00     0.014 A 
ATOM     35  C   UNL A   1      40.163  29.403  30.714  1.00  0.00     0.010 A 
ATOM     36  C   UNL A   1      39.260  29.663  28.497  1.00  0.00     0.010 A 
ATOM     37  C   UNL A   1      40.345  29.346  29.323  1.00  0.00    -0.014 A 
BRANCH  37  38
ATOM     38  C   UNL A   1      41.674  28.990  28.748  1.00  0.00     0.031 A 
ATOM     39  C   UNL A   1      42.781  30.011  28.663  1.00  0.00     0.074 A 
ATOM     40  C   UNL A   1      41.890  27.736  28.299  1.00  0.00     0.049 A 
ATOM     41  N   UNL A   1      44.015  29.863  28.249  1.00  0.00    -0.248 NA
ATOM     42  C   UNL A   1      42.454  31.387  29.071  1.00  0.00     0.031 C 
ATOM     43  C   UNL A   1      40.886  26.670  28.258  1.00  0.00     0.029 A 
ATOM     44  N   UNL A   1      43.025  27.142  27.804  1.00  0.00    -0.354 N 
ATOM     45  C   UNL A   1      44.603  31.120  28.334  1.00  0.00     0.074 A 
ATOM     46  C   UNL A   1      43.576  32.032  28.784  1.00  0.00     0.031 C 
ATOM     47  C   UNL A   1      41.463  25.541  27.815  1.00  0.00     0.029 A 
ATOM     48  C   UNL A   1      42.866  25.807  27.514  1.00  0.00     0.049 A 
ATOM     49  H   UNL A   1      43.871  27.626  27.671  1.00  0.00     0.167 HD
ATOM     50  C   UNL A   1      45.888  31.480  28.088  1.00  0.00     0.037 A 
ATOM     51  C   UNL A   1      43.754  24.894  27.074  1.00  0.00     0.037 A 
ATOM     52  C   UNL A   1      46.918  30.566  27.667  1.00  0.00     0.049 A 
ATOM     53  C   UNL A   1      45.184  25.304  26.856  1.00  0.00     0.074 A 
ATOM     54  C   UNL A   1      48.261  30.821  27.444  1.00  0.00     0.029 A 
ATOM     55  N   UNL A   1      46.723  29.216  27.410  1.00  0.00    -0.354 N 
ATOM     56  N   UNL A   1      45.737  26.484  27.006  1.00  0.00    -0.248 NA
ATOM     57  C   UNL A   1      46.115  24.252  26.423  1.00  0.00     0.031 C 
ATOM     58  C   UNL A   1      48.870  29.633  27.020  1.00  0.00     0.029 A 
ATOM     59  C   UNL A   1      47.916  28.628  27.021  1.00  0.00     0.049 A 
ATOM     60  H   UNL A   1      45.862  28.745  27.492  1.00  0.00     0.167 HD
ATOM     61  C   UNL A   1      47.084  26.313  26.707  1.00  0.00     0.074 A 
ATOM     62  C   UNL A   1      47.265  24.912  26.387  1.00  0.00     0.031 C 
ATOM     63  C   UNL A   1      48.082  27.233  26.700  1.00  0.00     0.037 A 
BRANCH  50  64
ATOM     64  C   UNL A   1      46.251  32.930  28.277  1.00  0.00     0.058 A 
ATOM     65  C   UNL A   1      46.708  33.419  29.511  1.00  0.00     0.135 A 
ATOM     66  C   UNL A   1      46.161  33.838  27.209  1.00  0.00     0.135 A 
ATOM     67  F   UNL A   1      46.802  32.600  30.570  1.00  0.00    -0.206 F 
ATOM     68  C   UNL A   1      47.026  34.762  29.691  1.00  0.00     0.059 A 
ATOM     69  C   UNL A   1      46.500  35.180  27.358  1.00  0.00     0.059 A 
ATOM     70  F   UNL A   1      45.734  33.425  26.005  1.00  0.00    -0.206 F 
ATOM     71  C   UNL A   1      46.913  35.637  28.610  1.00  0.00     0.060 A 
BRANCH  71  72
ATOM     72  S   UNL A   1      47.317  37.379  28.858  1.00  0.00     0.124 S 
ATOM     73  O   UNL A   1      46.154  38.033  28.259  1.00  0.00    -0.237 OA
ATOM     74  O   UNL A   1      47.412  37.475  30.314  1.00  0.00    -0.237 OA
ATOM     75  O   UNL A   1      48.571  37.546  28.139  1.00  0.00    -0.744 OA
ENDBRANCH  71  72
ENDBRANCH  50  64
BRANCH  51  76
ATOM     76  C   UNL A   1      43.322  23.487  26.867  1.00  0.00     0.058 A 
ATOM     77  C   UNL A   1      43.175  22.961  25.574  1.00  0.00     0.135 A 
ATOM     78  C   UNL A   1      43.075  22.631  27.952  1.00  0.00     0.135 A 
ATOM     79  F   UNL A   1      43.393  23.741  24.504  1.00  0.00    -0.206 F 
ATOM     80  C   UNL A   1      42.788  21.642  25.362  1.00  0.00     0.059 A 
ATOM     81  C   UNL A   1      42.711  21.301  27.765  1.00  0.00     0.059 A 
ATOM     82  F   UNL A   1      43.216  23.082  29.208  1.00  0.00    -0.206 F 
ATOM     83  C   UNL A   1      42.563  20.817  26.465  1.00  0.00     0.060 A 
BRANCH  83  84
ATOM     84  S   UNL A   1      42.124  19.089  26.181  1.00  0.00     0.124 S 
ATOM     85  O   UNL A   1      40.714  19.198  25.826  1.00  0.00    -0.237 OA
ATOM     86  O   UNL A   1      43.028  18.715  25.097  1.00  0.00    -0.237 OA
ATOM     87  O   UNL A   1      42.406  18.455  27.466  1.00  0.00    -0.744 OA
ENDBRANCH  83  84
ENDBRANCH  51  76
BRANCH  63  88
ATOM     88  C   UNL A   1      49.461  26.742  26.356  1.00  0.00     0.058 A 
ATOM     89  C   UNL A   1      49.987  26.866  25.060  1.00  0.00     0.135 A 
ATOM     90  C   UNL A   1      50.270  26.147  27.338  1.00  0.00     0.135 A 
ATOM     91  F   UNL A   1      49.255  27.425  24.085  1.00  0.00    -0.206 F 
ATOM     92  C   UNL A   1      51.249  26.376  24.739  1.00  0.00     0.059 A 
ATOM     93  C   UNL A   1      51.546  25.675  27.045  1.00  0.00     0.059 A 
ATOM     94  F   UNL A   1      49.821  26.018  28.596  1.00  0.00    -0.206 F 
ATOM     95  C   UNL A   1      52.018  25.776  25.737  1.00  0.00     0.060 A 
BRANCH  95  96
ATOM     96  S   UNL A   1      53.651  25.135  25.310  1.00  0.00     0.124 S 
ATOM     97  O   UNL A   1      54.490  25.780  26.315  1.00  0.00    -0.237 OA
ATOM     98  O   UNL A   1      53.475  23.694  25.462  1.00  0.00    -0.237 OA
ATOM     99  O   UNL A   1      53.848  25.595  23.938  1.00  0.00    -0.744 OA
ENDBRANCH  95  96
ENDBRANCH  63  88
ENDBRANCH  37  38
ENDBRANCH  29  32
ENDBRANCH  27  28
ENDBRANCH   1  27
TORSDOF 16
ENDMDL
