MODEL 1
REMARK VINA RESULT:     -13.3      0.000      0.000
REMARK SMILES C[C@@H](Oc1ccc2c(c1)OCO2)C(=O)N1CCn2nc(C(=O)NCCCNC(=O)c3ccc(-c4c5nc(c(-c6c(F)cc(S(=O)(=O)[O-])cc6F)c6ccc([nH]6)c(-c6c(F)cc(S(=O)(=O)[O-])cc6F)c6nc(c(-c7c(F)cc(S(=O)(=O)[O-])cc7F)c7ccc4[nH]7)C=C6)C=C5)cc3)cc2C1
REMARK SMILES IDX 24 1 23 2 21 3 22 4 20 6 15 7 16 8 98 9 17 10 97 11 18 12
REMARK SMILES IDX 96 13 19 14 13 15 14 16 2 17 1 18 3 19 4 20 5 21 9 22 6 23
REMARK SMILES IDX 8 24 7 25 10 26 12 27 11 28 25 29 26 30 27 31 28 32 29 34
REMARK SMILES IDX 30 35 31 36 95 37 32 38 94 39 33 40 34 41 35 42 88 43 36 44
REMARK SMILES IDX 93 45 87 46 89 47 37 48 92 49 86 50 85 51 38 53 72 54 51 55
REMARK SMILES IDX 71 56 52 57 55 58 70 59 90 60 53 61 54 62 69 64 91 65 56 66
REMARK SMILES IDX 39 67 40 68 49 69 41 70 42 71 48 72 50 73 43 74 44 75 45 76
REMARK SMILES IDX 46 77 47 78 73 79 74 80 83 81 75 82 76 83 82 84 84 85 77 86
REMARK SMILES IDX 78 87 79 88 80 89 81 90 57 91 58 92 67 93 59 94 60 95 66 96
REMARK SMILES IDX 68 97 61 98 62 99 63 100 64 101 65 102
REMARK H PARENT 23 5 27 33 89 52 55 63
REMARK Flexibility Score: inf
ROOT
ATOM      1  C   UNL A   1      36.394  21.508  25.695  1.00  0.00     0.118 C 
ENDROOT
BRANCH   1   2
ATOM      2  N   UNL A   1      35.642  20.334  25.286  1.00  0.00    -0.351 N 
ATOM      3  C   UNL A   1      34.334  20.193  24.864  1.00  0.00     0.271 C 
ATOM      4  O   UNL A   1      34.016  19.085  24.428  1.00  0.00    -0.267 OA
ATOM      5  H   UNL A   1      36.154  19.493  25.313  1.00  0.00     0.163 HD
BRANCH   3   6
ATOM      6  C   UNL A   1      33.396  21.335  24.909  1.00  0.00     0.150 A 
ATOM      7  N   UNL A   1      30.500  24.884  24.678  1.00  0.00    -0.332 N 
ATOM      8  C   UNL A   1      30.489  24.591  26.123  1.00  0.00     0.143 C 
ATOM      9  C   UNL A   1      31.138  23.987  23.736  1.00  0.00     0.175 C 
ATOM     10  C   UNL A   1      30.957  23.214  26.594  1.00  0.00     0.166 C 
ATOM     11  C   UNL A   1      32.028  23.020  24.385  1.00  0.00     0.059 A 
ATOM     12  N   UNL A   1      31.884  22.625  25.668  1.00  0.00    -0.265 N 
ATOM     13  C   UNL A   1      33.104  22.312  23.918  1.00  0.00     0.061 A 
ATOM     14  N   UNL A   1      32.636  21.571  26.002  1.00  0.00    -0.167 NA
BRANCH   7  15
ATOM     15  C   UNL A   1      29.970  26.037  24.095  1.00  0.00     0.263 C 
ATOM     16  O   UNL A   1      28.784  26.087  23.749  1.00  0.00    -0.271 OA
BRANCH  15  17
ATOM     17  C   UNL A   1      30.892  27.231  23.810  1.00  0.00     0.259 C 
ATOM     18  C   UNL A   1      30.651  27.820  22.426  1.00  0.00     0.064 C 
BRANCH  17  19
ATOM     19  O   UNL A   1      30.653  28.150  24.888  1.00  0.00    -0.481 OA
BRANCH  19  20
ATOM     20  C   UNL A   1      31.762  28.467  25.616  1.00  0.00     0.124 A 
ATOM     21  C   UNL A   1      32.822  27.550  25.682  1.00  0.00     0.050 A 
ATOM     22  C   UNL A   1      31.894  29.761  26.125  1.00  0.00     0.097 A 
ATOM     23  C   UNL A   1      34.018  27.895  26.309  1.00  0.00     0.054 A 
ATOM     24  C   UNL A   1      33.096  30.080  26.724  1.00  0.00     0.169 A 
ATOM     25  C   UNL A   1      34.125  29.170  26.816  1.00  0.00     0.166 A 
ATOM     26  O   UNL A   1      33.432  31.287  27.256  1.00  0.00    -0.453 OA
ATOM     27  O   UNL A   1      35.228  29.685  27.420  1.00  0.00    -0.454 OA
ATOM     28  C   UNL A   1      34.797  31.041  27.654  1.00  0.00     0.468 C 
ENDBRANCH  19  20
ENDBRANCH  17  19
ENDBRANCH  15  17
ENDBRANCH   7  15
ENDBRANCH   3   6
ENDBRANCH   1   2
BRANCH   1  29
ATOM     29  C   UNL A   1      37.855  21.474  25.222  1.00  0.00     0.042 C 
BRANCH  29  30
ATOM     30  C   UNL A   1      38.812  22.027  26.261  1.00  0.00     0.118 C 
BRANCH  30  31
ATOM     31  N   UNL A   1      40.217  21.834  25.888  1.00  0.00    -0.352 N 
ATOM     32  C   UNL A   1      41.269  22.734  25.969  1.00  0.00     0.251 C 
ATOM     33  H   UNL A   1      40.445  20.944  25.532  1.00  0.00     0.163 HD
ATOM     34  O   UNL A   1      42.273  22.576  25.296  1.00  0.00    -0.269 OA
BRANCH  32  35
ATOM     35  C   UNL A   1      41.134  23.885  26.881  1.00  0.00     0.039 A 
ATOM     36  C   UNL A   1      41.867  23.992  28.063  1.00  0.00     0.014 A 
ATOM     37  C   UNL A   1      40.288  24.912  26.480  1.00  0.00     0.014 A 
ATOM     38  C   UNL A   1      41.797  25.187  28.777  1.00  0.00     0.010 A 
ATOM     39  C   UNL A   1      40.436  26.155  27.024  1.00  0.00     0.010 A 
ATOM     40  C   UNL A   1      41.102  26.284  28.228  1.00  0.00    -0.014 A 
BRANCH  40  41
ATOM     41  C   UNL A   1      41.138  27.604  28.843  1.00  0.00     0.031 A 
ATOM     42  C   UNL A   1      42.184  28.488  28.276  1.00  0.00     0.074 A 
ATOM     43  C   UNL A   1      40.221  28.063  29.726  1.00  0.00     0.049 A 
ATOM     44  N   UNL A   1      43.328  28.762  28.806  1.00  0.00    -0.248 NA
ATOM     45  C   UNL A   1      42.050  28.944  26.883  1.00  0.00     0.031 C 
ATOM     46  C   UNL A   1      38.966  27.443  30.174  1.00  0.00     0.029 A 
ATOM     47  N   UNL A   1      40.196  29.257  30.378  1.00  0.00    -0.354 N 
ATOM     48  C   UNL A   1      43.945  29.648  27.934  1.00  0.00     0.074 A 
ATOM     49  C   UNL A   1      43.229  29.542  26.690  1.00  0.00     0.031 C 
ATOM     50  C   UNL A   1      38.211  28.352  30.830  1.00  0.00     0.029 A 
ATOM     51  C   UNL A   1      38.996  29.555  31.018  1.00  0.00     0.049 A 
ATOM     52  H   UNL A   1      40.970  29.864  30.395  1.00  0.00     0.167 HD
ATOM     53  C   UNL A   1      44.819  30.581  28.405  1.00  0.00     0.037 A 
ATOM     54  C   UNL A   1      38.682  30.706  31.671  1.00  0.00     0.037 A 
ATOM     55  C   UNL A   1      45.238  30.258  29.751  1.00  0.00     0.049 A 
ATOM     56  C   UNL A   1      39.972  31.345  32.040  1.00  0.00     0.074 A 
ATOM     57  C   UNL A   1      45.855  29.166  30.334  1.00  0.00     0.029 A 
ATOM     58  N   UNL A   1      44.644  30.944  30.785  1.00  0.00    -0.354 N 
ATOM     59  N   UNL A   1      40.813  30.829  32.897  1.00  0.00    -0.248 NA
ATOM     60  C   UNL A   1      40.548  32.286  31.091  1.00  0.00     0.031 C 
ATOM     61  C   UNL A   1      45.182  28.985  31.579  1.00  0.00     0.029 A 
ATOM     62  C   UNL A   1      44.263  30.025  31.731  1.00  0.00     0.049 A 
ATOM     63  H   UNL A   1      44.515  31.918  30.837  1.00  0.00     0.167 HD
ATOM     64  C   UNL A   1      42.063  31.024  32.328  1.00  0.00     0.074 A 
ATOM     65  C   UNL A   1      41.841  31.990  31.251  1.00  0.00     0.031 C 
ATOM     66  C   UNL A   1      43.104  30.176  32.586  1.00  0.00     0.037 A 
BRANCH  53  67
ATOM     67  C   UNL A   1      44.983  31.963  27.819  1.00  0.00     0.058 A 
ATOM     68  C   UNL A   1      46.210  32.307  27.218  1.00  0.00     0.135 A 
ATOM     69  C   UNL A   1      44.103  33.040  28.067  1.00  0.00     0.135 A 
ATOM     70  F   UNL A   1      47.126  31.365  26.941  1.00  0.00    -0.206 F 
ATOM     71  C   UNL A   1      46.568  33.630  26.954  1.00  0.00     0.059 A 
ATOM     72  C   UNL A   1      44.417  34.359  27.762  1.00  0.00     0.059 A 
ATOM     73  F   UNL A   1      42.937  32.887  28.702  1.00  0.00    -0.206 F 
ATOM     74  C   UNL A   1      45.666  34.650  27.243  1.00  0.00     0.060 A 
BRANCH  74  75
ATOM     75  S   UNL A   1      46.156  36.362  26.985  1.00  0.00     0.124 S 
ATOM     76  O   UNL A   1      46.924  36.260  25.750  1.00  0.00    -0.237 OA
ATOM     77  O   UNL A   1      44.863  37.031  26.884  1.00  0.00    -0.237 OA
ATOM     78  O   UNL A   1      46.925  36.675  28.185  1.00  0.00    -0.744 OA
ENDBRANCH  74  75
ENDBRANCH  53  67
BRANCH  54  79
ATOM     79  C   UNL A   1      37.390  31.450  31.662  1.00  0.00     0.058 A 
ATOM     80  C   UNL A   1      36.708  31.745  32.860  1.00  0.00     0.135 A 
ATOM     81  C   UNL A   1      36.954  32.149  30.519  1.00  0.00     0.135 A 
ATOM     82  F   UNL A   1      37.064  31.140  34.003  1.00  0.00    -0.206 F 
ATOM     83  C   UNL A   1      35.701  32.717  32.931  1.00  0.00     0.059 A 
ATOM     84  C   UNL A   1      35.949  33.117  30.564  1.00  0.00     0.059 A 
ATOM     85  F   UNL A   1      37.560  31.979  29.334  1.00  0.00    -0.206 F 
ATOM     86  C   UNL A   1      35.345  33.418  31.779  1.00  0.00     0.060 A 
BRANCH  86  87
ATOM     87  S   UNL A   1      34.185  34.802  31.899  1.00  0.00     0.124 S 
ATOM     88  O   UNL A   1      34.972  35.797  32.618  1.00  0.00    -0.237 OA
ATOM     89  O   UNL A   1      33.911  35.101  30.497  1.00  0.00    -0.237 OA
ATOM     90  O   UNL A   1      33.059  34.240  32.642  1.00  0.00    -0.744 OA
ENDBRANCH  86  87
ENDBRANCH  54  79
BRANCH  66  91
ATOM     91  C   UNL A   1      42.967  29.191  33.724  1.00  0.00     0.058 A 
ATOM     92  C   UNL A   1      43.159  29.494  35.086  1.00  0.00     0.135 A 
ATOM     93  C   UNL A   1      42.467  27.914  33.425  1.00  0.00     0.135 A 
ATOM     94  F   UNL A   1      43.539  30.719  35.474  1.00  0.00    -0.206 F 
ATOM     95  C   UNL A   1      42.903  28.560  36.095  1.00  0.00     0.059 A 
ATOM     96  C   UNL A   1      42.174  26.980  34.415  1.00  0.00     0.059 A 
ATOM     97  F   UNL A   1      42.206  27.577  32.152  1.00  0.00    -0.206 F 
ATOM     98  C   UNL A   1      42.408  27.303  35.748  1.00  0.00     0.060 A 
BRANCH  98  99
ATOM     99  S   UNL A   1      42.015  26.114  37.050  1.00  0.00     0.124 S 
ATOM    100  O   UNL A   1      40.644  26.477  37.394  1.00  0.00    -0.237 OA
ATOM    101  O   UNL A   1      42.180  24.832  36.371  1.00  0.00    -0.237 OA
ATOM    102  O   UNL A   1      43.009  26.395  38.082  1.00  0.00    -0.744 OA
ENDBRANCH  98  99
ENDBRANCH  66  91
ENDBRANCH  40  41
ENDBRANCH  32  35
ENDBRANCH  30  31
ENDBRANCH  29  30
ENDBRANCH   1  29
TORSDOF 17
ENDMDL
MODEL 2
REMARK VINA RESULT:     -13.2      1.720      2.618
REMARK SMILES C[C@@H](Oc1ccc2c(c1)OCO2)C(=O)N1CCn2nc(C(=O)NCCCNC(=O)c3ccc(-c4c5nc(c(-c6c(F)cc(S(=O)(=O)[O-])cc6F)c6ccc([nH]6)c(-c6c(F)cc(S(=O)(=O)[O-])cc6F)c6nc(c(-c7c(F)cc(S(=O)(=O)[O-])cc7F)c7ccc4[nH]7)C=C6)C=C5)cc3)cc2C1
REMARK SMILES IDX 24 1 23 2 21 3 22 4 20 6 15 7 16 8 98 9 17 10 97 11 18 12
REMARK SMILES IDX 96 13 19 14 13 15 14 16 2 17 1 18 3 19 4 20 5 21 9 22 6 23
REMARK SMILES IDX 8 24 7 25 10 26 12 27 11 28 25 29 26 30 27 31 28 32 29 34
REMARK SMILES IDX 30 35 31 36 95 37 32 38 94 39 33 40 34 41 35 42 88 43 36 44
REMARK SMILES IDX 93 45 87 46 89 47 37 48 92 49 86 50 85 51 38 53 72 54 51 55
REMARK SMILES IDX 71 56 52 57 55 58 70 59 90 60 53 61 54 62 69 64 91 65 56 66
REMARK SMILES IDX 39 67 40 68 49 69 41 70 42 71 48 72 50 73 43 74 44 75 45 76
REMARK SMILES IDX 46 77 47 78 73 79 74 80 83 81 75 82 76 83 82 84 84 85 77 86
REMARK SMILES IDX 78 87 79 88 80 89 81 90 57 91 58 92 67 93 59 94 60 95 66 96
REMARK SMILES IDX 68 97 61 98 62 99 63 100 64 101 65 102
REMARK H PARENT 23 5 27 33 89 52 55 63
REMARK Flexibility Score: inf
ROOT
ATOM      1  C   UNL A   1      36.418  21.452  24.661  1.00  0.00     0.118 C 
ENDROOT
BRANCH   1   2
ATOM      2  N   UNL A   1      35.683  21.159  25.879  1.00  0.00    -0.351 N 
ATOM      3  C   UNL A   1      34.528  21.709  26.400  1.00  0.00     0.271 C 
ATOM      4  O   UNL A   1      34.047  21.144  27.384  1.00  0.00    -0.267 OA
ATOM      5  H   UNL A   1      36.077  20.443  26.430  1.00  0.00     0.163 HD
BRANCH   3   6
ATOM      6  C   UNL A   1      33.899  22.889  25.769  1.00  0.00     0.150 A 
ATOM      7  N   UNL A   1      31.694  26.323  23.675  1.00  0.00    -0.332 N 
ATOM      8  C   UNL A   1      32.733  27.055  24.424  1.00  0.00     0.143 C 
ATOM      9  C   UNL A   1      31.465  24.910  23.899  1.00  0.00     0.175 C 
ATOM     10  C   UNL A   1      33.410  26.360  25.605  1.00  0.00     0.166 C 
ATOM     11  C   UNL A   1      32.559  24.265  24.632  1.00  0.00     0.059 A 
ATOM     12  N   UNL A   1      33.389  24.932  25.462  1.00  0.00    -0.265 N 
ATOM     13  C   UNL A   1      32.973  22.961  24.692  1.00  0.00     0.061 A 
ATOM     14  N   UNL A   1      34.160  24.139  26.213  1.00  0.00    -0.167 NA
BRANCH   7  15
ATOM     15  C   UNL A   1      30.895  26.877  22.673  1.00  0.00     0.263 C 
ATOM     16  O   UNL A   1      31.254  26.856  21.490  1.00  0.00    -0.271 OA
BRANCH  15  17
ATOM     17  C   UNL A   1      29.590  27.591  23.055  1.00  0.00     0.259 C 
ATOM     18  C   UNL A   1      28.687  26.709  23.908  1.00  0.00     0.064 C 
BRANCH  17  19
ATOM     19  O   UNL A   1      30.007  28.803  23.702  1.00  0.00    -0.481 OA
BRANCH  19  20
ATOM     20  C   UNL A   1      29.382  29.928  23.251  1.00  0.00     0.124 A 
ATOM     21  C   UNL A   1      29.425  31.094  24.030  1.00  0.00     0.050 A 
ATOM     22  C   UNL A   1      28.872  29.948  21.951  1.00  0.00     0.097 A 
ATOM     23  C   UNL A   1      28.909  32.292  23.542  1.00  0.00     0.054 A 
ATOM     24  C   UNL A   1      28.384  31.152  21.486  1.00  0.00     0.169 A 
ATOM     25  C   UNL A   1      28.399  32.290  22.263  1.00  0.00     0.166 A 
ATOM     26  O   UNL A   1      27.872  31.387  20.247  1.00  0.00    -0.453 OA
ATOM     27  O   UNL A   1      27.894  33.373  21.617  1.00  0.00    -0.454 OA
ATOM     28  C   UNL A   1      27.605  32.803  20.324  1.00  0.00     0.468 C 
ENDBRANCH  19  20
ENDBRANCH  17  19
ENDBRANCH  15  17
ENDBRANCH   7  15
ENDBRANCH   3   6
ENDBRANCH   1   2
BRANCH   1  29
ATOM     29  C   UNL A   1      37.522  22.499  24.867  1.00  0.00     0.042 C 
BRANCH  29  30
ATOM     30  C   UNL A   1      38.302  22.273  26.148  1.00  0.00     0.118 C 
BRANCH  30  31
ATOM     31  N   UNL A   1      39.689  21.871  25.895  1.00  0.00    -0.352 N 
ATOM     32  C   UNL A   1      40.854  22.600  26.087  1.00  0.00     0.251 C 
ATOM     33  H   UNL A   1      39.811  20.959  25.542  1.00  0.00     0.163 HD
ATOM     34  O   UNL A   1      41.879  22.296  25.501  1.00  0.00    -0.269 OA
BRANCH  32  35
ATOM     35  C   UNL A   1      40.813  23.751  27.007  1.00  0.00     0.039 A 
ATOM     36  C   UNL A   1      41.677  23.868  28.096  1.00  0.00     0.014 A 
ATOM     37  C   UNL A   1      39.916  24.768  26.706  1.00  0.00     0.014 A 
ATOM     38  C   UNL A   1      41.677  25.064  28.812  1.00  0.00     0.010 A 
ATOM     39  C   UNL A   1      40.112  26.014  27.228  1.00  0.00     0.010 A 
ATOM     40  C   UNL A   1      40.912  26.152  28.346  1.00  0.00    -0.014 A 
BRANCH  40  41
ATOM     41  C   UNL A   1      41.004  27.474  28.952  1.00  0.00     0.031 A 
ATOM     42  C   UNL A   1      42.063  28.321  28.353  1.00  0.00     0.074 A 
ATOM     43  C   UNL A   1      40.124  27.967  29.854  1.00  0.00     0.049 A 
ATOM     44  N   UNL A   1      43.228  28.562  28.854  1.00  0.00    -0.248 NA
ATOM     45  C   UNL A   1      41.909  28.773  26.961  1.00  0.00     0.031 C 
ATOM     46  C   UNL A   1      38.862  27.389  30.337  1.00  0.00     0.029 A 
ATOM     47  N   UNL A   1      40.153  29.165  30.499  1.00  0.00    -0.354 N 
ATOM     48  C   UNL A   1      43.850  29.423  27.961  1.00  0.00     0.074 A 
ATOM     49  C   UNL A   1      43.101  29.333  26.736  1.00  0.00     0.031 C 
ATOM     50  C   UNL A   1      38.152  28.325  31.006  1.00  0.00     0.029 A 
ATOM     51  C   UNL A   1      38.980  29.504  31.167  1.00  0.00     0.049 A 
ATOM     52  H   UNL A   1      40.946  29.747  30.493  1.00  0.00     0.167 HD
ATOM     53  C   UNL A   1      44.765  30.330  28.404  1.00  0.00     0.037 A 
ATOM     54  C   UNL A   1      38.718  30.668  31.819  1.00  0.00     0.037 A 
ATOM     55  C   UNL A   1      45.207  30.002  29.741  1.00  0.00     0.049 A 
ATOM     56  C   UNL A   1      40.037  31.268  32.153  1.00  0.00     0.074 A 
ATOM     57  C   UNL A   1      45.803  28.894  30.317  1.00  0.00     0.029 A 
ATOM     58  N   UNL A   1      44.661  30.713  30.785  1.00  0.00    -0.354 N 
ATOM     59  N   UNL A   1      40.882  30.730  32.992  1.00  0.00    -0.248 NA
ATOM     60  C   UNL A   1      40.618  32.185  31.184  1.00  0.00     0.031 C 
ATOM     61  C   UNL A   1      45.156  28.742  31.579  1.00  0.00     0.029 A 
ATOM     62  C   UNL A   1      44.275  29.811  31.747  1.00  0.00     0.049 A 
ATOM     63  H   UNL A   1      44.564  31.690  30.834  1.00  0.00     0.167 HD
ATOM     64  C   UNL A   1      42.123  30.883  32.391  1.00  0.00     0.074 A 
ATOM     65  C   UNL A   1      41.905  31.849  31.314  1.00  0.00     0.031 C 
ATOM     66  C   UNL A   1      43.142  30.004  32.629  1.00  0.00     0.037 A 
BRANCH  53  67
ATOM     67  C   UNL A   1      44.958  31.703  27.806  1.00  0.00     0.058 A 
ATOM     68  C   UNL A   1      46.217  32.042  27.269  1.00  0.00     0.135 A 
ATOM     69  C   UNL A   1      44.062  32.781  27.985  1.00  0.00     0.135 A 
ATOM     70  F   UNL A   1      47.149  31.100  27.061  1.00  0.00    -0.206 F 
ATOM     71  C   UNL A   1      46.584  33.362  27.005  1.00  0.00     0.059 A 
ATOM     72  C   UNL A   1      44.389  34.096  27.677  1.00  0.00     0.059 A 
ATOM     73  F   UNL A   1      42.862  32.634  28.555  1.00  0.00    -0.206 F 
ATOM     74  C   UNL A   1      45.665  34.383  27.225  1.00  0.00     0.060 A 
BRANCH  74  75
ATOM     75  S   UNL A   1      46.164  36.092  26.966  1.00  0.00     0.124 S 
ATOM     76  O   UNL A   1      46.672  36.043  25.601  1.00  0.00    -0.237 OA
ATOM     77  O   UNL A   1      44.904  36.804  27.157  1.00  0.00    -0.237 OA
ATOM     78  O   UNL A   1      47.163  36.311  28.007  1.00  0.00    -0.744 OA
ENDBRANCH  74  75
ENDBRANCH  53  67
BRANCH  54  79
ATOM     79  C   UNL A   1      37.450  31.453  31.838  1.00  0.00     0.058 A 
ATOM     80  C   UNL A   1      36.809  31.778  33.050  1.00  0.00     0.135 A 
ATOM     81  C   UNL A   1      37.007  32.156  30.700  1.00  0.00     0.135 A 
ATOM     82  F   UNL A   1      37.176  31.170  34.188  1.00  0.00    -0.206 F 
ATOM     83  C   UNL A   1      35.836  32.782  33.138  1.00  0.00     0.059 A 
ATOM     84  C   UNL A   1      36.035  33.156  30.763  1.00  0.00     0.059 A 
ATOM     85  F   UNL A   1      37.577  31.958  29.502  1.00  0.00    -0.206 F 
ATOM     86  C   UNL A   1      35.472  33.485  31.990  1.00  0.00     0.060 A 
BRANCH  86  87
ATOM     87  S   UNL A   1      34.359  34.907  32.128  1.00  0.00     0.124 S 
ATOM     88  O   UNL A   1      34.110  35.234  30.729  1.00  0.00    -0.237 OA
ATOM     89  O   UNL A   1      33.229  34.347  32.862  1.00  0.00    -0.237 OA
ATOM     90  O   UNL A   1      35.150  35.887  32.867  1.00  0.00    -0.744 OA
ENDBRANCH  86  87
ENDBRANCH  54  79
BRANCH  66  91
ATOM     91  C   UNL A   1      43.002  29.030  33.776  1.00  0.00     0.058 A 
ATOM     92  C   UNL A   1      43.331  29.306  35.117  1.00  0.00     0.135 A 
ATOM     93  C   UNL A   1      42.360  27.809  33.521  1.00  0.00     0.135 A 
ATOM     94  F   UNL A   1      43.856  30.487  35.472  1.00  0.00    -0.206 F 
ATOM     95  C   UNL A   1      43.067  28.395  36.146  1.00  0.00     0.059 A 
ATOM     96  C   UNL A   1      42.059  26.901  34.532  1.00  0.00     0.059 A 
ATOM     97  F   UNL A   1      41.968  27.505  32.273  1.00  0.00    -0.206 F 
ATOM     98  C   UNL A   1      42.428  27.193  35.842  1.00  0.00     0.060 A 
BRANCH  98  99
ATOM     99  S   UNL A   1      42.028  26.040  37.174  1.00  0.00     0.124 S 
ATOM    100  O   UNL A   1      42.939  26.462  38.231  1.00  0.00    -0.237 OA
ATOM    101  O   UNL A   1      40.613  26.307  37.412  1.00  0.00    -0.237 OA
ATOM    102  O   UNL A   1      42.315  24.731  36.591  1.00  0.00    -0.744 OA
ENDBRANCH  98  99
ENDBRANCH  66  91
ENDBRANCH  40  41
ENDBRANCH  32  35
ENDBRANCH  30  31
ENDBRANCH  29  30
ENDBRANCH   1  29
TORSDOF 17
ENDMDL
MODEL 3
REMARK VINA RESULT:     -13.0      2.789      9.645
REMARK SMILES C[C@@H](Oc1ccc2c(c1)OCO2)C(=O)N1CCn2nc(C(=O)NCCCNC(=O)c3ccc(-c4c5nc(c(-c6c(F)cc(S(=O)(=O)[O-])cc6F)c6ccc([nH]6)c(-c6c(F)cc(S(=O)(=O)[O-])cc6F)c6nc(c(-c7c(F)cc(S(=O)(=O)[O-])cc7F)c7ccc4[nH]7)C=C6)C=C5)cc3)cc2C1
REMARK SMILES IDX 24 1 23 2 21 3 22 4 20 6 15 7 16 8 98 9 17 10 97 11 18 12
REMARK SMILES IDX 96 13 19 14 13 15 14 16 2 17 1 18 3 19 4 20 5 21 9 22 6 23
REMARK SMILES IDX 8 24 7 25 10 26 12 27 11 28 25 29 26 30 27 31 28 32 29 34
REMARK SMILES IDX 30 35 31 36 95 37 32 38 94 39 33 40 34 41 35 42 88 43 36 44
REMARK SMILES IDX 93 45 87 46 89 47 37 48 92 49 86 50 85 51 38 53 72 54 51 55
REMARK SMILES IDX 71 56 52 57 55 58 70 59 90 60 53 61 54 62 69 64 91 65 56 66
REMARK SMILES IDX 39 67 40 68 49 69 41 70 42 71 48 72 50 73 43 74 44 75 45 76
REMARK SMILES IDX 46 77 47 78 73 79 74 80 83 81 75 82 76 83 82 84 84 85 77 86
REMARK SMILES IDX 78 87 79 88 80 89 81 90 57 91 58 92 67 93 59 94 60 95 66 96
REMARK SMILES IDX 68 97 61 98 62 99 63 100 64 101 65 102
REMARK H PARENT 23 5 27 33 89 52 55 63
REMARK Flexibility Score: inf
ROOT
ATOM      1  C   UNL A   1      32.279  29.773  25.831  1.00  0.00     0.118 C 
ENDROOT
BRANCH   1   2
ATOM      2  N   UNL A   1      31.194  30.095  24.921  1.00  0.00    -0.351 N 
ATOM      3  C   UNL A   1      30.551  29.332  23.965  1.00  0.00     0.271 C 
ATOM      4  O   UNL A   1      29.549  29.831  23.449  1.00  0.00    -0.267 OA
ATOM      5  H   UNL A   1      30.857  31.017  24.999  1.00  0.00     0.163 HD
BRANCH   3   6
ATOM      6  C   UNL A   1      31.035  27.977  23.625  1.00  0.00     0.150 A 
ATOM      7  N   UNL A   1      32.274  23.641  22.789  1.00  0.00    -0.332 N 
ATOM      8  C   UNL A   1      33.162  24.381  21.874  1.00  0.00     0.143 C 
ATOM      9  C   UNL A   1      31.194  24.308  23.488  1.00  0.00     0.175 C 
ATOM     10  C   UNL A   1      32.788  25.813  21.490  1.00  0.00     0.166 C 
ATOM     11  C   UNL A   1      31.318  25.769  23.465  1.00  0.00     0.059 A 
ATOM     12  N   UNL A   1      31.988  26.440  22.504  1.00  0.00    -0.265 N 
ATOM     13  C   UNL A   1      30.824  26.741  24.295  1.00  0.00     0.061 A 
ATOM     14  N   UNL A   1      31.787  27.762  22.523  1.00  0.00    -0.167 NA
BRANCH   7  15
ATOM     15  C   UNL A   1      32.409  22.289  23.111  1.00  0.00     0.263 C 
ATOM     16  O   UNL A   1      32.025  21.408  22.333  1.00  0.00    -0.271 OA
BRANCH  15  17
ATOM     17  C   UNL A   1      32.973  21.892  24.484  1.00  0.00     0.259 C 
ATOM     18  C   UNL A   1      31.983  21.059  25.287  1.00  0.00     0.064 C 
BRANCH  17  19
ATOM     19  O   UNL A   1      34.208  21.220  24.197  1.00  0.00    -0.481 OA
BRANCH  19  20
ATOM     20  C   UNL A   1      35.323  21.875  24.631  1.00  0.00     0.124 A 
ATOM     21  C   UNL A   1      35.219  23.222  25.012  1.00  0.00     0.050 A 
ATOM     22  C   UNL A   1      36.493  21.149  24.860  1.00  0.00     0.097 A 
ATOM     23  C   UNL A   1      36.306  23.882  25.581  1.00  0.00     0.054 A 
ATOM     24  C   UNL A   1      37.548  21.824  25.441  1.00  0.00     0.169 A 
ATOM     25  C   UNL A   1      37.456  23.154  25.786  1.00  0.00     0.166 A 
ATOM     26  O   UNL A   1      38.758  21.293  25.768  1.00  0.00    -0.453 OA
ATOM     27  O   UNL A   1      38.592  23.625  26.363  1.00  0.00    -0.454 OA
ATOM     28  C   UNL A   1      39.396  22.429  26.390  1.00  0.00     0.468 C 
ENDBRANCH  19  20
ENDBRANCH  17  19
ENDBRANCH  15  17
ENDBRANCH   7  15
ENDBRANCH   3   6
ENDBRANCH   1   2
BRANCH   1  29
ATOM     29  C   UNL A   1      32.478  30.836  26.921  1.00  0.00     0.042 C 
BRANCH  29  30
ATOM     30  C   UNL A   1      33.893  30.849  27.466  1.00  0.00     0.118 C 
BRANCH  30  31
ATOM     31  N   UNL A   1      34.446  32.204  27.560  1.00  0.00    -0.352 N 
ATOM     32  C   UNL A   1      35.581  32.635  28.231  1.00  0.00     0.251 C 
ATOM     33  H   UNL A   1      33.943  32.903  27.082  1.00  0.00     0.163 HD
ATOM     34  O   UNL A   1      35.714  33.808  28.534  1.00  0.00    -0.269 OA
BRANCH  32  35
ATOM     35  C   UNL A   1      36.611  31.636  28.573  1.00  0.00     0.039 A 
ATOM     36  C   UNL A   1      36.686  30.394  27.941  1.00  0.00     0.014 A 
ATOM     37  C   UNL A   1      37.564  32.008  29.513  1.00  0.00     0.014 A 
ATOM     38  C   UNL A   1      37.787  29.583  28.211  1.00  0.00     0.010 A 
ATOM     39  C   UNL A   1      38.755  31.343  29.561  1.00  0.00     0.010 A 
ATOM     40  C   UNL A   1      38.841  30.083  29.000  1.00  0.00    -0.014 A 
BRANCH  40  41
ATOM     41  C   UNL A   1      40.088  29.349  29.174  1.00  0.00     0.031 A 
ATOM     42  C   UNL A   1      40.429  29.101  30.595  1.00  0.00     0.074 A 
ATOM     43  C   UNL A   1      40.798  28.795  28.164  1.00  0.00     0.049 A 
ATOM     44  N   UNL A   1      41.295  29.746  31.300  1.00  0.00    -0.248 NA
ATOM     45  C   UNL A   1      39.577  28.195  31.382  1.00  0.00     0.031 C 
ATOM     46  C   UNL A   1      40.462  28.687  26.737  1.00  0.00     0.029 A 
ATOM     47  N   UNL A   1      41.985  28.133  28.228  1.00  0.00    -0.354 N 
ATOM     48  C   UNL A   1      41.290  29.141  32.549  1.00  0.00     0.074 A 
ATOM     49  C   UNL A   1      40.079  28.366  32.608  1.00  0.00     0.031 C 
ATOM     50  C   UNL A   1      41.298  27.815  26.131  1.00  0.00     0.029 A 
ATOM     51  C   UNL A   1      42.341  27.448  27.068  1.00  0.00     0.049 A 
ATOM     52  H   UNL A   1      42.549  28.138  29.034  1.00  0.00     0.167 HD
ATOM     53  C   UNL A   1      42.419  29.125  33.311  1.00  0.00     0.037 A 
ATOM     54  C   UNL A   1      43.428  26.650  26.892  1.00  0.00     0.037 A 
ATOM     55  C   UNL A   1      43.385  30.081  32.817  1.00  0.00     0.049 A 
ATOM     56  C   UNL A   1      44.418  27.055  27.925  1.00  0.00     0.074 A 
ATOM     57  C   UNL A   1      43.368  31.447  32.601  1.00  0.00     0.029 A 
ATOM     58  N   UNL A   1      44.428  29.598  32.059  1.00  0.00    -0.354 N 
ATOM     59  N   UNL A   1      45.003  28.223  27.944  1.00  0.00    -0.248 NA
ATOM     60  C   UNL A   1      44.374  26.358  29.201  1.00  0.00     0.031 C 
ATOM     61  C   UNL A   1      44.055  31.633  31.365  1.00  0.00     0.029 A 
ATOM     62  C   UNL A   1      44.533  30.391  30.942  1.00  0.00     0.049 A 
ATOM     63  H   UNL A   1      44.995  28.826  32.277  1.00  0.00     0.167 HD
ATOM     64  C   UNL A   1      44.999  28.598  29.280  1.00  0.00     0.074 A 
ATOM     65  C   UNL A   1      44.663  27.378  30.015  1.00  0.00     0.031 C 
ATOM     66  C   UNL A   1      44.981  29.914  29.650  1.00  0.00     0.037 A 
BRANCH  53  67
ATOM     67  C   UNL A   1      42.804  27.994  34.235  1.00  0.00     0.058 A 
ATOM     68  C   UNL A   1      42.912  28.250  35.617  1.00  0.00     0.135 A 
ATOM     69  C   UNL A   1      43.337  26.760  33.801  1.00  0.00     0.135 A 
ATOM     70  F   UNL A   1      42.445  29.394  36.140  1.00  0.00    -0.206 F 
ATOM     71  C   UNL A   1      43.569  27.380  36.488  1.00  0.00     0.059 A 
ATOM     72  C   UNL A   1      43.947  25.855  34.661  1.00  0.00     0.059 A 
ATOM     73  F   UNL A   1      43.382  26.407  32.512  1.00  0.00    -0.206 F 
ATOM     74  C   UNL A   1      44.094  26.190  35.995  1.00  0.00     0.060 A 
BRANCH  74  75
ATOM     75  S   UNL A   1      45.016  25.107  37.098  1.00  0.00     0.124 S 
ATOM     76  O   UNL A   1      44.261  25.245  38.338  1.00  0.00    -0.237 OA
ATOM     77  O   UNL A   1      44.903  23.821  36.417  1.00  0.00    -0.237 OA
ATOM     78  O   UNL A   1      46.353  25.692  37.101  1.00  0.00    -0.744 OA
ENDBRANCH  74  75
ENDBRANCH  53  67
BRANCH  54  79
ATOM     79  C   UNL A   1      43.515  25.354  26.160  1.00  0.00     0.058 A 
ATOM     80  C   UNL A   1      44.515  25.126  25.194  1.00  0.00     0.135 A 
ATOM     81  C   UNL A   1      42.816  24.214  26.603  1.00  0.00     0.135 A 
ATOM     82  F   UNL A   1      45.243  26.150  24.724  1.00  0.00    -0.206 F 
ATOM     83  C   UNL A   1      44.845  23.840  24.745  1.00  0.00     0.059 A 
ATOM     84  C   UNL A   1      43.124  22.924  26.166  1.00  0.00     0.059 A 
ATOM     85  F   UNL A   1      41.873  24.309  27.552  1.00  0.00    -0.206 F 
ATOM     86  C   UNL A   1      44.158  22.739  25.257  1.00  0.00     0.060 A 
BRANCH  86  87
ATOM     87  S   UNL A   1      44.704  21.067  24.828  1.00  0.00     0.124 S 
ATOM     88  O   UNL A   1      45.986  20.979  25.518  1.00  0.00    -0.237 OA
ATOM     89  O   UNL A   1      43.631  20.241  25.371  1.00  0.00    -0.237 OA
ATOM     90  O   UNL A   1      44.781  21.098  23.369  1.00  0.00    -0.744 OA
ENDBRANCH  86  87
ENDBRANCH  54  79
BRANCH  66  91
ATOM     91  C   UNL A   1      45.260  30.963  28.599  1.00  0.00     0.058 A 
ATOM     92  C   UNL A   1      44.296  31.531  27.745  1.00  0.00     0.135 A 
ATOM     93  C   UNL A   1      46.545  31.527  28.564  1.00  0.00     0.135 A 
ATOM     94  F   UNL A   1      43.019  31.125  27.778  1.00  0.00    -0.206 F 
ATOM     95  C   UNL A   1      44.605  32.581  26.874  1.00  0.00     0.059 A 
ATOM     96  C   UNL A   1      46.868  32.593  27.730  1.00  0.00     0.059 A 
ATOM     97  F   UNL A   1      47.500  31.072  29.392  1.00  0.00    -0.206 F 
ATOM     98  C   UNL A   1      45.896  33.107  26.875  1.00  0.00     0.060 A 
BRANCH  98  99
ATOM     99  S   UNL A   1      46.287  34.505  25.799  1.00  0.00     0.124 S 
ATOM    100  O   UNL A   1      47.705  34.297  25.527  1.00  0.00    -0.237 OA
ATOM    101  O   UNL A   1      45.388  34.297  24.668  1.00  0.00    -0.237 OA
ATOM    102  O   UNL A   1      45.976  35.669  26.624  1.00  0.00    -0.744 OA
ENDBRANCH  98  99
ENDBRANCH  66  91
ENDBRANCH  40  41
ENDBRANCH  32  35
ENDBRANCH  30  31
ENDBRANCH  29  30
ENDBRANCH   1  29
TORSDOF 17
ENDMDL
