MODEL 1
REMARK VINA RESULT:     -12.2      0.000      0.000
REMARK SMILES O=C(CC1CC[NH+](C[C@H]2COc3ccccc3O2)CC1)NCCCNC(=O)c1ccc(-c2c3nc(c(-c4c(F)cc(S(=O)(=O)[O-])cc4F)c4ccc([nH]4)c(-c4c(F)cc(S(=O)(=O)[O-])cc4F)c4nc(c(-c5c(F)cc(S(=O)(=O)[O-])cc5F)c5ccc2[nH]5)C=C4)C=C3)cc1
REMARK SMILES IDX 23 1 22 2 21 3 1 4 2 5 3 7 4 8 5 9 20 10 6 11 19 12 7 13
REMARK SMILES IDX 8 15 9 16 10 17 18 18 11 19 17 20 12 21 16 22 13 23 15 24
REMARK SMILES IDX 14 25 24 26 25 27 26 28 27 30 28 31 29 32 93 33 30 34 92 35
REMARK SMILES IDX 31 36 32 37 33 38 86 39 34 40 91 41 85 42 87 43 35 44 90 45
REMARK SMILES IDX 84 46 83 47 36 49 70 50 49 51 69 52 50 53 53 54 68 55 88 56
REMARK SMILES IDX 51 57 52 58 67 60 89 61 54 62 37 63 38 64 47 65 39 66 40 67
REMARK SMILES IDX 46 68 48 69 41 70 42 71 43 72 44 73 45 74 71 75 72 76 81 77
REMARK SMILES IDX 73 78 74 79 80 80 82 81 75 82 76 83 77 84 78 85 79 86 55 87
REMARK SMILES IDX 56 88 65 89 57 90 58 91 64 92 66 93 59 94 60 95 61 96 62 97
REMARK SMILES IDX 63 98
REMARK H PARENT 21 6 7 14 25 29 87 48 53 59
REMARK Flexibility Score: inf
ROOT
ATOM      1  C   UNL A   1      35.453  32.292  27.932  1.00  0.00     0.042 C 
ENDROOT
BRANCH   1   2
ATOM      2  C   UNL A   1      34.244  31.362  27.911  1.00  0.00     0.117 C 
BRANCH   2   3
ATOM      3  N   UNL A   1      34.273  30.440  26.793  1.00  0.00    -0.356 N 
ATOM      4  O   UNL A   1      32.460  29.180  27.420  1.00  0.00    -0.275 OA
ATOM      5  C   UNL A   1      33.355  29.432  26.620  1.00  0.00     0.220 C 
ATOM      6  H   UNL A   1      34.987  30.540  26.123  1.00  0.00     0.163 HD
BRANCH   5   7
ATOM      7  C   UNL A   1      33.560  28.596  25.366  1.00  0.00     0.104 C 
BRANCH   7   8
ATOM      8  C   UNL A   1      32.866  29.176  24.110  1.00  0.00     0.009 C 
ATOM      9  C   UNL A   1      31.493  28.535  23.859  1.00  0.00     0.066 C 
ATOM     10  C   UNL A   1      33.668  28.980  22.816  1.00  0.00     0.066 C 
ATOM     11  C   UNL A   1      31.595  27.061  23.457  1.00  0.00     0.262 C 
ATOM     12  C   UNL A   1      33.843  27.502  22.467  1.00  0.00     0.262 C 
ATOM     13  N   UNL A   1      32.583  26.767  22.420  1.00  0.00    -0.332 N 
ATOM     14  H   UNL A   1      32.116  27.160  21.604  1.00  0.00     0.348 HD
BRANCH  13  15
ATOM     15  C   UNL A   1      32.780  25.326  22.154  1.00  0.00     0.311 C 
BRANCH  15  16
ATOM     16  C   UNL A   1      33.356  24.383  23.253  1.00  0.00     0.265 C 
ATOM     17  C   UNL A   1      32.501  23.138  23.480  1.00  0.00     0.281 C 
ATOM     18  O   UNL A   1      34.684  24.008  22.826  1.00  0.00    -0.477 OA
ATOM     19  O   UNL A   1      33.051  22.233  24.435  1.00  0.00    -0.486 OA
ATOM     20  C   UNL A   1      35.193  22.968  23.556  1.00  0.00     0.162 A 
ATOM     21  C   UNL A   1      34.403  22.105  24.315  1.00  0.00     0.161 A 
ATOM     22  C   UNL A   1      36.573  22.777  23.508  1.00  0.00     0.050 A 
ATOM     23  C   UNL A   1      34.983  21.052  25.020  1.00  0.00     0.050 A 
ATOM     24  C   UNL A   1      37.158  21.726  24.221  1.00  0.00     0.004 A 
ATOM     25  C   UNL A   1      36.363  20.860  24.972  1.00  0.00     0.004 A 
ENDBRANCH  15  16
ENDBRANCH  13  15
ENDBRANCH   7   8
ENDBRANCH   5   7
ENDBRANCH   2   3
ENDBRANCH   1   2
BRANCH   1  26
ATOM     26  C   UNL A   1      36.033  32.575  29.316  1.00  0.00     0.118 C 
BRANCH  26  27
ATOM     27  N   UNL A   1      35.744  31.535  30.293  1.00  0.00    -0.352 N 
ATOM     28  C   UNL A   1      36.499  30.454  30.689  1.00  0.00     0.251 C 
ATOM     29  H   UNL A   1      34.871  31.617  30.739  1.00  0.00     0.163 HD
ATOM     30  O   UNL A   1      36.009  29.621  31.443  1.00  0.00    -0.269 OA
BRANCH  28  31
ATOM     31  C   UNL A   1      37.882  30.273  30.186  1.00  0.00     0.039 A 
ATOM     32  C   UNL A   1      38.946  30.462  31.072  1.00  0.00     0.014 A 
ATOM     33  C   UNL A   1      38.135  29.922  28.858  1.00  0.00     0.014 A 
ATOM     34  C   UNL A   1      40.255  30.208  30.652  1.00  0.00     0.010 A 
ATOM     35  C   UNL A   1      39.434  29.605  28.459  1.00  0.00     0.010 A 
ATOM     36  C   UNL A   1      40.506  29.727  29.357  1.00  0.00    -0.014 A 
BRANCH  36  37
ATOM     37  C   UNL A   1      41.869  29.298  28.942  1.00  0.00     0.031 A 
ATOM     38  C   UNL A   1      42.992  30.295  28.844  1.00  0.00     0.074 A 
ATOM     39  C   UNL A   1      42.077  28.015  28.579  1.00  0.00     0.049 A 
ATOM     40  N   UNL A   1      44.216  30.120  28.415  1.00  0.00    -0.248 NA
ATOM     41  C   UNL A   1      42.694  31.674  29.260  1.00  0.00     0.031 C 
ATOM     42  C   UNL A   1      41.062  26.959  28.592  1.00  0.00     0.029 A 
ATOM     43  N   UNL A   1      43.203  27.383  28.113  1.00  0.00    -0.354 N 
ATOM     44  C   UNL A   1      44.832  31.363  28.500  1.00  0.00     0.074 A 
ATOM     45  C   UNL A   1      43.831  32.294  28.978  1.00  0.00     0.031 C 
ATOM     46  C   UNL A   1      41.614  25.811  28.170  1.00  0.00     0.029 A 
ATOM     47  C   UNL A   1      43.008  26.056  27.811  1.00  0.00     0.049 A 
ATOM     48  H   UNL A   1      44.070  27.838  28.005  1.00  0.00     0.167 HD
ATOM     49  C   UNL A   1      46.117  31.694  28.224  1.00  0.00     0.037 A 
ATOM     50  C   UNL A   1      43.847  25.140  27.286  1.00  0.00     0.037 A 
ATOM     51  C   UNL A   1      47.111  30.759  27.760  1.00  0.00     0.049 A 
ATOM     52  C   UNL A   1      45.259  25.540  26.959  1.00  0.00     0.074 A 
ATOM     53  C   UNL A   1      48.453  30.989  27.506  1.00  0.00     0.029 A 
ATOM     54  N   UNL A   1      46.875  29.424  27.470  1.00  0.00    -0.354 N 
ATOM     55  N   UNL A   1      45.842  26.705  27.108  1.00  0.00    -0.248 NA
ATOM     56  C   UNL A   1      46.130  24.501  26.392  1.00  0.00     0.031 C 
ATOM     57  C   UNL A   1      49.015  29.807  27.012  1.00  0.00     0.029 A 
ATOM     58  C   UNL A   1      48.038  28.824  27.010  1.00  0.00     0.049 A 
ATOM     59  H   UNL A   1      46.009  28.967  27.575  1.00  0.00     0.167 HD
ATOM     60  C   UNL A   1      47.152  26.533  26.675  1.00  0.00     0.074 A 
ATOM     61  C   UNL A   1      47.282  25.147  26.275  1.00  0.00     0.031 C 
ATOM     62  C   UNL A   1      48.157  27.443  26.614  1.00  0.00     0.037 A 
BRANCH  49  63
ATOM     63  C   UNL A   1      46.524  33.130  28.411  1.00  0.00     0.058 A 
ATOM     64  C   UNL A   1      46.426  34.068  27.370  1.00  0.00     0.135 A 
ATOM     65  C   UNL A   1      46.975  33.588  29.660  1.00  0.00     0.135 A 
ATOM     66  F   UNL A   1      46.011  33.684  26.153  1.00  0.00    -0.206 F 
ATOM     67  C   UNL A   1      46.788  35.398  27.552  1.00  0.00     0.059 A 
ATOM     68  C   UNL A   1      47.316  34.921  29.873  1.00  0.00     0.059 A 
ATOM     69  F   UNL A   1      47.088  32.736  30.692  1.00  0.00    -0.206 F 
ATOM     70  C   UNL A   1      47.232  35.816  28.808  1.00  0.00     0.060 A 
BRANCH  70  71
ATOM     71  S   UNL A   1      47.695  37.547  29.025  1.00  0.00     0.124 S 
ATOM     72  O   UNL A   1      46.732  37.980  30.033  1.00  0.00    -0.237 OA
ATOM     73  O   UNL A   1      49.080  37.446  29.474  1.00  0.00    -0.237 OA
ATOM     74  O   UNL A   1      47.510  38.119  27.695  1.00  0.00    -0.744 OA
ENDBRANCH  70  71
ENDBRANCH  49  63
BRANCH  50  75
ATOM     75  C   UNL A   1      43.371  23.751  27.040  1.00  0.00     0.058 A 
ATOM     76  C   UNL A   1      43.315  22.812  28.081  1.00  0.00     0.135 A 
ATOM     77  C   UNL A   1      42.957  23.337  25.764  1.00  0.00     0.135 A 
ATOM     78  F   UNL A   1      43.709  23.156  29.316  1.00  0.00    -0.206 F 
ATOM     79  C   UNL A   1      42.880  21.509  27.864  1.00  0.00     0.059 A 
ATOM     80  C   UNL A   1      42.491  22.048  25.528  1.00  0.00     0.059 A 
ATOM     81  F   UNL A   1      42.977  24.201  24.737  1.00  0.00    -0.206 F 
ATOM     82  C   UNL A   1      42.466  21.137  26.584  1.00  0.00     0.060 A 
BRANCH  82  83
ATOM     83  S   UNL A   1      41.858  19.456  26.325  1.00  0.00     0.124 S 
ATOM     84  O   UNL A   1      40.422  19.679  26.208  1.00  0.00    -0.237 OA
ATOM     85  O   UNL A   1      42.547  19.068  25.099  1.00  0.00    -0.237 OA
ATOM     86  O   UNL A   1      42.292  18.753  27.528  1.00  0.00    -0.744 OA
ENDBRANCH  82  83
ENDBRANCH  50  75
BRANCH  62  87
ATOM     87  C   UNL A   1      49.496  26.966  26.116  1.00  0.00     0.058 A 
ATOM     88  C   UNL A   1      49.863  27.080  24.767  1.00  0.00     0.135 A 
ATOM     89  C   UNL A   1      50.440  26.436  27.010  1.00  0.00     0.135 A 
ATOM     90  F   UNL A   1      48.996  27.571  23.867  1.00  0.00    -0.206 F 
ATOM     91  C   UNL A   1      51.113  26.665  24.317  1.00  0.00     0.059 A 
ATOM     92  C   UNL A   1      51.707  26.042  26.588  1.00  0.00     0.059 A 
ATOM     93  F   UNL A   1      50.143  26.313  28.313  1.00  0.00    -0.206 F 
ATOM     94  C   UNL A   1      52.030  26.151  25.236  1.00  0.00     0.060 A 
BRANCH  94  95
ATOM     95  S   UNL A   1      53.661  25.652  24.644  1.00  0.00     0.124 S 
ATOM     96  O   UNL A   1      54.540  26.383  25.550  1.00  0.00    -0.237 OA
ATOM     97  O   UNL A   1      53.628  24.204  24.823  1.00  0.00    -0.237 OA
ATOM     98  O   UNL A   1      53.674  26.107  23.256  1.00  0.00    -0.744 OA
ENDBRANCH  94  95
ENDBRANCH  62  87
ENDBRANCH  36  37
ENDBRANCH  28  31
ENDBRANCH  26  27
ENDBRANCH   1  26
TORSDOF 16
ENDMDL
MODEL 2
REMARK VINA RESULT:     -12.1      6.525     12.085
REMARK SMILES O=C(CC1CC[NH+](C[C@H]2COc3ccccc3O2)CC1)NCCCNC(=O)c1ccc(-c2c3nc(c(-c4c(F)cc(S(=O)(=O)[O-])cc4F)c4ccc([nH]4)c(-c4c(F)cc(S(=O)(=O)[O-])cc4F)c4nc(c(-c5c(F)cc(S(=O)(=O)[O-])cc5F)c5ccc2[nH]5)C=C4)C=C3)cc1
REMARK SMILES IDX 23 1 22 2 21 3 1 4 2 5 3 7 4 8 5 9 20 10 6 11 19 12 7 13
REMARK SMILES IDX 8 15 9 16 10 17 18 18 11 19 17 20 12 21 16 22 13 23 15 24
REMARK SMILES IDX 14 25 24 26 25 27 26 28 27 30 28 31 29 32 93 33 30 34 92 35
REMARK SMILES IDX 31 36 32 37 33 38 86 39 34 40 91 41 85 42 87 43 35 44 90 45
REMARK SMILES IDX 84 46 83 47 36 49 70 50 49 51 69 52 50 53 53 54 68 55 88 56
REMARK SMILES IDX 51 57 52 58 67 60 89 61 54 62 37 63 38 64 47 65 39 66 40 67
REMARK SMILES IDX 46 68 48 69 41 70 42 71 43 72 44 73 45 74 71 75 72 76 81 77
REMARK SMILES IDX 73 78 74 79 80 80 82 81 75 82 76 83 77 84 78 85 79 86 55 87
REMARK SMILES IDX 56 88 65 89 57 90 58 91 64 92 66 93 59 94 60 95 61 96 62 97
REMARK SMILES IDX 63 98
REMARK H PARENT 21 6 7 14 25 29 87 48 53 59
REMARK Flexibility Score: inf
ROOT
ATOM      1  C   UNL A   1      39.672  22.289  26.852  1.00  0.00     0.042 C 
ENDROOT
BRANCH   1   2
ATOM      2  C   UNL A   1      38.498  23.188  26.477  1.00  0.00     0.117 C 
BRANCH   2   3
ATOM      3  N   UNL A   1      37.392  22.444  25.907  1.00  0.00    -0.356 N 
ATOM      4  O   UNL A   1      35.969  24.223  25.630  1.00  0.00    -0.275 OA
ATOM      5  C   UNL A   1      36.217  23.030  25.499  1.00  0.00     0.220 C 
ATOM      6  H   UNL A   1      37.487  21.469  25.805  1.00  0.00     0.163 HD
BRANCH   5   7
ATOM      7  C   UNL A   1      35.200  22.065  24.908  1.00  0.00     0.104 C 
BRANCH   7   8
ATOM      8  C   UNL A   1      34.605  21.078  25.940  1.00  0.00     0.009 C 
ATOM      9  C   UNL A   1      33.272  20.479  25.466  1.00  0.00     0.066 C 
ATOM     10  C   UNL A   1      34.321  21.712  27.309  1.00  0.00     0.066 C 
ATOM     11  C   UNL A   1      32.148  21.517  25.403  1.00  0.00     0.262 C 
ATOM     12  C   UNL A   1      33.261  22.811  27.225  1.00  0.00     0.262 C 
ATOM     13  N   UNL A   1      32.025  22.373  26.583  1.00  0.00    -0.332 N 
ATOM     14  H   UNL A   1      31.639  21.708  27.253  1.00  0.00     0.348 HD
BRANCH  13  15
ATOM     15  C   UNL A   1      31.042  23.468  26.445  1.00  0.00     0.311 C 
BRANCH  15  16
ATOM     16  C   UNL A   1      31.461  24.845  25.847  1.00  0.00     0.265 C 
ATOM     17  C   UNL A   1      30.584  25.279  24.674  1.00  0.00     0.281 C 
ATOM     18  O   UNL A   1      31.374  25.808  26.920  1.00  0.00    -0.477 OA
ATOM     19  O   UNL A   1      30.913  26.568  24.161  1.00  0.00    -0.486 OA
ATOM     20  C   UNL A   1      31.446  27.099  26.471  1.00  0.00     0.162 A 
ATOM     21  C   UNL A   1      31.205  27.464  25.146  1.00  0.00     0.161 A 
ATOM     22  C   UNL A   1      31.761  28.080  27.409  1.00  0.00     0.050 A 
ATOM     23  C   UNL A   1      31.274  28.800  24.757  1.00  0.00     0.050 A 
ATOM     24  C   UNL A   1      31.839  29.421  27.019  1.00  0.00     0.004 A 
ATOM     25  C   UNL A   1      31.590  29.781  25.695  1.00  0.00     0.004 A 
ENDBRANCH  15  16
ENDBRANCH  13  15
ENDBRANCH   7   8
ENDBRANCH   5   7
ENDBRANCH   2   3
ENDBRANCH   1   2
BRANCH   1  26
ATOM     26  C   UNL A   1      40.995  23.015  27.094  1.00  0.00     0.118 C 
BRANCH  26  27
ATOM     27  N   UNL A   1      41.368  23.920  26.017  1.00  0.00    -0.352 N 
ATOM     28  C   UNL A   1      41.545  25.286  26.024  1.00  0.00     0.251 C 
ATOM     29  H   UNL A   1      41.517  23.488  25.145  1.00  0.00     0.163 HD
ATOM     30  O   UNL A   1      41.739  25.874  24.967  1.00  0.00    -0.269 OA
BRANCH  28  31
ATOM     31  C   UNL A   1      41.469  26.050  27.292  1.00  0.00     0.039 A 
ATOM     32  C   UNL A   1      42.574  26.812  27.681  1.00  0.00     0.014 A 
ATOM     33  C   UNL A   1      40.327  26.019  28.095  1.00  0.00     0.014 A 
ATOM     34  C   UNL A   1      42.498  27.616  28.822  1.00  0.00     0.010 A 
ATOM     35  C   UNL A   1      40.228  26.872  29.195  1.00  0.00     0.010 A 
ATOM     36  C   UNL A   1      41.306  27.693  29.560  1.00  0.00    -0.014 A 
BRANCH  36  37
ATOM     37  C   UNL A   1      41.151  28.662  30.680  1.00  0.00     0.031 A 
ATOM     38  C   UNL A   1      42.009  28.556  31.911  1.00  0.00     0.074 A 
ATOM     39  C   UNL A   1      40.179  29.595  30.617  1.00  0.00     0.049 A 
ATOM     40  N   UNL A   1      41.953  29.251  33.018  1.00  0.00    -0.248 NA
ATOM     41  C   UNL A   1      43.050  27.517  31.908  1.00  0.00     0.031 C 
ATOM     42  C   UNL A   1      39.255  29.779  29.495  1.00  0.00     0.029 A 
ATOM     43  N   UNL A   1      39.794  30.556  31.520  1.00  0.00    -0.354 N 
ATOM     44  C   UNL A   1      42.942  28.733  33.846  1.00  0.00     0.074 A 
ATOM     45  C   UNL A   1      43.551  27.632  33.130  1.00  0.00     0.031 C 
ATOM     46  C   UNL A   1      38.423  30.795  29.770  1.00  0.00     0.029 A 
ATOM     47  C   UNL A   1      38.720  31.307  31.104  1.00  0.00     0.049 A 
ATOM     48  H   UNL A   1      40.245  30.693  32.385  1.00  0.00     0.167 HD
ATOM     49  C   UNL A   1      43.319  29.147  35.080  1.00  0.00     0.037 A 
ATOM     50  C   UNL A   1      38.036  32.286  31.730  1.00  0.00     0.037 A 
ATOM     51  C   UNL A   1      42.715  30.252  35.782  1.00  0.00     0.049 A 
ATOM     52  C   UNL A   1      38.454  32.707  33.112  1.00  0.00     0.074 A 
ATOM     53  C   UNL A   1      43.066  30.781  37.013  1.00  0.00     0.029 A 
ATOM     54  N   UNL A   1      41.633  30.990  35.326  1.00  0.00    -0.354 N 
ATOM     55  N   UNL A   1      39.434  32.248  33.853  1.00  0.00    -0.248 NA
ATOM     56  C   UNL A   1      37.675  33.780  33.745  1.00  0.00     0.031 C 
ATOM     57  C   UNL A   1      42.163  31.803  37.324  1.00  0.00     0.029 A 
ATOM     58  C   UNL A   1      41.283  31.950  36.264  1.00  0.00     0.049 A 
ATOM     59  H   UNL A   1      41.180  30.853  34.463  1.00  0.00     0.167 HD
ATOM     60  C   UNL A   1      39.403  32.990  35.028  1.00  0.00     0.074 A 
ATOM     61  C   UNL A   1      38.319  33.941  34.893  1.00  0.00     0.031 C 
ATOM     62  C   UNL A   1      40.201  32.891  36.121  1.00  0.00     0.037 A 
BRANCH  49  63
ATOM     63  C   UNL A   1      44.436  28.400  35.757  1.00  0.00     0.058 A 
ATOM     64  C   UNL A   1      45.782  28.751  35.564  1.00  0.00     0.135 A 
ATOM     65  C   UNL A   1      44.157  27.350  36.648  1.00  0.00     0.135 A 
ATOM     66  F   UNL A   1      46.108  29.739  34.717  1.00  0.00    -0.206 F 
ATOM     67  C   UNL A   1      46.811  28.069  36.205  1.00  0.00     0.059 A 
ATOM     68  C   UNL A   1      45.169  26.672  37.322  1.00  0.00     0.059 A 
ATOM     69  F   UNL A   1      42.888  26.973  36.871  1.00  0.00    -0.206 F 
ATOM     70  C   UNL A   1      46.495  27.030  37.082  1.00  0.00     0.060 A 
BRANCH  70  71
ATOM     71  S   UNL A   1      47.844  26.158  37.906  1.00  0.00     0.124 S 
ATOM     72  O   UNL A   1      47.483  26.327  39.311  1.00  0.00    -0.237 OA
ATOM     73  O   UNL A   1      47.710  24.805  37.377  1.00  0.00    -0.237 OA
ATOM     74  O   UNL A   1      49.034  26.883  37.472  1.00  0.00    -0.744 OA
ENDBRANCH  70  71
ENDBRANCH  49  63
BRANCH  50  75
ATOM     75  C   UNL A   1      36.883  32.937  31.051  1.00  0.00     0.058 A 
ATOM     76  C   UNL A   1      37.083  33.921  30.071  1.00  0.00     0.135 A 
ATOM     77  C   UNL A   1      35.559  32.585  31.361  1.00  0.00     0.135 A 
ATOM     78  F   UNL A   1      38.329  34.299  29.746  1.00  0.00    -0.206 F 
ATOM     79  C   UNL A   1      36.016  34.544  29.434  1.00  0.00     0.059 A 
ATOM     80  C   UNL A   1      34.476  33.173  30.718  1.00  0.00     0.059 A 
ATOM     81  F   UNL A   1      35.313  31.640  32.280  1.00  0.00    -0.206 F 
ATOM     82  C   UNL A   1      34.714  34.160  29.762  1.00  0.00     0.060 A 
BRANCH  82  83
ATOM     83  S   UNL A   1      33.337  34.942  28.893  1.00  0.00     0.124 S 
ATOM     84  O   UNL A   1      32.425  35.236  29.992  1.00  0.00    -0.237 OA
ATOM     85  O   UNL A   1      33.983  36.093  28.272  1.00  0.00    -0.237 OA
ATOM     86  O   UNL A   1      32.894  33.905  27.965  1.00  0.00    -0.744 OA
ENDBRANCH  82  83
ENDBRANCH  50  75
BRANCH  62  87
ATOM     87  C   UNL A   1      39.948  33.851  37.253  1.00  0.00     0.058 A 
ATOM     88  C   UNL A   1      40.526  35.130  37.278  1.00  0.00     0.135 A 
ATOM     89  C   UNL A   1      39.078  33.506  38.299  1.00  0.00     0.135 A 
ATOM     90  F   UNL A   1      41.373  35.509  36.307  1.00  0.00    -0.206 F 
ATOM     91  C   UNL A   1      40.267  36.024  38.312  1.00  0.00     0.059 A 
ATOM     92  C   UNL A   1      38.780  34.395  39.328  1.00  0.00     0.059 A 
ATOM     93  F   UNL A   1      38.491  32.298  38.321  1.00  0.00    -0.206 F 
ATOM     94  C   UNL A   1      39.389  35.650  39.330  1.00  0.00     0.060 A 
BRANCH  94  95
ATOM     95  S   UNL A   1      39.032  36.835  40.644  1.00  0.00     0.124 S 
ATOM     96  O   UNL A   1      38.278  36.015  41.585  1.00  0.00    -0.237 OA
ATOM     97  O   UNL A   1      40.368  37.231  41.078  1.00  0.00    -0.237 OA
ATOM     98  O   UNL A   1      38.266  37.877  39.965  1.00  0.00    -0.744 OA
ENDBRANCH  94  95
ENDBRANCH  62  87
ENDBRANCH  36  37
ENDBRANCH  28  31
ENDBRANCH  26  27
ENDBRANCH   1  26
TORSDOF 16
ENDMDL
MODEL 3
REMARK VINA RESULT:     -12.1      6.477     12.143
REMARK SMILES O=C(CC1CC[NH+](C[C@H]2COc3ccccc3O2)CC1)NCCCNC(=O)c1ccc(-c2c3nc(c(-c4c(F)cc(S(=O)(=O)[O-])cc4F)c4ccc([nH]4)c(-c4c(F)cc(S(=O)(=O)[O-])cc4F)c4nc(c(-c5c(F)cc(S(=O)(=O)[O-])cc5F)c5ccc2[nH]5)C=C4)C=C3)cc1
REMARK SMILES IDX 23 1 22 2 21 3 1 4 2 5 3 7 4 8 5 9 20 10 6 11 19 12 7 13
REMARK SMILES IDX 8 15 9 16 10 17 18 18 11 19 17 20 12 21 16 22 13 23 15 24
REMARK SMILES IDX 14 25 24 26 25 27 26 28 27 30 28 31 29 32 93 33 30 34 92 35
REMARK SMILES IDX 31 36 32 37 33 38 86 39 34 40 91 41 85 42 87 43 35 44 90 45
REMARK SMILES IDX 84 46 83 47 36 49 70 50 49 51 69 52 50 53 53 54 68 55 88 56
REMARK SMILES IDX 51 57 52 58 67 60 89 61 54 62 37 63 38 64 47 65 39 66 40 67
REMARK SMILES IDX 46 68 48 69 41 70 42 71 43 72 44 73 45 74 71 75 72 76 81 77
REMARK SMILES IDX 73 78 74 79 80 80 82 81 75 82 76 83 77 84 78 85 79 86 55 87
REMARK SMILES IDX 56 88 65 89 57 90 58 91 64 92 66 93 59 94 60 95 61 96 62 97
REMARK SMILES IDX 63 98
REMARK H PARENT 21 6 7 14 25 29 87 48 53 59
REMARK Flexibility Score: inf
ROOT
ATOM      1  C   UNL A   1      40.428  22.234  27.575  1.00  0.00     0.042 C 
ENDROOT
BRANCH   1   2
ATOM      2  C   UNL A   1      39.841  21.437  26.414  1.00  0.00     0.117 C 
BRANCH   2   3
ATOM      3  N   UNL A   1      38.869  22.199  25.656  1.00  0.00    -0.356 N 
ATOM      4  O   UNL A   1      37.648  20.414  24.889  1.00  0.00    -0.275 OA
ATOM      5  C   UNL A   1      37.825  21.624  24.971  1.00  0.00     0.220 C 
ATOM      6  H   UNL A   1      38.960  23.179  25.629  1.00  0.00     0.163 HD
BRANCH   5   7
ATOM      7  C   UNL A   1      36.912  22.612  24.262  1.00  0.00     0.104 C 
BRANCH   7   8
ATOM      8  C   UNL A   1      35.431  22.165  24.209  1.00  0.00     0.009 C 
ATOM      9  C   UNL A   1      34.598  23.033  23.253  1.00  0.00     0.066 C 
ATOM     10  C   UNL A   1      34.719  22.228  25.568  1.00  0.00     0.066 C 
ATOM     11  C   UNL A   1      34.431  24.470  23.755  1.00  0.00     0.262 C 
ATOM     12  C   UNL A   1      34.634  23.657  26.106  1.00  0.00     0.262 C 
ATOM     13  N   UNL A   1      34.042  24.597  25.159  1.00  0.00    -0.332 N 
ATOM     14  H   UNL A   1      33.070  24.293  25.109  1.00  0.00     0.348 HD
BRANCH  13  15
ATOM     15  C   UNL A   1      34.036  25.983  25.670  1.00  0.00     0.311 C 
BRANCH  15  16
ATOM     16  C   UNL A   1      32.854  26.947  25.350  1.00  0.00     0.265 C 
ATOM     17  C   UNL A   1      33.180  27.948  24.243  1.00  0.00     0.281 C 
ATOM     18  O   UNL A   1      31.736  26.118  24.963  1.00  0.00    -0.477 OA
ATOM     19  O   UNL A   1      32.084  28.791  23.894  1.00  0.00    -0.486 OA
ATOM     20  C   UNL A   1      30.723  26.841  24.392  1.00  0.00     0.162 A 
ATOM     21  C   UNL A   1      30.898  28.120  23.862  1.00  0.00     0.161 A 
ATOM     22  C   UNL A   1      29.468  26.238  24.336  1.00  0.00     0.050 A 
ATOM     23  C   UNL A   1      29.829  28.794  23.276  1.00  0.00     0.050 A 
ATOM     24  C   UNL A   1      28.391  26.917  23.756  1.00  0.00     0.004 A 
ATOM     25  C   UNL A   1      28.573  28.192  23.220  1.00  0.00     0.004 A 
ENDBRANCH  15  16
ENDBRANCH  13  15
ENDBRANCH   7   8
ENDBRANCH   5   7
ENDBRANCH   2   3
ENDBRANCH   1   2
BRANCH   1  26
ATOM     26  C   UNL A   1      41.725  22.980  27.263  1.00  0.00     0.118 C 
BRANCH  26  27
ATOM     27  N   UNL A   1      41.614  23.891  26.133  1.00  0.00    -0.352 N 
ATOM     28  C   UNL A   1      41.395  25.251  26.106  1.00  0.00     0.251 C 
ATOM     29  H   UNL A   1      41.711  23.469  25.249  1.00  0.00     0.163 HD
ATOM     30  O   UNL A   1      41.210  25.809  25.031  1.00  0.00    -0.269 OA
BRANCH  28  31
ATOM     31  C   UNL A   1      41.347  26.034  27.364  1.00  0.00     0.039 A 
ATOM     32  C   UNL A   1      42.443  26.836  27.694  1.00  0.00     0.014 A 
ATOM     33  C   UNL A   1      40.241  25.982  28.213  1.00  0.00     0.014 A 
ATOM     34  C   UNL A   1      42.390  27.656  28.824  1.00  0.00     0.010 A 
ATOM     35  C   UNL A   1      40.161  26.851  29.303  1.00  0.00     0.010 A 
ATOM     36  C   UNL A   1      41.228  27.710  29.610  1.00  0.00    -0.014 A 
BRANCH  36  37
ATOM     37  C   UNL A   1      41.089  28.692  30.720  1.00  0.00     0.031 A 
ATOM     38  C   UNL A   1      41.953  28.591  31.947  1.00  0.00     0.074 A 
ATOM     39  C   UNL A   1      40.125  29.634  30.653  1.00  0.00     0.049 A 
ATOM     40  N   UNL A   1      41.911  29.300  33.046  1.00  0.00    -0.248 NA
ATOM     41  C   UNL A   1      42.985  27.543  31.949  1.00  0.00     0.031 C 
ATOM     42  C   UNL A   1      39.195  29.813  29.535  1.00  0.00     0.029 A 
ATOM     43  N   UNL A   1      39.755  30.608  31.547  1.00  0.00    -0.354 N 
ATOM     44  C   UNL A   1      42.900  28.781  33.874  1.00  0.00     0.074 A 
ATOM     45  C   UNL A   1      43.495  27.667  33.166  1.00  0.00     0.031 C 
ATOM     46  C   UNL A   1      38.375  30.840  29.803  1.00  0.00     0.029 A 
ATOM     47  C   UNL A   1      38.685  31.364  31.130  1.00  0.00     0.049 A 
ATOM     48  H   UNL A   1      40.213  30.750  32.408  1.00  0.00     0.167 HD
ATOM     49  C   UNL A   1      43.289  29.205  35.101  1.00  0.00     0.037 A 
ATOM     50  C   UNL A   1      38.014  32.356  31.749  1.00  0.00     0.037 A 
ATOM     51  C   UNL A   1      42.701  30.324  35.794  1.00  0.00     0.049 A 
ATOM     52  C   UNL A   1      38.446  32.789  33.124  1.00  0.00     0.074 A 
ATOM     53  C   UNL A   1      43.065  30.863  37.016  1.00  0.00     0.029 A 
ATOM     54  N   UNL A   1      41.623  31.066  35.337  1.00  0.00    -0.354 N 
ATOM     55  N   UNL A   1      39.426  32.329  33.864  1.00  0.00    -0.248 NA
ATOM     56  C   UNL A   1      37.681  33.876  33.750  1.00  0.00     0.031 C 
ATOM     57  C   UNL A   1      42.173  31.897  37.322  1.00  0.00     0.029 A 
ATOM     58  C   UNL A   1      41.288  32.040  36.267  1.00  0.00     0.049 A 
ATOM     59  H   UNL A   1      41.162  30.924  34.478  1.00  0.00     0.167 HD
ATOM     60  C   UNL A   1      39.409  33.084  35.030  1.00  0.00     0.074 A 
ATOM     61  C   UNL A   1      38.333  34.043  34.892  1.00  0.00     0.031 C 
ATOM     62  C   UNL A   1      40.213  32.990  36.119  1.00  0.00     0.037 A 
BRANCH  49  63
ATOM     63  C   UNL A   1      44.404  28.455  35.779  1.00  0.00     0.058 A 
ATOM     64  C   UNL A   1      45.752  28.796  35.579  1.00  0.00     0.135 A 
ATOM     65  C   UNL A   1      44.121  27.413  36.677  1.00  0.00     0.135 A 
ATOM     66  F   UNL A   1      46.081  29.777  34.724  1.00  0.00    -0.206 F 
ATOM     67  C   UNL A   1      46.778  28.111  36.221  1.00  0.00     0.059 A 
ATOM     68  C   UNL A   1      45.131  26.733  37.352  1.00  0.00     0.059 A 
ATOM     69  F   UNL A   1      42.851  27.045  36.907  1.00  0.00    -0.206 F 
ATOM     70  C   UNL A   1      46.458  27.080  37.106  1.00  0.00     0.060 A 
BRANCH  70  71
ATOM     71  S   UNL A   1      47.804  26.204  37.931  1.00  0.00     0.124 S 
ATOM     72  O   UNL A   1      47.930  26.968  39.169  1.00  0.00    -0.237 OA
ATOM     73  O   UNL A   1      47.261  24.857  38.070  1.00  0.00    -0.237 OA
ATOM     74  O   UNL A   1      48.918  26.335  36.997  1.00  0.00    -0.744 OA
ENDBRANCH  70  71
ENDBRANCH  49  63
BRANCH  50  75
ATOM     75  C   UNL A   1      36.863  33.011  31.071  1.00  0.00     0.058 A 
ATOM     76  C   UNL A   1      35.544  32.739  31.463  1.00  0.00     0.135 A 
ATOM     77  C   UNL A   1      37.057  33.928  30.025  1.00  0.00     0.135 A 
ATOM     78  F   UNL A   1      35.305  31.864  32.451  1.00  0.00    -0.206 F 
ATOM     79  C   UNL A   1      34.458  33.338  30.833  1.00  0.00     0.059 A 
ATOM     80  C   UNL A   1      35.989  34.561  29.399  1.00  0.00     0.059 A 
ATOM     81  F   UNL A   1      38.299  34.235  29.622  1.00  0.00    -0.206 F 
ATOM     82  C   UNL A   1      34.691  34.251  29.804  1.00  0.00     0.060 A 
BRANCH  82  83
ATOM     83  S   UNL A   1      33.275  35.059  29.027  1.00  0.00     0.124 S 
ATOM     84  O   UNL A   1      32.832  34.036  28.087  1.00  0.00    -0.237 OA
ATOM     85  O   UNL A   1      32.398  35.302  30.168  1.00  0.00    -0.237 OA
ATOM     86  O   UNL A   1      33.858  36.256  28.428  1.00  0.00    -0.744 OA
ENDBRANCH  82  83
ENDBRANCH  50  75
BRANCH  62  87
ATOM     87  C   UNL A   1      39.977  33.965  37.242  1.00  0.00     0.058 A 
ATOM     88  C   UNL A   1      40.680  35.177  37.326  1.00  0.00     0.135 A 
ATOM     89  C   UNL A   1      39.000  33.705  38.218  1.00  0.00     0.135 A 
ATOM     90  F   UNL A   1      41.631  35.472  36.425  1.00  0.00    -0.206 F 
ATOM     91  C   UNL A   1      40.437  36.088  38.350  1.00  0.00     0.059 A 
ATOM     92  C   UNL A   1      38.720  34.615  39.233  1.00  0.00     0.059 A 
ATOM     93  F   UNL A   1      38.294  32.565  38.180  1.00  0.00    -0.206 F 
ATOM     94  C   UNL A   1      39.453  35.800  39.296  1.00  0.00     0.060 A 
BRANCH  94  95
ATOM     95  S   UNL A   1      39.123  37.009  40.596  1.00  0.00     0.124 S 
ATOM     96  O   UNL A   1      38.181  37.905  39.934  1.00  0.00    -0.237 OA
ATOM     97  O   UNL A   1      38.568  36.179  41.660  1.00  0.00    -0.237 OA
ATOM     98  O   UNL A   1      40.439  37.578  40.875  1.00  0.00    -0.744 OA
ENDBRANCH  94  95
ENDBRANCH  62  87
ENDBRANCH  36  37
ENDBRANCH  28  31
ENDBRANCH  26  27
ENDBRANCH   1  26
TORSDOF 16
ENDMDL
