MODEL 1
REMARK VINA RESULT:     -10.4      0.000      0.000
REMARK SMILES CSCCC(=O)N1[C@H](C)CCC[C@@H]1C(=O)NCCCNC(=O)c1ccc(-c2c3nc(c(-c4c(F)cc(S(=O)(=O)[O-])cc4F)c4ccc([nH]4)c(-c4c(F)cc(S(=O)(=O)[O-])cc4F)c4nc(c(-c5c(F)cc(S(=O)(=O)[O-])cc5F)c5ccc2[nH]5)C=C4)C=C3)cc1
REMARK SMILES IDX 17 1 16 2 14 3 15 4 13 6 7 7 8 8 9 9 10 10 12 11 11 12 5 13
REMARK SMILES IDX 6 14 4 15 3 16 2 17 1 18 18 19 19 20 20 21 21 22 22 24 23 25
REMARK SMILES IDX 24 26 88 27 25 28 87 29 26 30 27 31 28 32 81 33 29 34 86 35
REMARK SMILES IDX 80 36 82 37 30 38 85 39 79 40 78 41 31 43 65 44 44 45 64 46
REMARK SMILES IDX 45 47 48 48 63 49 83 50 46 51 47 52 62 54 84 55 49 56 32 57
REMARK SMILES IDX 33 58 42 59 34 60 35 61 41 62 43 63 36 64 37 65 38 66 39 67
REMARK SMILES IDX 40 68 66 69 67 70 76 71 68 72 69 73 75 74 77 75 70 76 71 77
REMARK SMILES IDX 72 78 73 79 74 80 50 81 51 82 60 83 52 84 53 85 59 86 61 87
REMARK SMILES IDX 54 88 55 89 56 90 57 91 58 92
REMARK H PARENT 16 5 20 23 82 42 48 53
REMARK Flexibility Score: inf
ROOT
ATOM      1  C   UNL A   1      32.983  28.088  24.827  1.00  0.00     0.117 C 
ENDROOT
BRANCH   1   2
ATOM      2  N   UNL A   1      31.755  27.527  25.358  1.00  0.00    -0.354 N 
ATOM      3  C   UNL A   1      31.451  26.374  26.012  1.00  0.00     0.242 C 
ATOM      4  O   UNL A   1      30.524  26.481  26.829  1.00  0.00    -0.273 OA
ATOM      5  H   UNL A   1      30.974  28.106  25.214  1.00  0.00     0.163 HD
BRANCH   3   6
ATOM      6  C   UNL A   1      32.101  24.973  25.768  1.00  0.00     0.174 C 
ATOM      7  N   UNL A   1      32.921  24.710  24.555  1.00  0.00    -0.328 N 
ATOM      8  C   UNL A   1      32.231  24.262  23.352  1.00  0.00     0.082 C 
ATOM      9  C   UNL A   1      32.081  25.356  22.297  1.00  0.00     0.031 C 
ATOM     10  C   UNL A   1      30.977  23.425  23.645  1.00  0.00     0.025 C 
ATOM     11  C   UNL A   1      31.161  23.808  26.118  1.00  0.00     0.035 C 
ATOM     12  C   UNL A   1      31.055  22.763  25.014  1.00  0.00     0.005 C 
BRANCH   7  13
ATOM     13  C   UNL A   1      34.304  24.513  24.688  1.00  0.00     0.224 C 
ATOM     14  O   UNL A   1      34.992  25.159  25.481  1.00  0.00    -0.275 OA
BRANCH  13  15
ATOM     15  C   UNL A   1      34.987  23.463  23.803  1.00  0.00     0.111 C 
BRANCH  15  16
ATOM     16  C   UNL A   1      36.455  23.178  24.141  1.00  0.00     0.079 C 
BRANCH  16  17
ATOM     17  S   UNL A   1      36.722  21.577  25.023  1.00  0.00    -0.165 SA
ATOM     18  C   UNL A   1      38.436  21.769  25.610  1.00  0.00     0.085 C 
ENDBRANCH  16  17
ENDBRANCH  15  16
ENDBRANCH  13  15
ENDBRANCH   7  13
ENDBRANCH   3   6
ENDBRANCH   1   2
BRANCH   1  19
ATOM     19  C   UNL A   1      33.514  29.307  25.564  1.00  0.00     0.042 C 
BRANCH  19  20
ATOM     20  C   UNL A   1      33.456  29.158  27.085  1.00  0.00     0.118 C 
BRANCH  20  21
ATOM     21  N   UNL A   1      33.531  30.386  27.870  1.00  0.00    -0.352 N 
ATOM     22  C   UNL A   1      34.623  30.922  28.534  1.00  0.00     0.251 C 
ATOM     23  H   UNL A   1      32.695  30.902  27.936  1.00  0.00     0.163 HD
ATOM     24  O   UNL A   1      34.516  31.991  29.119  1.00  0.00    -0.269 OA
BRANCH  22  25
ATOM     25  C   UNL A   1      35.897  30.161  28.595  1.00  0.00     0.039 A 
ATOM     26  C   UNL A   1      36.730  30.147  27.472  1.00  0.00     0.014 A 
ATOM     27  C   UNL A   1      36.315  29.547  29.776  1.00  0.00     0.014 A 
ATOM     28  C   UNL A   1      38.034  29.651  27.583  1.00  0.00     0.010 A 
ATOM     29  C   UNL A   1      37.641  29.157  29.914  1.00  0.00     0.010 A 
ATOM     30  C   UNL A   1      38.526  29.231  28.828  1.00  0.00    -0.014 A 
BRANCH  30  31
ATOM     31  C   UNL A   1      39.961  28.910  29.049  1.00  0.00     0.031 A 
ATOM     32  C   UNL A   1      40.911  29.983  29.511  1.00  0.00     0.074 A 
ATOM     33  C   UNL A   1      40.433  27.693  28.706  1.00  0.00     0.049 A 
ATOM     34  N   UNL A   1      42.216  29.954  29.590  1.00  0.00    -0.248 NA
ATOM     35  C   UNL A   1      40.315  31.273  29.893  1.00  0.00     0.031 C 
ATOM     36  C   UNL A   1      39.628  26.587  28.176  1.00  0.00     0.029 A 
ATOM     37  N   UNL A   1      41.710  27.185  28.724  1.00  0.00    -0.354 N 
ATOM     38  C   UNL A   1      42.598  31.228  29.995  1.00  0.00     0.074 A 
ATOM     39  C   UNL A   1      41.391  32.018  30.098  1.00  0.00     0.031 C 
ATOM     40  C   UNL A   1      40.424  25.531  27.945  1.00  0.00     0.029 A 
ATOM     41  C   UNL A   1      41.800  25.893  28.260  1.00  0.00     0.049 A 
ATOM     42  H   UNL A   1      42.487  27.699  29.042  1.00  0.00     0.167 HD
ATOM     43  C   UNL A   1      43.839  31.688  30.282  1.00  0.00     0.037 A 
ATOM     44  C   UNL A   1      42.872  25.094  28.090  1.00  0.00     0.037 A 
ATOM     45  C   UNL A   1      45.028  30.880  30.230  1.00  0.00     0.049 A 
ATOM     46  C   UNL A   1      44.237  25.620  28.438  1.00  0.00     0.074 A 
ATOM     47  C   UNL A   1      46.319  31.223  30.591  1.00  0.00     0.029 A 
ATOM     48  N   UNL A   1      45.070  29.564  29.792  1.00  0.00    -0.354 N 
ATOM     49  N   UNL A   1      44.570  26.807  28.887  1.00  0.00    -0.248 NA
ATOM     50  C   UNL A   1      45.371  24.704  28.254  1.00  0.00     0.031 C 
ATOM     51  C   UNL A   1      47.148  30.126  30.339  1.00  0.00     0.029 A 
ATOM     52  C   UNL A   1      46.369  29.088  29.854  1.00  0.00     0.049 A 
ATOM     53  H   UNL A   1      44.293  29.046  29.484  1.00  0.00     0.167 HD
ATOM     54  C   UNL A   1      45.951  26.777  29.048  1.00  0.00     0.074 A 
ATOM     55  C   UNL A   1      46.387  25.448  28.669  1.00  0.00     0.031 C 
ATOM     56  C   UNL A   1      46.783  27.762  29.466  1.00  0.00     0.037 A 
BRANCH  43  57
ATOM     57  C   UNL A   1      43.968  33.128  30.697  1.00  0.00     0.058 A 
ATOM     58  C   UNL A   1      44.215  34.144  29.758  1.00  0.00     0.135 A 
ATOM     59  C   UNL A   1      43.819  33.502  32.041  1.00  0.00     0.135 A 
ATOM     60  F   UNL A   1      44.382  33.839  28.461  1.00  0.00    -0.206 F 
ATOM     61  C   UNL A   1      44.345  35.474  30.143  1.00  0.00     0.059 A 
ATOM     62  C   UNL A   1      43.917  34.831  32.445  1.00  0.00     0.059 A 
ATOM     63  F   UNL A   1      43.581  32.572  32.980  1.00  0.00    -0.206 F 
ATOM     64  C   UNL A   1      44.197  35.807  31.490  1.00  0.00     0.060 A 
BRANCH  64  65
ATOM     65  S   UNL A   1      44.370  37.538  31.972  1.00  0.00     0.124 S 
ATOM     66  O   UNL A   1      45.808  37.632  32.202  1.00  0.00    -0.237 OA
ATOM     67  O   UNL A   1      43.869  38.243  30.796  1.00  0.00    -0.237 OA
ATOM     68  O   UNL A   1      43.536  37.643  33.165  1.00  0.00    -0.744 OA
ENDBRANCH  64  65
ENDBRANCH  43  57
BRANCH  44  69
ATOM     69  C   UNL A   1      42.696  23.709  27.577  1.00  0.00     0.058 A 
ATOM     70  C   UNL A   1      42.767  23.439  26.204  1.00  0.00     0.135 A 
ATOM     71  C   UNL A   1      42.472  22.629  28.446  1.00  0.00     0.135 A 
ATOM     72  F   UNL A   1      42.972  24.439  25.333  1.00  0.00    -0.206 F 
ATOM     73  C   UNL A   1      42.614  22.149  25.705  1.00  0.00     0.059 A 
ATOM     74  C   UNL A   1      42.338  21.327  27.973  1.00  0.00     0.059 A 
ATOM     75  F   UNL A   1      42.412  22.833  29.772  1.00  0.00    -0.206 F 
ATOM     76  C   UNL A   1      42.403  21.098  26.599  1.00  0.00     0.060 A 
BRANCH  76  77
ATOM     77  S   UNL A   1      42.267  19.418  25.948  1.00  0.00     0.124 S 
ATOM     78  O   UNL A   1      40.822  19.276  25.803  1.00  0.00    -0.237 OA
ATOM     79  O   UNL A   1      43.028  19.508  24.706  1.00  0.00    -0.237 OA
ATOM     80  O   UNL A   1      42.882  18.605  26.992  1.00  0.00    -0.744 OA
ENDBRANCH  76  77
ENDBRANCH  44  69
BRANCH  56  81
ATOM     81  C   UNL A   1      48.247  27.440  29.539  1.00  0.00     0.058 A 
ATOM     82  C   UNL A   1      49.101  27.678  28.452  1.00  0.00     0.135 A 
ATOM     83  C   UNL A   1      48.813  26.947  30.726  1.00  0.00     0.135 A 
ATOM     84  F   UNL A   1      48.606  28.141  27.293  1.00  0.00    -0.206 F 
ATOM     85  C   UNL A   1      50.466  27.424  28.532  1.00  0.00     0.059 A 
ATOM     86  C   UNL A   1      50.178  26.707  30.837  1.00  0.00     0.059 A 
ATOM     87  F   UNL A   1      48.038  26.711  31.797  1.00  0.00    -0.206 F 
ATOM     88  C   UNL A   1      50.996  26.941  29.731  1.00  0.00     0.060 A 
BRANCH  88  89
ATOM     89  S   UNL A   1      52.775  26.659  29.837  1.00  0.00     0.124 S 
ATOM     90  O   UNL A   1      52.858  25.716  30.947  1.00  0.00    -0.237 OA
ATOM     91  O   UNL A   1      53.086  26.116  28.518  1.00  0.00    -0.237 OA
ATOM     92  O   UNL A   1      53.314  27.990  30.103  1.00  0.00    -0.744 OA
ENDBRANCH  88  89
ENDBRANCH  56  81
ENDBRANCH  30  31
ENDBRANCH  22  25
ENDBRANCH  20  21
ENDBRANCH  19  20
ENDBRANCH   1  19
TORSDOF 17
ENDMDL
MODEL 2
REMARK VINA RESULT:     -10.4      1.313      2.360
REMARK SMILES CSCCC(=O)N1[C@H](C)CCC[C@@H]1C(=O)NCCCNC(=O)c1ccc(-c2c3nc(c(-c4c(F)cc(S(=O)(=O)[O-])cc4F)c4ccc([nH]4)c(-c4c(F)cc(S(=O)(=O)[O-])cc4F)c4nc(c(-c5c(F)cc(S(=O)(=O)[O-])cc5F)c5ccc2[nH]5)C=C4)C=C3)cc1
REMARK SMILES IDX 17 1 16 2 14 3 15 4 13 6 7 7 8 8 9 9 10 10 12 11 11 12 5 13
REMARK SMILES IDX 6 14 4 15 3 16 2 17 1 18 18 19 19 20 20 21 21 22 22 24 23 25
REMARK SMILES IDX 24 26 88 27 25 28 87 29 26 30 27 31 28 32 81 33 29 34 86 35
REMARK SMILES IDX 80 36 82 37 30 38 85 39 79 40 78 41 31 43 65 44 44 45 64 46
REMARK SMILES IDX 45 47 48 48 63 49 83 50 46 51 47 52 62 54 84 55 49 56 32 57
REMARK SMILES IDX 33 58 42 59 34 60 35 61 41 62 43 63 36 64 37 65 38 66 39 67
REMARK SMILES IDX 40 68 66 69 67 70 76 71 68 72 69 73 75 74 77 75 70 76 71 77
REMARK SMILES IDX 72 78 73 79 74 80 50 81 51 82 60 83 52 84 53 85 59 86 61 87
REMARK SMILES IDX 54 88 55 89 56 90 57 91 58 92
REMARK H PARENT 16 5 20 23 82 42 48 53
REMARK Flexibility Score: inf
ROOT
ATOM      1  C   UNL A   1      31.977  29.324  25.152  1.00  0.00     0.117 C 
ENDROOT
BRANCH   1   2
ATOM      2  N   UNL A   1      33.200  29.268  24.376  1.00  0.00    -0.354 N 
ATOM      3  C   UNL A   1      33.796  28.303  23.624  1.00  0.00     0.242 C 
ATOM      4  O   UNL A   1      34.435  28.736  22.653  1.00  0.00    -0.273 OA
ATOM      5  H   UNL A   1      33.709  30.109  24.397  1.00  0.00     0.163 HD
BRANCH   3   6
ATOM      6  C   UNL A   1      33.799  26.768  23.921  1.00  0.00     0.174 C 
ATOM      7  N   UNL A   1      32.815  25.861  23.273  1.00  0.00    -0.328 N 
ATOM      8  C   UNL A   1      31.526  25.677  23.930  1.00  0.00     0.082 C 
ATOM      9  C   UNL A   1      30.388  26.438  23.252  1.00  0.00     0.031 C 
ATOM     10  C   UNL A   1      31.601  25.787  25.459  1.00  0.00     0.025 C 
ATOM     11  C   UNL A   1      34.020  26.446  25.409  1.00  0.00     0.035 C 
ATOM     12  C   UNL A   1      32.998  25.469  25.975  1.00  0.00     0.005 C 
BRANCH   7  13
ATOM     13  C   UNL A   1      33.257  24.933  22.319  1.00  0.00     0.224 C 
ATOM     14  O   UNL A   1      33.068  25.085  21.110  1.00  0.00    -0.275 OA
BRANCH  13  15
ATOM     15  C   UNL A   1      33.990  23.675  22.798  1.00  0.00     0.111 C 
BRANCH  15  16
ATOM     16  C   UNL A   1      33.087  22.494  23.174  1.00  0.00     0.079 C 
BRANCH  16  17
ATOM     17  S   UNL A   1      33.465  21.759  24.826  1.00  0.00    -0.165 SA
ATOM     18  C   UNL A   1      32.362  20.309  24.838  1.00  0.00     0.085 C 
ENDBRANCH  16  17
ENDBRANCH  15  16
ENDBRANCH  13  15
ENDBRANCH   7  13
ENDBRANCH   3   6
ENDBRANCH   1   2
BRANCH   1  19
ATOM     19  C   UNL A   1      32.159  29.249  26.660  1.00  0.00     0.042 C 
BRANCH  19  20
ATOM     20  C   UNL A   1      33.533  29.738  27.121  1.00  0.00     0.118 C 
BRANCH  20  21
ATOM     21  N   UNL A   1      33.552  30.838  28.080  1.00  0.00    -0.352 N 
ATOM     22  C   UNL A   1      34.599  31.271  28.879  1.00  0.00     0.251 C 
ATOM     23  H   UNL A   1      32.709  31.340  28.172  1.00  0.00     0.163 HD
ATOM     24  O   UNL A   1      34.448  32.243  29.606  1.00  0.00    -0.269 OA
BRANCH  22  25
ATOM     25  C   UNL A   1      35.873  30.509  28.902  1.00  0.00     0.039 A 
ATOM     26  C   UNL A   1      36.641  30.441  27.735  1.00  0.00     0.014 A 
ATOM     27  C   UNL A   1      36.357  29.949  30.084  1.00  0.00     0.014 A 
ATOM     28  C   UNL A   1      37.949  29.946  27.795  1.00  0.00     0.010 A 
ATOM     29  C   UNL A   1      37.689  29.561  30.165  1.00  0.00     0.010 A 
ATOM     30  C   UNL A   1      38.510  29.582  29.028  1.00  0.00    -0.014 A 
BRANCH  30  31
ATOM     31  C   UNL A   1      39.956  29.267  29.181  1.00  0.00     0.031 A 
ATOM     32  C   UNL A   1      40.925  30.348  29.577  1.00  0.00     0.074 A 
ATOM     33  C   UNL A   1      40.412  28.044  28.835  1.00  0.00     0.049 A 
ATOM     34  N   UNL A   1      42.232  30.323  29.590  1.00  0.00    -0.248 NA
ATOM     35  C   UNL A   1      40.347  31.644  29.966  1.00  0.00     0.031 C 
ATOM     36  C   UNL A   1      39.584  26.929  28.366  1.00  0.00     0.029 A 
ATOM     37  N   UNL A   1      41.689  27.539  28.798  1.00  0.00    -0.354 N 
ATOM     38  C   UNL A   1      42.632  31.603  29.954  1.00  0.00     0.074 A 
ATOM     39  C   UNL A   1      41.431  32.394  30.104  1.00  0.00     0.031 C 
ATOM     40  C   UNL A   1      40.369  25.869  28.113  1.00  0.00     0.029 A 
ATOM     41  C   UNL A   1      41.759  26.239  28.352  1.00  0.00     0.049 A 
ATOM     42  H   UNL A   1      42.481  28.059  29.067  1.00  0.00     0.167 HD
ATOM     43  C   UNL A   1      43.885  32.070  30.170  1.00  0.00     0.037 A 
ATOM     44  C   UNL A   1      42.822  25.438  28.141  1.00  0.00     0.037 A 
ATOM     45  C   UNL A   1      45.071  31.263  30.071  1.00  0.00     0.049 A 
ATOM     46  C   UNL A   1      44.202  25.972  28.411  1.00  0.00     0.074 A 
ATOM     47  C   UNL A   1      46.378  31.613  30.361  1.00  0.00     0.029 A 
ATOM     48  N   UNL A   1      45.094  29.940  29.654  1.00  0.00    -0.354 N 
ATOM     49  N   UNL A   1      44.555  27.167  28.823  1.00  0.00    -0.248 NA
ATOM     50  C   UNL A   1      45.327  25.054  28.185  1.00  0.00     0.031 C 
ATOM     51  C   UNL A   1      47.196  30.513  30.085  1.00  0.00     0.029 A 
ATOM     52  C   UNL A   1      46.396  29.466  29.658  1.00  0.00     0.049 A 
ATOM     53  H   UNL A   1      44.304  29.415  29.394  1.00  0.00     0.167 HD
ATOM     54  C   UNL A   1      45.942  27.142  28.913  1.00  0.00     0.074 A 
ATOM     55  C   UNL A   1      46.361  25.807  28.536  1.00  0.00     0.031 C 
ATOM     56  C   UNL A   1      46.792  28.134  29.273  1.00  0.00     0.037 A 
BRANCH  43  57
ATOM     57  C   UNL A   1      44.032  33.517  30.552  1.00  0.00     0.058 A 
ATOM     58  C   UNL A   1      43.968  33.933  31.893  1.00  0.00     0.135 A 
ATOM     59  C   UNL A   1      44.263  34.496  29.574  1.00  0.00     0.135 A 
ATOM     60  F   UNL A   1      43.732  33.040  32.867  1.00  0.00    -0.206 F 
ATOM     61  C   UNL A   1      44.093  35.272  32.245  1.00  0.00     0.059 A 
ATOM     62  C   UNL A   1      44.420  35.839  29.907  1.00  0.00     0.059 A 
ATOM     63  F   UNL A   1      44.334  34.154  28.278  1.00  0.00    -0.206 F 
ATOM     64  C   UNL A   1      44.316  36.219  31.244  1.00  0.00     0.060 A 
BRANCH  64  65
ATOM     65  S   UNL A   1      44.474  37.953  31.720  1.00  0.00     0.124 S 
ATOM     66  O   UNL A   1      43.791  37.963  33.010  1.00  0.00    -0.237 OA
ATOM     67  O   UNL A   1      45.922  38.134  31.768  1.00  0.00    -0.237 OA
ATOM     68  O   UNL A   1      43.792  38.664  30.643  1.00  0.00    -0.744 OA
ENDBRANCH  64  65
ENDBRANCH  43  57
BRANCH  44  69
ATOM     69  C   UNL A   1      42.623  24.045  27.662  1.00  0.00     0.058 A 
ATOM     70  C   UNL A   1      42.557  22.977  28.568  1.00  0.00     0.135 A 
ATOM     71  C   UNL A   1      42.478  23.754  26.296  1.00  0.00     0.135 A 
ATOM     72  F   UNL A   1      42.699  23.204  29.882  1.00  0.00    -0.206 F 
ATOM     73  C   UNL A   1      42.364  21.668  28.139  1.00  0.00     0.059 A 
ATOM     74  C   UNL A   1      42.261  22.455  25.845  1.00  0.00     0.059 A 
ATOM     75  F   UNL A   1      42.517  24.743  25.389  1.00  0.00    -0.206 F 
ATOM     76  C   UNL A   1      42.213  21.417  26.774  1.00  0.00     0.060 A 
BRANCH  76  77
ATOM     77  S   UNL A   1      41.900  19.722  26.232  1.00  0.00     0.124 S 
ATOM     78  O   UNL A   1      42.377  18.955  27.378  1.00  0.00    -0.237 OA
ATOM     79  O   UNL A   1      40.456  19.728  26.023  1.00  0.00    -0.237 OA
ATOM     80  O   UNL A   1      42.700  19.607  25.017  1.00  0.00    -0.744 OA
ENDBRANCH  76  77
ENDBRANCH  44  69
BRANCH  56  81
ATOM     81  C   UNL A   1      48.259  27.815  29.276  1.00  0.00     0.058 A 
ATOM     82  C   UNL A   1      48.901  27.349  30.433  1.00  0.00     0.135 A 
ATOM     83  C   UNL A   1      49.016  27.920  28.099  1.00  0.00     0.135 A 
ATOM     84  F   UNL A   1      48.221  27.240  31.586  1.00  0.00    -0.206 F 
ATOM     85  C   UNL A   1      50.249  27.009  30.427  1.00  0.00     0.059 A 
ATOM     86  C   UNL A   1      50.360  27.563  28.063  1.00  0.00     0.059 A 
ATOM     87  F   UNL A   1      48.445  28.353  26.964  1.00  0.00    -0.206 F 
ATOM     88  C   UNL A   1      50.970  27.116  29.235  1.00  0.00     0.060 A 
BRANCH  88  89
ATOM     89  S   UNL A   1      52.708  26.629  29.230  1.00  0.00     0.124 S 
ATOM     90  O   UNL A   1      53.377  27.925  29.260  1.00  0.00    -0.237 OA
ATOM     91  O   UNL A   1      52.814  25.831  30.448  1.00  0.00    -0.237 OA
ATOM     92  O   UNL A   1      52.845  25.880  27.984  1.00  0.00    -0.744 OA
ENDBRANCH  88  89
ENDBRANCH  56  81
ENDBRANCH  30  31
ENDBRANCH  22  25
ENDBRANCH  20  21
ENDBRANCH  19  20
ENDBRANCH   1  19
TORSDOF 17
ENDMDL
MODEL 3
REMARK VINA RESULT:     -10.3      2.915      4.089
REMARK SMILES CSCCC(=O)N1[C@H](C)CCC[C@@H]1C(=O)NCCCNC(=O)c1ccc(-c2c3nc(c(-c4c(F)cc(S(=O)(=O)[O-])cc4F)c4ccc([nH]4)c(-c4c(F)cc(S(=O)(=O)[O-])cc4F)c4nc(c(-c5c(F)cc(S(=O)(=O)[O-])cc5F)c5ccc2[nH]5)C=C4)C=C3)cc1
REMARK SMILES IDX 17 1 16 2 14 3 15 4 13 6 7 7 8 8 9 9 10 10 12 11 11 12 5 13
REMARK SMILES IDX 6 14 4 15 3 16 2 17 1 18 18 19 19 20 20 21 21 22 22 24 23 25
REMARK SMILES IDX 24 26 88 27 25 28 87 29 26 30 27 31 28 32 81 33 29 34 86 35
REMARK SMILES IDX 80 36 82 37 30 38 85 39 79 40 78 41 31 43 65 44 44 45 64 46
REMARK SMILES IDX 45 47 48 48 63 49 83 50 46 51 47 52 62 54 84 55 49 56 32 57
REMARK SMILES IDX 33 58 42 59 34 60 35 61 41 62 43 63 36 64 37 65 38 66 39 67
REMARK SMILES IDX 40 68 66 69 67 70 76 71 68 72 69 73 75 74 77 75 70 76 71 77
REMARK SMILES IDX 72 78 73 79 74 80 50 81 51 82 60 83 52 84 53 85 59 86 61 87
REMARK SMILES IDX 54 88 55 89 56 90 57 91 58 92
REMARK H PARENT 16 5 20 23 82 42 48 53
REMARK Flexibility Score: inf
ROOT
ATOM      1  C   UNL A   1      34.402  30.132  27.457  1.00  0.00     0.117 C 
ENDROOT
BRANCH   1   2
ATOM      2  N   UNL A   1      33.083  29.549  27.608  1.00  0.00    -0.354 N 
ATOM      3  C   UNL A   1      32.494  28.417  27.136  1.00  0.00     0.242 C 
ATOM      4  O   UNL A   1      31.655  27.922  27.904  1.00  0.00    -0.273 OA
ATOM      5  H   UNL A   1      32.486  30.087  28.174  1.00  0.00     0.163 HD
BRANCH   3   6
ATOM      6  C   UNL A   1      32.729  27.766  25.734  1.00  0.00     0.174 C 
ATOM      7  N   UNL A   1      31.589  27.251  24.929  1.00  0.00    -0.328 N 
ATOM      8  C   UNL A   1      31.163  25.876  25.158  1.00  0.00     0.082 C 
ATOM      9  C   UNL A   1      29.874  25.770  25.971  1.00  0.00     0.031 C 
ATOM     10  C   UNL A   1      32.309  24.945  25.578  1.00  0.00     0.025 C 
ATOM     11  C   UNL A   1      33.952  26.836  25.703  1.00  0.00     0.035 C 
ATOM     12  C   UNL A   1      33.657  25.468  25.101  1.00  0.00     0.005 C 
BRANCH   7  13
ATOM     13  C   UNL A   1      31.226  27.913  23.747  1.00  0.00     0.224 C 
ATOM     14  O   UNL A   1      31.819  27.738  22.680  1.00  0.00    -0.275 OA
BRANCH  13  15
ATOM     15  C   UNL A   1      30.054  28.901  23.786  1.00  0.00     0.111 C 
BRANCH  15  16
ATOM     16  C   UNL A   1      29.355  29.141  22.442  1.00  0.00     0.079 C 
BRANCH  16  17
ATOM     17  S   UNL A   1      29.024  30.921  22.078  1.00  0.00    -0.165 SA
ATOM     18  C   UNL A   1      27.691  31.292  23.263  1.00  0.00     0.085 C 
ENDBRANCH  16  17
ENDBRANCH  15  16
ENDBRANCH  13  15
ENDBRANCH   7  13
ENDBRANCH   3   6
ENDBRANCH   1   2
BRANCH   1  19
ATOM     19  C   UNL A   1      34.531  31.576  27.917  1.00  0.00     0.042 C 
BRANCH  19  20
ATOM     20  C   UNL A   1      35.607  31.768  28.987  1.00  0.00     0.118 C 
BRANCH  20  21
ATOM     21  N   UNL A   1      35.514  30.923  30.173  1.00  0.00    -0.352 N 
ATOM     22  C   UNL A   1      36.530  30.261  30.845  1.00  0.00     0.251 C 
ATOM     23  H   UNL A   1      34.609  30.807  30.545  1.00  0.00     0.163 HD
ATOM     24  O   UNL A   1      36.274  29.619  31.854  1.00  0.00    -0.269 OA
BRANCH  22  25
ATOM     25  C   UNL A   1      37.909  30.274  30.295  1.00  0.00     0.039 A 
ATOM     26  C   UNL A   1      38.974  30.578  31.150  1.00  0.00     0.014 A 
ATOM     27  C   UNL A   1      38.164  29.896  28.978  1.00  0.00     0.014 A 
ATOM     28  C   UNL A   1      40.288  30.357  30.723  1.00  0.00     0.010 A 
ATOM     29  C   UNL A   1      39.460  29.574  28.594  1.00  0.00     0.010 A 
ATOM     30  C   UNL A   1      40.536  29.773  29.472  1.00  0.00    -0.014 A 
BRANCH  30  31
ATOM     31  C   UNL A   1      41.890  29.311  29.064  1.00  0.00     0.031 A 
ATOM     32  C   UNL A   1      43.018  30.300  28.939  1.00  0.00     0.074 A 
ATOM     33  C   UNL A   1      42.069  28.030  28.679  1.00  0.00     0.049 A 
ATOM     34  N   UNL A   1      44.212  30.133  28.432  1.00  0.00    -0.248 NA
ATOM     35  C   UNL A   1      42.751  31.670  29.406  1.00  0.00     0.031 C 
ATOM     36  C   UNL A   1      41.037  26.988  28.683  1.00  0.00     0.029 A 
ATOM     37  N   UNL A   1      43.177  27.387  28.182  1.00  0.00    -0.354 N 
ATOM     38  C   UNL A   1      44.824  31.379  28.488  1.00  0.00     0.074 A 
ATOM     39  C   UNL A   1      43.853  32.303  29.031  1.00  0.00     0.031 C 
ATOM     40  C   UNL A   1      41.565  25.838  28.236  1.00  0.00     0.029 A 
ATOM     41  C   UNL A   1      42.957  26.066  27.866  1.00  0.00     0.049 A 
ATOM     42  H   UNL A   1      44.048  27.831  28.064  1.00  0.00     0.167 HD
ATOM     43  C   UNL A   1      46.089  31.717  28.142  1.00  0.00     0.037 A 
ATOM     44  C   UNL A   1      43.777  25.144  27.324  1.00  0.00     0.037 A 
ATOM     45  C   UNL A   1      47.066  30.781  27.653  1.00  0.00     0.049 A 
ATOM     46  C   UNL A   1      45.184  25.538  26.970  1.00  0.00     0.074 A 
ATOM     47  C   UNL A   1      48.401  31.002  27.364  1.00  0.00     0.029 A 
ATOM     48  N   UNL A   1      46.814  29.444  27.385  1.00  0.00    -0.354 N 
ATOM     49  N   UNL A   1      45.767  26.707  27.096  1.00  0.00    -0.248 NA
ATOM     50  C   UNL A   1      46.045  24.493  26.400  1.00  0.00     0.031 C 
ATOM     51  C   UNL A   1      48.948  29.806  26.887  1.00  0.00     0.029 A 
ATOM     52  C   UNL A   1      47.963  28.832  26.913  1.00  0.00     0.049 A 
ATOM     53  H   UNL A   1      45.947  28.996  27.511  1.00  0.00     0.167 HD
ATOM     54  C   UNL A   1      47.065  26.535  26.628  1.00  0.00     0.074 A 
ATOM     55  C   UNL A   1      47.188  25.145  26.238  1.00  0.00     0.031 C 
ATOM     56  C   UNL A   1      48.063  27.447  26.525  1.00  0.00     0.037 A 
BRANCH  43  57
ATOM     57  C   UNL A   1      46.492  33.158  28.300  1.00  0.00     0.058 A 
ATOM     58  C   UNL A   1      46.350  34.080  27.250  1.00  0.00     0.135 A 
ATOM     59  C   UNL A   1      47.002  33.629  29.520  1.00  0.00     0.135 A 
ATOM     60  F   UNL A   1      45.882  33.680  26.057  1.00  0.00    -0.206 F 
ATOM     61  C   UNL A   1      46.733  35.409  27.393  1.00  0.00     0.059 A 
ATOM     62  C   UNL A   1      47.365  34.962  29.694  1.00  0.00     0.059 A 
ATOM     63  F   UNL A   1      47.158  32.790  30.556  1.00  0.00    -0.206 F 
ATOM     64  C   UNL A   1      47.242  35.841  28.619  1.00  0.00     0.060 A 
BRANCH  64  65
ATOM     65  S   UNL A   1      47.735  37.569  28.786  1.00  0.00     0.124 S 
ATOM     66  O   UNL A   1      49.168  37.488  28.520  1.00  0.00    -0.237 OA
ATOM     67  O   UNL A   1      46.935  38.224  27.757  1.00  0.00    -0.237 OA
ATOM     68  O   UNL A   1      47.370  37.893  30.162  1.00  0.00    -0.744 OA
ENDBRANCH  64  65
ENDBRANCH  43  57
BRANCH  44  69
ATOM     69  C   UNL A   1      43.292  23.758  27.093  1.00  0.00     0.058 A 
ATOM     70  C   UNL A   1      42.951  23.322  25.805  1.00  0.00     0.135 A 
ATOM     71  C   UNL A   1      43.176  22.837  28.147  1.00  0.00     0.135 A 
ATOM     72  F   UNL A   1      43.037  24.167  24.766  1.00  0.00    -0.206 F 
ATOM     73  C   UNL A   1      42.504  22.026  25.568  1.00  0.00     0.059 A 
ATOM     74  C   UNL A   1      42.752  21.529  27.931  1.00  0.00     0.059 A 
ATOM     75  F   UNL A   1      43.506  23.200  29.397  1.00  0.00    -0.206 F 
ATOM     76  C   UNL A   1      42.410  21.135  26.638  1.00  0.00     0.060 A 
BRANCH  76  77
ATOM     77  S   UNL A   1      41.888  19.437  26.311  1.00  0.00     0.124 S 
ATOM     78  O   UNL A   1      42.592  19.148  25.066  1.00  0.00    -0.237 OA
ATOM     79  O   UNL A   1      42.370  18.733  27.495  1.00  0.00    -0.237 OA
ATOM     80  O   UNL A   1      40.436  19.549  26.206  1.00  0.00    -0.744 OA
ENDBRANCH  76  77
ENDBRANCH  44  69
BRANCH  56  81
ATOM     81  C   UNL A   1      49.375  26.971  25.973  1.00  0.00     0.058 A 
ATOM     82  C   UNL A   1      49.688  27.110  24.613  1.00  0.00     0.135 A 
ATOM     83  C   UNL A   1      50.352  26.425  26.821  1.00  0.00     0.135 A 
ATOM     84  F   UNL A   1      48.783  27.619  23.761  1.00  0.00    -0.206 F 
ATOM     85  C   UNL A   1      50.920  26.713  24.107  1.00  0.00     0.059 A 
ATOM     86  C   UNL A   1      51.600  26.042  26.343  1.00  0.00     0.059 A 
ATOM     87  F   UNL A   1      50.103  26.279  28.133  1.00  0.00    -0.206 F 
ATOM     88  C   UNL A   1      51.872  26.182  24.982  1.00  0.00     0.060 A 
BRANCH  88  89
ATOM     89  S   UNL A   1      53.484  25.712  24.322  1.00  0.00     0.124 S 
ATOM     90  O   UNL A   1      53.298  25.947  22.894  1.00  0.00    -0.237 OA
ATOM     91  O   UNL A   1      54.385  26.636  25.005  1.00  0.00    -0.237 OA
ATOM     92  O   UNL A   1      53.616  24.312  24.716  1.00  0.00    -0.744 OA
ENDBRANCH  88  89
ENDBRANCH  56  81
ENDBRANCH  30  31
ENDBRANCH  22  25
ENDBRANCH  20  21
ENDBRANCH  19  20
ENDBRANCH   1  19
TORSDOF 17
ENDMDL
