MODEL 1
REMARK VINA RESULT:     -12.7      0.000      0.000
REMARK SMILES Cc1cc(NC(=O)c2ccc(Br)cc2N)ccc1C(=O)NCCCNC(=O)c1ccc(-c2c3nc(c(-c4c(F)cc(S(=O)(=O)[O-])cc4F)c4ccc([nH]4)c(-c4c(F)cc(S(=O)(=O)[O-])cc4F)c4nc(c(-c5c(F)cc(S(=O)(=O)[O-])cc5F)c5ccc2[nH]5)C=C4)C=C3)cc1
REMARK SMILES IDX 23 1 22 2 21 3 19 4 20 5 18 7 1 8 2 9 3 10 4 11 17 12 16 13
REMARK SMILES IDX 5 14 6 15 7 17 8 18 9 19 14 20 10 21 13 22 11 23 12 24 15 25
REMARK SMILES IDX 24 28 25 29 26 30 27 32 28 33 29 34 93 35 30 36 92 37 31 38
REMARK SMILES IDX 32 39 33 40 86 41 34 42 91 43 85 44 87 45 35 46 90 47 84 48
REMARK SMILES IDX 83 49 36 51 70 52 49 53 69 54 50 55 53 56 68 57 88 58 51 59
REMARK SMILES IDX 52 60 67 62 89 63 54 64 37 65 38 66 47 67 39 68 40 69 46 70
REMARK SMILES IDX 48 71 41 72 42 73 43 74 44 75 45 76 71 77 72 78 81 79 73 80
REMARK SMILES IDX 74 81 80 82 82 83 75 84 76 85 77 86 78 87 79 88 55 89 56 90
REMARK SMILES IDX 65 91 57 92 58 93 64 94 66 95 59 96 60 97 61 98 62 99 63 100
REMARK H PARENT 21 6 5 16 15 26 15 27 25 31 87 50 53 61
REMARK Flexibility Score: inf
ROOT
ATOM      1  C   UNL A   1      37.404  23.802  25.585  1.00  0.00     0.042 C 
ENDROOT
BRANCH   1   2
ATOM      2  C   UNL A   1      35.847  23.910  26.054  1.00  0.00     0.118 C 
BRANCH   2   3
ATOM      3  N   UNL A   1      35.034  22.676  26.192  1.00  0.00    -0.352 N 
ATOM      4  C   UNL A   1      34.021  22.036  25.505  1.00  0.00     0.251 C 
ATOM      5  O   UNL A   1      33.764  20.845  25.694  1.00  0.00    -0.269 OA
ATOM      6  H   UNL A   1      35.286  22.173  26.999  1.00  0.00     0.163 HD
BRANCH   4   7
ATOM      7  C   UNL A   1      33.206  22.727  24.485  1.00  0.00     0.042 A 
ATOM      8  C   UNL A   1      31.019  22.448  25.781  1.00  0.00     0.045 C 
ATOM      9  C   UNL A   1      31.849  22.995  24.666  1.00  0.00    -0.036 A 
ATOM     10  C   UNL A   1      31.223  23.858  23.772  1.00  0.00     0.030 A 
ATOM     11  C   UNL A   1      31.898  24.372  22.670  1.00  0.00     0.041 A 
ATOM     12  C   UNL A   1      33.811  23.055  23.251  1.00  0.00     0.016 A 
ATOM     13  C   UNL A   1      33.143  23.859  22.320  1.00  0.00     0.027 A 
BRANCH  11  14
ATOM     14  N   UNL A   1      31.365  25.461  21.971  1.00  0.00    -0.322 N 
ATOM     15  C   UNL A   1      31.242  26.761  22.442  1.00  0.00     0.257 C 
ATOM     16  H   UNL A   1      31.045  25.288  21.057  1.00  0.00     0.170 HD
ATOM     17  O   UNL A   1      30.425  27.524  21.927  1.00  0.00    -0.269 OA
BRANCH  15  18
ATOM     18  C   UNL A   1      32.143  27.289  23.527  1.00  0.00     0.063 A 
ATOM     19  C   UNL A   1      31.633  27.234  24.839  1.00  0.00     0.017 A 
ATOM     20  C   UNL A   1      33.416  27.863  23.298  1.00  0.00     0.045 A 
ATOM     21  C   UNL A   1      32.361  27.755  25.913  1.00  0.00     0.016 A 
ATOM     22  C   UNL A   1      34.122  28.397  24.391  1.00  0.00     0.042 A 
ATOM     23  C   UNL A   1      33.600  28.342  25.681  1.00  0.00     0.020 A 
ATOM     24  Br  UNL A   1      34.561  29.118  27.113  1.00  0.00    -0.051 Br
BRANCH  20  25
ATOM     25  N   UNL A   1      33.946  28.108  22.026  1.00  0.00    -0.398 N 
ATOM     26  H   UNL A   1      33.715  28.936  21.548  1.00  0.00     0.156 HD
ATOM     27  H   UNL A   1      34.549  27.450  21.611  1.00  0.00     0.156 HD
ENDBRANCH  20  25
ENDBRANCH  15  18
ENDBRANCH  11  14
ENDBRANCH   4   7
ENDBRANCH   2   3
ENDBRANCH   1   2
BRANCH   1  28
ATOM     28  C   UNL A   1      38.525  23.861  26.716  1.00  0.00     0.118 C 
BRANCH  28  29
ATOM     29  N   UNL A   1      39.510  25.061  27.009  1.00  0.00    -0.352 N 
ATOM     30  C   UNL A   1      39.895  25.929  28.122  1.00  0.00     0.251 C 
ATOM     31  H   UNL A   1      40.017  25.296  26.198  1.00  0.00     0.163 HD
ATOM     32  O   UNL A   1      41.102  25.827  28.415  1.00  0.00    -0.269 OA
BRANCH  30  33
ATOM     33  C   UNL A   1      39.148  27.021  28.999  1.00  0.00     0.039 A 
ATOM     34  C   UNL A   1      38.609  28.213  28.411  1.00  0.00     0.014 A 
ATOM     35  C   UNL A   1      38.990  27.005  30.378  1.00  0.00     0.014 A 
ATOM     36  C   UNL A   1      38.534  29.460  29.162  1.00  0.00     0.010 A 
ATOM     37  C   UNL A   1      38.926  28.230  31.121  1.00  0.00     0.010 A 
ATOM     38  C   UNL A   1      38.963  29.487  30.501  1.00  0.00    -0.014 A 
BRANCH  38  39
ATOM     39  C   UNL A   1      39.714  30.651  31.163  1.00  0.00     0.031 A 
ATOM     40  C   UNL A   1      40.889  30.412  31.994  1.00  0.00     0.074 A 
ATOM     41  C   UNL A   1      39.565  32.004  30.981  1.00  0.00     0.049 A 
ATOM     42  N   UNL A   1      41.089  30.931  33.163  1.00  0.00    -0.248 NA
ATOM     43  C   UNL A   1      41.997  29.638  31.468  1.00  0.00     0.031 C 
ATOM     44  C   UNL A   1      40.336  33.187  31.411  1.00  0.00     0.029 A 
ATOM     45  N   UNL A   1      38.628  32.665  30.217  1.00  0.00    -0.354 N 
ATOM     46  C   UNL A   1      42.447  30.834  33.375  1.00  0.00     0.074 A 
ATOM     47  C   UNL A   1      42.912  29.847  32.416  1.00  0.00     0.031 C 
ATOM     48  C   UNL A   1      39.602  34.312  31.227  1.00  0.00     0.029 A 
ATOM     49  C   UNL A   1      38.303  33.919  30.718  1.00  0.00     0.049 A 
ATOM     50  H   UNL A   1      38.230  32.286  29.400  1.00  0.00     0.167 HD
ATOM     51  C   UNL A   1      43.138  31.773  34.094  1.00  0.00     0.037 A 
ATOM     52  C   UNL A   1      37.036  34.132  31.206  1.00  0.00     0.037 A 
ATOM     53  C   UNL A   1      42.331  32.985  34.351  1.00  0.00     0.049 A 
ATOM     54  C   UNL A   1      37.096  34.206  32.710  1.00  0.00     0.074 A 
ATOM     55  C   UNL A   1      42.402  34.300  33.908  1.00  0.00     0.029 A 
ATOM     56  N   UNL A   1      41.086  32.881  34.950  1.00  0.00    -0.354 N 
ATOM     57  N   UNL A   1      38.203  34.411  33.361  1.00  0.00    -0.248 NA
ATOM     58  C   UNL A   1      35.968  33.958  33.604  1.00  0.00     0.031 C 
ATOM     59  C   UNL A   1      41.198  34.976  34.269  1.00  0.00     0.029 A 
ATOM     60  C   UNL A   1      40.396  34.083  34.952  1.00  0.00     0.049 A 
ATOM     61  H   UNL A   1      40.731  32.045  35.332  1.00  0.00     0.167 HD
ATOM     62  C   UNL A   1      38.013  34.162  34.684  1.00  0.00     0.074 A 
ATOM     63  C   UNL A   1      36.581  33.940  34.802  1.00  0.00     0.031 C 
ATOM     64  C   UNL A   1      39.066  34.117  35.552  1.00  0.00     0.037 A 
BRANCH  51  65
ATOM     65  C   UNL A   1      44.649  31.711  34.290  1.00  0.00     0.058 A 
ATOM     66  C   UNL A   1      45.241  30.955  35.322  1.00  0.00     0.135 A 
ATOM     67  C   UNL A   1      45.582  32.340  33.433  1.00  0.00     0.135 A 
ATOM     68  F   UNL A   1      44.513  30.167  36.124  1.00  0.00    -0.206 F 
ATOM     69  C   UNL A   1      46.620  30.929  35.557  1.00  0.00     0.059 A 
ATOM     70  C   UNL A   1      46.953  32.399  33.692  1.00  0.00     0.059 A 
ATOM     71  F   UNL A   1      45.210  32.854  32.251  1.00  0.00    -0.206 F 
ATOM     72  C   UNL A   1      47.469  31.680  34.754  1.00  0.00     0.060 A 
BRANCH  72  73
ATOM     73  S   UNL A   1      49.245  31.613  35.046  1.00  0.00     0.124 S 
ATOM     74  O   UNL A   1      49.334  31.818  36.488  1.00  0.00    -0.237 OA
ATOM     75  O   UNL A   1      49.579  30.274  34.572  1.00  0.00    -0.237 OA
ATOM     76  O   UNL A   1      49.767  32.709  34.232  1.00  0.00    -0.744 OA
ENDBRANCH  72  73
ENDBRANCH  51  65
BRANCH  52  77
ATOM     77  C   UNL A   1      35.866  33.484  30.415  1.00  0.00     0.058 A 
ATOM     78  C   UNL A   1      34.795  33.064  31.227  1.00  0.00     0.135 A 
ATOM     79  C   UNL A   1      35.454  34.267  29.353  1.00  0.00     0.135 A 
ATOM     80  F   UNL A   1      34.852  31.875  31.838  1.00  0.00    -0.206 F 
ATOM     81  C   UNL A   1      33.703  33.897  31.481  1.00  0.00     0.059 A 
ATOM     82  C   UNL A   1      34.392  35.135  29.623  1.00  0.00     0.059 A 
ATOM     83  F   UNL A   1      36.321  34.591  28.377  1.00  0.00    -0.206 F 
ATOM     84  C   UNL A   1      33.644  35.085  30.780  1.00  0.00     0.060 A 
BRANCH  84  85
ATOM     85  S   UNL A   1      32.934  36.721  31.659  1.00  0.00     0.124 S 
ATOM     86  O   UNL A   1      33.998  36.917  32.625  1.00  0.00    -0.237 OA
ATOM     87  O   UNL A   1      32.897  37.762  30.666  1.00  0.00    -0.237 OA
ATOM     88  O   UNL A   1      31.638  36.388  32.240  1.00  0.00    -0.744 OA
ENDBRANCH  84  85
ENDBRANCH  52  77
BRANCH  64  89
ATOM     89  C   UNL A   1      38.919  34.053  37.046  1.00  0.00     0.058 A 
ATOM     90  C   UNL A   1      39.291  35.113  37.889  1.00  0.00     0.135 A 
ATOM     91  C   UNL A   1      38.525  32.863  37.703  1.00  0.00     0.135 A 
ATOM     92  F   UNL A   1      39.841  36.235  37.396  1.00  0.00    -0.206 F 
ATOM     93  C   UNL A   1      39.154  35.047  39.272  1.00  0.00     0.059 A 
ATOM     94  C   UNL A   1      38.426  32.758  39.082  1.00  0.00     0.059 A 
ATOM     95  F   UNL A   1      38.217  31.743  37.039  1.00  0.00    -0.206 F 
ATOM     96  C   UNL A   1      38.705  33.868  39.858  1.00  0.00     0.060 A 
BRANCH  96  97
ATOM     97  S   UNL A   1      38.517  33.785  41.641  1.00  0.00     0.124 S 
ATOM     98  O   UNL A   1      39.866  33.441  42.081  1.00  0.00    -0.237 OA
ATOM     99  O   UNL A   1      38.077  35.142  41.949  1.00  0.00    -0.237 OA
ATOM    100  O   UNL A   1      37.516  32.741  41.834  1.00  0.00    -0.744 OA
ENDBRANCH  96  97
ENDBRANCH  64  89
ENDBRANCH  38  39
ENDBRANCH  30  33
ENDBRANCH  28  29
ENDBRANCH   1  28
TORSDOF 16
ENDMDL
MODEL 2
REMARK VINA RESULT:     -12.7      6.215     11.921
REMARK SMILES Cc1cc(NC(=O)c2ccc(Br)cc2N)ccc1C(=O)NCCCNC(=O)c1ccc(-c2c3nc(c(-c4c(F)cc(S(=O)(=O)[O-])cc4F)c4ccc([nH]4)c(-c4c(F)cc(S(=O)(=O)[O-])cc4F)c4nc(c(-c5c(F)cc(S(=O)(=O)[O-])cc5F)c5ccc2[nH]5)C=C4)C=C3)cc1
REMARK SMILES IDX 23 1 22 2 21 3 19 4 20 5 18 7 1 8 2 9 3 10 4 11 17 12 16 13
REMARK SMILES IDX 5 14 6 15 7 17 8 18 9 19 14 20 10 21 13 22 11 23 12 24 15 25
REMARK SMILES IDX 24 28 25 29 26 30 27 32 28 33 29 34 93 35 30 36 92 37 31 38
REMARK SMILES IDX 32 39 33 40 86 41 34 42 91 43 85 44 87 45 35 46 90 47 84 48
REMARK SMILES IDX 83 49 36 51 70 52 49 53 69 54 50 55 53 56 68 57 88 58 51 59
REMARK SMILES IDX 52 60 67 62 89 63 54 64 37 65 38 66 47 67 39 68 40 69 46 70
REMARK SMILES IDX 48 71 41 72 42 73 43 74 44 75 45 76 71 77 72 78 81 79 73 80
REMARK SMILES IDX 74 81 80 82 82 83 75 84 76 85 77 86 78 87 79 88 55 89 56 90
REMARK SMILES IDX 65 91 57 92 58 93 64 94 66 95 59 96 60 97 61 98 62 99 63 100
REMARK H PARENT 21 6 5 16 15 26 15 27 25 31 87 50 53 61
REMARK Flexibility Score: inf
ROOT
ATOM      1  C   UNL A   1      34.237  30.771  27.265  1.00  0.00     0.042 C 
ENDROOT
BRANCH   1   2
ATOM      2  C   UNL A   1      32.982  30.460  26.274  1.00  0.00     0.118 C 
BRANCH   2   3
ATOM      3  N   UNL A   1      33.218  29.769  24.982  1.00  0.00    -0.352 N 
ATOM      4  C   UNL A   1      32.730  28.669  24.305  1.00  0.00     0.251 C 
ATOM      5  O   UNL A   1      32.899  28.528  23.093  1.00  0.00    -0.269 OA
ATOM      6  H   UNL A   1      33.920  30.222  24.461  1.00  0.00     0.163 HD
BRANCH   4   7
ATOM      7  C   UNL A   1      31.954  27.611  24.986  1.00  0.00     0.042 A 
ATOM      8  C   UNL A   1      29.879  27.942  23.526  1.00  0.00     0.045 C 
ATOM      9  C   UNL A   1      30.685  27.221  24.557  1.00  0.00    -0.036 A 
ATOM     10  C   UNL A   1      30.135  26.063  25.098  1.00  0.00     0.030 A 
ATOM     11  C   UNL A   1      30.783  25.356  26.105  1.00  0.00     0.041 A 
ATOM     12  C   UNL A   1      32.490  27.034  26.159  1.00  0.00     0.016 A 
ATOM     13  C   UNL A   1      31.885  25.916  26.744  1.00  0.00     0.027 A 
BRANCH  11  14
ATOM     14  N   UNL A   1      30.381  24.051  26.411  1.00  0.00    -0.322 N 
ATOM     15  C   UNL A   1      30.828  22.887  25.801  1.00  0.00     0.257 C 
ATOM     16  H   UNL A   1      29.715  23.948  27.129  1.00  0.00     0.170 HD
ATOM     17  O   UNL A   1      30.144  21.864  25.858  1.00  0.00    -0.269 OA
BRANCH  15  18
ATOM     18  C   UNL A   1      32.174  22.823  25.129  1.00  0.00     0.063 A 
ATOM     19  C   UNL A   1      33.277  22.578  25.970  1.00  0.00     0.017 A 
ATOM     20  C   UNL A   1      32.386  23.036  23.746  1.00  0.00     0.045 A 
ATOM     21  C   UNL A   1      34.579  22.561  25.458  1.00  0.00     0.016 A 
ATOM     22  C   UNL A   1      33.705  23.033  23.257  1.00  0.00     0.042 A 
ATOM     23  C   UNL A   1      34.785  22.797  24.104  1.00  0.00     0.020 A 
ATOM     24  Br  UNL A   1      36.545  22.852  23.413  1.00  0.00    -0.051 Br
BRANCH  20  25
ATOM     25  N   UNL A   1      31.386  23.439  22.855  1.00  0.00    -0.398 N 
ATOM     26  H   UNL A   1      31.512  24.245  22.305  1.00  0.00     0.156 HD
ATOM     27  H   UNL A   1      30.556  22.915  22.778  1.00  0.00     0.156 HD
ENDBRANCH  20  25
ENDBRANCH  15  18
ENDBRANCH  11  14
ENDBRANCH   4   7
ENDBRANCH   2   3
ENDBRANCH   1   2
BRANCH   1  28
ATOM     28  C   UNL A   1      35.222  29.568  27.612  1.00  0.00     0.118 C 
BRANCH  28  29
ATOM     29  N   UNL A   1      36.525  29.640  28.504  1.00  0.00    -0.352 N 
ATOM     30  C   UNL A   1      37.978  29.672  28.338  1.00  0.00     0.251 C 
ATOM     31  H   UNL A   1      36.287  29.672  29.459  1.00  0.00     0.163 HD
ATOM     32  O   UNL A   1      38.491  30.710  28.798  1.00  0.00    -0.269 OA
BRANCH  30  33
ATOM     33  C   UNL A   1      39.061  28.660  27.769  1.00  0.00     0.039 A 
ATOM     34  C   UNL A   1      39.076  27.281  28.162  1.00  0.00     0.014 A 
ATOM     35  C   UNL A   1      40.117  28.971  26.924  1.00  0.00     0.014 A 
ATOM     36  C   UNL A   1      40.322  26.526  28.225  1.00  0.00     0.010 A 
ATOM     37  C   UNL A   1      41.348  28.238  26.990  1.00  0.00     0.010 A 
ATOM     38  C   UNL A   1      41.527  27.151  27.858  1.00  0.00    -0.014 A 
BRANCH  38  39
ATOM     39  C   UNL A   1      42.880  26.934  28.551  1.00  0.00     0.031 A 
ATOM     40  C   UNL A   1      43.657  28.062  29.053  1.00  0.00     0.074 A 
ATOM     41  C   UNL A   1      43.477  25.765  28.957  1.00  0.00     0.049 A 
ATOM     42  N   UNL A   1      44.922  28.242  28.845  1.00  0.00    -0.248 NA
ATOM     43  C   UNL A   1      43.040  29.016  29.954  1.00  0.00     0.031 C 
ATOM     44  C   UNL A   1      44.661  25.452  29.781  1.00  0.00     0.029 A 
ATOM     45  N   UNL A   1      43.045  24.472  28.758  1.00  0.00    -0.354 N 
ATOM     46  C   UNL A   1      45.331  29.113  29.833  1.00  0.00     0.074 A 
ATOM     47  C   UNL A   1      44.109  29.716  30.335  1.00  0.00     0.031 C 
ATOM     48  C   UNL A   1      44.998  24.147  29.632  1.00  0.00     0.029 A 
ATOM     49  C   UNL A   1      44.088  23.558  28.670  1.00  0.00     0.049 A 
ATOM     50  H   UNL A   1      42.096  24.222  28.686  1.00  0.00     0.167 HD
ATOM     51  C   UNL A   1      46.587  29.055  30.376  1.00  0.00     0.037 A 
ATOM     52  C   UNL A   1      44.319  22.926  27.472  1.00  0.00     0.037 A 
ATOM     53  C   UNL A   1      47.307  27.823  29.991  1.00  0.00     0.049 A 
ATOM     54  C   UNL A   1      45.564  23.502  26.848  1.00  0.00     0.074 A 
ATOM     55  C   UNL A   1      47.723  26.694  30.687  1.00  0.00     0.029 A 
ATOM     56  N   UNL A   1      47.450  27.486  28.655  1.00  0.00    -0.354 N 
ATOM     57  N   UNL A   1      46.438  24.188  27.524  1.00  0.00    -0.248 NA
ATOM     58  C   UNL A   1      45.884  23.452  25.423  1.00  0.00     0.031 C 
ATOM     59  C   UNL A   1      48.132  25.698  29.751  1.00  0.00     0.029 A 
ATOM     60  C   UNL A   1      47.988  26.220  28.481  1.00  0.00     0.049 A 
ATOM     61  H   UNL A   1      47.197  28.080  27.911  1.00  0.00     0.167 HD
ATOM     62  C   UNL A   1      47.301  24.802  26.671  1.00  0.00     0.074 A 
ATOM     63  C   UNL A   1      46.956  24.264  25.365  1.00  0.00     0.031 C 
ATOM     64  C   UNL A   1      48.192  25.735  27.120  1.00  0.00     0.037 A 
BRANCH  51  65
ATOM     65  C   UNL A   1      47.036  29.974  31.507  1.00  0.00     0.058 A 
ATOM     66  C   UNL A   1      46.854  29.637  32.864  1.00  0.00     0.135 A 
ATOM     67  C   UNL A   1      47.721  31.195  31.306  1.00  0.00     0.135 A 
ATOM     68  F   UNL A   1      46.371  28.444  33.234  1.00  0.00    -0.206 F 
ATOM     69  C   UNL A   1      47.206  30.489  33.917  1.00  0.00     0.059 A 
ATOM     70  C   UNL A   1      48.006  32.100  32.331  1.00  0.00     0.059 A 
ATOM     71  F   UNL A   1      48.225  31.526  30.108  1.00  0.00    -0.206 F 
ATOM     72  C   UNL A   1      47.753  31.734  33.641  1.00  0.00     0.060 A 
BRANCH  72  73
ATOM     73  S   UNL A   1      48.230  32.809  35.006  1.00  0.00     0.124 S 
ATOM     74  O   UNL A   1      47.287  33.915  34.877  1.00  0.00    -0.237 OA
ATOM     75  O   UNL A   1      48.035  31.937  36.159  1.00  0.00    -0.237 OA
ATOM     76  O   UNL A   1      49.621  33.144  34.707  1.00  0.00    -0.744 OA
ENDBRANCH  72  73
ENDBRANCH  51  65
BRANCH  52  77
ATOM     77  C   UNL A   1      43.068  22.484  26.664  1.00  0.00     0.058 A 
ATOM     78  C   UNL A   1      43.210  22.632  25.270  1.00  0.00     0.135 A 
ATOM     79  C   UNL A   1      42.630  21.224  27.023  1.00  0.00     0.135 A 
ATOM     80  F   UNL A   1      42.980  23.822  24.702  1.00  0.00    -0.206 F 
ATOM     81  C   UNL A   1      43.669  21.584  24.469  1.00  0.00     0.059 A 
ATOM     82  C   UNL A   1      43.128  20.171  26.251  1.00  0.00     0.059 A 
ATOM     83  F   UNL A   1      42.260  20.975  28.291  1.00  0.00    -0.206 F 
ATOM     84  C   UNL A   1      43.828  20.354  25.076  1.00  0.00     0.060 A 
BRANCH  84  85
ATOM     85  S   UNL A   1      45.333  19.170  24.539  1.00  0.00     0.124 S 
ATOM     86  O   UNL A   1      44.871  18.840  23.204  1.00  0.00    -0.237 OA
ATOM     87  O   UNL A   1      46.527  19.973  24.523  1.00  0.00    -0.237 OA
ATOM     88  O   UNL A   1      45.368  18.045  25.466  1.00  0.00    -0.744 OA
ENDBRANCH  84  85
ENDBRANCH  52  77
BRANCH  64  89
ATOM     89  C   UNL A   1      49.305  26.302  26.284  1.00  0.00     0.058 A 
ATOM     90  C   UNL A   1      49.088  27.280  25.300  1.00  0.00     0.135 A 
ATOM     91  C   UNL A   1      50.619  25.780  26.345  1.00  0.00     0.135 A 
ATOM     92  F   UNL A   1      47.854  27.733  25.027  1.00  0.00    -0.206 F 
ATOM     93  C   UNL A   1      50.123  27.799  24.527  1.00  0.00     0.059 A 
ATOM     94  C   UNL A   1      51.656  26.249  25.553  1.00  0.00     0.059 A 
ATOM     95  F   UNL A   1      50.962  24.789  27.176  1.00  0.00    -0.206 F 
ATOM     96  C   UNL A   1      51.408  27.287  24.673  1.00  0.00     0.060 A 
BRANCH  96  97
ATOM     97  S   UNL A   1      52.745  27.964  23.686  1.00  0.00     0.124 S 
ATOM     98  O   UNL A   1      52.037  28.858  22.774  1.00  0.00    -0.237 OA
ATOM     99  O   UNL A   1      53.557  28.616  24.707  1.00  0.00    -0.237 OA
ATOM    100  O   UNL A   1      53.343  26.788  23.062  1.00  0.00    -0.744 OA
ENDBRANCH  96  97
ENDBRANCH  64  89
ENDBRANCH  38  39
ENDBRANCH  30  33
ENDBRANCH  28  29
ENDBRANCH   1  28
TORSDOF 16
ENDMDL
MODEL 3
REMARK VINA RESULT:     -12.4      6.353     12.026
REMARK SMILES Cc1cc(NC(=O)c2ccc(Br)cc2N)ccc1C(=O)NCCCNC(=O)c1ccc(-c2c3nc(c(-c4c(F)cc(S(=O)(=O)[O-])cc4F)c4ccc([nH]4)c(-c4c(F)cc(S(=O)(=O)[O-])cc4F)c4nc(c(-c5c(F)cc(S(=O)(=O)[O-])cc5F)c5ccc2[nH]5)C=C4)C=C3)cc1
REMARK SMILES IDX 23 1 22 2 21 3 19 4 20 5 18 7 1 8 2 9 3 10 4 11 17 12 16 13
REMARK SMILES IDX 5 14 6 15 7 17 8 18 9 19 14 20 10 21 13 22 11 23 12 24 15 25
REMARK SMILES IDX 24 28 25 29 26 30 27 32 28 33 29 34 93 35 30 36 92 37 31 38
REMARK SMILES IDX 32 39 33 40 86 41 34 42 91 43 85 44 87 45 35 46 90 47 84 48
REMARK SMILES IDX 83 49 36 51 70 52 49 53 69 54 50 55 53 56 68 57 88 58 51 59
REMARK SMILES IDX 52 60 67 62 89 63 54 64 37 65 38 66 47 67 39 68 40 69 46 70
REMARK SMILES IDX 48 71 41 72 42 73 43 74 44 75 45 76 71 77 72 78 81 79 73 80
REMARK SMILES IDX 74 81 80 82 82 83 75 84 76 85 77 86 78 87 79 88 55 89 56 90
REMARK SMILES IDX 65 91 57 92 58 93 64 94 66 95 59 96 60 97 61 98 62 99 63 100
REMARK H PARENT 21 6 5 16 15 26 15 27 25 31 87 50 53 61
REMARK Flexibility Score: inf
ROOT
ATOM      1  C   UNL A   1      34.167  31.233  27.908  1.00  0.00     0.042 C 
ENDROOT
BRANCH   1   2
ATOM      2  C   UNL A   1      32.868  30.807  27.023  1.00  0.00     0.118 C 
BRANCH   2   3
ATOM      3  N   UNL A   1      32.095  29.594  27.387  1.00  0.00    -0.352 N 
ATOM      4  C   UNL A   1      31.811  28.358  26.840  1.00  0.00     0.251 C 
ATOM      5  O   UNL A   1      31.399  27.424  27.530  1.00  0.00    -0.269 OA
ATOM      6  H   UNL A   1      31.664  29.698  28.265  1.00  0.00     0.163 HD
BRANCH   4   7
ATOM      7  C   UNL A   1      32.011  28.072  25.404  1.00  0.00     0.042 A 
ATOM      8  C   UNL A   1      34.541  27.763  25.632  1.00  0.00     0.045 C 
ATOM      9  C   UNL A   1      33.251  27.706  24.880  1.00  0.00    -0.036 A 
ATOM     10  C   UNL A   1      33.297  27.221  23.576  1.00  0.00     0.030 A 
ATOM     11  C   UNL A   1      32.159  27.185  22.777  1.00  0.00     0.041 A 
ATOM     12  C   UNL A   1      30.921  28.255  24.524  1.00  0.00     0.016 A 
ATOM     13  C   UNL A   1      31.003  27.837  23.191  1.00  0.00     0.027 A 
BRANCH  11  14
ATOM     14  N   UNL A   1      32.154  26.420  21.605  1.00  0.00    -0.322 N 
ATOM     15  C   UNL A   1      32.655  25.134  21.459  1.00  0.00     0.257 C 
ATOM     16  H   UNL A   1      31.756  26.835  20.806  1.00  0.00     0.170 HD
ATOM     17  O   UNL A   1      32.959  24.719  20.340  1.00  0.00    -0.269 OA
BRANCH  15  18
ATOM     18  C   UNL A   1      32.768  24.200  22.634  1.00  0.00     0.063 A 
ATOM     19  C   UNL A   1      34.067  23.759  22.954  1.00  0.00     0.017 A 
ATOM     20  C   UNL A   1      31.665  23.719  23.380  1.00  0.00     0.045 A 
ATOM     21  C   UNL A   1      34.277  22.840  23.987  1.00  0.00     0.016 A 
ATOM     22  C   UNL A   1      31.899  22.782  24.402  1.00  0.00     0.042 A 
ATOM     23  C   UNL A   1      33.189  22.350  24.701  1.00  0.00     0.020 A 
ATOM     24  Br  UNL A   1      33.452  21.051  26.050  1.00  0.00    -0.051 Br
BRANCH  20  25
ATOM     25  N   UNL A   1      30.329  23.969  23.049  1.00  0.00    -0.398 N 
ATOM     26  H   UNL A   1      29.684  24.207  23.753  1.00  0.00     0.156 HD
ATOM     27  H   UNL A   1      30.035  23.906  22.112  1.00  0.00     0.156 HD
ENDBRANCH  20  25
ENDBRANCH  15  18
ENDBRANCH  11  14
ENDBRANCH   4   7
ENDBRANCH   2   3
ENDBRANCH   1   2
BRANCH   1  28
ATOM     28  C   UNL A   1      35.548  30.501  27.598  1.00  0.00     0.118 C 
BRANCH  28  29
ATOM     29  N   UNL A   1      36.491  29.780  28.640  1.00  0.00    -0.352 N 
ATOM     30  C   UNL A   1      37.919  29.542  28.860  1.00  0.00     0.251 C 
ATOM     31  H   UNL A   1      35.959  29.365  29.357  1.00  0.00     0.163 HD
ATOM     32  O   UNL A   1      38.326  30.028  29.933  1.00  0.00    -0.269 OA
BRANCH  30  33
ATOM     33  C   UNL A   1      39.052  28.750  28.082  1.00  0.00     0.039 A 
ATOM     34  C   UNL A   1      39.198  27.329  28.212  1.00  0.00     0.014 A 
ATOM     35  C   UNL A   1      40.041  29.301  27.278  1.00  0.00     0.014 A 
ATOM     36  C   UNL A   1      40.502  26.688  28.097  1.00  0.00     0.010 A 
ATOM     37  C   UNL A   1      41.328  28.679  27.171  1.00  0.00     0.010 A 
ATOM     38  C   UNL A   1      41.635  27.472  27.816  1.00  0.00    -0.014 A 
BRANCH  38  39
ATOM     39  C   UNL A   1      43.031  27.253  28.416  1.00  0.00     0.031 A 
ATOM     40  C   UNL A   1      43.894  28.382  28.746  1.00  0.00     0.074 A 
ATOM     41  C   UNL A   1      43.610  26.098  28.882  1.00  0.00     0.049 A 
ATOM     42  N   UNL A   1      45.143  28.480  28.422  1.00  0.00    -0.248 NA
ATOM     43  C   UNL A   1      43.395  29.443  29.600  1.00  0.00     0.031 C 
ATOM     44  C   UNL A   1      44.846  25.803  29.635  1.00  0.00     0.029 A 
ATOM     45  N   UNL A   1      43.111  24.815  28.841  1.00  0.00    -0.354 N 
ATOM     46  C   UNL A   1      45.669  29.416  29.287  1.00  0.00     0.074 A 
ATOM     47  C   UNL A   1      44.520  30.122  29.827  1.00  0.00     0.031 C 
ATOM     48  C   UNL A   1      45.114  24.475  29.583  1.00  0.00     0.029 A 
ATOM     49  C   UNL A   1      44.103  23.846  28.757  1.00  0.00     0.049 A 
ATOM     50  H   UNL A   1      42.149  24.607  28.869  1.00  0.00     0.167 HD
ATOM     51  C   UNL A   1      46.963  29.346  29.731  1.00  0.00     0.037 A 
ATOM     52  C   UNL A   1      44.206  23.098  27.609  1.00  0.00     0.037 A 
ATOM     53  C   UNL A   1      47.596  28.050  29.408  1.00  0.00     0.049 A 
ATOM     54  C   UNL A   1      45.417  23.552  26.836  1.00  0.00     0.074 A 
ATOM     55  C   UNL A   1      48.022  26.970  30.173  1.00  0.00     0.029 A 
ATOM     56  N   UNL A   1      47.612  27.587  28.103  1.00  0.00    -0.354 N 
ATOM     57  N   UNL A   1      46.373  24.253  27.373  1.00  0.00    -0.248 NA
ATOM     58  C   UNL A   1      45.614  23.358  25.401  1.00  0.00     0.031 C 
ATOM     59  C   UNL A   1      48.309  25.874  29.306  1.00  0.00     0.029 A 
ATOM     60  C   UNL A   1      48.080  26.286  28.007  1.00  0.00     0.049 A 
ATOM     61  H   UNL A   1      47.323  28.123  27.329  1.00  0.00     0.167 HD
ATOM     62  C   UNL A   1      47.186  24.745  26.400  1.00  0.00     0.074 A 
ATOM     63  C   UNL A   1      46.710  24.108  25.182  1.00  0.00     0.031 C 
ATOM     64  C   UNL A   1      48.149  25.670  26.686  1.00  0.00     0.037 A 
BRANCH  51  65
ATOM     65  C   UNL A   1      47.543  30.341  30.732  1.00  0.00     0.058 A 
ATOM     66  C   UNL A   1      48.034  31.602  30.337  1.00  0.00     0.135 A 
ATOM     67  C   UNL A   1      47.583  30.121  32.129  1.00  0.00     0.135 A 
ATOM     68  F   UNL A   1      47.922  32.037  29.076  1.00  0.00    -0.206 F 
ATOM     69  C   UNL A   1      48.623  32.506  31.228  1.00  0.00     0.059 A 
ATOM     70  C   UNL A   1      48.238  30.967  33.026  1.00  0.00     0.059 A 
ATOM     71  F   UNL A   1      46.906  29.112  32.698  1.00  0.00    -0.206 F 
ATOM     72  C   UNL A   1      48.749  32.167  32.568  1.00  0.00     0.060 A 
BRANCH  72  73
ATOM     73  S   UNL A   1      49.481  33.353  33.711  1.00  0.00     0.124 S 
ATOM     74  O   UNL A   1      48.967  34.625  33.214  1.00  0.00    -0.237 OA
ATOM     75  O   UNL A   1      48.943  32.907  34.992  1.00  0.00    -0.237 OA
ATOM     76  O   UNL A   1      50.918  33.155  33.536  1.00  0.00    -0.744 OA
ENDBRANCH  72  73
ENDBRANCH  51  65
BRANCH  52  77
ATOM     77  C   UNL A   1      42.874  22.647  26.949  1.00  0.00     0.058 A 
ATOM     78  C   UNL A   1      42.899  22.678  25.541  1.00  0.00     0.135 A 
ATOM     79  C   UNL A   1      42.426  21.438  27.446  1.00  0.00     0.135 A 
ATOM     80  F   UNL A   1      42.662  23.828  24.898  1.00  0.00    -0.206 F 
ATOM     81  C   UNL A   1      43.249  21.551  24.792  1.00  0.00     0.059 A 
ATOM     82  C   UNL A   1      42.817  20.307  26.724  1.00  0.00     0.059 A 
ATOM     83  F   UNL A   1      42.160  21.306  28.758  1.00  0.00    -0.206 F 
ATOM     84  C   UNL A   1      43.418  20.367  25.483  1.00  0.00     0.060 A 
BRANCH  84  85
ATOM     85  S   UNL A   1      44.827  19.083  24.920  1.00  0.00     0.124 S 
ATOM     86  O   UNL A   1      45.985  19.845  25.346  1.00  0.00    -0.237 OA
ATOM     87  O   UNL A   1      44.647  17.882  25.692  1.00  0.00    -0.237 OA
ATOM     88  O   UNL A   1      44.714  18.902  23.477  1.00  0.00    -0.744 OA
ENDBRANCH  84  85
ENDBRANCH  52  77
BRANCH  64  89
ATOM     89  C   UNL A   1      49.211  26.103  25.714  1.00  0.00     0.058 A 
ATOM     90  C   UNL A   1      50.572  25.809  25.901  1.00  0.00     0.135 A 
ATOM     91  C   UNL A   1      48.916  26.953  24.623  1.00  0.00     0.135 A 
ATOM     92  F   UNL A   1      51.000  25.154  26.993  1.00  0.00    -0.206 F 
ATOM     93  C   UNL A   1      51.551  26.215  24.999  1.00  0.00     0.059 A 
ATOM     94  C   UNL A   1      49.881  27.408  23.737  1.00  0.00     0.059 A 
ATOM     95  F   UNL A   1      47.677  27.385  24.361  1.00  0.00    -0.206 F 
ATOM     96  C   UNL A   1      51.191  27.002  23.910  1.00  0.00     0.060 A 
BRANCH  96  97
ATOM     97  S   UNL A   1      52.452  27.515  22.739  1.00  0.00     0.124 S 
ATOM     98  O   UNL A   1      53.335  28.328  23.569  1.00  0.00    -0.237 OA
ATOM     99  O   UNL A   1      52.990  26.229  22.312  1.00  0.00    -0.237 OA
ATOM    100  O   UNL A   1      51.701  28.251  21.726  1.00  0.00    -0.744 OA
ENDBRANCH  96  97
ENDBRANCH  64  89
ENDBRANCH  38  39
ENDBRANCH  30  33
ENDBRANCH  28  29
ENDBRANCH   1  28
TORSDOF 16
ENDMDL
