MODEL 1
REMARK VINA RESULT:     -12.9      0.000      0.000
REMARK SMILES Cc1cc(Cl)c(C)c2c1O[C@H](C(F)(F)F)C(C(=O)NCCCNC(=O)c1ccc(-c3c4nc(c(-c5c(F)cc(S(=O)(=O)[O-])cc5F)c5ccc([nH]5)c(-c5c(F)cc(S(=O)(=O)[O-])cc5F)c5nc(c(-c6c(F)cc(S(=O)(=O)[O-])cc6F)c6ccc3[nH]6)C=C5)C=C4)cc1)=C2
REMARK SMILES IDX 22 1 21 2 20 3 19 4 17 5 18 6 16 8 1 9 2 10 3 11 9 12 4 13
REMARK SMILES IDX 8 14 10 15 5 16 6 17 92 18 11 19 7 20 12 21 13 22 14 23
REMARK SMILES IDX 15 24 23 25 24 26 25 28 26 29 27 30 91 31 28 32 90 33 29 34
REMARK SMILES IDX 30 35 31 36 84 37 32 38 89 39 83 40 85 41 33 42 88 43 82 44
REMARK SMILES IDX 81 45 34 47 68 48 47 49 67 50 48 51 51 52 66 53 86 54 49 55
REMARK SMILES IDX 50 56 65 58 87 59 52 60 35 61 36 62 45 63 37 64 38 65 44 66
REMARK SMILES IDX 46 67 39 68 40 69 41 70 42 71 43 72 69 73 70 74 79 75 71 76
REMARK SMILES IDX 72 77 78 78 80 79 73 80 74 81 75 82 76 83 77 84 53 85 54 86
REMARK SMILES IDX 63 87 55 88 56 89 62 90 64 91 57 92 58 93 59 94 60 95 61 96
REMARK H PARENT 19 7 23 27 85 46 51 57
REMARK Flexibility Score: inf
ROOT
ATOM      1  C   UNL A   1      40.339  23.297  27.174  1.00  0.00     0.118 C 
ENDROOT
BRANCH   1   2
ATOM      2  C   UNL A   1      39.145  22.633  26.502  1.00  0.00     0.042 C 
BRANCH   2   3
ATOM      3  C   UNL A   1      38.114  23.649  26.034  1.00  0.00     0.118 C 
BRANCH   3   4
ATOM      4  N   UNL A   1      37.701  23.412  24.658  1.00  0.00    -0.352 N 
ATOM      5  C   UNL A   1      36.539  23.331  23.970  1.00  0.00     0.251 C 
ATOM      6  O   UNL A   1      36.656  23.119  22.759  1.00  0.00    -0.270 OA
ATOM      7  H   UNL A   1      38.478  23.274  24.069  1.00  0.00     0.163 HD
BRANCH   5   8
ATOM      8  C   UNL A   1      35.180  23.488  24.565  1.00  0.00     0.067 C 
ATOM      9  C   UNL A   1      30.382  22.861  26.157  1.00  0.00     0.048 C 
ATOM     10  C   UNL A   1      31.307  24.042  26.070  1.00  0.00    -0.007 A 
ATOM     11  C   UNL A   1      30.918  25.292  26.549  1.00  0.00     0.028 A 
ATOM     12  C   UNL A   1      32.582  23.909  25.513  1.00  0.00     0.131 A 
ATOM     13  C   UNL A   1      31.788  26.388  26.474  1.00  0.00     0.045 A 
ATOM     14  C   UNL A   1      33.472  24.993  25.431  1.00  0.00     0.022 A 
ATOM     15  O   UNL A   1      32.887  22.672  25.012  1.00  0.00    -0.475 OA
ATOM     16  Cl  UNL A   1      31.187  27.887  27.097  1.00  0.00    -0.084 Cl
ATOM     17  C   UNL A   1      33.077  26.261  25.920  1.00  0.00    -0.021 A 
ATOM     18  C   UNL A   1      34.778  24.751  24.805  1.00  0.00     0.026 C 
ATOM     19  C   UNL A   1      34.289  22.340  24.919  1.00  0.00     0.314 C 
ATOM     20  C   UNL A   1      34.026  27.431  25.841  1.00  0.00     0.047 C 
BRANCH  19  21
ATOM     21  C   UNL A   1      34.732  21.612  26.202  1.00  0.00     0.429 C 
ATOM     22  F   UNL A   1      33.797  20.705  26.582  1.00  0.00    -0.167 F 
ATOM     23  F   UNL A   1      35.889  20.926  26.043  1.00  0.00    -0.167 F 
ATOM     24  F   UNL A   1      34.921  22.455  27.243  1.00  0.00    -0.167 F 
ENDBRANCH  19  21
ENDBRANCH   5   8
ENDBRANCH   3   4
ENDBRANCH   2   3
ENDBRANCH   1   2
BRANCH   1  25
ATOM     25  N   UNL A   1      41.199  23.971  26.202  1.00  0.00    -0.352 N 
ATOM     26  C   UNL A   1      41.505  25.301  26.068  1.00  0.00     0.251 C 
ATOM     27  H   UNL A   1      41.624  23.377  25.543  1.00  0.00     0.163 HD
ATOM     28  O   UNL A   1      41.999  25.707  25.016  1.00  0.00    -0.269 OA
BRANCH  26  29
ATOM     29  C   UNL A   1      41.242  26.233  27.178  1.00  0.00     0.039 A 
ATOM     30  C   UNL A   1      40.226  25.948  28.094  1.00  0.00     0.014 A 
ATOM     31  C   UNL A   1      41.988  27.408  27.299  1.00  0.00     0.014 A 
ATOM     32  C   UNL A   1      40.003  26.813  29.165  1.00  0.00     0.010 A 
ATOM     33  C   UNL A   1      41.835  28.212  28.418  1.00  0.00     0.010 A 
ATOM     34  C   UNL A   1      40.829  27.934  29.353  1.00  0.00    -0.014 A 
BRANCH  34  35
ATOM     35  C   UNL A   1      40.640  28.854  30.499  1.00  0.00     0.031 A 
ATOM     36  C   UNL A   1      41.491  28.694  31.730  1.00  0.00     0.074 A 
ATOM     37  C   UNL A   1      39.666  29.785  30.451  1.00  0.00     0.049 A 
ATOM     38  N   UNL A   1      41.430  29.343  32.863  1.00  0.00    -0.248 NA
ATOM     39  C   UNL A   1      42.525  27.646  31.695  1.00  0.00     0.031 C 
ATOM     40  C   UNL A   1      38.751  29.996  29.328  1.00  0.00     0.029 A 
ATOM     41  N   UNL A   1      39.280  30.724  31.374  1.00  0.00    -0.354 N 
ATOM     42  C   UNL A   1      42.405  28.775  33.674  1.00  0.00     0.074 A 
ATOM     43  C   UNL A   1      42.999  27.687  32.931  1.00  0.00     0.031 C 
ATOM     44  C   UNL A   1      37.931  31.020  29.613  1.00  0.00     0.029 A 
ATOM     45  C   UNL A   1      38.235  31.512  30.953  1.00  0.00     0.049 A 
ATOM     46  H   UNL A   1      39.711  30.825  32.253  1.00  0.00     0.167 HD
ATOM     47  C   UNL A   1      42.793  29.150  34.915  1.00  0.00     0.037 A 
ATOM     48  C   UNL A   1      37.592  32.516  31.582  1.00  0.00     0.037 A 
ATOM     49  C   UNL A   1      42.220  30.259  35.629  1.00  0.00     0.049 A 
ATOM     50  C   UNL A   1      38.039  32.912  32.964  1.00  0.00     0.074 A 
ATOM     51  C   UNL A   1      42.579  30.761  36.866  1.00  0.00     0.029 A 
ATOM     52  N   UNL A   1      41.170  31.041  35.167  1.00  0.00    -0.354 N 
ATOM     53  N   UNL A   1      39.003  32.401  33.694  1.00  0.00    -0.248 NA
ATOM     54  C   UNL A   1      37.317  34.018  33.606  1.00  0.00     0.031 C 
ATOM     55  C   UNL A   1      41.716  31.817  37.174  1.00  0.00     0.029 A 
ATOM     56  C   UNL A   1      40.853  32.006  36.105  1.00  0.00     0.049 A 
ATOM     57  H   UNL A   1      40.718  30.924  34.300  1.00  0.00     0.167 HD
ATOM     58  C   UNL A   1      39.015  33.137  34.874  1.00  0.00     0.074 A 
ATOM     59  C   UNL A   1      37.975  34.137  34.752  1.00  0.00     0.031 C 
ATOM     60  C   UNL A   1      39.814  32.995  35.961  1.00  0.00     0.037 A 
BRANCH  47  61
ATOM     61  C   UNL A   1      43.901  28.374  35.570  1.00  0.00     0.058 A 
ATOM     62  C   UNL A   1      45.251  28.702  35.361  1.00  0.00     0.135 A 
ATOM     63  C   UNL A   1      43.614  27.328  36.462  1.00  0.00     0.135 A 
ATOM     64  F   UNL A   1      45.584  29.679  34.503  1.00  0.00    -0.206 F 
ATOM     65  C   UNL A   1      46.275  28.011  35.999  1.00  0.00     0.059 A 
ATOM     66  C   UNL A   1      44.620  26.643  37.134  1.00  0.00     0.059 A 
ATOM     67  F   UNL A   1      42.340  26.969  36.693  1.00  0.00    -0.206 F 
ATOM     68  C   UNL A   1      45.950  26.987  36.889  1.00  0.00     0.060 A 
BRANCH  68  69
ATOM     69  S   UNL A   1      47.293  26.126  37.733  1.00  0.00     0.124 S 
ATOM     70  O   UNL A   1      47.677  27.105  38.744  1.00  0.00    -0.237 OA
ATOM     71  O   UNL A   1      46.626  24.928  38.233  1.00  0.00    -0.237 OA
ATOM     72  O   UNL A   1      48.272  25.901  36.675  1.00  0.00    -0.744 OA
ENDBRANCH  68  69
ENDBRANCH  47  61
BRANCH  48  73
ATOM     73  C   UNL A   1      36.482  33.231  30.896  1.00  0.00     0.058 A 
ATOM     74  C   UNL A   1      35.151  33.047  31.298  1.00  0.00     0.135 A 
ATOM     75  C   UNL A   1      36.728  34.132  29.849  1.00  0.00     0.135 A 
ATOM     76  F   UNL A   1      34.863  32.192  32.292  1.00  0.00    -0.206 F 
ATOM     77  C   UNL A   1      34.103  33.722  30.682  1.00  0.00     0.059 A 
ATOM     78  C   UNL A   1      35.700  34.839  29.234  1.00  0.00     0.059 A 
ATOM     79  F   UNL A   1      37.986  34.358  29.438  1.00  0.00    -0.206 F 
ATOM     80  C   UNL A   1      34.388  34.622  29.654  1.00  0.00     0.060 A 
BRANCH  80  81
ATOM     81  S   UNL A   1      33.023  35.533  28.901  1.00  0.00     0.124 S 
ATOM     82  O   UNL A   1      33.735  36.552  28.137  1.00  0.00    -0.237 OA
ATOM     83  O   UNL A   1      32.360  34.495  28.119  1.00  0.00    -0.237 OA
ATOM     84  O   UNL A   1      32.268  36.020  30.051  1.00  0.00    -0.744 OA
ENDBRANCH  80  81
ENDBRANCH  48  73
BRANCH  60  85
ATOM     85  C   UNL A   1      39.608  33.949  37.105  1.00  0.00     0.058 A 
ATOM     86  C   UNL A   1      38.891  33.575  38.251  1.00  0.00     0.135 A 
ATOM     87  C   UNL A   1      40.208  35.219  37.088  1.00  0.00     0.135 A 
ATOM     88  F   UNL A   1      38.295  32.374  38.313  1.00  0.00    -0.206 F 
ATOM     89  C   UNL A   1      38.765  34.432  39.337  1.00  0.00     0.059 A 
ATOM     90  C   UNL A   1      40.119  36.081  38.175  1.00  0.00     0.059 A 
ATOM     91  F   UNL A   1      40.914  35.620  36.019  1.00  0.00    -0.206 F 
ATOM     92  C   UNL A   1      39.389  35.680  39.294  1.00  0.00     0.060 A 
BRANCH  92  93
ATOM     93  S   UNL A   1      39.257  36.760  40.734  1.00  0.00     0.124 S 
ATOM     94  O   UNL A   1      38.347  36.002  41.587  1.00  0.00    -0.237 OA
ATOM     95  O   UNL A   1      40.641  36.835  41.192  1.00  0.00    -0.237 OA
ATOM     96  O   UNL A   1      38.716  37.999  40.184  1.00  0.00    -0.744 OA
ENDBRANCH  92  93
ENDBRANCH  60  85
ENDBRANCH  34  35
ENDBRANCH  26  29
ENDBRANCH   1  25
TORSDOF 14
ENDMDL
MODEL 2
REMARK VINA RESULT:     -12.9      5.005     10.371
REMARK SMILES Cc1cc(Cl)c(C)c2c1O[C@H](C(F)(F)F)C(C(=O)NCCCNC(=O)c1ccc(-c3c4nc(c(-c5c(F)cc(S(=O)(=O)[O-])cc5F)c5ccc([nH]5)c(-c5c(F)cc(S(=O)(=O)[O-])cc5F)c5nc(c(-c6c(F)cc(S(=O)(=O)[O-])cc6F)c6ccc3[nH]6)C=C5)C=C4)cc1)=C2
REMARK SMILES IDX 22 1 21 2 20 3 19 4 17 5 18 6 16 8 1 9 2 10 3 11 9 12 4 13
REMARK SMILES IDX 8 14 10 15 5 16 6 17 92 18 11 19 7 20 12 21 13 22 14 23
REMARK SMILES IDX 15 24 23 25 24 26 25 28 26 29 27 30 91 31 28 32 90 33 29 34
REMARK SMILES IDX 30 35 31 36 84 37 32 38 89 39 83 40 85 41 33 42 88 43 82 44
REMARK SMILES IDX 81 45 34 47 68 48 47 49 67 50 48 51 51 52 66 53 86 54 49 55
REMARK SMILES IDX 50 56 65 58 87 59 52 60 35 61 36 62 45 63 37 64 38 65 44 66
REMARK SMILES IDX 46 67 39 68 40 69 41 70 42 71 43 72 69 73 70 74 79 75 71 76
REMARK SMILES IDX 72 77 78 78 80 79 73 80 74 81 75 82 76 83 77 84 53 85 54 86
REMARK SMILES IDX 63 87 55 88 56 89 62 90 64 91 57 92 58 93 59 94 60 95 61 96
REMARK H PARENT 19 7 23 27 85 46 51 57
REMARK Flexibility Score: inf
ROOT
ATOM      1  C   UNL A   1      34.069  28.059  26.483  1.00  0.00     0.118 C 
ENDROOT
BRANCH   1   2
ATOM      2  C   UNL A   1      34.130  27.973  24.965  1.00  0.00     0.042 C 
BRANCH   2   3
ATOM      3  C   UNL A   1      32.982  27.157  24.390  1.00  0.00     0.118 C 
BRANCH   3   4
ATOM      4  N   UNL A   1      32.089  26.666  25.430  1.00  0.00    -0.352 N 
ATOM      5  C   UNL A   1      31.807  25.480  26.017  1.00  0.00     0.251 C 
ATOM      6  O   UNL A   1      30.951  25.522  26.907  1.00  0.00    -0.270 OA
ATOM      7  H   UNL A   1      31.544  27.393  25.809  1.00  0.00     0.163 HD
BRANCH   5   8
ATOM      8  C   UNL A   1      32.452  24.180  25.673  1.00  0.00     0.067 C 
ATOM      9  C   UNL A   1      33.471  19.326  24.513  1.00  0.00     0.048 C 
ATOM     10  C   UNL A   1      34.316  20.505  24.904  1.00  0.00    -0.007 A 
ATOM     11  C   UNL A   1      35.706  20.407  24.943  1.00  0.00     0.028 A 
ATOM     12  C   UNL A   1      33.724  21.728  25.232  1.00  0.00     0.131 A 
ATOM     13  C   UNL A   1      36.490  21.512  25.301  1.00  0.00     0.045 A 
ATOM     14  C   UNL A   1      34.490  22.850  25.590  1.00  0.00     0.022 A 
ATOM     15  O   UNL A   1      32.356  21.747  25.228  1.00  0.00    -0.475 OA
ATOM     16  Cl  UNL A   1      38.203  21.263  25.317  1.00  0.00    -0.084 Cl
ATOM     17  C   UNL A   1      35.902  22.751  25.625  1.00  0.00    -0.021 A 
ATOM     18  C   UNL A   1      33.768  24.080  25.939  1.00  0.00     0.026 C 
ATOM     19  C   UNL A   1      31.727  23.034  25.040  1.00  0.00     0.314 C 
ATOM     20  C   UNL A   1      36.735  23.950  26.003  1.00  0.00     0.047 C 
BRANCH  19  21
ATOM     21  C   UNL A   1      31.449  23.256  23.542  1.00  0.00     0.429 C 
ATOM     22  F   UNL A   1      32.338  24.136  23.017  1.00  0.00    -0.167 F 
ATOM     23  F   UNL A   1      31.560  22.120  22.814  1.00  0.00    -0.167 F 
ATOM     24  F   UNL A   1      30.211  23.747  23.307  1.00  0.00    -0.167 F 
ENDBRANCH  19  21
ENDBRANCH   5   8
ENDBRANCH   3   4
ENDBRANCH   2   3
ENDBRANCH   1   2
BRANCH   1  25
ATOM     25  N   UNL A   1      33.765  29.417  26.934  1.00  0.00    -0.352 N 
ATOM     26  C   UNL A   1      34.454  30.237  27.790  1.00  0.00     0.251 C 
ATOM     27  H   UNL A   1      32.937  29.801  26.566  1.00  0.00     0.163 HD
ATOM     28  O   UNL A   1      33.891  31.215  28.279  1.00  0.00    -0.269 OA
BRANCH  26  29
ATOM     29  C   UNL A   1      35.860  29.943  28.120  1.00  0.00     0.039 A 
ATOM     30  C   UNL A   1      36.189  29.484  29.398  1.00  0.00     0.014 A 
ATOM     31  C   UNL A   1      36.861  30.146  27.166  1.00  0.00     0.014 A 
ATOM     32  C   UNL A   1      37.516  29.171  29.695  1.00  0.00     0.010 A 
ATOM     33  C   UNL A   1      38.160  29.739  27.430  1.00  0.00     0.010 A 
ATOM     34  C   UNL A   1      38.505  29.265  28.702  1.00  0.00    -0.014 A 
BRANCH  34  35
ATOM     35  C   UNL A   1      39.917  28.909  28.977  1.00  0.00     0.031 A 
ATOM     36  C   UNL A   1      40.839  29.937  29.576  1.00  0.00     0.074 A 
ATOM     37  C   UNL A   1      40.376  27.691  28.632  1.00  0.00     0.049 A 
ATOM     38  N   UNL A   1      42.121  29.851  29.820  1.00  0.00    -0.248 NA
ATOM     39  C   UNL A   1      40.253  31.245  29.915  1.00  0.00     0.031 C 
ATOM     40  C   UNL A   1      39.582  26.635  28.001  1.00  0.00     0.029 A 
ATOM     41  N   UNL A   1      41.624  27.136  28.757  1.00  0.00    -0.354 N 
ATOM     42  C   UNL A   1      42.491  31.091  30.328  1.00  0.00     0.074 A 
ATOM     43  C   UNL A   1      41.318  31.933  30.296  1.00  0.00     0.031 C 
ATOM     44  C   UNL A   1      40.352  25.550  27.824  1.00  0.00     0.029 A 
ATOM     45  C   UNL A   1      41.703  25.845  28.290  1.00  0.00     0.049 A 
ATOM     46  H   UNL A   1      42.391  27.616  29.145  1.00  0.00     0.167 HD
ATOM     47  C   UNL A   1      43.695  31.479  30.809  1.00  0.00     0.037 A 
ATOM     48  C   UNL A   1      42.750  24.998  28.240  1.00  0.00     0.037 A 
ATOM     49  C   UNL A   1      44.845  30.619  30.870  1.00  0.00     0.049 A 
ATOM     50  C   UNL A   1      44.080  25.455  28.777  1.00  0.00     0.074 A 
ATOM     51  C   UNL A   1      46.095  30.892  31.393  1.00  0.00     0.029 A 
ATOM     52  N   UNL A   1      44.884  29.314  30.397  1.00  0.00    -0.354 N 
ATOM     53  N   UNL A   1      44.399  26.613  29.308  1.00  0.00    -0.248 NA
ATOM     54  C   UNL A   1      45.190  24.496  28.712  1.00  0.00     0.031 C 
ATOM     55  C   UNL A   1      46.905  29.771  31.193  1.00  0.00     0.029 A 
ATOM     56  C   UNL A   1      46.144  28.779  30.594  1.00  0.00     0.049 A 
ATOM     57  H   UNL A   1      44.127  28.841  29.982  1.00  0.00     0.167 HD
ATOM     58  C   UNL A   1      45.740  26.513  29.658  1.00  0.00     0.074 A 
ATOM     59  C   UNL A   1      46.168  25.178  29.294  1.00  0.00     0.031 C 
ATOM     60  C   UNL A   1      46.547  27.444  30.227  1.00  0.00     0.037 A 
BRANCH  47  61
ATOM     61  C   UNL A   1      43.825  32.884  31.328  1.00  0.00     0.058 A 
ATOM     62  C   UNL A   1      44.211  33.943  30.491  1.00  0.00     0.135 A 
ATOM     63  C   UNL A   1      43.504  33.187  32.661  1.00  0.00     0.135 A 
ATOM     64  F   UNL A   1      44.550  33.708  29.215  1.00  0.00    -0.206 F 
ATOM     65  C   UNL A   1      44.291  35.249  30.962  1.00  0.00     0.059 A 
ATOM     66  C   UNL A   1      43.547  34.490  33.146  1.00  0.00     0.059 A 
ATOM     67  F   UNL A   1      43.134  32.210  33.506  1.00  0.00    -0.206 F 
ATOM     68  C   UNL A   1      43.951  35.514  32.289  1.00  0.00     0.060 A 
BRANCH  68  69
ATOM     69  S   UNL A   1      44.028  37.221  32.870  1.00  0.00     0.124 S 
ATOM     70  O   UNL A   1      43.854  37.961  31.623  1.00  0.00    -0.237 OA
ATOM     71  O   UNL A   1      42.908  37.282  33.803  1.00  0.00    -0.237 OA
ATOM     72  O   UNL A   1      45.352  37.317  33.475  1.00  0.00    -0.744 OA
ENDBRANCH  68  69
ENDBRANCH  47  61
BRANCH  48  73
ATOM     73  C   UNL A   1      42.570  23.628  27.689  1.00  0.00     0.058 A 
ATOM     74  C   UNL A   1      42.653  23.392  26.309  1.00  0.00     0.135 A 
ATOM     75  C   UNL A   1      42.344  22.526  28.527  1.00  0.00     0.135 A 
ATOM     76  F   UNL A   1      42.862  24.413  25.465  1.00  0.00    -0.206 F 
ATOM     77  C   UNL A   1      42.507  22.115  25.778  1.00  0.00     0.059 A 
ATOM     78  C   UNL A   1      42.222  21.235  28.023  1.00  0.00     0.059 A 
ATOM     79  F   UNL A   1      42.275  22.695  29.857  1.00  0.00    -0.206 F 
ATOM     80  C   UNL A   1      42.299  21.040  26.644  1.00  0.00     0.060 A 
BRANCH  80  81
ATOM     81  S   UNL A   1      42.169  19.381  25.946  1.00  0.00     0.124 S 
ATOM     82  O   UNL A   1      42.691  18.561  27.033  1.00  0.00    -0.237 OA
ATOM     83  O   UNL A   1      40.735  19.269  25.693  1.00  0.00    -0.237 OA
ATOM     84  O   UNL A   1      43.005  19.451  24.751  1.00  0.00    -0.744 OA
ENDBRANCH  80  81
ENDBRANCH  48  73
BRANCH  60  85
ATOM     85  C   UNL A   1      47.972  27.053  30.505  1.00  0.00     0.058 A 
ATOM     86  C   UNL A   1      48.979  27.223  29.544  1.00  0.00     0.135 A 
ATOM     87  C   UNL A   1      48.345  26.586  31.776  1.00  0.00     0.135 A 
ATOM     88  F   UNL A   1      48.672  27.663  28.313  1.00  0.00    -0.206 F 
ATOM     89  C   UNL A   1      50.308  26.931  29.828  1.00  0.00     0.059 A 
ATOM     90  C   UNL A   1      49.672  26.314  32.091  1.00  0.00     0.059 A 
ATOM     91  F   UNL A   1      47.420  26.417  32.734  1.00  0.00    -0.206 F 
ATOM     92  C   UNL A   1      50.645  26.484  31.108  1.00  0.00     0.060 A 
BRANCH  92  93
ATOM     93  S   UNL A   1      52.382  26.158  31.475  1.00  0.00     0.124 S 
ATOM     94  O   UNL A   1      52.659  27.159  32.500  1.00  0.00    -0.237 OA
ATOM     95  O   UNL A   1      52.346  24.773  31.933  1.00  0.00    -0.237 OA
ATOM     96  O   UNL A   1      53.049  26.372  30.194  1.00  0.00    -0.744 OA
ENDBRANCH  92  93
ENDBRANCH  60  85
ENDBRANCH  34  35
ENDBRANCH  26  29
ENDBRANCH   1  25
TORSDOF 14
ENDMDL
MODEL 3
REMARK VINA RESULT:     -12.8      6.624     12.028
REMARK SMILES Cc1cc(Cl)c(C)c2c1O[C@H](C(F)(F)F)C(C(=O)NCCCNC(=O)c1ccc(-c3c4nc(c(-c5c(F)cc(S(=O)(=O)[O-])cc5F)c5ccc([nH]5)c(-c5c(F)cc(S(=O)(=O)[O-])cc5F)c5nc(c(-c6c(F)cc(S(=O)(=O)[O-])cc6F)c6ccc3[nH]6)C=C5)C=C4)cc1)=C2
REMARK SMILES IDX 22 1 21 2 20 3 19 4 17 5 18 6 16 8 1 9 2 10 3 11 9 12 4 13
REMARK SMILES IDX 8 14 10 15 5 16 6 17 92 18 11 19 7 20 12 21 13 22 14 23
REMARK SMILES IDX 15 24 23 25 24 26 25 28 26 29 27 30 91 31 28 32 90 33 29 34
REMARK SMILES IDX 30 35 31 36 84 37 32 38 89 39 83 40 85 41 33 42 88 43 82 44
REMARK SMILES IDX 81 45 34 47 68 48 47 49 67 50 48 51 51 52 66 53 86 54 49 55
REMARK SMILES IDX 50 56 65 58 87 59 52 60 35 61 36 62 45 63 37 64 38 65 44 66
REMARK SMILES IDX 46 67 39 68 40 69 41 70 42 71 43 72 69 73 70 74 79 75 71 76
REMARK SMILES IDX 72 77 78 78 80 79 73 80 74 81 75 82 76 83 77 84 53 85 54 86
REMARK SMILES IDX 63 87 55 88 56 89 62 90 64 91 57 92 58 93 59 94 60 95 61 96
REMARK H PARENT 19 7 23 27 85 46 51 57
REMARK Flexibility Score: inf
ROOT
ATOM      1  C   UNL A   1      35.619  31.589  28.341  1.00  0.00     0.118 C 
ENDROOT
BRANCH   1   2
ATOM      2  C   UNL A   1      34.422  30.984  27.621  1.00  0.00     0.042 C 
BRANCH   2   3
ATOM      3  C   UNL A   1      34.474  29.464  27.599  1.00  0.00     0.118 C 
BRANCH   3   4
ATOM      4  N   UNL A   1      33.180  28.869  27.900  1.00  0.00    -0.352 N 
ATOM      5  C   UNL A   1      32.337  27.982  27.324  1.00  0.00     0.251 C 
ATOM      6  O   UNL A   1      31.305  27.745  27.960  1.00  0.00    -0.270 OA
ATOM      7  H   UNL A   1      32.821  29.204  28.754  1.00  0.00     0.163 HD
BRANCH   5   8
ATOM      8  C   UNL A   1      32.579  27.292  26.024  1.00  0.00     0.067 C 
ATOM      9  C   UNL A   1      32.380  25.568  21.235  1.00  0.00     0.048 C 
ATOM     10  C   UNL A   1      33.174  25.182  22.451  1.00  0.00    -0.007 A 
ATOM     11  C   UNL A   1      34.149  24.189  22.382  1.00  0.00     0.028 A 
ATOM     12  C   UNL A   1      32.955  25.819  23.675  1.00  0.00     0.131 A 
ATOM     13  C   UNL A   1      34.893  23.839  23.517  1.00  0.00     0.045 A 
ATOM     14  C   UNL A   1      33.692  25.488  24.825  1.00  0.00     0.022 A 
ATOM     15  O   UNL A   1      31.950  26.747  23.693  1.00  0.00    -0.475 OA
ATOM     16  Cl  UNL A   1      36.070  22.587  23.305  1.00  0.00    -0.084 Cl
ATOM     17  C   UNL A   1      34.684  24.480  24.754  1.00  0.00    -0.021 A 
ATOM     18  C   UNL A   1      33.366  26.200  26.067  1.00  0.00     0.026 C 
ATOM     19  C   UNL A   1      32.025  27.763  24.717  1.00  0.00     0.314 C 
ATOM     20  C   UNL A   1      35.485  24.119  25.981  1.00  0.00     0.047 C 
BRANCH  19  21
ATOM     21  C   UNL A   1      32.764  28.996  24.164  1.00  0.00     0.429 C 
ATOM     22  F   UNL A   1      32.441  30.105  24.876  1.00  0.00    -0.167 F 
ATOM     23  F   UNL A   1      34.111  28.876  24.234  1.00  0.00    -0.167 F 
ATOM     24  F   UNL A   1      32.466  29.248  22.869  1.00  0.00    -0.167 F 
ENDBRANCH  19  21
ENDBRANCH   5   8
ENDBRANCH   3   4
ENDBRANCH   2   3
ENDBRANCH   1   2
BRANCH   1  25
ATOM     25  N   UNL A   1      35.539  31.382  29.786  1.00  0.00    -0.352 N 
ATOM     26  C   UNL A   1      36.330  30.629  30.615  1.00  0.00     0.251 C 
ATOM     27  H   UNL A   1      34.802  31.858  30.233  1.00  0.00     0.163 HD
ATOM     28  O   UNL A   1      35.928  30.340  31.741  1.00  0.00    -0.269 OA
BRANCH  26  29
ATOM     29  C   UNL A   1      37.653  30.170  30.154  1.00  0.00     0.039 A 
ATOM     30  C   UNL A   1      37.968  30.226  28.794  1.00  0.00     0.014 A 
ATOM     31  C   UNL A   1      38.577  29.661  31.070  1.00  0.00     0.014 A 
ATOM     32  C   UNL A   1      39.234  29.826  28.366  1.00  0.00     0.010 A 
ATOM     33  C   UNL A   1      39.866  29.362  30.658  1.00  0.00     0.010 A 
ATOM     34  C   UNL A   1      40.203  29.423  29.299  1.00  0.00    -0.014 A 
BRANCH  34  35
ATOM     35  C   UNL A   1      41.567  29.024  28.879  1.00  0.00     0.031 A 
ATOM     36  C   UNL A   1      42.665  30.053  28.846  1.00  0.00     0.074 A 
ATOM     37  C   UNL A   1      41.795  27.760  28.473  1.00  0.00     0.049 A 
ATOM     38  N   UNL A   1      43.900  29.926  28.436  1.00  0.00    -0.248 NA
ATOM     39  C   UNL A   1      42.323  31.411  29.300  1.00  0.00     0.031 C 
ATOM     40  C   UNL A   1      40.793  26.694  28.419  1.00  0.00     0.029 A 
ATOM     41  N   UNL A   1      42.943  27.158  28.023  1.00  0.00    -0.354 N 
ATOM     42  C   UNL A   1      44.474  31.184  28.574  1.00  0.00     0.074 A 
ATOM     43  C   UNL A   1      43.438  32.077  29.041  1.00  0.00     0.031 C 
ATOM     44  C   UNL A   1      41.375  25.562  27.992  1.00  0.00     0.029 A 
ATOM     45  C   UNL A   1      42.781  25.831  27.704  1.00  0.00     0.049 A 
ATOM     46  H   UNL A   1      43.801  27.632  27.936  1.00  0.00     0.167 HD
ATOM     47  C   UNL A   1      45.758  31.553  28.363  1.00  0.00     0.037 A 
ATOM     48  C   UNL A   1      43.667  24.933  27.230  1.00  0.00     0.037 A 
ATOM     49  C   UNL A   1      46.788  30.646  27.935  1.00  0.00     0.049 A 
ATOM     50  C   UNL A   1      45.088  25.368  26.998  1.00  0.00     0.074 A 
ATOM     51  C   UNL A   1      48.134  30.903  27.748  1.00  0.00     0.029 A 
ATOM     52  N   UNL A   1      46.589  29.307  27.633  1.00  0.00    -0.354 N 
ATOM     53  N   UNL A   1      45.628  26.550  27.189  1.00  0.00    -0.248 NA
ATOM     54  C   UNL A   1      46.021  24.355  26.490  1.00  0.00     0.031 C 
ATOM     55  C   UNL A   1      48.740  29.730  27.287  1.00  0.00     0.029 A 
ATOM     56  C   UNL A   1      47.782  28.730  27.237  1.00  0.00     0.049 A 
ATOM     57  H   UNL A   1      45.726  28.837  27.690  1.00  0.00     0.167 HD
ATOM     58  C   UNL A   1      46.968  26.416  26.844  1.00  0.00     0.074 A 
ATOM     59  C   UNL A   1      47.160  25.035  26.448  1.00  0.00     0.031 C 
ATOM     60  C   UNL A   1      47.950  27.351  26.851  1.00  0.00     0.037 A 
BRANCH  47  61
ATOM     61  C   UNL A   1      46.128  32.989  28.613  1.00  0.00     0.058 A 
ATOM     62  C   UNL A   1      46.577  33.423  29.871  1.00  0.00     0.135 A 
ATOM     63  C   UNL A   1      46.088  33.930  27.571  1.00  0.00     0.135 A 
ATOM     64  F   UNL A   1      46.614  32.572  30.907  1.00  0.00    -0.206 F 
ATOM     65  C   UNL A   1      46.958  34.742  30.090  1.00  0.00     0.059 A 
ATOM     66  C   UNL A   1      46.493  35.248  27.761  1.00  0.00     0.059 A 
ATOM     67  F   UNL A   1      45.660  33.569  26.350  1.00  0.00    -0.206 F 
ATOM     68  C   UNL A   1      46.919  35.646  29.028  1.00  0.00     0.060 A 
BRANCH  68  69
ATOM     69  S   UNL A   1      47.451  37.344  29.327  1.00  0.00     0.124 S 
ATOM     70  O   UNL A   1      47.869  37.277  30.724  1.00  0.00    -0.237 OA
ATOM     71  O   UNL A   1      48.525  37.509  28.353  1.00  0.00    -0.237 OA
ATOM     72  O   UNL A   1      46.248  38.130  29.071  1.00  0.00    -0.744 OA
ENDBRANCH  68  69
ENDBRANCH  47  61
BRANCH  48  73
ATOM     73  C   UNL A   1      43.238  23.532  26.973  1.00  0.00     0.058 A 
ATOM     74  C   UNL A   1      43.006  23.079  25.666  1.00  0.00     0.135 A 
ATOM     75  C   UNL A   1      43.081  22.610  28.020  1.00  0.00     0.135 A 
ATOM     76  F   UNL A   1      43.137  23.921  24.631  1.00  0.00    -0.206 F 
ATOM     77  C   UNL A   1      42.624  21.766  25.406  1.00  0.00     0.059 A 
ATOM     78  C   UNL A   1      42.726  21.287  27.784  1.00  0.00     0.059 A 
ATOM     79  F   UNL A   1      43.308  22.989  29.289  1.00  0.00    -0.206 F 
ATOM     80  C   UNL A   1      42.492  20.875  26.472  1.00  0.00     0.060 A 
BRANCH  80  81
ATOM     81  S   UNL A   1      42.052  19.161  26.116  1.00  0.00     0.124 S 
ATOM     82  O   UNL A   1      40.628  19.277  25.822  1.00  0.00    -0.237 OA
ATOM     83  O   UNL A   1      42.916  18.855  24.979  1.00  0.00    -0.237 OA
ATOM     84  O   UNL A   1      42.386  18.462  27.353  1.00  0.00    -0.744 OA
ENDBRANCH  80  81
ENDBRANCH  48  73
BRANCH  60  85
ATOM     85  C   UNL A   1      49.327  26.917  26.431  1.00  0.00     0.058 A 
ATOM     86  C   UNL A   1      50.215  26.320  27.338  1.00  0.00     0.135 A 
ATOM     87  C   UNL A   1      49.727  27.021  25.089  1.00  0.00     0.135 A 
ATOM     88  F   UNL A   1      49.881  26.202  28.632  1.00  0.00    -0.206 F 
ATOM     89  C   UNL A   1      51.459  25.852  26.931  1.00  0.00     0.059 A 
ATOM     90  C   UNL A   1      50.955  26.534  24.654  1.00  0.00     0.059 A 
ATOM     91  F   UNL A   1      48.908  27.575  24.179  1.00  0.00    -0.206 F 
ATOM     92  C   UNL A   1      51.817  25.957  25.585  1.00  0.00     0.060 A 
BRANCH  92  93
ATOM     93  S   UNL A   1      53.415  25.298  25.066  1.00  0.00     0.124 S 
ATOM     94  O   UNL A   1      53.438  25.663  23.653  1.00  0.00    -0.237 OA
ATOM     95  O   UNL A   1      54.344  26.027  25.924  1.00  0.00    -0.237 OA
ATOM     96  O   UNL A   1      53.303  23.869  25.343  1.00  0.00    -0.744 OA
ENDBRANCH  92  93
ENDBRANCH  60  85
ENDBRANCH  34  35
ENDBRANCH  26  29
ENDBRANCH   1  25
TORSDOF 14
ENDMDL
