MODEL 1
REMARK VINA RESULT:     -11.2      0.000      0.000
REMARK SMILES CCN(CCOC)C(=O)c1cccn1CC(=O)NCCCNC(=O)c1ccc(-c2c3nc(c(-c4c(F)cc(S(=O)(=O)[O-])cc4F)c4ccc([nH]4)c(-c4c(F)cc(S(=O)(=O)[O-])cc4F)c4nc(c(-c5c(F)cc(S(=O)(=O)[O-])cc5F)c5ccc2[nH]5)C=C4)C=C3)cc1
REMARK SMILES IDX 16 1 17 2 18 3 15 5 14 6 10 7 11 8 12 9 13 10 8 11 9 12 3 13
REMARK SMILES IDX 2 14 1 15 4 16 5 17 6 18 7 19 19 20 20 21 21 22 22 23 23 24
REMARK SMILES IDX 24 26 25 27 26 28 90 29 27 30 89 31 28 32 29 33 30 34 83 35
REMARK SMILES IDX 31 36 88 37 82 38 84 39 32 40 87 41 81 42 80 43 33 45 67 46
REMARK SMILES IDX 46 47 66 48 47 49 50 50 65 51 85 52 48 53 49 54 64 56 86 57
REMARK SMILES IDX 51 58 34 59 35 60 44 61 36 62 37 63 43 64 45 65 38 66 39 67
REMARK SMILES IDX 40 68 41 69 42 70 68 71 69 72 78 73 70 74 71 75 77 76 79 77
REMARK SMILES IDX 72 78 73 79 74 80 75 81 76 82 52 83 53 84 62 85 54 86 55 87
REMARK SMILES IDX 61 88 63 89 56 90 57 91 58 92 59 93 60 94
REMARK H PARENT 18 4 22 25 84 44 50 55
REMARK Flexibility Score: inf
ROOT
ATOM      1  C   UNL A   1      33.593  28.032  22.776  1.00  0.00     0.239 C 
ATOM      2  O   UNL A   1      34.030  28.081  21.625  1.00  0.00    -0.273 OA
ATOM      3  N   UNL A   1      33.626  29.170  23.534  1.00  0.00    -0.354 N 
ATOM      4  H   UNL A   1      34.033  29.957  23.102  1.00  0.00     0.163 HD
ENDROOT
BRANCH   1   5
ATOM      5  C   UNL A   1      32.987  26.757  23.331  1.00  0.00     0.222 C 
BRANCH   5   6
ATOM      6  N   UNL A   1      31.561  26.896  23.598  1.00  0.00    -0.334 N 
ATOM      7  C   UNL A   1      30.850  26.380  24.682  1.00  0.00     0.107 A 
ATOM      8  C   UNL A   1      29.513  26.603  24.361  1.00  0.00     0.033 A 
ATOM      9  C   UNL A   1      29.429  27.327  23.151  1.00  0.00     0.020 A 
ATOM     10  C   UNL A   1      30.713  27.538  22.728  1.00  0.00     0.087 A 
BRANCH   7  11
ATOM     11  C   UNL A   1      31.500  25.802  25.861  1.00  0.00     0.270 C 
ATOM     12  O   UNL A   1      31.634  26.490  26.876  1.00  0.00    -0.267 OA
BRANCH  11  13
ATOM     13  N   UNL A   1      32.019  24.494  25.872  1.00  0.00    -0.335 N 
BRANCH  13  14
ATOM     14  C   UNL A   1      31.091  23.396  25.566  1.00  0.00     0.116 C 
ATOM     15  C   UNL A   1      30.228  22.975  26.750  1.00  0.00     0.027 C 
ENDBRANCH  13  14
BRANCH  13  16
ATOM     16  C   UNL A   1      33.434  24.122  25.968  1.00  0.00     0.148 C 
BRANCH  16  17
ATOM     17  C   UNL A   1      33.895  23.199  24.818  1.00  0.00     0.181 C 
BRANCH  17  18
ATOM     18  O   UNL A   1      34.822  23.816  23.928  1.00  0.00    -0.383 OA
ATOM     19  C   UNL A   1      36.110  23.214  23.897  1.00  0.00     0.194 C 
ENDBRANCH  17  18
ENDBRANCH  16  17
ENDBRANCH  13  16
ENDBRANCH  11  13
ENDBRANCH   7  11
ENDBRANCH   5   6
ENDBRANCH   1   5
BRANCH   3  20
ATOM     20  C   UNL A   1      33.145  29.381  24.888  1.00  0.00     0.117 C 
BRANCH  20  21
ATOM     21  C   UNL A   1      34.063  28.760  25.946  1.00  0.00     0.042 C 
BRANCH  21  22
ATOM     22  C   UNL A   1      33.930  29.424  27.309  1.00  0.00     0.118 C 
BRANCH  22  23
ATOM     23  N   UNL A   1      34.553  30.739  27.302  1.00  0.00    -0.352 N 
ATOM     24  C   UNL A   1      35.729  31.190  27.843  1.00  0.00     0.251 C 
ATOM     25  H   UNL A   1      34.037  31.427  26.824  1.00  0.00     0.163 HD
ATOM     26  O   UNL A   1      35.860  32.399  27.989  1.00  0.00    -0.269 OA
BRANCH  24  27
ATOM     27  C   UNL A   1      36.815  30.278  28.274  1.00  0.00     0.039 A 
ATOM     28  C   UNL A   1      37.928  30.158  27.426  1.00  0.00     0.014 A 
ATOM     29  C   UNL A   1      36.740  29.494  29.429  1.00  0.00     0.014 A 
ATOM     30  C   UNL A   1      38.989  29.328  27.771  1.00  0.00     0.010 A 
ATOM     31  C   UNL A   1      37.810  28.690  29.798  1.00  0.00     0.010 A 
ATOM     32  C   UNL A   1      38.942  28.632  28.980  1.00  0.00    -0.014 A 
BRANCH  32  33
ATOM     33  C   UNL A   1      40.148  27.946  29.487  1.00  0.00     0.031 A 
ATOM     34  C   UNL A   1      40.407  26.598  28.754  1.00  0.00     0.074 A 
ATOM     35  C   UNL A   1      40.826  28.626  30.459  1.00  0.00     0.049 A 
ATOM     36  N   UNL A   1      41.131  25.565  29.078  1.00  0.00    -0.248 NA
ATOM     37  C   UNL A   1      39.677  26.345  27.474  1.00  0.00     0.031 C 
ATOM     38  C   UNL A   1      40.410  29.918  31.053  1.00  0.00     0.029 A 
ATOM     39  N   UNL A   1      41.989  28.385  31.144  1.00  0.00    -0.354 N 
ATOM     40  C   UNL A   1      41.097  24.657  27.988  1.00  0.00     0.074 A 
ATOM     41  C   UNL A   1      40.109  25.148  27.078  1.00  0.00     0.031 C 
ATOM     42  C   UNL A   1      41.242  30.283  32.052  1.00  0.00     0.029 A 
ATOM     43  C   UNL A   1      42.285  29.291  32.199  1.00  0.00     0.049 A 
ATOM     44  H   UNL A   1      42.581  27.632  30.920  1.00  0.00     0.167 HD
ATOM     45  C   UNL A   1      41.974  23.625  27.814  1.00  0.00     0.037 A 
ATOM     46  C   UNL A   1      43.258  29.181  33.160  1.00  0.00     0.037 A 
ATOM     47  C   UNL A   1      42.934  23.582  28.865  1.00  0.00     0.049 A 
ATOM     48  C   UNL A   1      43.970  27.946  32.795  1.00  0.00     0.074 A 
ATOM     49  C   UNL A   1      43.125  22.882  30.029  1.00  0.00     0.029 A 
ATOM     50  N   UNL A   1      43.974  24.461  28.727  1.00  0.00    -0.354 N 
ATOM     51  N   UNL A   1      44.781  27.814  31.792  1.00  0.00    -0.248 NA
ATOM     52  C   UNL A   1      43.499  26.720  33.433  1.00  0.00     0.031 C 
ATOM     53  C   UNL A   1      44.236  23.490  30.668  1.00  0.00     0.029 A 
ATOM     54  C   UNL A   1      44.502  24.664  29.971  1.00  0.00     0.049 A 
ATOM     55  H   UNL A   1      44.285  24.871  27.886  1.00  0.00     0.167 HD
ATOM     56  C   UNL A   1      44.732  26.469  31.502  1.00  0.00     0.074 A 
ATOM     57  C   UNL A   1      43.997  25.829  32.585  1.00  0.00     0.031 C 
ATOM     58  C   UNL A   1      44.990  25.980  30.263  1.00  0.00     0.037 A 
BRANCH  45  59
ATOM     59  C   UNL A   1      42.319  22.758  26.610  1.00  0.00     0.058 A 
ATOM     60  C   UNL A   1      41.965  21.386  26.677  1.00  0.00     0.135 A 
ATOM     61  C   UNL A   1      43.325  23.079  25.684  1.00  0.00     0.135 A 
ATOM     62  F   UNL A   1      40.936  20.982  27.441  1.00  0.00    -0.206 F 
ATOM     63  C   UNL A   1      42.699  20.384  26.048  1.00  0.00     0.059 A 
ATOM     64  C   UNL A   1      44.037  22.090  24.989  1.00  0.00     0.059 A 
ATOM     65  F   UNL A   1      43.700  24.352  25.492  1.00  0.00    -0.206 F 
ATOM     66  C   UNL A   1      43.769  20.743  25.242  1.00  0.00     0.060 A 
BRANCH  66  67
ATOM     67  S   UNL A   1      44.816  19.433  24.569  1.00  0.00     0.124 S 
ATOM     68  O   UNL A   1      44.603  19.588  23.135  1.00  0.00    -0.237 OA
ATOM     69  O   UNL A   1      46.143  19.807  25.052  1.00  0.00    -0.237 OA
ATOM     70  O   UNL A   1      44.262  18.223  25.169  1.00  0.00    -0.744 OA
ENDBRANCH  66  67
ENDBRANCH  45  59
BRANCH  46  71
ATOM     71  C   UNL A   1      43.557  29.787  34.514  1.00  0.00     0.058 A 
ATOM     72  C   UNL A   1      43.035  29.368  35.744  1.00  0.00     0.135 A 
ATOM     73  C   UNL A   1      44.568  30.786  34.621  1.00  0.00     0.135 A 
ATOM     74  F   UNL A   1      41.969  28.561  35.805  1.00  0.00    -0.206 F 
ATOM     75  C   UNL A   1      43.596  29.757  36.975  1.00  0.00     0.059 A 
ATOM     76  C   UNL A   1      45.163  31.164  35.823  1.00  0.00     0.059 A 
ATOM     77  F   UNL A   1      45.061  31.404  33.537  1.00  0.00    -0.206 F 
ATOM     78  C   UNL A   1      44.699  30.608  37.001  1.00  0.00     0.060 A 
BRANCH  78  79
ATOM     79  S   UNL A   1      45.620  30.882  38.531  1.00  0.00     0.124 S 
ATOM     80  O   UNL A   1      46.747  29.970  38.377  1.00  0.00    -0.237 OA
ATOM     81  O   UNL A   1      45.939  32.305  38.459  1.00  0.00    -0.237 OA
ATOM     82  O   UNL A   1      44.655  30.524  39.568  1.00  0.00    -0.744 OA
ENDBRANCH  78  79
ENDBRANCH  46  71
BRANCH  58  83
ATOM     83  C   UNL A   1      45.354  27.012  29.218  1.00  0.00     0.058 A 
ATOM     84  C   UNL A   1      46.676  27.421  29.027  1.00  0.00     0.135 A 
ATOM     85  C   UNL A   1      44.380  27.650  28.418  1.00  0.00     0.135 A 
ATOM     86  F   UNL A   1      47.656  26.876  29.762  1.00  0.00    -0.206 F 
ATOM     87  C   UNL A   1      47.015  28.385  28.071  1.00  0.00     0.059 A 
ATOM     88  C   UNL A   1      44.691  28.601  27.448  1.00  0.00     0.059 A 
ATOM     89  F   UNL A   1      43.089  27.330  28.545  1.00  0.00    -0.206 F 
ATOM     90  C   UNL A   1      46.018  28.965  27.280  1.00  0.00     0.060 A 
BRANCH  90  91
ATOM     91  S   UNL A   1      46.478  30.184  26.028  1.00  0.00     0.124 S 
ATOM     92  O   UNL A   1      45.380  31.141  26.110  1.00  0.00    -0.237 OA
ATOM     93  O   UNL A   1      47.768  30.657  26.519  1.00  0.00    -0.237 OA
ATOM     94  O   UNL A   1      46.530  29.406  24.792  1.00  0.00    -0.744 OA
ENDBRANCH  90  91
ENDBRANCH  58  83
ENDBRANCH  32  33
ENDBRANCH  24  27
ENDBRANCH  22  23
ENDBRANCH  21  22
ENDBRANCH  20  21
ENDBRANCH   3  20
TORSDOF 20
ENDMDL
MODEL 2
REMARK VINA RESULT:     -10.7      1.241      2.120
REMARK SMILES CCN(CCOC)C(=O)c1cccn1CC(=O)NCCCNC(=O)c1ccc(-c2c3nc(c(-c4c(F)cc(S(=O)(=O)[O-])cc4F)c4ccc([nH]4)c(-c4c(F)cc(S(=O)(=O)[O-])cc4F)c4nc(c(-c5c(F)cc(S(=O)(=O)[O-])cc5F)c5ccc2[nH]5)C=C4)C=C3)cc1
REMARK SMILES IDX 16 1 17 2 18 3 15 5 14 6 10 7 11 8 12 9 13 10 8 11 9 12 3 13
REMARK SMILES IDX 2 14 1 15 4 16 5 17 6 18 7 19 19 20 20 21 21 22 22 23 23 24
REMARK SMILES IDX 24 26 25 27 26 28 90 29 27 30 89 31 28 32 29 33 30 34 83 35
REMARK SMILES IDX 31 36 88 37 82 38 84 39 32 40 87 41 81 42 80 43 33 45 67 46
REMARK SMILES IDX 46 47 66 48 47 49 50 50 65 51 85 52 48 53 49 54 64 56 86 57
REMARK SMILES IDX 51 58 34 59 35 60 44 61 36 62 37 63 43 64 45 65 38 66 39 67
REMARK SMILES IDX 40 68 41 69 42 70 68 71 69 72 78 73 70 74 71 75 77 76 79 77
REMARK SMILES IDX 72 78 73 79 74 80 75 81 76 82 52 83 53 84 62 85 54 86 55 87
REMARK SMILES IDX 61 88 63 89 56 90 57 91 58 92 59 93 60 94
REMARK H PARENT 18 4 22 25 84 44 50 55
REMARK Flexibility Score: inf
ROOT
ATOM      1  C   UNL A   1      32.755  26.202  26.055  1.00  0.00     0.239 C 
ATOM      2  O   UNL A   1      33.649  25.359  25.965  1.00  0.00    -0.273 OA
ATOM      3  N   UNL A   1      32.807  27.100  27.086  1.00  0.00    -0.354 N 
ATOM      4  H   UNL A   1      33.560  26.986  27.712  1.00  0.00     0.163 HD
ENDROOT
BRANCH   1   5
ATOM      5  C   UNL A   1      31.645  26.280  25.024  1.00  0.00     0.222 C 
BRANCH   5   6
ATOM      6  N   UNL A   1      32.138  26.079  23.667  1.00  0.00    -0.334 N 
ATOM      7  C   UNL A   1      32.187  24.881  22.955  1.00  0.00     0.107 A 
ATOM      8  C   UNL A   1      32.928  25.182  21.815  1.00  0.00     0.033 A 
ATOM      9  C   UNL A   1      33.234  26.562  21.797  1.00  0.00     0.020 A 
ATOM     10  C   UNL A   1      32.689  27.100  22.930  1.00  0.00     0.087 A 
BRANCH   7  11
ATOM     11  C   UNL A   1      31.516  23.657  23.402  1.00  0.00     0.270 C 
ATOM     12  O   UNL A   1      30.351  23.445  23.057  1.00  0.00    -0.267 OA
BRANCH  11  13
ATOM     13  N   UNL A   1      32.138  22.722  24.251  1.00  0.00    -0.335 N 
BRANCH  13  14
ATOM     14  C   UNL A   1      31.376  22.256  25.418  1.00  0.00     0.116 C 
ATOM     15  C   UNL A   1      31.885  22.812  26.743  1.00  0.00     0.027 C 
ENDBRANCH  13  14
BRANCH  13  16
ATOM     16  C   UNL A   1      33.396  22.016  23.990  1.00  0.00     0.148 C 
BRANCH  16  17
ATOM     17  C   UNL A   1      33.371  20.545  24.463  1.00  0.00     0.181 C 
BRANCH  17  18
ATOM     18  O   UNL A   1      34.668  19.997  24.691  1.00  0.00    -0.383 OA
ATOM     19  C   UNL A   1      35.613  20.908  25.240  1.00  0.00     0.194 C 
ENDBRANCH  17  18
ENDBRANCH  16  17
ENDBRANCH  13  16
ENDBRANCH  11  13
ENDBRANCH   7  11
ENDBRANCH   5   6
ENDBRANCH   1   5
BRANCH   3  20
ATOM     20  C   UNL A   1      31.908  28.200  27.386  1.00  0.00     0.117 C 
BRANCH  20  21
ATOM     21  C   UNL A   1      32.561  29.571  27.188  1.00  0.00     0.042 C 
BRANCH  21  22
ATOM     22  C   UNL A   1      34.077  29.494  27.072  1.00  0.00     0.118 C 
BRANCH  22  23
ATOM     23  N   UNL A   1      34.669  30.815  27.209  1.00  0.00    -0.352 N 
ATOM     24  C   UNL A   1      35.797  31.243  27.860  1.00  0.00     0.251 C 
ATOM     25  H   UNL A   1      34.170  31.531  26.753  1.00  0.00     0.163 HD
ATOM     26  O   UNL A   1      35.891  32.438  28.109  1.00  0.00    -0.269 OA
BRANCH  24  27
ATOM     27  C   UNL A   1      36.873  30.318  28.291  1.00  0.00     0.039 A 
ATOM     28  C   UNL A   1      37.976  30.173  27.434  1.00  0.00     0.014 A 
ATOM     29  C   UNL A   1      36.797  29.546  29.453  1.00  0.00     0.014 A 
ATOM     30  C   UNL A   1      39.027  29.330  27.777  1.00  0.00     0.010 A 
ATOM     31  C   UNL A   1      37.858  28.729  29.820  1.00  0.00     0.010 A 
ATOM     32  C   UNL A   1      38.981  28.645  28.992  1.00  0.00    -0.014 A 
BRANCH  32  33
ATOM     33  C   UNL A   1      40.181  27.946  29.495  1.00  0.00     0.031 A 
ATOM     34  C   UNL A   1      40.432  26.604  28.748  1.00  0.00     0.074 A 
ATOM     35  C   UNL A   1      40.861  28.611  30.475  1.00  0.00     0.049 A 
ATOM     36  N   UNL A   1      41.148  25.562  29.063  1.00  0.00    -0.248 NA
ATOM     37  C   UNL A   1      39.703  26.370  27.464  1.00  0.00     0.031 C 
ATOM     38  C   UNL A   1      40.452  29.900  31.082  1.00  0.00     0.029 A 
ATOM     39  N   UNL A   1      42.020  28.355  31.161  1.00  0.00    -0.354 N 
ATOM     40  C   UNL A   1      41.110  24.667  27.963  1.00  0.00     0.074 A 
ATOM     41  C   UNL A   1      40.128  25.174  27.056  1.00  0.00     0.031 C 
ATOM     42  C   UNL A   1      41.285  30.247  32.088  1.00  0.00     0.029 A 
ATOM     43  C   UNL A   1      42.320  29.247  32.226  1.00  0.00     0.049 A 
ATOM     44  H   UNL A   1      42.608  27.600  30.930  1.00  0.00     0.167 HD
ATOM     45  C   UNL A   1      41.980  23.630  27.781  1.00  0.00     0.037 A 
ATOM     46  C   UNL A   1      43.290  29.120  33.188  1.00  0.00     0.037 A 
ATOM     47  C   UNL A   1      42.938  23.570  28.833  1.00  0.00     0.049 A 
ATOM     48  C   UNL A   1      43.995  27.884  32.812  1.00  0.00     0.074 A 
ATOM     49  C   UNL A   1      43.121  22.856  29.990  1.00  0.00     0.029 A 
ATOM     50  N   UNL A   1      43.984  24.443  28.706  1.00  0.00    -0.354 N 
ATOM     51  N   UNL A   1      44.807  27.757  31.809  1.00  0.00    -0.248 NA
ATOM     52  C   UNL A   1      43.513  26.654  33.435  1.00  0.00     0.031 C 
ATOM     53  C   UNL A   1      44.235  23.449  30.637  1.00  0.00     0.029 A 
ATOM     54  C   UNL A   1      44.511  24.629  29.954  1.00  0.00     0.049 A 
ATOM     55  H   UNL A   1      44.300  24.860  27.871  1.00  0.00     0.167 HD
ATOM     56  C   UNL A   1      44.749  26.415  31.505  1.00  0.00     0.074 A 
ATOM     57  C   UNL A   1      44.007  25.769  32.579  1.00  0.00     0.031 C 
ATOM     58  C   UNL A   1      45.007  25.938  30.261  1.00  0.00     0.037 A 
BRANCH  45  59
ATOM     59  C   UNL A   1      42.322  22.773  26.568  1.00  0.00     0.058 A 
ATOM     60  C   UNL A   1      42.048  21.384  26.658  1.00  0.00     0.135 A 
ATOM     61  C   UNL A   1      43.268  23.143  25.598  1.00  0.00     0.135 A 
ATOM     62  F   UNL A   1      41.077  20.930  27.468  1.00  0.00    -0.206 F 
ATOM     63  C   UNL A   1      42.810  20.420  26.005  1.00  0.00     0.059 A 
ATOM     64  C   UNL A   1      44.005  22.189  24.879  1.00  0.00     0.059 A 
ATOM     65  F   UNL A   1      43.562  24.433  25.382  1.00  0.00    -0.206 F 
ATOM     66  C   UNL A   1      43.823  20.832  25.152  1.00  0.00     0.060 A 
BRANCH  66  67
ATOM     67  S   UNL A   1      44.913  19.576  24.442  1.00  0.00     0.124 S 
ATOM     68  O   UNL A   1      44.579  19.657  23.025  1.00  0.00    -0.237 OA
ATOM     69  O   UNL A   1      46.240  20.066  24.805  1.00  0.00    -0.237 OA
ATOM     70  O   UNL A   1      44.501  18.353  25.125  1.00  0.00    -0.744 OA
ENDBRANCH  66  67
ENDBRANCH  45  59
BRANCH  46  71
ATOM     71  C   UNL A   1      43.591  29.709  34.549  1.00  0.00     0.058 A 
ATOM     72  C   UNL A   1      44.689  30.512  34.881  1.00  0.00     0.135 A 
ATOM     73  C   UNL A   1      42.624  29.586  35.589  1.00  0.00     0.135 A 
ATOM     74  F   UNL A   1      45.756  30.592  34.078  1.00  0.00    -0.206 F 
ATOM     75  C   UNL A   1      44.734  31.280  36.060  1.00  0.00     0.059 A 
ATOM     76  C   UNL A   1      42.628  30.359  36.749  1.00  0.00     0.059 A 
ATOM     77  F   UNL A   1      41.593  28.733  35.491  1.00  0.00    -0.206 F 
ATOM     78  C   UNL A   1      43.669  31.243  36.959  1.00  0.00     0.060 A 
BRANCH  78  79
ATOM     79  S   UNL A   1      43.561  32.432  38.314  1.00  0.00     0.124 S 
ATOM     80  O   UNL A   1      44.827  33.147  38.195  1.00  0.00    -0.237 OA
ATOM     81  O   UNL A   1      42.365  33.196  37.971  1.00  0.00    -0.237 OA
ATOM     82  O   UNL A   1      43.425  31.581  39.493  1.00  0.00    -0.744 OA
ENDBRANCH  78  79
ENDBRANCH  46  71
BRANCH  58  83
ATOM     83  C   UNL A   1      45.381  26.979  29.228  1.00  0.00     0.058 A 
ATOM     84  C   UNL A   1      44.409  27.627  28.463  1.00  0.00     0.135 A 
ATOM     85  C   UNL A   1      46.724  27.314  28.949  1.00  0.00     0.135 A 
ATOM     86  F   UNL A   1      43.111  27.349  28.656  1.00  0.00    -0.206 F 
ATOM     87  C   UNL A   1      44.751  28.580  27.496  1.00  0.00     0.059 A 
ATOM     88  C   UNL A   1      47.093  28.270  28.004  1.00  0.00     0.059 A 
ATOM     89  F   UNL A   1      47.719  26.731  29.624  1.00  0.00    -0.206 F 
ATOM     90  C   UNL A   1      46.095  28.902  27.279  1.00  0.00     0.060 A 
BRANCH  90  91
ATOM     91  S   UNL A   1      46.516  30.158  26.049  1.00  0.00     0.124 S 
ATOM     92  O   UNL A   1      47.814  30.630  26.522  1.00  0.00    -0.237 OA
ATOM     93  O   UNL A   1      46.536  29.384  24.813  1.00  0.00    -0.237 OA
ATOM     94  O   UNL A   1      45.427  31.127  26.160  1.00  0.00    -0.744 OA
ENDBRANCH  90  91
ENDBRANCH  58  83
ENDBRANCH  32  33
ENDBRANCH  24  27
ENDBRANCH  22  23
ENDBRANCH  21  22
ENDBRANCH  20  21
ENDBRANCH   3  20
TORSDOF 20
ENDMDL
MODEL 3
REMARK VINA RESULT:     -10.2      3.955      9.616
REMARK SMILES CCN(CCOC)C(=O)c1cccn1CC(=O)NCCCNC(=O)c1ccc(-c2c3nc(c(-c4c(F)cc(S(=O)(=O)[O-])cc4F)c4ccc([nH]4)c(-c4c(F)cc(S(=O)(=O)[O-])cc4F)c4nc(c(-c5c(F)cc(S(=O)(=O)[O-])cc5F)c5ccc2[nH]5)C=C4)C=C3)cc1
REMARK SMILES IDX 16 1 17 2 18 3 15 5 14 6 10 7 11 8 12 9 13 10 8 11 9 12 3 13
REMARK SMILES IDX 2 14 1 15 4 16 5 17 6 18 7 19 19 20 20 21 21 22 22 23 23 24
REMARK SMILES IDX 24 26 25 27 26 28 90 29 27 30 89 31 28 32 29 33 30 34 83 35
REMARK SMILES IDX 31 36 88 37 82 38 84 39 32 40 87 41 81 42 80 43 33 45 67 46
REMARK SMILES IDX 46 47 66 48 47 49 50 50 65 51 85 52 48 53 49 54 64 56 86 57
REMARK SMILES IDX 51 58 34 59 35 60 44 61 36 62 37 63 43 64 45 65 38 66 39 67
REMARK SMILES IDX 40 68 41 69 42 70 68 71 69 72 78 73 70 74 71 75 77 76 79 77
REMARK SMILES IDX 72 78 73 79 74 80 75 81 76 82 52 83 53 84 62 85 54 86 55 87
REMARK SMILES IDX 61 88 63 89 56 90 57 91 58 92 59 93 60 94
REMARK H PARENT 18 4 22 25 84 44 50 55
REMARK Flexibility Score: inf
ROOT
ATOM      1  C   UNL A   1      33.938  25.355  25.329  1.00  0.00     0.239 C 
ATOM      2  O   UNL A   1      33.751  26.189  26.217  1.00  0.00    -0.273 OA
ATOM      3  N   UNL A   1      34.724  24.271  25.608  1.00  0.00    -0.354 N 
ATOM      4  H   UNL A   1      35.114  24.250  26.513  1.00  0.00     0.163 HD
ENDROOT
BRANCH   1   5
ATOM      5  C   UNL A   1      33.279  25.496  23.970  1.00  0.00     0.222 C 
BRANCH   5   6
ATOM      6  N   UNL A   1      33.335  26.863  23.469  1.00  0.00    -0.334 N 
ATOM      7  C   UNL A   1      32.337  27.836  23.553  1.00  0.00     0.107 A 
ATOM      8  C   UNL A   1      32.795  28.876  22.748  1.00  0.00     0.033 A 
ATOM      9  C   UNL A   1      34.090  28.573  22.269  1.00  0.00     0.020 A 
ATOM     10  C   UNL A   1      34.418  27.344  22.773  1.00  0.00     0.087 A 
BRANCH   7  11
ATOM     11  C   UNL A   1      31.141  27.683  24.386  1.00  0.00     0.270 C 
ATOM     12  O   UNL A   1      31.163  28.079  25.554  1.00  0.00    -0.267 OA
BRANCH  11  13
ATOM     13  N   UNL A   1      29.969  27.063  23.916  1.00  0.00    -0.335 N 
BRANCH  13  14
ATOM     14  C   UNL A   1      29.878  25.601  24.046  1.00  0.00     0.116 C 
ATOM     15  C   UNL A   1      30.074  25.101  25.472  1.00  0.00     0.027 C 
ENDBRANCH  13  14
BRANCH  13  16
ATOM     16  C   UNL A   1      28.742  27.739  23.483  1.00  0.00     0.148 C 
BRANCH  16  17
ATOM     17  C   UNL A   1      28.995  29.167  22.952  1.00  0.00     0.181 C 
BRANCH  17  18
ATOM     18  O   UNL A   1      28.410  29.413  21.675  1.00  0.00    -0.383 OA
ATOM     19  C   UNL A   1      28.430  30.774  21.261  1.00  0.00     0.194 C 
ENDBRANCH  17  18
ENDBRANCH  16  17
ENDBRANCH  13  16
ENDBRANCH  11  13
ENDBRANCH   7  11
ENDBRANCH   5   6
ENDBRANCH   1   5
BRANCH   3  20
ATOM     20  C   UNL A   1      35.063  23.144  24.757  1.00  0.00     0.117 C 
BRANCH  20  21
ATOM     21  C   UNL A   1      36.373  22.465  25.168  1.00  0.00     0.042 C 
BRANCH  21  22
ATOM     22  C   UNL A   1      37.488  23.457  25.466  1.00  0.00     0.118 C 
BRANCH  22  23
ATOM     23  N   UNL A   1      38.540  22.826  26.249  1.00  0.00    -0.352 N 
ATOM     24  C   UNL A   1      39.635  23.348  26.887  1.00  0.00     0.251 C 
ATOM     25  H   UNL A   1      38.448  21.850  26.335  1.00  0.00     0.163 HD
ATOM     26  O   UNL A   1      40.540  22.578  27.185  1.00  0.00    -0.269 OA
BRANCH  24  27
ATOM     27  C   UNL A   1      39.769  24.792  27.196  1.00  0.00     0.039 A 
ATOM     28  C   UNL A   1      39.271  25.233  28.434  1.00  0.00     0.014 A 
ATOM     29  C   UNL A   1      40.293  25.721  26.293  1.00  0.00     0.014 A 
ATOM     30  C   UNL A   1      39.371  26.571  28.796  1.00  0.00     0.010 A 
ATOM     31  C   UNL A   1      40.429  27.053  26.661  1.00  0.00     0.010 A 
ATOM     32  C   UNL A   1      39.991  27.467  27.923  1.00  0.00    -0.014 A 
BRANCH  32  33
ATOM     33  C   UNL A   1      40.334  28.829  28.379  1.00  0.00     0.031 A 
ATOM     34  C   UNL A   1      39.070  29.717  28.572  1.00  0.00     0.074 A 
ATOM     35  C   UNL A   1      41.667  29.045  28.585  1.00  0.00     0.049 A 
ATOM     36  N   UNL A   1      38.927  31.010  28.648  1.00  0.00    -0.248 NA
ATOM     37  C   UNL A   1      37.739  29.039  28.624  1.00  0.00     0.031 C 
ATOM     38  C   UNL A   1      42.746  28.062  28.328  1.00  0.00     0.029 A 
ATOM     39  N   UNL A   1      42.391  30.114  29.045  1.00  0.00    -0.354 N 
ATOM     40  C   UNL A   1      37.565  31.275  28.940  1.00  0.00     0.074 A 
ATOM     41  C   UNL A   1      36.869  30.031  28.814  1.00  0.00     0.031 C 
ATOM     42  C   UNL A   1      43.962  28.609  28.542  1.00  0.00     0.029 A 
ATOM     43  C   UNL A   1      43.805  29.980  28.976  1.00  0.00     0.049 A 
ATOM     44  H   UNL A   1      41.959  30.923  29.402  1.00  0.00     0.167 HD
ATOM     45  C   UNL A   1      37.093  32.469  29.406  1.00  0.00     0.037 A 
ATOM     46  C   UNL A   1      44.757  30.948  29.177  1.00  0.00     0.037 A 
ATOM     47  C   UNL A   1      38.148  33.411  29.570  1.00  0.00     0.049 A 
ATOM     48  C   UNL A   1      43.972  32.134  29.558  1.00  0.00     0.074 A 
ATOM     49  C   UNL A   1      38.673  34.468  28.871  1.00  0.00     0.029 A 
ATOM     50  N   UNL A   1      38.869  33.270  30.724  1.00  0.00    -0.354 N 
ATOM     51  N   UNL A   1      43.382  32.311  30.699  1.00  0.00    -0.248 NA
ATOM     52  C   UNL A   1      43.595  33.031  28.469  1.00  0.00     0.031 C 
ATOM     53  C   UNL A   1      39.843  34.854  29.574  1.00  0.00     0.029 A 
ATOM     54  C   UNL A   1      40.084  33.861  30.519  1.00  0.00     0.049 A 
ATOM     55  H   UNL A   1      38.569  32.824  31.550  1.00  0.00     0.167 HD
ATOM     56  C   UNL A   1      42.363  33.190  30.410  1.00  0.00     0.074 A 
ATOM     57  C   UNL A   1      42.584  33.664  29.050  1.00  0.00     0.031 C 
ATOM     58  C   UNL A   1      41.220  33.246  31.140  1.00  0.00     0.037 A 
BRANCH  45  59
ATOM     59  C   UNL A   1      35.781  32.870  30.070  1.00  0.00     0.058 A 
ATOM     60  C   UNL A   1      34.877  33.647  29.301  1.00  0.00     0.135 A 
ATOM     61  C   UNL A   1      35.603  32.932  31.462  1.00  0.00     0.135 A 
ATOM     62  F   UNL A   1      34.880  33.571  27.960  1.00  0.00    -0.206 F 
ATOM     63  C   UNL A   1      34.017  34.584  29.865  1.00  0.00     0.059 A 
ATOM     64  C   UNL A   1      34.695  33.825  32.053  1.00  0.00     0.059 A 
ATOM     65  F   UNL A   1      36.360  32.194  32.285  1.00  0.00    -0.206 F 
ATOM     66  C   UNL A   1      33.968  34.701  31.246  1.00  0.00     0.060 A 
BRANCH  66  67
ATOM     67  S   UNL A   1      32.976  36.033  31.961  1.00  0.00     0.124 S 
ATOM     68  O   UNL A   1      33.909  36.622  32.913  1.00  0.00    -0.237 OA
ATOM     69  O   UNL A   1      32.664  36.856  30.795  1.00  0.00    -0.237 OA
ATOM     70  O   UNL A   1      31.836  35.327  32.537  1.00  0.00    -0.744 OA
ENDBRANCH  66  67
ENDBRANCH  45  59
BRANCH  46  71
ATOM     71  C   UNL A   1      46.221  31.152  28.856  1.00  0.00     0.058 A 
ATOM     72  C   UNL A   1      47.279  31.159  29.774  1.00  0.00     0.135 A 
ATOM     73  C   UNL A   1      46.633  31.203  27.492  1.00  0.00     0.135 A 
ATOM     74  F   UNL A   1      47.054  31.282  31.088  1.00  0.00    -0.206 F 
ATOM     75  C   UNL A   1      48.623  31.030  29.378  1.00  0.00     0.059 A 
ATOM     76  C   UNL A   1      47.953  31.043  27.074  1.00  0.00     0.059 A 
ATOM     77  F   UNL A   1      45.748  31.358  26.497  1.00  0.00    -0.206 F 
ATOM     78  C   UNL A   1      48.945  30.911  28.027  1.00  0.00     0.060 A 
BRANCH  78  79
ATOM     79  S   UNL A   1      50.613  30.445  27.511  1.00  0.00     0.124 S 
ATOM     80  O   UNL A   1      50.529  28.990  27.485  1.00  0.00    -0.237 OA
ATOM     81  O   UNL A   1      50.737  31.099  26.211  1.00  0.00    -0.237 OA
ATOM     82  O   UNL A   1      51.455  31.011  28.562  1.00  0.00    -0.744 OA
ENDBRANCH  78  79
ENDBRANCH  46  71
BRANCH  58  83
ATOM     83  C   UNL A   1      41.145  32.287  32.308  1.00  0.00     0.058 A 
ATOM     84  C   UNL A   1      41.609  32.645  33.575  1.00  0.00     0.135 A 
ATOM     85  C   UNL A   1      40.649  30.971  32.172  1.00  0.00     0.135 A 
ATOM     86  F   UNL A   1      42.112  33.871  33.781  1.00  0.00    -0.206 F 
ATOM     87  C   UNL A   1      41.554  31.756  34.655  1.00  0.00     0.059 A 
ATOM     88  C   UNL A   1      40.568  30.071  33.232  1.00  0.00     0.059 A 
ATOM     89  F   UNL A   1      40.198  30.540  30.990  1.00  0.00    -0.206 F 
ATOM     90  C   UNL A   1      41.025  30.474  34.477  1.00  0.00     0.060 A 
BRANCH  90  91
ATOM     91  S   UNL A   1      40.932  29.351  35.891  1.00  0.00     0.124 S 
ATOM     92  O   UNL A   1      39.582  29.590  36.388  1.00  0.00    -0.237 OA
ATOM     93  O   UNL A   1      41.156  28.052  35.266  1.00  0.00    -0.237 OA
ATOM     94  O   UNL A   1      42.006  29.812  36.769  1.00  0.00    -0.744 OA
ENDBRANCH  90  91
ENDBRANCH  58  83
ENDBRANCH  32  33
ENDBRANCH  24  27
ENDBRANCH  22  23
ENDBRANCH  21  22
ENDBRANCH  20  21
ENDBRANCH   3  20
TORSDOF 20
ENDMDL
