MODEL 1
REMARK VINA RESULT:     -12.0      0.000      0.000
REMARK SMILES Cc1ccc(OCC(=O)Oc2ccc(C(=O)NCCCNC(=O)c3ccc(-c4c5nc(c(-c6c(F)cc(S(=O)(=O)[O-])cc6F)c6ccc([nH]6)c(-c6c(F)cc(S(=O)(=O)[O-])cc6F)c6nc(c(-c7c(F)cc(S(=O)(=O)[O-])cc7F)c7ccc4[nH]7)C=C6)C=C5)cc3)cc2)cc1C
REMARK SMILES IDX 18 1 17 2 15 3 16 4 14 6 11 7 12 8 91 9 13 10 90 11 10 12
REMARK SMILES IDX 8 13 9 14 7 15 6 16 5 17 1 18 2 19 3 20 93 21 4 22 92 23
REMARK SMILES IDX 94 24 19 25 20 26 21 27 22 28 23 30 24 31 25 32 89 33 26 34
REMARK SMILES IDX 88 35 27 36 28 37 29 38 82 39 30 40 87 41 81 42 83 43 31 44
REMARK SMILES IDX 86 45 80 46 79 47 32 49 66 50 45 51 65 52 46 53 49 54 64 55
REMARK SMILES IDX 84 56 47 57 48 58 63 60 85 61 50 62 33 63 34 64 43 65 35 66
REMARK SMILES IDX 36 67 42 68 44 69 37 70 38 71 39 72 40 73 41 74 67 75 68 76
REMARK SMILES IDX 77 77 69 78 70 79 76 80 78 81 71 82 72 83 73 84 74 85 75 86
REMARK SMILES IDX 51 87 52 88 61 89 53 90 54 91 60 92 62 93 55 94 56 95 57 96
REMARK SMILES IDX 58 97 59 98
REMARK H PARENT 17 5 21 29 83 48 49 59
REMARK Flexibility Score: inf
ROOT
ATOM      1  C   UNL A   1      33.279  30.115  26.824  1.00  0.00     0.118 C 
ENDROOT
BRANCH   1   2
ATOM      2  N   UNL A   1      33.203  29.847  25.397  1.00  0.00    -0.352 N 
ATOM      3  C   UNL A   1      32.837  28.718  24.707  1.00  0.00     0.251 C 
ATOM      4  O   UNL A   1      32.726  28.790  23.484  1.00  0.00    -0.269 OA
ATOM      5  H   UNL A   1      33.458  30.608  24.826  1.00  0.00     0.163 HD
BRANCH   3   6
ATOM      6  C   UNL A   1      32.518  27.435  25.388  1.00  0.00     0.040 A 
ATOM      7  C   UNL A   1      32.038  24.958  26.584  1.00  0.00     0.131 A 
ATOM      8  C   UNL A   1      33.332  25.285  26.184  1.00  0.00     0.048 A 
ATOM      9  C   UNL A   1      31.003  25.884  26.474  1.00  0.00     0.048 A 
ATOM     10  C   UNL A   1      33.569  26.525  25.583  1.00  0.00     0.017 A 
ATOM     11  C   UNL A   1      31.249  27.125  25.883  1.00  0.00     0.017 A 
BRANCH   7  12
ATOM     12  O   UNL A   1      31.837  23.699  27.161  1.00  0.00    -0.424 OA
BRANCH  12  13
ATOM     13  C   UNL A   1      30.616  23.097  26.872  1.00  0.00     0.349 C 
ATOM     14  O   UNL A   1      29.619  23.075  27.588  1.00  0.00    -0.248 OA
BRANCH  13  15
ATOM     15  C   UNL A   1      30.677  22.430  25.506  1.00  0.00     0.352 C 
BRANCH  15  16
ATOM     16  O   UNL A   1      31.695  21.462  25.319  1.00  0.00    -0.482 OA
BRANCH  16  17
ATOM     17  C   UNL A   1      32.844  21.853  24.689  1.00  0.00     0.120 A 
ATOM     18  C   UNL A   1      36.701  22.971  23.079  1.00  0.00     0.044 C 
ATOM     19  C   UNL A   1      35.379  22.542  23.650  1.00  0.00    -0.048 A 
ATOM     20  C   UNL A   1      34.202  23.094  23.121  1.00  0.00     0.007 A 
ATOM     21  C   UNL A   1      35.281  21.605  24.694  1.00  0.00    -0.045 A 
ATOM     22  C   UNL A   1      32.946  22.746  23.627  1.00  0.00     0.047 A 
ATOM     23  C   UNL A   1      34.010  21.280  25.204  1.00  0.00     0.050 A 
ATOM     24  C   UNL A   1      36.472  20.920  25.303  1.00  0.00     0.045 C 
ENDBRANCH  16  17
ENDBRANCH  15  16
ENDBRANCH  13  15
ENDBRANCH  12  13
ENDBRANCH   7  12
ENDBRANCH   3   6
ENDBRANCH   1   2
BRANCH   1  25
ATOM     25  C   UNL A   1      34.664  30.617  27.230  1.00  0.00     0.042 C 
BRANCH  25  26
ATOM     26  C   UNL A   1      35.276  29.858  28.404  1.00  0.00     0.118 C 
BRANCH  26  27
ATOM     27  N   UNL A   1      35.405  30.692  29.589  1.00  0.00    -0.352 N 
ATOM     28  C   UNL A   1      36.487  30.895  30.410  1.00  0.00     0.251 C 
ATOM     29  H   UNL A   1      34.592  31.187  29.841  1.00  0.00     0.163 HD
ATOM     30  O   UNL A   1      36.324  31.473  31.481  1.00  0.00    -0.269 OA
BRANCH  28  31
ATOM     31  C   UNL A   1      37.836  30.417  30.025  1.00  0.00     0.039 A 
ATOM     32  C   UNL A   1      38.171  30.375  28.669  1.00  0.00     0.014 A 
ATOM     33  C   UNL A   1      38.749  29.966  30.981  1.00  0.00     0.014 A 
ATOM     34  C   UNL A   1      39.435  29.926  28.276  1.00  0.00     0.010 A 
ATOM     35  C   UNL A   1      40.034  29.585  30.595  1.00  0.00     0.010 A 
ATOM     36  C   UNL A   1      40.388  29.552  29.238  1.00  0.00    -0.014 A 
BRANCH  36  37
ATOM     37  C   UNL A   1      41.752  29.118  28.843  1.00  0.00     0.031 A 
ATOM     38  C   UNL A   1      42.877  30.115  28.784  1.00  0.00     0.074 A 
ATOM     39  C   UNL A   1      41.964  27.839  28.476  1.00  0.00     0.049 A 
ATOM     40  N   UNL A   1      44.114  29.944  28.390  1.00  0.00    -0.248 NA
ATOM     41  C   UNL A   1      42.564  31.492  29.195  1.00  0.00     0.031 C 
ATOM     42  C   UNL A   1      40.943  26.789  28.445  1.00  0.00     0.029 A 
ATOM     43  N   UNL A   1      43.102  27.205  28.045  1.00  0.00    -0.354 N 
ATOM     44  C   UNL A   1      44.722  31.189  28.495  1.00  0.00     0.074 A 
ATOM     45  C   UNL A   1      43.703  32.118  28.938  1.00  0.00     0.031 C 
ATOM     46  C   UNL A   1      41.502  25.642  28.029  1.00  0.00     0.029 A 
ATOM     47  C   UNL A   1      42.912  25.881  27.731  1.00  0.00     0.049 A 
ATOM     48  H   UNL A   1      43.973  27.658  27.968  1.00  0.00     0.167 HD
ATOM     49  C   UNL A   1      46.014  31.526  28.266  1.00  0.00     0.037 A 
ATOM     50  C   UNL A   1      43.772  24.963  27.248  1.00  0.00     0.037 A 
ATOM     51  C   UNL A   1      47.026  30.594  27.841  1.00  0.00     0.049 A 
ATOM     52  C   UNL A   1      45.203  25.353  27.008  1.00  0.00     0.074 A 
ATOM     53  C   UNL A   1      48.374  30.822  27.624  1.00  0.00     0.029 A 
ATOM     54  N   UNL A   1      46.801  29.251  27.567  1.00  0.00    -0.354 N 
ATOM     55  N   UNL A   1      45.774  26.524  27.163  1.00  0.00    -0.248 NA
ATOM     56  C   UNL A   1      46.110  24.299  26.535  1.00  0.00     0.031 C 
ATOM     57  C   UNL A   1      48.956  29.628  27.183  1.00  0.00     0.029 A 
ATOM     58  C   UNL A   1      47.981  28.644  27.168  1.00  0.00     0.049 A 
ATOM     59  H   UNL A   1      45.931  28.798  27.642  1.00  0.00     0.167 HD
ATOM     60  C   UNL A   1      47.112  26.344  26.830  1.00  0.00     0.074 A 
ATOM     61  C   UNL A   1      47.266  24.947  26.475  1.00  0.00     0.031 C 
ATOM     62  C   UNL A   1      48.119  27.251  26.820  1.00  0.00     0.037 A 
BRANCH  49  63
ATOM     63  C   UNL A   1      46.402  32.965  28.474  1.00  0.00     0.058 A 
ATOM     64  C   UNL A   1      46.343  33.901  27.428  1.00  0.00     0.135 A 
ATOM     65  C   UNL A   1      46.829  33.420  29.733  1.00  0.00     0.135 A 
ATOM     66  F   UNL A   1      45.954  33.520  26.201  1.00  0.00    -0.206 F 
ATOM     67  C   UNL A   1      46.735  35.224  27.610  1.00  0.00     0.059 A 
ATOM     68  C   UNL A   1      47.198  34.745  29.946  1.00  0.00     0.059 A 
ATOM     69  F   UNL A   1      46.900  32.570  30.770  1.00  0.00    -0.206 F 
ATOM     70  C   UNL A   1      47.168  35.634  28.872  1.00  0.00     0.060 A 
BRANCH  70  71
ATOM     71  S   UNL A   1      47.694  37.348  29.088  1.00  0.00     0.124 S 
ATOM     72  O   UNL A   1      46.409  38.041  29.127  1.00  0.00    -0.237 OA
ATOM     73  O   UNL A   1      48.423  37.296  30.352  1.00  0.00    -0.237 OA
ATOM     74  O   UNL A   1      48.510  37.606  27.907  1.00  0.00    -0.744 OA
ENDBRANCH  70  71
ENDBRANCH  49  63
BRANCH  50  75
ATOM     75  C   UNL A   1      43.295  23.580  26.983  1.00  0.00     0.058 A 
ATOM     76  C   UNL A   1      43.015  23.150  25.678  1.00  0.00     0.135 A 
ATOM     77  C   UNL A   1      43.152  22.649  28.025  1.00  0.00     0.135 A 
ATOM     78  F   UNL A   1      43.130  24.005  24.651  1.00  0.00    -0.206 F 
ATOM     79  C   UNL A   1      42.608  21.846  25.413  1.00  0.00     0.059 A 
ATOM     80  C   UNL A   1      42.769  21.334  27.781  1.00  0.00     0.059 A 
ATOM     81  F   UNL A   1      43.425  23.008  29.288  1.00  0.00    -0.206 F 
ATOM     82  C   UNL A   1      42.494  20.943  26.471  1.00  0.00     0.060 A 
BRANCH  82  83
ATOM     83  S   UNL A   1      42.039  19.233  26.108  1.00  0.00     0.124 S 
ATOM     84  O   UNL A   1      42.843  18.962  24.921  1.00  0.00    -0.237 OA
ATOM     85  O   UNL A   1      42.448  18.542  27.327  1.00  0.00    -0.237 OA
ATOM     86  O   UNL A   1      40.598  19.308  25.893  1.00  0.00    -0.744 OA
ENDBRANCH  82  83
ENDBRANCH  50  75
BRANCH  62  87
ATOM     87  C   UNL A   1      49.487  26.760  26.436  1.00  0.00     0.058 A 
ATOM     88  C   UNL A   1      50.280  26.016  27.324  1.00  0.00     0.135 A 
ATOM     89  C   UNL A   1      49.989  26.992  25.145  1.00  0.00     0.135 A 
ATOM     90  F   UNL A   1      49.850  25.772  28.572  1.00  0.00    -0.206 F 
ATOM     91  C   UNL A   1      51.532  25.537  26.952  1.00  0.00     0.059 A 
ATOM     92  C   UNL A   1      51.227  26.502  24.743  1.00  0.00     0.059 A 
ATOM     93  F   UNL A   1      49.266  27.689  24.253  1.00  0.00    -0.206 F 
ATOM     94  C   UNL A   1      51.997  25.785  25.659  1.00  0.00     0.060 A 
BRANCH  94  95
ATOM     95  S   UNL A   1      53.609  25.130  25.177  1.00  0.00     0.124 S 
ATOM     96  O   UNL A   1      53.645  25.455  23.755  1.00  0.00    -0.237 OA
ATOM     97  O   UNL A   1      54.523  25.891  26.024  1.00  0.00    -0.237 OA
ATOM     98  O   UNL A   1      53.508  23.709  25.495  1.00  0.00    -0.744 OA
ENDBRANCH  94  95
ENDBRANCH  62  87
ENDBRANCH  36  37
ENDBRANCH  28  31
ENDBRANCH  26  27
ENDBRANCH  25  26
ENDBRANCH   1  25
TORSDOF 18
ENDMDL
MODEL 2
REMARK VINA RESULT:     -11.8      4.392      7.061
REMARK SMILES Cc1ccc(OCC(=O)Oc2ccc(C(=O)NCCCNC(=O)c3ccc(-c4c5nc(c(-c6c(F)cc(S(=O)(=O)[O-])cc6F)c6ccc([nH]6)c(-c6c(F)cc(S(=O)(=O)[O-])cc6F)c6nc(c(-c7c(F)cc(S(=O)(=O)[O-])cc7F)c7ccc4[nH]7)C=C6)C=C5)cc3)cc2)cc1C
REMARK SMILES IDX 18 1 17 2 15 3 16 4 14 6 11 7 12 8 91 9 13 10 90 11 10 12
REMARK SMILES IDX 8 13 9 14 7 15 6 16 5 17 1 18 2 19 3 20 93 21 4 22 92 23
REMARK SMILES IDX 94 24 19 25 20 26 21 27 22 28 23 30 24 31 25 32 89 33 26 34
REMARK SMILES IDX 88 35 27 36 28 37 29 38 82 39 30 40 87 41 81 42 83 43 31 44
REMARK SMILES IDX 86 45 80 46 79 47 32 49 66 50 45 51 65 52 46 53 49 54 64 55
REMARK SMILES IDX 84 56 47 57 48 58 63 60 85 61 50 62 33 63 34 64 43 65 35 66
REMARK SMILES IDX 36 67 42 68 44 69 37 70 38 71 39 72 40 73 41 74 67 75 68 76
REMARK SMILES IDX 77 77 69 78 70 79 76 80 78 81 71 82 72 83 73 84 74 85 75 86
REMARK SMILES IDX 51 87 52 88 61 89 53 90 54 91 60 92 62 93 55 94 56 95 57 96
REMARK SMILES IDX 58 97 59 98
REMARK H PARENT 17 5 21 29 83 48 49 59
REMARK Flexibility Score: inf
ROOT
ATOM      1  C   UNL A   1      34.596  34.364  30.225  1.00  0.00     0.118 C 
ENDROOT
BRANCH   1   2
ATOM      2  N   UNL A   1      33.778  33.883  31.326  1.00  0.00    -0.352 N 
ATOM      3  C   UNL A   1      34.119  33.265  32.504  1.00  0.00     0.251 C 
ATOM      4  O   UNL A   1      33.237  33.075  33.342  1.00  0.00    -0.269 OA
ATOM      5  H   UNL A   1      32.811  34.024  31.206  1.00  0.00     0.163 HD
BRANCH   3   6
ATOM      6  C   UNL A   1      35.516  32.872  32.823  1.00  0.00     0.040 A 
ATOM      7  C   UNL A   1      38.096  31.981  33.409  1.00  0.00     0.131 A 
ATOM      8  C   UNL A   1      37.282  31.217  32.576  1.00  0.00     0.048 A 
ATOM      9  C   UNL A   1      37.671  33.221  33.879  1.00  0.00     0.048 A 
ATOM     10  C   UNL A   1      35.990  31.664  32.287  1.00  0.00     0.017 A 
ATOM     11  C   UNL A   1      36.384  33.667  33.577  1.00  0.00     0.017 A 
BRANCH   7  12
ATOM     12  O   UNL A   1      39.376  31.488  33.694  1.00  0.00    -0.424 OA
BRANCH  12  13
ATOM     13  C   UNL A   1      39.418  30.399  34.560  1.00  0.00     0.349 C 
ATOM     14  O   UNL A   1      38.808  30.277  35.618  1.00  0.00    -0.248 OA
BRANCH  13  15
ATOM     15  C   UNL A   1      40.367  29.341  34.017  1.00  0.00     0.352 C 
BRANCH  15  16
ATOM     16  O   UNL A   1      41.079  28.578  34.975  1.00  0.00    -0.482 OA
BRANCH  16  17
ATOM     17  C   UNL A   1      41.982  27.657  34.519  1.00  0.00     0.120 A 
ATOM     18  C   UNL A   1      44.754  24.508  33.460  1.00  0.00     0.044 C 
ATOM     19  C   UNL A   1      43.758  25.570  33.836  1.00  0.00    -0.048 A 
ATOM     20  C   UNL A   1      43.884  26.847  33.267  1.00  0.00     0.007 A 
ATOM     21  C   UNL A   1      42.706  25.327  34.736  1.00  0.00    -0.045 A 
ATOM     22  C   UNL A   1      42.999  27.877  33.596  1.00  0.00     0.047 A 
ATOM     23  C   UNL A   1      41.835  26.381  35.070  1.00  0.00     0.050 A 
ATOM     24  C   UNL A   1      42.453  23.987  35.369  1.00  0.00     0.045 C 
ENDBRANCH  16  17
ENDBRANCH  15  16
ENDBRANCH  13  15
ENDBRANCH  12  13
ENDBRANCH   7  12
ENDBRANCH   3   6
ENDBRANCH   1   2
BRANCH   1  25
ATOM     25  C   UNL A   1      34.021  33.951  28.871  1.00  0.00     0.042 C 
BRANCH  25  26
ATOM     26  C   UNL A   1      34.829  32.869  28.162  1.00  0.00     0.118 C 
BRANCH  26  27
ATOM     27  N   UNL A   1      34.052  31.658  27.945  1.00  0.00    -0.352 N 
ATOM     28  C   UNL A   1      34.465  30.352  27.847  1.00  0.00     0.251 C 
ATOM     29  H   UNL A   1      33.082  31.796  27.854  1.00  0.00     0.163 HD
ATOM     30  O   UNL A   1      33.672  29.503  27.449  1.00  0.00    -0.269 OA
BRANCH  28  31
ATOM     31  C   UNL A   1      35.849  29.962  28.202  1.00  0.00     0.039 A 
ATOM     32  C   UNL A   1      36.850  30.083  27.233  1.00  0.00     0.014 A 
ATOM     33  C   UNL A   1      36.159  29.434  29.458  1.00  0.00     0.014 A 
ATOM     34  C   UNL A   1      38.165  29.721  27.538  1.00  0.00     0.010 A 
ATOM     35  C   UNL A   1      37.482  29.139  29.785  1.00  0.00     0.010 A 
ATOM     36  C   UNL A   1      38.498  29.270  28.826  1.00  0.00    -0.014 A 
BRANCH  36  37
ATOM     37  C   UNL A   1      39.898  28.926  29.184  1.00  0.00     0.031 A 
ATOM     38  C   UNL A   1      40.778  29.940  29.861  1.00  0.00     0.074 A 
ATOM     39  C   UNL A   1      40.395  27.722  28.842  1.00  0.00     0.049 A 
ATOM     40  N   UNL A   1      42.044  29.853  30.182  1.00  0.00    -0.248 NA
ATOM     41  C   UNL A   1      40.161  31.233  30.198  1.00  0.00     0.031 C 
ATOM     42  C   UNL A   1      39.655  26.671  28.139  1.00  0.00     0.029 A 
ATOM     43  N   UNL A   1      41.643  27.182  29.023  1.00  0.00    -0.354 N 
ATOM     44  C   UNL A   1      42.378  31.079  30.746  1.00  0.00     0.074 A 
ATOM     45  C   UNL A   1      41.196  31.911  30.674  1.00  0.00     0.031 C 
ATOM     46  C   UNL A   1      40.459  25.611  27.959  1.00  0.00     0.029 A 
ATOM     47  C   UNL A   1      41.780  25.917  28.502  1.00  0.00     0.049 A 
ATOM     48  H   UNL A   1      42.373  27.657  29.484  1.00  0.00     0.167 HD
ATOM     49  C   UNL A   1      43.554  31.470  31.295  1.00  0.00     0.037 A 
ATOM     50  C   UNL A   1      42.849  25.099  28.455  1.00  0.00     0.037 A 
ATOM     51  C   UNL A   1      44.722  30.631  31.377  1.00  0.00     0.049 A 
ATOM     52  C   UNL A   1      44.143  25.547  29.077  1.00  0.00     0.074 A 
ATOM     53  C   UNL A   1      45.948  30.914  31.954  1.00  0.00     0.029 A 
ATOM     54  N   UNL A   1      44.810  29.342  30.869  1.00  0.00    -0.354 N 
ATOM     55  N   UNL A   1      44.426  26.691  29.654  1.00  0.00    -0.248 NA
ATOM     56  C   UNL A   1      45.260  24.593  29.049  1.00  0.00     0.031 C 
ATOM     57  C   UNL A   1      46.789  29.812  31.760  1.00  0.00     0.029 A 
ATOM     58  C   UNL A   1      46.073  28.824  31.103  1.00  0.00     0.049 A 
ATOM     59  H   UNL A   1      44.082  28.868  30.407  1.00  0.00     0.167 HD
ATOM     60  C   UNL A   1      45.746  26.587  30.078  1.00  0.00     0.074 A 
ATOM     61  C   UNL A   1      46.201  25.263  29.701  1.00  0.00     0.031 C 
ATOM     62  C   UNL A   1      46.511  27.503  30.722  1.00  0.00     0.037 A 
BRANCH  49  63
ATOM     63  C   UNL A   1      43.629  32.867  31.848  1.00  0.00     0.058 A 
ATOM     64  C   UNL A   1      44.089  33.943  31.070  1.00  0.00     0.135 A 
ATOM     65  C   UNL A   1      43.232  33.140  33.168  1.00  0.00     0.135 A 
ATOM     66  F   UNL A   1      44.494  33.739  29.806  1.00  0.00    -0.206 F 
ATOM     67  C   UNL A   1      44.192  35.229  31.592  1.00  0.00     0.059 A 
ATOM     68  C   UNL A   1      43.299  34.424  33.701  1.00  0.00     0.059 A 
ATOM     69  F   UNL A   1      42.780  32.151  33.955  1.00  0.00    -0.206 F 
ATOM     70  C   UNL A   1      43.801  35.457  32.911  1.00  0.00     0.060 A 
BRANCH  70  71
ATOM     71  S   UNL A   1      43.961  37.127  33.582  1.00  0.00     0.124 S 
ATOM     72  O   UNL A   1      44.096  37.916  32.361  1.00  0.00    -0.237 OA
ATOM     73  O   UNL A   1      42.706  37.294  34.308  1.00  0.00    -0.237 OA
ATOM     74  O   UNL A   1      45.157  37.046  34.413  1.00  0.00    -0.744 OA
ENDBRANCH  70  71
ENDBRANCH  49  63
BRANCH  50  75
ATOM     75  C   UNL A   1      42.723  23.765  27.813  1.00  0.00     0.058 A 
ATOM     76  C   UNL A   1      42.871  23.613  26.426  1.00  0.00     0.135 A 
ATOM     77  C   UNL A   1      42.498  22.609  28.578  1.00  0.00     0.135 A 
ATOM     78  F   UNL A   1      43.082  24.689  25.653  1.00  0.00    -0.206 F 
ATOM     79  C   UNL A   1      42.797  22.365  25.819  1.00  0.00     0.059 A 
ATOM     80  C   UNL A   1      42.443  21.347  27.995  1.00  0.00     0.059 A 
ATOM     81  F   UNL A   1      42.368  22.699  29.910  1.00  0.00    -0.206 F 
ATOM     82  C   UNL A   1      42.589  21.235  26.613  1.00  0.00     0.060 A 
BRANCH  82  83
ATOM     83  S   UNL A   1      42.571  19.610  25.823  1.00  0.00     0.124 S 
ATOM     84  O   UNL A   1      43.564  19.785  24.770  1.00  0.00    -0.237 OA
ATOM     85  O   UNL A   1      42.955  18.731  26.924  1.00  0.00    -0.237 OA
ATOM     86  O   UNL A   1      41.190  19.471  25.374  1.00  0.00    -0.744 OA
ENDBRANCH  82  83
ENDBRANCH  50  75
BRANCH  62  87
ATOM     87  C   UNL A   1      47.912  27.100  31.084  1.00  0.00     0.058 A 
ATOM     88  C   UNL A   1      48.971  27.206  30.168  1.00  0.00     0.135 A 
ATOM     89  C   UNL A   1      48.210  26.650  32.382  1.00  0.00     0.135 A 
ATOM     90  F   UNL A   1      48.739  27.625  28.914  1.00  0.00    -0.206 F 
ATOM     91  C   UNL A   1      50.272  26.861  30.519  1.00  0.00     0.059 A 
ATOM     92  C   UNL A   1      49.507  26.323  32.762  1.00  0.00     0.059 A 
ATOM     93  F   UNL A   1      47.236  26.540  33.299  1.00  0.00    -0.206 F 
ATOM     94  C   UNL A   1      50.530  26.421  31.819  1.00  0.00     0.060 A 
BRANCH  94  95
ATOM     95  S   UNL A   1      52.229  26.007  32.273  1.00  0.00     0.124 S 
ATOM     96  O   UNL A   1      52.273  24.580  31.974  1.00  0.00    -0.237 OA
ATOM     97  O   UNL A   1      53.008  26.864  31.384  1.00  0.00    -0.237 OA
ATOM     98  O   UNL A   1      52.297  26.357  33.688  1.00  0.00    -0.744 OA
ENDBRANCH  94  95
ENDBRANCH  62  87
ENDBRANCH  36  37
ENDBRANCH  28  31
ENDBRANCH  26  27
ENDBRANCH  25  26
ENDBRANCH   1  25
TORSDOF 18
ENDMDL
MODEL 3
REMARK VINA RESULT:     -11.8      6.380     11.919
REMARK SMILES Cc1ccc(OCC(=O)Oc2ccc(C(=O)NCCCNC(=O)c3ccc(-c4c5nc(c(-c6c(F)cc(S(=O)(=O)[O-])cc6F)c6ccc([nH]6)c(-c6c(F)cc(S(=O)(=O)[O-])cc6F)c6nc(c(-c7c(F)cc(S(=O)(=O)[O-])cc7F)c7ccc4[nH]7)C=C6)C=C5)cc3)cc2)cc1C
REMARK SMILES IDX 18 1 17 2 15 3 16 4 14 6 11 7 12 8 91 9 13 10 90 11 10 12
REMARK SMILES IDX 8 13 9 14 7 15 6 16 5 17 1 18 2 19 3 20 93 21 4 22 92 23
REMARK SMILES IDX 94 24 19 25 20 26 21 27 22 28 23 30 24 31 25 32 89 33 26 34
REMARK SMILES IDX 88 35 27 36 28 37 29 38 82 39 30 40 87 41 81 42 83 43 31 44
REMARK SMILES IDX 86 45 80 46 79 47 32 49 66 50 45 51 65 52 46 53 49 54 64 55
REMARK SMILES IDX 84 56 47 57 48 58 63 60 85 61 50 62 33 63 34 64 43 65 35 66
REMARK SMILES IDX 36 67 42 68 44 69 37 70 38 71 39 72 40 73 41 74 67 75 68 76
REMARK SMILES IDX 77 77 69 78 70 79 76 80 78 81 71 82 72 83 73 84 74 85 75 86
REMARK SMILES IDX 51 87 52 88 61 89 53 90 54 91 60 92 62 93 55 94 56 95 57 96
REMARK SMILES IDX 58 97 59 98
REMARK H PARENT 17 5 21 29 83 48 49 59
REMARK Flexibility Score: inf
ROOT
ATOM      1  C   UNL A   1      37.975  22.484  25.621  1.00  0.00     0.118 C 
ENDROOT
BRANCH   1   2
ATOM      2  N   UNL A   1      36.777  21.829  26.121  1.00  0.00    -0.352 N 
ATOM      3  C   UNL A   1      35.450  22.028  25.832  1.00  0.00     0.251 C 
ATOM      4  O   UNL A   1      34.625  21.241  26.295  1.00  0.00    -0.269 OA
ATOM      5  H   UNL A   1      36.947  21.118  26.780  1.00  0.00     0.163 HD
BRANCH   3   6
ATOM      6  C   UNL A   1      34.983  23.121  24.939  1.00  0.00     0.040 A 
ATOM      7  C   UNL A   1      34.184  25.103  23.142  1.00  0.00     0.131 A 
ATOM      8  C   UNL A   1      34.396  23.806  22.680  1.00  0.00     0.048 A 
ATOM      9  C   UNL A   1      34.279  25.400  24.500  1.00  0.00     0.048 A 
ATOM     10  C   UNL A   1      34.800  22.817  23.580  1.00  0.00     0.017 A 
ATOM     11  C   UNL A   1      34.671  24.405  25.396  1.00  0.00     0.017 A 
BRANCH   7  12
ATOM     12  O   UNL A   1      33.803  26.071  22.205  1.00  0.00    -0.424 OA
BRANCH  12  13
ATOM     13  C   UNL A   1      32.849  25.662  21.277  1.00  0.00     0.349 C 
ATOM     14  O   UNL A   1      33.032  25.435  20.085  1.00  0.00    -0.248 OA
BRANCH  13  15
ATOM     15  C   UNL A   1      31.490  25.540  21.950  1.00  0.00     0.352 C 
BRANCH  15  16
ATOM     16  O   UNL A   1      30.913  26.741  22.433  1.00  0.00    -0.482 OA
BRANCH  16  17
ATOM     17  C   UNL A   1      31.003  27.003  23.773  1.00  0.00     0.120 A 
ATOM     18  C   UNL A   1      31.611  28.140  27.903  1.00  0.00     0.044 C 
ATOM     19  C   UNL A   1      31.395  27.789  26.457  1.00  0.00    -0.048 A 
ATOM     20  C   UNL A   1      30.843  26.539  26.139  1.00  0.00     0.007 A 
ATOM     21  C   UNL A   1      31.724  28.672  25.414  1.00  0.00    -0.045 A 
ATOM     22  C   UNL A   1      30.639  26.152  24.811  1.00  0.00     0.047 A 
ATOM     23  C   UNL A   1      31.529  28.260  24.082  1.00  0.00     0.050 A 
ATOM     24  C   UNL A   1      32.278  30.051  25.642  1.00  0.00     0.045 C 
ENDBRANCH  16  17
ENDBRANCH  15  16
ENDBRANCH  13  15
ENDBRANCH  12  13
ENDBRANCH   7  12
ENDBRANCH   3   6
ENDBRANCH   1   2
BRANCH   1  25
ATOM     25  C   UNL A   1      39.215  22.072  26.413  1.00  0.00     0.042 C 
BRANCH  25  26
ATOM     26  C   UNL A   1      39.968  23.245  27.034  1.00  0.00     0.118 C 
BRANCH  26  27
ATOM     27  N   UNL A   1      41.054  23.710  26.185  1.00  0.00    -0.352 N 
ATOM     28  C   UNL A   1      41.704  24.920  26.171  1.00  0.00     0.251 C 
ATOM     29  H   UNL A   1      41.372  23.058  25.520  1.00  0.00     0.163 HD
ATOM     30  O   UNL A   1      42.450  25.186  25.232  1.00  0.00    -0.269 OA
BRANCH  28  31
ATOM     31  C   UNL A   1      41.507  25.904  27.260  1.00  0.00     0.039 A 
ATOM     32  C   UNL A   1      40.435  25.726  28.139  1.00  0.00     0.014 A 
ATOM     33  C   UNL A   1      42.335  27.022  27.391  1.00  0.00     0.014 A 
ATOM     34  C   UNL A   1      40.223  26.640  29.175  1.00  0.00     0.010 A 
ATOM     35  C   UNL A   1      42.166  27.894  28.466  1.00  0.00     0.010 A 
ATOM     36  C   UNL A   1      41.103  27.718  29.364  1.00  0.00    -0.014 A 
BRANCH  36  37
ATOM     37  C   UNL A   1      40.922  28.673  30.488  1.00  0.00     0.031 A 
ATOM     38  C   UNL A   1      41.773  28.560  31.723  1.00  0.00     0.074 A 
ATOM     39  C   UNL A   1      39.948  29.602  30.422  1.00  0.00     0.049 A 
ATOM     40  N   UNL A   1      41.713  29.248  32.834  1.00  0.00    -0.248 NA
ATOM     41  C   UNL A   1      42.812  27.517  31.718  1.00  0.00     0.031 C 
ATOM     42  C   UNL A   1      39.025  29.780  29.298  1.00  0.00     0.029 A 
ATOM     43  N   UNL A   1      39.560  30.560  31.323  1.00  0.00    -0.354 N 
ATOM     44  C   UNL A   1      42.694  28.717  33.664  1.00  0.00     0.074 A 
ATOM     45  C   UNL A   1      43.298  27.614  32.947  1.00  0.00     0.031 C 
ATOM     46  C   UNL A   1      38.187  30.792  29.573  1.00  0.00     0.029 A 
ATOM     47  C   UNL A   1      38.489  31.312  30.903  1.00  0.00     0.049 A 
ATOM     48  H   UNL A   1      40.008  30.696  32.190  1.00  0.00     0.167 HD
ATOM     49  C   UNL A   1      43.074  29.123  34.899  1.00  0.00     0.037 A 
ATOM     50  C   UNL A   1      37.817  32.303  31.523  1.00  0.00     0.037 A 
ATOM     51  C   UNL A   1      42.479  30.232  35.600  1.00  0.00     0.049 A 
ATOM     52  C   UNL A   1      38.258  32.745  32.890  1.00  0.00     0.074 A 
ATOM     53  C   UNL A   1      42.820  30.755  36.836  1.00  0.00     0.029 A 
ATOM     54  N   UNL A   1      41.418  30.992  35.126  1.00  0.00    -0.354 N 
ATOM     55  N   UNL A   1      39.223  32.266  33.638  1.00  0.00    -0.248 NA
ATOM     56  C   UNL A   1      37.527  33.867  33.494  1.00  0.00     0.031 C 
ATOM     57  C   UNL A   1      41.941  31.805  37.125  1.00  0.00     0.029 A 
ATOM     58  C   UNL A   1      41.082  31.968  36.051  1.00  0.00     0.049 A 
ATOM     59  H   UNL A   1      40.970  30.856  34.261  1.00  0.00     0.167 HD
ATOM     60  C   UNL A   1      39.231  33.041  34.792  1.00  0.00     0.074 A 
ATOM     61  C   UNL A   1      38.181  34.028  34.637  1.00  0.00     0.031 C 
ATOM     62  C   UNL A   1      40.035  32.945  35.881  1.00  0.00     0.037 A 
BRANCH  49  63
ATOM     63  C   UNL A   1      44.186  28.361  35.567  1.00  0.00     0.058 A 
ATOM     64  C   UNL A   1      43.925  27.273  36.417  1.00  0.00     0.135 A 
ATOM     65  C   UNL A   1      45.529  28.714  35.353  1.00  0.00     0.135 A 
ATOM     66  F   UNL A   1      42.660  26.900  36.669  1.00  0.00    -0.206 F 
ATOM     67  C   UNL A   1      44.951  26.590  37.064  1.00  0.00     0.059 A 
ATOM     68  C   UNL A   1      46.573  28.026  35.965  1.00  0.00     0.059 A 
ATOM     69  F   UNL A   1      45.837  29.742  34.547  1.00  0.00    -0.206 F 
ATOM     70  C   UNL A   1      46.272  26.980  36.836  1.00  0.00     0.060 A 
BRANCH  70  71
ATOM     71  S   UNL A   1      47.591  26.098  37.698  1.00  0.00     0.124 S 
ATOM     72  O   UNL A   1      47.163  24.712  37.541  1.00  0.00    -0.237 OA
ATOM     73  O   UNL A   1      48.776  26.485  36.937  1.00  0.00    -0.237 OA
ATOM     74  O   UNL A   1      47.523  26.626  39.056  1.00  0.00    -0.744 OA
ENDBRANCH  70  71
ENDBRANCH  49  63
BRANCH  50  75
ATOM     75  C   UNL A   1      36.670  32.952  30.834  1.00  0.00     0.058 A 
ATOM     76  C   UNL A   1      35.355  32.759  31.283  1.00  0.00     0.135 A 
ATOM     77  C   UNL A   1      36.871  33.812  29.743  1.00  0.00     0.135 A 
ATOM     78  F   UNL A   1      35.113  31.941  32.318  1.00  0.00    -0.206 F 
ATOM     79  C   UNL A   1      34.278  33.394  30.674  1.00  0.00     0.059 A 
ATOM     80  C   UNL A   1      35.812  34.476  29.133  1.00  0.00     0.059 A 
ATOM     81  F   UNL A   1      38.112  34.043  29.288  1.00  0.00    -0.206 F 
ATOM     82  C   UNL A   1      34.517  34.256  29.602  1.00  0.00     0.060 A 
BRANCH  82  83
ATOM     83  S   UNL A   1      33.120  35.134  28.867  1.00  0.00     0.124 S 
ATOM     84  O   UNL A   1      32.262  35.345  30.028  1.00  0.00    -0.237 OA
ATOM     85  O   UNL A   1      33.761  36.327  28.322  1.00  0.00    -0.237 OA
ATOM     86  O   UNL A   1      32.618  34.193  27.872  1.00  0.00    -0.744 OA
ENDBRANCH  82  83
ENDBRANCH  50  75
BRANCH  62  87
ATOM     87  C   UNL A   1      39.829  33.948  36.981  1.00  0.00     0.058 A 
ATOM     88  C   UNL A   1      39.003  33.675  38.083  1.00  0.00     0.135 A 
ATOM     89  C   UNL A   1      40.508  35.177  36.958  1.00  0.00     0.135 A 
ATOM     90  F   UNL A   1      38.327  32.517  38.150  1.00  0.00    -0.206 F 
ATOM     91  C   UNL A   1      38.842  34.595  39.114  1.00  0.00     0.059 A 
ATOM     92  C   UNL A   1      40.381  36.102  37.989  1.00  0.00     0.059 A 
ATOM     93  F   UNL A   1      41.317  35.483  35.931  1.00  0.00    -0.206 F 
ATOM     94  C   UNL A   1      39.536  35.806  39.058  1.00  0.00     0.060 A 
BRANCH  94  95
ATOM     95  S   UNL A   1      39.344  36.978  40.418  1.00  0.00     0.124 S 
ATOM     96  O   UNL A   1      38.595  36.185  41.386  1.00  0.00    -0.237 OA
ATOM     97  O   UNL A   1      40.729  37.271  40.777  1.00  0.00    -0.237 OA
ATOM     98  O   UNL A   1      38.614  38.086  39.812  1.00  0.00    -0.744 OA
ENDBRANCH  94  95
ENDBRANCH  62  87
ENDBRANCH  36  37
ENDBRANCH  28  31
ENDBRANCH  26  27
ENDBRANCH  25  26
ENDBRANCH   1  25
TORSDOF 18
ENDMDL
