MODEL 1
REMARK VINA RESULT:     -10.4      0.000      0.000
REMARK SMILES COc1ccc([C@H]2CC(c3ccc(S(C)(=O)=O)cc3)=NN2c2ccc(C(=O)NCCCNC(=O)c3ccc(-c4c5nc(c(-c6c(F)cc(S(=O)(=O)[O-])cc6F)c6ccc([nH]6)c(-c6c(F)cc(S(=O)(=O)[O-])cc6F)c6nc(c(-c7c(F)cc(S(=O)(=O)[O-])cc7F)c7ccc4[nH]7)C=C6)C=C5)cc3)cc2)cc1
REMARK SMILES IDX 30 1 29 2 28 3 26 4 27 5 25 7 22 8 23 9 102 10 24 11 101 12
REMARK SMILES IDX 21 13 7 14 8 15 9 16 20 17 6 18 3 19 4 20 104 21 5 22 103 23
REMARK SMILES IDX 2 24 1 25 10 26 11 27 19 28 12 29 18 30 13 31 14 32 15 33
REMARK SMILES IDX 16 34 17 35 31 36 32 37 33 38 34 40 35 41 36 42 100 43 37 44
REMARK SMILES IDX 99 45 38 46 39 47 40 48 93 49 41 50 98 51 92 52 94 53 42 54
REMARK SMILES IDX 97 55 91 56 90 57 43 59 77 60 56 61 76 62 57 63 60 64 75 65
REMARK SMILES IDX 95 66 58 67 59 68 74 70 96 71 61 72 44 73 45 74 54 75 46 76
REMARK SMILES IDX 47 77 53 78 55 79 48 80 49 81 50 82 51 83 52 84 78 85 79 86
REMARK SMILES IDX 88 87 80 88 81 89 87 90 89 91 82 92 83 93 84 94 85 95 86 96
REMARK SMILES IDX 62 97 63 98 72 99 64 100 65 101 71 102 73 103 66 104 67 105
REMARK SMILES IDX 68 106 69 107 70 108
REMARK H PARENT 28 6 32 39 94 58 60 69
REMARK Flexibility Score: inf
ROOT
ATOM      1  C   UNL A   1      41.701  21.915  25.997  1.00  0.00     0.042 C 
ENDROOT
BRANCH   1   2
ATOM      2  C   UNL A   1      42.828  21.719  27.010  1.00  0.00     0.118 C 
BRANCH   2   3
ATOM      3  N   UNL A   1      44.022  21.203  26.368  1.00  0.00    -0.352 N 
ATOM      4  C   UNL A   1      45.175  21.806  25.937  1.00  0.00     0.251 C 
ATOM      5  O   UNL A   1      46.053  21.079  25.470  1.00  0.00    -0.269 OA
ATOM      6  H   UNL A   1      44.001  20.232  26.211  1.00  0.00     0.163 HD
BRANCH   4   7
ATOM      7  C   UNL A   1      45.436  23.268  26.065  1.00  0.00     0.039 A 
ATOM      8  C   UNL A   1      45.900  26.059  26.087  1.00  0.00     0.060 A 
ATOM      9  C   UNL A   1      45.060  25.482  25.132  1.00  0.00     0.029 A 
ATOM     10  C   UNL A   1      46.447  25.233  27.072  1.00  0.00     0.029 A 
ATOM     11  C   UNL A   1      44.845  24.101  25.106  1.00  0.00     0.016 A 
ATOM     12  C   UNL A   1      46.187  23.856  27.083  1.00  0.00     0.016 A 
BRANCH   8  13
ATOM     13  N   UNL A   1      46.165  27.418  26.043  1.00  0.00    -0.257 N 
ATOM     14  C   UNL A   1      47.497  27.981  25.836  1.00  0.00     0.144 C 
ATOM     15  C   UNL A   1      47.295  29.463  26.177  1.00  0.00     0.091 C 
ATOM     16  C   UNL A   1      45.860  29.434  26.620  1.00  0.00     0.071 C 
ATOM     17  N   UNL A   1      45.254  28.292  26.541  1.00  0.00    -0.176 NA
BRANCH  14  18
ATOM     18  C   UNL A   1      47.968  27.774  24.406  1.00  0.00    -0.023 A 
ATOM     19  C   UNL A   1      48.816  27.370  21.749  1.00  0.00     0.118 A 
ATOM     20  C   UNL A   1      47.608  28.014  22.013  1.00  0.00     0.047 A 
ATOM     21  C   UNL A   1      49.628  26.967  22.807  1.00  0.00     0.047 A 
ATOM     22  C   UNL A   1      47.179  28.206  23.331  1.00  0.00     0.010 A 
ATOM     23  C   UNL A   1      49.205  27.167  24.125  1.00  0.00     0.010 A 
BRANCH  19  24
ATOM     24  O   UNL A   1      49.147  27.233  20.429  1.00  0.00    -0.497 OA
ATOM     25  C   UNL A   1      50.192  26.296  20.184  1.00  0.00     0.278 C 
ENDBRANCH  19  24
ENDBRANCH  14  18
BRANCH  16  26
ATOM     26  C   UNL A   1      45.212  30.638  27.139  1.00  0.00    -0.002 A 
ATOM     27  C   UNL A   1      45.584  31.881  26.622  1.00  0.00     0.011 A 
ATOM     28  C   UNL A   1      44.261  30.533  28.156  1.00  0.00     0.011 A 
ATOM     29  C   UNL A   1      44.986  33.040  27.118  1.00  0.00     0.021 A 
ATOM     30  C   UNL A   1      43.680  31.692  28.671  1.00  0.00     0.021 A 
ATOM     31  C   UNL A   1      44.049  32.939  28.153  1.00  0.00     0.067 A 
BRANCH  31  32
ATOM     32  S   UNL A   1      43.319  34.420  28.810  1.00  0.00     0.175 S 
ATOM     33  C   UNL A   1      42.736  35.291  27.379  1.00  0.00     0.163 C 
ATOM     34  O   UNL A   1      42.177  34.011  29.602  1.00  0.00    -0.224 OA
ATOM     35  O   UNL A   1      44.386  35.212  29.394  1.00  0.00    -0.224 OA
ENDBRANCH  31  32
ENDBRANCH  16  26
ENDBRANCH   8  13
ENDBRANCH   4   7
ENDBRANCH   2   3
ENDBRANCH   1   2
BRANCH   1  36
ATOM     36  C   UNL A   1      40.313  21.681  26.590  1.00  0.00     0.118 C 
BRANCH  36  37
ATOM     37  N   UNL A   1      39.260  22.190  25.723  1.00  0.00    -0.352 N 
ATOM     38  C   UNL A   1      38.603  23.394  25.757  1.00  0.00     0.251 C 
ATOM     39  H   UNL A   1      38.976  21.577  25.006  1.00  0.00     0.163 HD
ATOM     40  O   UNL A   1      37.586  23.547  25.086  1.00  0.00    -0.269 OA
BRANCH  38  41
ATOM     41  C   UNL A   1      39.108  24.499  26.601  1.00  0.00     0.039 A 
ATOM     42  C   UNL A   1      40.007  25.416  26.049  1.00  0.00     0.014 A 
ATOM     43  C   UNL A   1      38.727  24.612  27.941  1.00  0.00     0.014 A 
ATOM     44  C   UNL A   1      40.479  26.479  26.823  1.00  0.00     0.010 A 
ATOM     45  C   UNL A   1      39.148  25.705  28.693  1.00  0.00     0.010 A 
ATOM     46  C   UNL A   1      40.030  26.649  28.143  1.00  0.00    -0.014 A 
BRANCH  46  47
ATOM     47  C   UNL A   1      40.464  27.804  28.969  1.00  0.00     0.031 A 
ATOM     48  C   UNL A   1      41.772  27.749  29.712  1.00  0.00     0.074 A 
ATOM     49  C   UNL A   1      39.642  28.862  29.118  1.00  0.00     0.049 A 
ATOM     50  N   UNL A   1      42.265  28.595  30.577  1.00  0.00    -0.248 NA
ATOM     51  C   UNL A   1      42.623  26.573  29.468  1.00  0.00     0.031 C 
ATOM     52  C   UNL A   1      38.334  29.013  28.477  1.00  0.00     0.029 A 
ATOM     53  N   UNL A   1      39.775  30.001  29.871  1.00  0.00    -0.354 N 
ATOM     54  C   UNL A   1      43.470  28.046  31.001  1.00  0.00     0.074 A 
ATOM     55  C   UNL A   1      43.615  26.776  30.324  1.00  0.00     0.031 C 
ATOM     56  C   UNL A   1      37.791  30.182  28.856  1.00  0.00     0.029 A 
ATOM     57  C   UNL A   1      38.690  30.842  29.798  1.00  0.00     0.049 A 
ATOM     58  H   UNL A   1      40.574  30.198  30.413  1.00  0.00     0.167 HD
ATOM     59  C   UNL A   1      44.379  28.561  31.862  1.00  0.00     0.037 A 
ATOM     60  C   UNL A   1      38.438  32.004  30.431  1.00  0.00     0.037 A 
ATOM     61  C   UNL A   1      44.242  29.842  32.506  1.00  0.00     0.049 A 
ATOM     62  C   UNL A   1      39.461  32.555  31.386  1.00  0.00     0.074 A 
ATOM     63  C   UNL A   1      45.136  30.484  33.344  1.00  0.00     0.029 A 
ATOM     64  N   UNL A   1      43.139  30.676  32.385  1.00  0.00    -0.354 N 
ATOM     65  N   UNL A   1      40.621  32.049  31.731  1.00  0.00    -0.248 NA
ATOM     66  C   UNL A   1      39.145  33.835  32.036  1.00  0.00     0.031 C 
ATOM     67  C   UNL A   1      44.558  31.688  33.761  1.00  0.00     0.029 A 
ATOM     68  C   UNL A   1      43.322  31.817  33.148  1.00  0.00     0.049 A 
ATOM     69  H   UNL A   1      42.344  30.485  31.837  1.00  0.00     0.167 HD
ATOM     70  C   UNL A   1      41.186  32.962  32.615  1.00  0.00     0.074 A 
ATOM     71  C   UNL A   1      40.243  34.053  32.747  1.00  0.00     0.031 C 
ATOM     72  C   UNL A   1      42.379  32.901  33.257  1.00  0.00     0.037 A 
BRANCH  59  73
ATOM     73  C   UNL A   1      45.603  27.742  32.162  1.00  0.00     0.058 A 
ATOM     74  C   UNL A   1      46.764  27.837  31.378  1.00  0.00     0.135 A 
ATOM     75  C   UNL A   1      45.631  26.880  33.271  1.00  0.00     0.135 A 
ATOM     76  F   UNL A   1      46.787  28.634  30.299  1.00  0.00    -0.206 F 
ATOM     77  C   UNL A   1      47.899  27.085  31.665  1.00  0.00     0.059 A 
ATOM     78  C   UNL A   1      46.765  26.139  33.592  1.00  0.00     0.059 A 
ATOM     79  F   UNL A   1      44.550  26.752  34.054  1.00  0.00    -0.206 F 
ATOM     80  C   UNL A   1      47.889  26.237  32.774  1.00  0.00     0.060 A 
BRANCH  80  81
ATOM     81  S   UNL A   1      49.372  25.273  33.136  1.00  0.00     0.124 S 
ATOM     82  O   UNL A   1      49.865  24.984  31.793  1.00  0.00    -0.237 OA
ATOM     83  O   UNL A   1      50.173  26.211  33.916  1.00  0.00    -0.237 OA
ATOM     84  O   UNL A   1      48.859  24.126  33.877  1.00  0.00    -0.744 OA
ENDBRANCH  80  81
ENDBRANCH  59  73
BRANCH  60  85
ATOM     85  C   UNL A   1      37.168  32.731  30.171  1.00  0.00     0.058 A 
ATOM     86  C   UNL A   1      37.076  33.670  29.133  1.00  0.00     0.135 A 
ATOM     87  C   UNL A   1      36.017  32.492  30.940  1.00  0.00     0.135 A 
ATOM     88  F   UNL A   1      38.151  33.937  28.375  1.00  0.00    -0.206 F 
ATOM     89  C   UNL A   1      35.896  34.357  28.873  1.00  0.00     0.059 A 
ATOM     90  C   UNL A   1      34.818  33.150  30.683  1.00  0.00     0.059 A 
ATOM     91  F   UNL A   1      36.047  31.591  31.934  1.00  0.00    -0.206 F 
ATOM     92  C   UNL A   1      34.769  34.088  29.654  1.00  0.00     0.060 A 
BRANCH  92  93
ATOM     93  S   UNL A   1      33.227  34.948  29.275  1.00  0.00     0.124 S 
ATOM     94  O   UNL A   1      33.717  36.247  28.829  1.00  0.00    -0.237 OA
ATOM     95  O   UNL A   1      32.645  34.095  28.243  1.00  0.00    -0.237 OA
ATOM     96  O   UNL A   1      32.519  34.944  30.552  1.00  0.00    -0.744 OA
ENDBRANCH  92  93
ENDBRANCH  60  85
BRANCH  72  97
ATOM     97  C   UNL A   1      42.756  34.063  34.133  1.00  0.00     0.058 A 
ATOM     98  C   UNL A   1      42.456  34.081  35.502  1.00  0.00     0.135 A 
ATOM     99  C   UNL A   1      43.491  35.137  33.605  1.00  0.00     0.135 A 
ATOM    100  F   UNL A   1      41.747  33.082  36.053  1.00  0.00    -0.206 F 
ATOM    101  C   UNL A   1      42.862  35.130  36.320  1.00  0.00     0.059 A 
ATOM    102  C   UNL A   1      43.929  36.184  34.409  1.00  0.00     0.059 A 
ATOM    103  F   UNL A   1      43.811  35.162  32.301  1.00  0.00    -0.206 F 
ATOM    104  C   UNL A   1      43.604  36.175  35.765  1.00  0.00     0.060 A 
BRANCH 104 105
ATOM    105  S   UNL A   1      44.174  37.504  36.847  1.00  0.00     0.124 S 
ATOM    106  O   UNL A   1      44.178  38.643  35.937  1.00  0.00    -0.237 OA
ATOM    107  O   UNL A   1      43.148  37.524  37.884  1.00  0.00    -0.237 OA
ATOM    108  O   UNL A   1      45.489  37.044  37.285  1.00  0.00    -0.744 OA
ENDBRANCH 104 105
ENDBRANCH  72  97
ENDBRANCH  46  47
ENDBRANCH  38  41
ENDBRANCH  36  37
ENDBRANCH   1  36
TORSDOF 18
ENDMDL
MODEL 2
REMARK VINA RESULT:     -10.2      3.146      5.245
REMARK SMILES COc1ccc([C@H]2CC(c3ccc(S(C)(=O)=O)cc3)=NN2c2ccc(C(=O)NCCCNC(=O)c3ccc(-c4c5nc(c(-c6c(F)cc(S(=O)(=O)[O-])cc6F)c6ccc([nH]6)c(-c6c(F)cc(S(=O)(=O)[O-])cc6F)c6nc(c(-c7c(F)cc(S(=O)(=O)[O-])cc7F)c7ccc4[nH]7)C=C6)C=C5)cc3)cc2)cc1
REMARK SMILES IDX 30 1 29 2 28 3 26 4 27 5 25 7 22 8 23 9 102 10 24 11 101 12
REMARK SMILES IDX 21 13 7 14 8 15 9 16 20 17 6 18 3 19 4 20 104 21 5 22 103 23
REMARK SMILES IDX 2 24 1 25 10 26 11 27 19 28 12 29 18 30 13 31 14 32 15 33
REMARK SMILES IDX 16 34 17 35 31 36 32 37 33 38 34 40 35 41 36 42 100 43 37 44
REMARK SMILES IDX 99 45 38 46 39 47 40 48 93 49 41 50 98 51 92 52 94 53 42 54
REMARK SMILES IDX 97 55 91 56 90 57 43 59 77 60 56 61 76 62 57 63 60 64 75 65
REMARK SMILES IDX 95 66 58 67 59 68 74 70 96 71 61 72 44 73 45 74 54 75 46 76
REMARK SMILES IDX 47 77 53 78 55 79 48 80 49 81 50 82 51 83 52 84 78 85 79 86
REMARK SMILES IDX 88 87 80 88 81 89 87 90 89 91 82 92 83 93 84 94 85 95 86 96
REMARK SMILES IDX 62 97 63 98 72 99 64 100 65 101 71 102 73 103 66 104 67 105
REMARK SMILES IDX 68 106 69 107 70 108
REMARK H PARENT 28 6 32 39 94 58 60 69
REMARK Flexibility Score: inf
ROOT
ATOM      1  C   UNL A   1      40.659  21.533  27.452  1.00  0.00     0.042 C 
ENDROOT
BRANCH   1   2
ATOM      2  C   UNL A   1      42.125  21.132  27.614  1.00  0.00     0.118 C 
BRANCH   2   3
ATOM      3  N   UNL A   1      42.561  20.298  26.510  1.00  0.00    -0.352 N 
ATOM      4  C   UNL A   1      43.445  20.509  25.484  1.00  0.00     0.251 C 
ATOM      5  O   UNL A   1      43.654  19.569  24.715  1.00  0.00    -0.269 OA
ATOM      6  H   UNL A   1      42.142  19.407  26.495  1.00  0.00     0.163 HD
BRANCH   4   7
ATOM      7  C   UNL A   1      44.200  21.780  25.297  1.00  0.00     0.039 A 
ATOM      8  C   UNL A   1      45.781  24.119  25.094  1.00  0.00     0.060 A 
ATOM      9  C   UNL A   1      46.360  22.891  25.424  1.00  0.00     0.029 A 
ATOM     10  C   UNL A   1      44.415  24.147  24.798  1.00  0.00     0.029 A 
ATOM     11  C   UNL A   1      45.579  21.739  25.545  1.00  0.00     0.016 A 
ATOM     12  C   UNL A   1      43.640  22.982  24.862  1.00  0.00     0.016 A 
BRANCH   8  13
ATOM     13  N   UNL A   1      46.560  25.263  25.061  1.00  0.00    -0.257 N 
ATOM     14  C   UNL A   1      46.232  26.492  25.780  1.00  0.00     0.144 C 
ATOM     15  C   UNL A   1      47.209  27.508  25.176  1.00  0.00     0.091 C 
ATOM     16  C   UNL A   1      47.859  26.653  24.127  1.00  0.00     0.071 C 
ATOM     17  N   UNL A   1      47.483  25.414  24.078  1.00  0.00    -0.176 NA
BRANCH  14  18
ATOM     18  C   UNL A   1      46.423  26.323  27.279  1.00  0.00    -0.023 A 
ATOM     19  C   UNL A   1      46.772  26.041  30.060  1.00  0.00     0.118 A 
ATOM     20  C   UNL A   1      45.559  26.496  29.545  1.00  0.00     0.047 A 
ATOM     21  C   UNL A   1      47.799  25.681  29.190  1.00  0.00     0.047 A 
ATOM     22  C   UNL A   1      45.386  26.648  28.166  1.00  0.00     0.010 A 
ATOM     23  C   UNL A   1      47.624  25.823  27.810  1.00  0.00     0.010 A 
BRANCH  19  24
ATOM     24  O   UNL A   1      46.840  25.925  31.422  1.00  0.00    -0.497 OA
ATOM     25  C   UNL A   1      45.712  25.283  32.009  1.00  0.00     0.278 C 
ENDBRANCH  19  24
ENDBRANCH  14  18
BRANCH  16  26
ATOM     26  C   UNL A   1      48.839  27.219  23.200  1.00  0.00    -0.002 A 
ATOM     27  C   UNL A   1      48.390  27.769  21.997  1.00  0.00     0.011 A 
ATOM     28  C   UNL A   1      50.199  27.176  23.513  1.00  0.00     0.011 A 
ATOM     29  C   UNL A   1      49.314  28.299  21.096  1.00  0.00     0.021 A 
ATOM     30  C   UNL A   1      51.126  27.682  22.603  1.00  0.00     0.021 A 
ATOM     31  C   UNL A   1      50.679  28.237  21.398  1.00  0.00     0.067 A 
BRANCH  31  32
ATOM     32  S   UNL A   1      51.857  28.877  20.230  1.00  0.00     0.175 S 
ATOM     33  C   UNL A   1      53.433  28.435  20.912  1.00  0.00     0.163 C 
ATOM     34  O   UNL A   1      51.663  28.146  18.994  1.00  0.00    -0.224 OA
ATOM     35  O   UNL A   1      51.761  30.325  20.263  1.00  0.00    -0.224 OA
ENDBRANCH  31  32
ENDBRANCH  16  26
ENDBRANCH   8  13
ENDBRANCH   4   7
ENDBRANCH   2   3
ENDBRANCH   1   2
BRANCH   1  36
ATOM     36  C   UNL A   1      40.428  23.036  27.599  1.00  0.00     0.118 C 
BRANCH  36  37
ATOM     37  N   UNL A   1      40.807  23.762  26.395  1.00  0.00    -0.352 N 
ATOM     38  C   UNL A   1      40.908  25.114  26.183  1.00  0.00     0.251 C 
ATOM     39  H   UNL A   1      41.022  23.199  25.617  1.00  0.00     0.163 HD
ATOM     40  O   UNL A   1      41.016  25.540  25.037  1.00  0.00    -0.269 OA
BRANCH  38  41
ATOM     41  C   UNL A   1      40.875  26.056  27.324  1.00  0.00     0.039 A 
ATOM     42  C   UNL A   1      41.865  27.039  27.419  1.00  0.00     0.014 A 
ATOM     43  C   UNL A   1      39.897  25.950  28.317  1.00  0.00     0.014 A 
ATOM     44  C   UNL A   1      41.840  27.951  28.476  1.00  0.00     0.010 A 
ATOM     45  C   UNL A   1      39.837  26.896  29.336  1.00  0.00     0.010 A 
ATOM     46  C   UNL A   1      40.808  27.905  29.428  1.00  0.00    -0.014 A 
BRANCH  46  47
ATOM     47  C   UNL A   1      40.719  28.900  30.526  1.00  0.00     0.031 A 
ATOM     48  C   UNL A   1      41.609  28.771  31.733  1.00  0.00     0.074 A 
ATOM     49  C   UNL A   1      39.779  29.865  30.476  1.00  0.00     0.049 A 
ATOM     50  N   UNL A   1      41.598  29.459  32.844  1.00  0.00    -0.248 NA
ATOM     51  C   UNL A   1      42.629  27.710  31.692  1.00  0.00     0.031 C 
ATOM     52  C   UNL A   1      38.835  30.069  29.375  1.00  0.00     0.029 A 
ATOM     53  N   UNL A   1      39.449  30.843  31.380  1.00  0.00    -0.354 N 
ATOM     54  C   UNL A   1      42.588  28.902  33.646  1.00  0.00     0.074 A 
ATOM     55  C   UNL A   1      43.155  27.795  32.906  1.00  0.00     0.031 C 
ATOM     56  C   UNL A   1      38.041  31.113  29.665  1.00  0.00     0.029 A 
ATOM     57  C   UNL A   1      38.389  31.624  30.987  1.00  0.00     0.049 A 
ATOM     58  H   UNL A   1      39.928  30.973  32.231  1.00  0.00     0.167 HD
ATOM     59  C   UNL A   1      42.996  29.288  34.878  1.00  0.00     0.037 A 
ATOM     60  C   UNL A   1      37.756  32.628  31.626  1.00  0.00     0.037 A 
ATOM     61  C   UNL A   1      42.448  30.411  35.592  1.00  0.00     0.049 A 
ATOM     62  C   UNL A   1      38.226  33.037  32.994  1.00  0.00     0.074 A 
ATOM     63  C   UNL A   1      42.836  30.925  36.817  1.00  0.00     0.029 A 
ATOM     64  N   UNL A   1      41.392  31.194  35.148  1.00  0.00    -0.354 N 
ATOM     65  N   UNL A   1      39.201  32.535  33.714  1.00  0.00    -0.248 NA
ATOM     66  C   UNL A   1      37.514  34.149  33.639  1.00  0.00     0.031 C 
ATOM     67  C   UNL A   1      41.991  31.994  37.131  1.00  0.00     0.029 A 
ATOM     68  C   UNL A   1      41.103  32.174  36.082  1.00  0.00     0.049 A 
ATOM     69  H   UNL A   1      40.918  31.071  34.294  1.00  0.00     0.167 HD
ATOM     70  C   UNL A   1      39.238  33.288  34.882  1.00  0.00     0.074 A 
ATOM     71  C   UNL A   1      38.191  34.283  34.771  1.00  0.00     0.031 C 
ATOM     72  C   UNL A   1      40.066  33.167  35.949  1.00  0.00     0.037 A 
BRANCH  59  73
ATOM     73  C   UNL A   1      44.088  28.490  35.536  1.00  0.00     0.058 A 
ATOM     74  C   UNL A   1      45.444  28.796  35.339  1.00  0.00     0.135 A 
ATOM     75  C   UNL A   1      43.775  27.433  36.405  1.00  0.00     0.135 A 
ATOM     76  F   UNL A   1      45.801  29.787  34.507  1.00  0.00    -0.206 F 
ATOM     77  C   UNL A   1      46.452  28.063  35.959  1.00  0.00     0.059 A 
ATOM     78  C   UNL A   1      44.766  26.703  37.056  1.00  0.00     0.059 A 
ATOM     79  F   UNL A   1      42.495  27.099  36.630  1.00  0.00    -0.206 F 
ATOM     80  C   UNL A   1      46.103  27.017  36.815  1.00  0.00     0.060 A 
BRANCH  80  81
ATOM     81  S   UNL A   1      47.422  26.079  37.615  1.00  0.00     0.124 S 
ATOM     82  O   UNL A   1      48.140  25.548  36.460  1.00  0.00    -0.237 OA
ATOM     83  O   UNL A   1      48.121  27.110  38.375  1.00  0.00    -0.237 OA
ATOM     84  O   UNL A   1      46.702  25.094  38.414  1.00  0.00    -0.744 OA
ENDBRANCH  80  81
ENDBRANCH  59  73
BRANCH  60  85
ATOM     85  C   UNL A   1      36.619  33.325  30.969  1.00  0.00     0.058 A 
ATOM     86  C   UNL A   1      35.307  33.159  31.438  1.00  0.00     0.135 A 
ATOM     87  C   UNL A   1      36.819  34.181  29.874  1.00  0.00     0.135 A 
ATOM     88  F   UNL A   1      35.065  32.346  32.478  1.00  0.00    -0.206 F 
ATOM     89  C   UNL A   1      34.231  33.805  30.839  1.00  0.00     0.059 A 
ATOM     90  C   UNL A   1      35.761  34.857  29.273  1.00  0.00     0.059 A 
ATOM     91  F   UNL A   1      38.056  34.387  29.398  1.00  0.00    -0.206 F 
ATOM     92  C   UNL A   1      34.469  34.655  29.756  1.00  0.00     0.060 A 
BRANCH  92  93
ATOM     93  S   UNL A   1      33.073  35.529  29.018  1.00  0.00     0.124 S 
ATOM     94  O   UNL A   1      32.493  34.494  28.170  1.00  0.00    -0.237 OA
ATOM     95  O   UNL A   1      32.291  35.908  30.191  1.00  0.00    -0.237 OA
ATOM     96  O   UNL A   1      33.707  36.641  28.314  1.00  0.00    -0.744 OA
ENDBRANCH  92  93
ENDBRANCH  60  85
BRANCH  72  97
ATOM     97  C   UNL A   1      39.905  34.155  37.069  1.00  0.00     0.058 A 
ATOM     98  C   UNL A   1      40.539  35.406  37.046  1.00  0.00     0.135 A 
ATOM     99  C   UNL A   1      39.045  33.873  38.144  1.00  0.00     0.135 A 
ATOM    100  F   UNL A   1      41.377  35.720  36.045  1.00  0.00    -0.206 F 
ATOM    101  C   UNL A   1      40.336  36.341  38.055  1.00  0.00     0.059 A 
ATOM    102  C   UNL A   1      38.807  34.803  39.151  1.00  0.00     0.059 A 
ATOM    103  F   UNL A   1      38.407  32.693  38.207  1.00  0.00    -0.206 F 
ATOM    104  C   UNL A   1      39.464  36.032  39.101  1.00  0.00     0.060 A 
BRANCH 104 105
ATOM    105  S   UNL A   1      39.164  37.276  40.376  1.00  0.00     0.124 S 
ATOM    106  O   UNL A   1      40.507  37.802  40.594  1.00  0.00    -0.237 OA
ATOM    107  O   UNL A   1      38.228  38.180  39.717  1.00  0.00    -0.237 OA
ATOM    108  O   UNL A   1      38.606  36.501  41.481  1.00  0.00    -0.744 OA
ENDBRANCH 104 105
ENDBRANCH  72  97
ENDBRANCH  46  47
ENDBRANCH  38  41
ENDBRANCH  36  37
ENDBRANCH   1  36
TORSDOF 18
ENDMDL
MODEL 3
REMARK VINA RESULT:     -10.2      3.837     11.074
REMARK SMILES COc1ccc([C@H]2CC(c3ccc(S(C)(=O)=O)cc3)=NN2c2ccc(C(=O)NCCCNC(=O)c3ccc(-c4c5nc(c(-c6c(F)cc(S(=O)(=O)[O-])cc6F)c6ccc([nH]6)c(-c6c(F)cc(S(=O)(=O)[O-])cc6F)c6nc(c(-c7c(F)cc(S(=O)(=O)[O-])cc7F)c7ccc4[nH]7)C=C6)C=C5)cc3)cc2)cc1
REMARK SMILES IDX 30 1 29 2 28 3 26 4 27 5 25 7 22 8 23 9 102 10 24 11 101 12
REMARK SMILES IDX 21 13 7 14 8 15 9 16 20 17 6 18 3 19 4 20 104 21 5 22 103 23
REMARK SMILES IDX 2 24 1 25 10 26 11 27 19 28 12 29 18 30 13 31 14 32 15 33
REMARK SMILES IDX 16 34 17 35 31 36 32 37 33 38 34 40 35 41 36 42 100 43 37 44
REMARK SMILES IDX 99 45 38 46 39 47 40 48 93 49 41 50 98 51 92 52 94 53 42 54
REMARK SMILES IDX 97 55 91 56 90 57 43 59 77 60 56 61 76 62 57 63 60 64 75 65
REMARK SMILES IDX 95 66 58 67 59 68 74 70 96 71 61 72 44 73 45 74 54 75 46 76
REMARK SMILES IDX 47 77 53 78 55 79 48 80 49 81 50 82 51 83 52 84 78 85 79 86
REMARK SMILES IDX 88 87 80 88 81 89 87 90 89 91 82 92 83 93 84 94 85 95 86 96
REMARK SMILES IDX 62 97 63 98 72 99 64 100 65 101 71 102 73 103 66 104 67 105
REMARK SMILES IDX 68 106 69 107 70 108
REMARK H PARENT 28 6 32 39 94 58 60 69
REMARK Flexibility Score: inf
ROOT
ATOM      1  C   UNL A   1      33.903  33.456  28.505  1.00  0.00     0.042 C 
ENDROOT
BRANCH   1   2
ATOM      2  C   UNL A   1      34.377  34.531  29.483  1.00  0.00     0.118 C 
BRANCH   2   3
ATOM      3  N   UNL A   1      33.628  34.472  30.724  1.00  0.00    -0.352 N 
ATOM      4  C   UNL A   1      33.991  34.168  32.010  1.00  0.00     0.251 C 
ATOM      5  O   UNL A   1      33.123  34.262  32.880  1.00  0.00    -0.269 OA
ATOM      6  H   UNL A   1      32.674  34.695  30.624  1.00  0.00     0.163 HD
BRANCH   4   7
ATOM      7  C   UNL A   1      35.379  33.800  32.408  1.00  0.00     0.039 A 
ATOM      8  C   UNL A   1      37.929  32.920  33.265  1.00  0.00     0.060 A 
ATOM      9  C   UNL A   1      36.901  32.005  33.023  1.00  0.00     0.029 A 
ATOM     10  C   UNL A   1      37.686  34.271  33.004  1.00  0.00     0.029 A 
ATOM     11  C   UNL A   1      35.635  32.438  32.619  1.00  0.00     0.016 A 
ATOM     12  C   UNL A   1      36.434  34.702  32.544  1.00  0.00     0.016 A 
BRANCH   8  13
ATOM     13  N   UNL A   1      39.150  32.476  33.743  1.00  0.00    -0.257 N 
ATOM     14  C   UNL A   1      40.225  33.365  34.179  1.00  0.00     0.144 C 
ATOM     15  C   UNL A   1      41.419  32.412  34.309  1.00  0.00     0.091 C 
ATOM     16  C   UNL A   1      40.793  31.140  33.812  1.00  0.00     0.071 C 
ATOM     17  N   UNL A   1      39.537  31.198  33.501  1.00  0.00    -0.176 NA
BRANCH  14  18
ATOM     18  C   UNL A   1      39.880  34.046  35.493  1.00  0.00    -0.023 A 
ATOM     19  C   UNL A   1      39.272  35.318  37.933  1.00  0.00     0.118 A 
ATOM     20  C   UNL A   1      39.788  36.051  36.865  1.00  0.00     0.047 A 
ATOM     21  C   UNL A   1      39.014  33.957  37.774  1.00  0.00     0.047 A 
ATOM     22  C   UNL A   1      40.101  35.421  35.657  1.00  0.00     0.010 A 
ATOM     23  C   UNL A   1      39.318  33.328  36.563  1.00  0.00     0.010 A 
BRANCH  19  24
ATOM     24  O   UNL A   1      38.996  36.026  39.071  1.00  0.00    -0.497 OA
ATOM     25  C   UNL A   1      40.109  36.748  39.591  1.00  0.00     0.278 C 
ENDBRANCH  19  24
ENDBRANCH  14  18
BRANCH  16  26
ATOM     26  C   UNL A   1      41.589  29.921  33.666  1.00  0.00    -0.002 A 
ATOM     27  C   UNL A   1      42.650  29.698  34.546  1.00  0.00     0.011 A 
ATOM     28  C   UNL A   1      41.297  29.020  32.639  1.00  0.00     0.011 A 
ATOM     29  C   UNL A   1      43.427  28.547  34.409  1.00  0.00     0.021 A 
ATOM     30  C   UNL A   1      42.089  27.882  32.485  1.00  0.00     0.021 A 
ATOM     31  C   UNL A   1      43.152  27.654  33.367  1.00  0.00     0.067 A 
BRANCH  31  32
ATOM     32  S   UNL A   1      44.169  26.209  33.171  1.00  0.00     0.175 S 
ATOM     33  C   UNL A   1      43.542  25.068  34.375  1.00  0.00     0.163 C 
ATOM     34  O   UNL A   1      43.900  25.682  31.848  1.00  0.00    -0.224 OA
ATOM     35  O   UNL A   1      45.517  26.567  33.572  1.00  0.00    -0.224 OA
ENDBRANCH  31  32
ENDBRANCH  16  26
ENDBRANCH   8  13
ENDBRANCH   4   7
ENDBRANCH   2   3
ENDBRANCH   1   2
BRANCH   1  36
ATOM     36  C   UNL A   1      34.938  32.358  28.272  1.00  0.00     0.118 C 
BRANCH  36  37
ATOM     37  N   UNL A   1      34.325  31.038  28.216  1.00  0.00    -0.352 N 
ATOM     38  C   UNL A   1      34.912  29.803  28.102  1.00  0.00     0.251 C 
ATOM     39  H   UNL A   1      33.341  31.032  28.266  1.00  0.00     0.163 HD
ATOM     40  O   UNL A   1      34.217  28.826  27.837  1.00  0.00    -0.269 OA
BRANCH  38  41
ATOM     41  C   UNL A   1      36.372  29.648  28.285  1.00  0.00     0.039 A 
ATOM     42  C   UNL A   1      36.862  29.313  29.551  1.00  0.00     0.014 A 
ATOM     43  C   UNL A   1      37.257  29.867  27.227  1.00  0.00     0.014 A 
ATOM     44  C   UNL A   1      38.236  29.141  29.741  1.00  0.00     0.010 A 
ATOM     45  C   UNL A   1      38.619  29.636  27.401  1.00  0.00     0.010 A 
ATOM     46  C   UNL A   1      39.123  29.272  28.660  1.00  0.00    -0.014 A 
BRANCH  46  47
ATOM     47  C   UNL A   1      40.580  29.032  28.817  1.00  0.00     0.031 A 
ATOM     48  C   UNL A   1      41.162  27.689  28.470  1.00  0.00     0.074 A 
ATOM     49  C   UNL A   1      41.359  29.993  29.351  1.00  0.00     0.049 A 
ATOM     50  N   UNL A   1      42.378  27.244  28.654  1.00  0.00    -0.248 NA
ATOM     51  C   UNL A   1      40.248  26.708  27.862  1.00  0.00     0.031 C 
ATOM     52  C   UNL A   1      40.902  31.324  29.760  1.00  0.00     0.029 A 
ATOM     53  N   UNL A   1      42.696  29.993  29.662  1.00  0.00    -0.354 N 
ATOM     54  C   UNL A   1      42.372  25.927  28.208  1.00  0.00     0.074 A 
ATOM     55  C   UNL A   1      41.021  25.634  27.780  1.00  0.00     0.031 C 
ATOM     56  C   UNL A   1      41.942  32.013  30.257  1.00  0.00     0.029 A 
ATOM     57  C   UNL A   1      43.128  31.162  30.242  1.00  0.00     0.049 A 
ATOM     58  H   UNL A   1      43.290  29.228  29.485  1.00  0.00     0.167 HD
ATOM     59  C   UNL A   1      43.401  25.049  28.147  1.00  0.00     0.037 A 
ATOM     60  C   UNL A   1      44.339  31.504  30.726  1.00  0.00     0.037 A 
ATOM     61  C   UNL A   1      44.750  25.361  28.545  1.00  0.00     0.049 A 
ATOM     62  C   UNL A   1      45.466  30.512  30.649  1.00  0.00     0.074 A 
ATOM     63  C   UNL A   1      45.877  24.565  28.461  1.00  0.00     0.029 A 
ATOM     64  N   UNL A   1      45.152  26.566  29.103  1.00  0.00    -0.354 N 
ATOM     65  N   UNL A   1      45.455  29.290  30.172  1.00  0.00    -0.248 NA
ATOM     66  C   UNL A   1      46.769  30.942  31.173  1.00  0.00     0.031 C 
ATOM     67  C   UNL A   1      46.954  25.273  29.004  1.00  0.00     0.029 A 
ATOM     68  C   UNL A   1      46.507  26.527  29.387  1.00  0.00     0.049 A 
ATOM     69  H   UNL A   1      44.562  27.335  29.273  1.00  0.00     0.167 HD
ATOM     70  C   UNL A   1      46.755  28.816  30.312  1.00  0.00     0.074 A 
ATOM     71  C   UNL A   1      47.526  29.885  30.913  1.00  0.00     0.031 C 
ATOM     72  C   UNL A   1      47.263  27.606  29.972  1.00  0.00     0.037 A 
BRANCH  59  73
ATOM     73  C   UNL A   1      43.113  23.667  27.633  1.00  0.00     0.058 A 
ATOM     74  C   UNL A   1      42.676  22.640  28.486  1.00  0.00     0.135 A 
ATOM     75  C   UNL A   1      43.235  23.373  26.265  1.00  0.00     0.135 A 
ATOM     76  F   UNL A   1      42.556  22.861  29.804  1.00  0.00    -0.206 F 
ATOM     77  C   UNL A   1      42.399  21.364  28.005  1.00  0.00     0.059 A 
ATOM     78  C   UNL A   1      42.937  22.111  25.758  1.00  0.00     0.059 A 
ATOM     79  F   UNL A   1      43.647  24.318  25.406  1.00  0.00    -0.206 F 
ATOM     80  C   UNL A   1      42.534  21.109  26.639  1.00  0.00     0.060 A 
BRANCH  80  81
ATOM     81  S   UNL A   1      42.165  19.449  26.030  1.00  0.00     0.124 S 
ATOM     82  O   UNL A   1      42.545  18.629  27.177  1.00  0.00    -0.237 OA
ATOM     83  O   UNL A   1      40.734  19.528  25.756  1.00  0.00    -0.237 OA
ATOM     84  O   UNL A   1      43.020  19.320  24.856  1.00  0.00    -0.744 OA
ENDBRANCH  80  81
ENDBRANCH  59  73
BRANCH  60  85
ATOM     85  C   UNL A   1      44.549  32.855  31.311  1.00  0.00     0.058 A 
ATOM     86  C   UNL A   1      44.682  33.983  30.488  1.00  0.00     0.135 A 
ATOM     87  C   UNL A   1      44.605  33.049  32.701  1.00  0.00     0.135 A 
ATOM     88  F   UNL A   1      44.641  33.846  29.153  1.00  0.00    -0.206 F 
ATOM     89  C   UNL A   1      44.876  35.254  31.017  1.00  0.00     0.059 A 
ATOM     90  C   UNL A   1      44.775  34.314  33.255  1.00  0.00     0.059 A 
ATOM     91  F   UNL A   1      44.467  32.005  33.533  1.00  0.00    -0.206 F 
ATOM     92  C   UNL A   1      44.919  35.410  32.405  1.00  0.00     0.060 A 
BRANCH  92  93
ATOM     93  S   UNL A   1      45.120  37.070  33.084  1.00  0.00     0.124 S 
ATOM     94  O   UNL A   1      45.054  37.890  31.880  1.00  0.00    -0.237 OA
ATOM     95  O   UNL A   1      43.981  37.173  33.991  1.00  0.00    -0.237 OA
ATOM     96  O   UNL A   1      46.425  37.010  33.737  1.00  0.00    -0.744 OA
ENDBRANCH  92  93
ENDBRANCH  60  85
BRANCH  72  97
ATOM     97  C   UNL A   1      48.730  27.379  30.202  1.00  0.00     0.058 A 
ATOM     98  C   UNL A   1      49.207  26.764  31.369  1.00  0.00     0.135 A 
ATOM     99  C   UNL A   1      49.663  27.717  29.208  1.00  0.00     0.135 A 
ATOM    100  F   UNL A   1      48.357  26.430  32.353  1.00  0.00    -0.206 F 
ATOM    101  C   UNL A   1      50.561  26.500  31.548  1.00  0.00     0.059 A 
ATOM    102  C   UNL A   1      51.019  27.440  29.355  1.00  0.00     0.059 A 
ATOM    103  F   UNL A   1      49.256  28.300  28.068  1.00  0.00    -0.206 F 
ATOM    104  C   UNL A   1      51.459  26.838  30.533  1.00  0.00     0.060 A 
BRANCH 104 105
ATOM    105  S   UNL A   1      53.206  26.439  30.754  1.00  0.00     0.124 S 
ATOM    106  O   UNL A   1      53.704  27.650  31.397  1.00  0.00    -0.237 OA
ATOM    107  O   UNL A   1      53.152  25.250  31.596  1.00  0.00    -0.237 OA
ATOM    108  O   UNL A   1      53.678  26.213  29.390  1.00  0.00    -0.744 OA
ENDBRANCH 104 105
ENDBRANCH  72  97
ENDBRANCH  46  47
ENDBRANCH  38  41
ENDBRANCH  36  37
ENDBRANCH   1  36
TORSDOF 18
ENDMDL
