MODEL 1
REMARK VINA RESULT:     -13.1      0.000      0.000
REMARK SMILES O=C(NCCCNC(=O)c1ccc(N2C(=O)/C(=C/c3ccco3)SC2=S)cc1)c1ccc(-c2c3nc(c(-c4c(F)cc(S(=O)(=O)[O-])cc4F)c4ccc([nH]4)c(-c4c(F)cc(S(=O)(=O)[O-])cc4F)c4nc(c(-c5c(F)cc(S(=O)(=O)[O-])cc5F)c5ccc2[nH]5)C=C4)C=C3)cc1
REMARK SMILES IDX 4 1 3 2 1 3 2 4 29 6 30 7 94 8 31 9 93 10 32 11 33 12 34 13
REMARK SMILES IDX 87 14 35 15 92 16 86 17 88 18 36 19 91 20 85 21 84 22 37 24
REMARK SMILES IDX 71 25 50 26 70 27 51 28 54 29 69 30 89 31 52 32 53 33 68 35
REMARK SMILES IDX 90 36 55 37 38 38 39 39 48 40 40 41 41 42 47 43 49 44 42 45
REMARK SMILES IDX 43 46 44 47 45 48 46 49 72 50 73 51 82 52 74 53 75 54 81 55
REMARK SMILES IDX 83 56 76 57 77 58 78 59 79 60 80 61 56 62 57 63 66 64 58 65
REMARK SMILES IDX 59 66 65 67 67 68 60 69 61 70 62 71 63 72 64 73 5 74 6 75
REMARK SMILES IDX 7 76 8 77 9 79 10 80 11 81 28 82 12 83 27 84 13 85 14 86
REMARK SMILES IDX 15 87 25 88 16 89 17 90 24 91 26 92 18 93 19 94 20 95 23 96
REMARK SMILES IDX 21 97 22 98
REMARK H PARENT 3 5 88 23 54 34 7 78
REMARK Flexibility Score: inf
ROOT
ATOM      1  C   UNL A   1      39.616  23.528  26.870  1.00  0.00     0.118 C 
ENDROOT
BRANCH   1   2
ATOM      2  N   UNL A   1      40.573  24.207  26.001  1.00  0.00    -0.352 N 
ATOM      3  O   UNL A   1      41.742  25.914  25.120  1.00  0.00    -0.269 OA
ATOM      4  C   UNL A   1      41.085  25.481  26.065  1.00  0.00     0.251 C 
ATOM      5  H   UNL A   1      40.903  23.665  25.249  1.00  0.00     0.163 HD
BRANCH   4   6
ATOM      6  C   UNL A   1      40.834  26.332  27.248  1.00  0.00     0.039 A 
ATOM      7  C   UNL A   1      41.532  27.525  27.421  1.00  0.00     0.014 A 
ATOM      8  C   UNL A   1      39.878  25.943  28.194  1.00  0.00     0.014 A 
ATOM      9  C   UNL A   1      41.422  28.223  28.616  1.00  0.00     0.010 A 
ATOM     10  C   UNL A   1      39.678  26.716  29.343  1.00  0.00     0.010 A 
ATOM     11  C   UNL A   1      40.475  27.844  29.582  1.00  0.00    -0.014 A 
BRANCH  11  12
ATOM     12  C   UNL A   1      40.315  28.708  30.783  1.00  0.00     0.031 A 
ATOM     13  C   UNL A   1      41.240  28.600  31.964  1.00  0.00     0.074 A 
ATOM     14  C   UNL A   1      39.361  29.661  30.752  1.00  0.00     0.049 A 
ATOM     15  N   UNL A   1      41.286  29.346  33.038  1.00  0.00    -0.248 NA
ATOM     16  C   UNL A   1      42.234  27.515  31.949  1.00  0.00     0.031 C 
ATOM     17  C   UNL A   1      38.384  29.838  29.671  1.00  0.00     0.029 A 
ATOM     18  N   UNL A   1      39.081  30.685  31.619  1.00  0.00    -0.354 N 
ATOM     19  C   UNL A   1      42.300  28.820  33.830  1.00  0.00     0.074 A 
ATOM     20  C   UNL A   1      42.825  27.670  33.126  1.00  0.00     0.031 C 
ATOM     21  C   UNL A   1      37.666  30.945  29.901  1.00  0.00     0.029 A 
ATOM     22  C   UNL A   1      38.081  31.520  31.174  1.00  0.00     0.049 A 
ATOM     23  H   UNL A   1      39.549  30.811  32.475  1.00  0.00     0.167 HD
ATOM     24  C   UNL A   1      42.756  29.264  35.027  1.00  0.00     0.037 A 
ATOM     25  C   UNL A   1      37.549  32.623  31.730  1.00  0.00     0.037 A 
ATOM     26  C   UNL A   1      42.233  30.419  35.714  1.00  0.00     0.049 A 
ATOM     27  C   UNL A   1      38.089  33.103  33.044  1.00  0.00     0.074 A 
ATOM     28  C   UNL A   1      42.628  30.951  36.931  1.00  0.00     0.029 A 
ATOM     29  N   UNL A   1      41.209  31.228  35.243  1.00  0.00    -0.354 N 
ATOM     30  N   UNL A   1      39.054  32.593  33.771  1.00  0.00    -0.248 NA
ATOM     31  C   UNL A   1      37.470  34.305  33.615  1.00  0.00     0.031 C 
ATOM     32  C   UNL A   1      41.823  32.063  37.207  1.00  0.00     0.029 A 
ATOM     33  C   UNL A   1      40.953  32.248  36.146  1.00  0.00     0.049 A 
ATOM     34  H   UNL A   1      40.733  31.096  34.391  1.00  0.00     0.167 HD
ATOM     35  C   UNL A   1      39.153  33.408  34.891  1.00  0.00     0.074 A 
ATOM     36  C   UNL A   1      38.178  34.468  34.723  1.00  0.00     0.031 C 
ATOM     37  C   UNL A   1      39.968  33.284  35.967  1.00  0.00     0.037 A 
BRANCH  24  38
ATOM     38  C   UNL A   1      43.876  28.500  35.678  1.00  0.00     0.058 A 
ATOM     39  C   UNL A   1      43.626  27.443  36.568  1.00  0.00     0.135 A 
ATOM     40  C   UNL A   1      45.215  28.785  35.363  1.00  0.00     0.135 A 
ATOM     41  F   UNL A   1      42.367  27.138  36.916  1.00  0.00    -0.206 F 
ATOM     42  C   UNL A   1      44.663  26.706  37.133  1.00  0.00     0.059 A 
ATOM     43  C   UNL A   1      46.268  28.047  35.900  1.00  0.00     0.059 A 
ATOM     44  F   UNL A   1      45.512  29.786  34.519  1.00  0.00    -0.206 F 
ATOM     45  C   UNL A   1      45.980  27.015  36.791  1.00  0.00     0.060 A 
BRANCH  45  46
ATOM     46  S   UNL A   1      47.312  26.035  37.518  1.00  0.00     0.124 S 
ATOM     47  O   UNL A   1      47.141  26.320  38.940  1.00  0.00    -0.237 OA
ATOM     48  O   UNL A   1      46.969  24.680  37.099  1.00  0.00    -0.237 OA
ATOM     49  O   UNL A   1      48.516  26.591  36.907  1.00  0.00    -0.744 OA
ENDBRANCH  45  46
ENDBRANCH  24  38
BRANCH  25  50
ATOM     50  C   UNL A   1      36.431  33.326  31.049  1.00  0.00     0.058 A 
ATOM     51  C   UNL A   1      35.116  33.244  31.528  1.00  0.00     0.135 A 
ATOM     52  C   UNL A   1      36.667  34.119  29.915  1.00  0.00     0.135 A 
ATOM     53  F   UNL A   1      34.840  32.498  32.608  1.00  0.00    -0.206 F 
ATOM     54  C   UNL A   1      34.070  33.909  30.896  1.00  0.00     0.059 A 
ATOM     55  C   UNL A   1      35.644  34.818  29.284  1.00  0.00     0.059 A 
ATOM     56  F   UNL A   1      37.913  34.249  29.432  1.00  0.00    -0.206 F 
ATOM     57  C   UNL A   1      34.345  34.694  29.774  1.00  0.00     0.060 A 
BRANCH  57  58
ATOM     58  S   UNL A   1      32.995  35.594  28.984  1.00  0.00     0.124 S 
ATOM     59  O   UNL A   1      32.185  35.974  30.136  1.00  0.00    -0.237 OA
ATOM     60  O   UNL A   1      33.698  36.682  28.310  1.00  0.00    -0.237 OA
ATOM     61  O   UNL A   1      32.404  34.597  28.096  1.00  0.00    -0.744 OA
ENDBRANCH  57  58
ENDBRANCH  25  50
BRANCH  37  62
ATOM     62  C   UNL A   1      39.828  34.326  37.040  1.00  0.00     0.058 A 
ATOM     63  C   UNL A   1      39.032  34.104  38.174  1.00  0.00     0.135 A 
ATOM     64  C   UNL A   1      40.493  35.557  36.932  1.00  0.00     0.135 A 
ATOM     65  F   UNL A   1      38.369  32.945  38.318  1.00  0.00    -0.206 F 
ATOM     66  C   UNL A   1      38.867  35.083  39.147  1.00  0.00     0.059 A 
ATOM     67  C   UNL A   1      40.363  36.541  37.907  1.00  0.00     0.059 A 
ATOM     68  F   UNL A   1      41.274  35.813  35.871  1.00  0.00    -0.206 F 
ATOM     69  C   UNL A   1      39.532  36.302  39.001  1.00  0.00     0.060 A 
BRANCH  69  70
ATOM     70  S   UNL A   1      39.309  37.569  40.267  1.00  0.00     0.124 S 
ATOM     71  O   UNL A   1      38.297  38.422  39.651  1.00  0.00    -0.237 OA
ATOM     72  O   UNL A   1      38.865  36.790  41.419  1.00  0.00    -0.237 OA
ATOM     73  O   UNL A   1      40.637  38.159  40.391  1.00  0.00    -0.744 OA
ENDBRANCH  69  70
ENDBRANCH  37  62
ENDBRANCH  11  12
ENDBRANCH   4   6
ENDBRANCH   1   2
BRANCH   1  74
ATOM     74  C   UNL A   1      38.785  22.488  26.134  1.00  0.00     0.042 C 
BRANCH  74  75
ATOM     75  C   UNL A   1      37.373  22.956  25.818  1.00  0.00     0.118 C 
BRANCH  75  76
ATOM     76  N   UNL A   1      36.469  21.840  25.567  1.00  0.00    -0.352 N 
ATOM     77  C   UNL A   1      35.106  21.841  25.414  1.00  0.00     0.251 C 
ATOM     78  H   UNL A   1      36.900  20.959  25.497  1.00  0.00     0.163 HD
ATOM     79  O   UNL A   1      34.476  20.788  25.433  1.00  0.00    -0.269 OA
BRANCH  77  80
ATOM     80  C   UNL A   1      34.392  23.116  25.221  1.00  0.00     0.039 A 
ATOM     81  C   UNL A   1      34.579  23.833  24.039  1.00  0.00     0.016 A 
ATOM     82  C   UNL A   1      33.560  23.620  26.220  1.00  0.00     0.016 A 
ATOM     83  C   UNL A   1      33.886  25.031  23.842  1.00  0.00     0.027 A 
ATOM     84  C   UNL A   1      32.854  24.805  26.008  1.00  0.00     0.027 A 
ATOM     85  C   UNL A   1      33.015  25.538  24.823  1.00  0.00     0.051 A 
BRANCH  85  86
ATOM     86  N   UNL A   1      32.301  26.761  24.607  1.00  0.00    -0.261 N 
ATOM     87  C   UNL A   1      31.179  26.770  23.775  1.00  0.00     0.270 C 
ATOM     88  C   UNL A   1      32.657  27.988  25.161  1.00  0.00     0.152 C 
ATOM     89  O   UNL A   1      30.680  25.827  23.177  1.00  0.00    -0.268 OA
ATOM     90  C   UNL A   1      30.606  28.139  23.694  1.00  0.00     0.084 C 
ATOM     91  S   UNL A   1      31.484  29.216  24.698  1.00  0.00    -0.054 SA
ATOM     92  S   UNL A   1      34.014  28.445  26.031  1.00  0.00    -0.051 S 
ATOM     93  C   UNL A   1      29.541  28.410  22.928  1.00  0.00     0.068 C 
BRANCH  93  94
ATOM     94  C   UNL A   1      29.009  29.718  22.790  1.00  0.00     0.127 A 
ATOM     95  C   UNL A   1      27.927  30.306  23.434  1.00  0.00     0.050 A 
ATOM     96  O   UNL A   1      29.547  30.656  21.941  1.00  0.00    -0.465 OA
ATOM     97  C   UNL A   1      27.782  31.619  22.929  1.00  0.00     0.042 A 
ATOM     98  C   UNL A   1      28.794  31.779  22.017  1.00  0.00     0.195 A 
ENDBRANCH  93  94
ENDBRANCH  85  86
ENDBRANCH  77  80
ENDBRANCH  75  76
ENDBRANCH  74  75
ENDBRANCH   1  74
TORSDOF 15
ENDMDL
MODEL 2
REMARK VINA RESULT:     -13.0      6.749     12.508
REMARK SMILES O=C(NCCCNC(=O)c1ccc(N2C(=O)/C(=C/c3ccco3)SC2=S)cc1)c1ccc(-c2c3nc(c(-c4c(F)cc(S(=O)(=O)[O-])cc4F)c4ccc([nH]4)c(-c4c(F)cc(S(=O)(=O)[O-])cc4F)c4nc(c(-c5c(F)cc(S(=O)(=O)[O-])cc5F)c5ccc2[nH]5)C=C4)C=C3)cc1
REMARK SMILES IDX 4 1 3 2 1 3 2 4 29 6 30 7 94 8 31 9 93 10 32 11 33 12 34 13
REMARK SMILES IDX 87 14 35 15 92 16 86 17 88 18 36 19 91 20 85 21 84 22 37 24
REMARK SMILES IDX 71 25 50 26 70 27 51 28 54 29 69 30 89 31 52 32 53 33 68 35
REMARK SMILES IDX 90 36 55 37 38 38 39 39 48 40 40 41 41 42 47 43 49 44 42 45
REMARK SMILES IDX 43 46 44 47 45 48 46 49 72 50 73 51 82 52 74 53 75 54 81 55
REMARK SMILES IDX 83 56 76 57 77 58 78 59 79 60 80 61 56 62 57 63 66 64 58 65
REMARK SMILES IDX 59 66 65 67 67 68 60 69 61 70 62 71 63 72 64 73 5 74 6 75
REMARK SMILES IDX 7 76 8 77 9 79 10 80 11 81 28 82 12 83 27 84 13 85 14 86
REMARK SMILES IDX 15 87 25 88 16 89 17 90 24 91 26 92 18 93 19 94 20 95 23 96
REMARK SMILES IDX 21 97 22 98
REMARK H PARENT 3 5 88 23 54 34 7 78
REMARK Flexibility Score: inf
ROOT
ATOM      1  C   UNL A   1      35.476  30.556  28.086  1.00  0.00     0.118 C 
ENDROOT
BRANCH   1   2
ATOM      2  N   UNL A   1      35.519  30.438  29.540  1.00  0.00    -0.352 N 
ATOM      3  O   UNL A   1      36.246  29.753  31.556  1.00  0.00    -0.269 OA
ATOM      4  C   UNL A   1      36.493  29.925  30.364  1.00  0.00     0.251 C 
ATOM      5  H   UNL A   1      34.721  30.779  30.006  1.00  0.00     0.163 HD
BRANCH   4   6
ATOM      6  C   UNL A   1      37.821  29.564  29.820  1.00  0.00     0.039 A 
ATOM      7  C   UNL A   1      38.823  29.087  30.662  1.00  0.00     0.014 A 
ATOM      8  C   UNL A   1      38.067  29.691  28.448  1.00  0.00     0.014 A 
ATOM      9  C   UNL A   1      40.112  28.923  30.177  1.00  0.00     0.010 A 
ATOM     10  C   UNL A   1      39.339  29.405  27.938  1.00  0.00     0.010 A 
ATOM     11  C   UNL A   1      40.384  29.054  28.804  1.00  0.00    -0.014 A 
BRANCH  11  12
ATOM     12  C   UNL A   1      41.757  28.739  28.328  1.00  0.00     0.031 A 
ATOM     13  C   UNL A   1      42.859  29.763  28.356  1.00  0.00     0.074 A 
ATOM     14  C   UNL A   1      42.018  27.471  27.946  1.00  0.00     0.049 A 
ATOM     15  N   UNL A   1      44.126  29.610  28.066  1.00  0.00    -0.248 NA
ATOM     16  C   UNL A   1      42.498  31.134  28.749  1.00  0.00     0.031 C 
ATOM     17  C   UNL A   1      41.019  26.401  27.848  1.00  0.00     0.029 A 
ATOM     18  N   UNL A   1      43.195  26.853  27.615  1.00  0.00    -0.354 N 
ATOM     19  C   UNL A   1      44.712  30.860  28.230  1.00  0.00     0.074 A 
ATOM     20  C   UNL A   1      43.655  31.769  28.615  1.00  0.00     0.031 C 
ATOM     21  C   UNL A   1      41.634  25.247  27.557  1.00  0.00     0.029 A 
ATOM     22  C   UNL A   1      43.058  25.504  27.382  1.00  0.00     0.049 A 
ATOM     23  H   UNL A   1      44.055  27.327  27.552  1.00  0.00     0.167 HD
ATOM     24  C   UNL A   1      46.013  31.210  28.081  1.00  0.00     0.037 A 
ATOM     25  C   UNL A   1      43.972  24.574  27.054  1.00  0.00     0.037 A 
ATOM     26  C   UNL A   1      47.061  30.292  27.708  1.00  0.00     0.049 A 
ATOM     27  C   UNL A   1      45.408  24.986  26.920  1.00  0.00     0.074 A 
ATOM     28  C   UNL A   1      48.411  30.548  27.533  1.00  0.00     0.029 A 
ATOM     29  N   UNL A   1      46.881  28.939  27.461  1.00  0.00    -0.354 N 
ATOM     30  N   UNL A   1      45.940  26.173  27.085  1.00  0.00    -0.248 NA
ATOM     31  C   UNL A   1      46.366  23.937  26.552  1.00  0.00     0.031 C 
ATOM     32  C   UNL A   1      49.040  29.357  27.152  1.00  0.00     0.029 A 
ATOM     33  C   UNL A   1      48.091  28.350  27.128  1.00  0.00     0.049 A 
ATOM     34  H   UNL A   1      46.019  28.465  27.514  1.00  0.00     0.167 HD
ATOM     35  C   UNL A   1      47.296  26.016  26.836  1.00  0.00     0.074 A 
ATOM     36  C   UNL A   1      47.507  24.611  26.547  1.00  0.00     0.031 C 
ATOM     37  C   UNL A   1      48.277  26.952  26.831  1.00  0.00     0.037 A 
BRANCH  24  38
ATOM     38  C   UNL A   1      46.385  32.648  28.319  1.00  0.00     0.058 A 
ATOM     39  C   UNL A   1      46.884  33.083  29.557  1.00  0.00     0.135 A 
ATOM     40  C   UNL A   1      46.301  33.591  27.281  1.00  0.00     0.135 A 
ATOM     41  F   UNL A   1      46.971  32.228  30.588  1.00  0.00    -0.206 F 
ATOM     42  C   UNL A   1      47.273  34.404  29.763  1.00  0.00     0.059 A 
ATOM     43  C   UNL A   1      46.704  34.913  27.457  1.00  0.00     0.059 A 
ATOM     44  F   UNL A   1      45.830  33.231  26.077  1.00  0.00    -0.206 F 
ATOM     45  C   UNL A   1      47.180  35.311  28.706  1.00  0.00     0.060 A 
BRANCH  45  46
ATOM     46  S   UNL A   1      47.707  37.016  28.983  1.00  0.00     0.124 S 
ATOM     47  O   UNL A   1      48.959  37.059  28.232  1.00  0.00    -0.237 OA
ATOM     48  O   UNL A   1      46.602  37.782  28.416  1.00  0.00    -0.237 OA
ATOM     49  O   UNL A   1      47.844  37.099  30.435  1.00  0.00    -0.744 OA
ENDBRANCH  45  46
ENDBRANCH  24  38
BRANCH  25  50
ATOM     50  C   UNL A   1      43.544  23.171  26.813  1.00  0.00     0.058 A 
ATOM     51  C   UNL A   1      43.510  22.629  25.521  1.00  0.00     0.135 A 
ATOM     52  C   UNL A   1      43.184  22.337  27.884  1.00  0.00     0.135 A 
ATOM     53  F   UNL A   1      43.844  23.388  24.466  1.00  0.00    -0.206 F 
ATOM     54  C   UNL A   1      43.118  21.314  25.295  1.00  0.00     0.059 A 
ATOM     55  C   UNL A   1      42.818  21.010  27.686  1.00  0.00     0.059 A 
ATOM     56  F   UNL A   1      43.223  22.802  29.142  1.00  0.00    -0.206 F 
ATOM     57  C   UNL A   1      42.774  20.512  26.385  1.00  0.00     0.060 A 
BRANCH  57  58
ATOM     58  S   UNL A   1      42.311  18.791  26.095  1.00  0.00     0.124 S 
ATOM     59  O   UNL A   1      43.213  18.427  25.010  1.00  0.00    -0.237 OA
ATOM     60  O   UNL A   1      42.584  18.173  27.389  1.00  0.00    -0.237 OA
ATOM     61  O   UNL A   1      40.898  18.882  25.740  1.00  0.00    -0.744 OA
ENDBRANCH  57  58
ENDBRANCH  25  50
BRANCH  37  62
ATOM     62  C   UNL A   1      49.662  26.473  26.501  1.00  0.00     0.058 A 
ATOM     63  C   UNL A   1      50.144  26.484  25.183  1.00  0.00     0.135 A 
ATOM     64  C   UNL A   1      50.513  25.997  27.511  1.00  0.00     0.135 A 
ATOM     65  F   UNL A   1      49.365  26.923  24.181  1.00  0.00    -0.206 F 
ATOM     66  C   UNL A   1      51.410  26.002  24.870  1.00  0.00     0.059 A 
ATOM     67  C   UNL A   1      51.792  25.533  27.223  1.00  0.00     0.059 A 
ATOM     68  F   UNL A   1      50.101  25.975  28.788  1.00  0.00    -0.206 F 
ATOM     69  C   UNL A   1      52.225  25.522  25.897  1.00  0.00     0.060 A 
BRANCH  69  70
ATOM     70  S   UNL A   1      53.865  24.892  25.482  1.00  0.00     0.124 S 
ATOM     71  O   UNL A   1      54.243  25.770  24.379  1.00  0.00    -0.237 OA
ATOM     72  O   UNL A   1      54.602  25.086  26.727  1.00  0.00    -0.237 OA
ATOM     73  O   UNL A   1      53.611  23.502  25.121  1.00  0.00    -0.744 OA
ENDBRANCH  69  70
ENDBRANCH  37  62
ENDBRANCH  11  12
ENDBRANCH   4   6
ENDBRANCH   1   2
BRANCH   1  74
ATOM     74  C   UNL A   1      34.198  29.988  27.485  1.00  0.00     0.042 C 
BRANCH  74  75
ATOM     75  C   UNL A   1      34.417  29.275  26.161  1.00  0.00     0.118 C 
BRANCH  75  76
ATOM     76  N   UNL A   1      33.324  29.507  25.226  1.00  0.00    -0.352 N 
ATOM     77  C   UNL A   1      32.749  28.646  24.326  1.00  0.00     0.251 C 
ATOM     78  H   UNL A   1      32.942  30.414  25.243  1.00  0.00     0.163 HD
ATOM     79  O   UNL A   1      31.990  29.066  23.457  1.00  0.00    -0.269 OA
BRANCH  77  80
ATOM     80  C   UNL A   1      33.042  27.203  24.404  1.00  0.00     0.039 A 
ATOM     81  C   UNL A   1      32.727  26.503  25.568  1.00  0.00     0.016 A 
ATOM     82  C   UNL A   1      33.657  26.547  23.339  1.00  0.00     0.016 A 
ATOM     83  C   UNL A   1      32.981  25.130  25.638  1.00  0.00     0.027 A 
ATOM     84  C   UNL A   1      33.888  25.172  23.406  1.00  0.00     0.027 A 
ATOM     85  C   UNL A   1      33.568  24.443  24.561  1.00  0.00     0.051 A 
BRANCH  85  86
ATOM     86  N   UNL A   1      33.815  23.034  24.638  1.00  0.00    -0.261 N 
ATOM     87  C   UNL A   1      32.833  22.135  24.216  1.00  0.00     0.270 C 
ATOM     88  C   UNL A   1      34.985  22.467  25.134  1.00  0.00     0.152 C 
ATOM     89  O   UNL A   1      31.730  22.391  23.751  1.00  0.00    -0.268 OA
ATOM     90  C   UNL A   1      33.302  20.736  24.392  1.00  0.00     0.084 C 
ATOM     91  S   UNL A   1      34.908  20.714  24.992  1.00  0.00    -0.054 SA
ATOM     92  S   UNL A   1      36.298  23.164  25.907  1.00  0.00    -0.051 S 
ATOM     93  C   UNL A   1      32.522  19.691  24.088  1.00  0.00     0.068 C 
BRANCH  93  94
ATOM     94  C   UNL A   1      32.925  18.346  24.299  1.00  0.00     0.127 A 
ATOM     95  C   UNL A   1      33.464  17.433  23.400  1.00  0.00     0.050 A 
ATOM     96  O   UNL A   1      32.840  17.726  25.522  1.00  0.00    -0.465 OA
ATOM     97  C   UNL A   1      33.671  16.216  24.090  1.00  0.00     0.042 A 
ATOM     98  C   UNL A   1      33.268  16.448  25.380  1.00  0.00     0.195 A 
ENDBRANCH  93  94
ENDBRANCH  85  86
ENDBRANCH  77  80
ENDBRANCH  75  76
ENDBRANCH  74  75
ENDBRANCH   1  74
TORSDOF 15
ENDMDL
MODEL 3
REMARK VINA RESULT:     -12.8      6.597     12.332
REMARK SMILES O=C(NCCCNC(=O)c1ccc(N2C(=O)/C(=C/c3ccco3)SC2=S)cc1)c1ccc(-c2c3nc(c(-c4c(F)cc(S(=O)(=O)[O-])cc4F)c4ccc([nH]4)c(-c4c(F)cc(S(=O)(=O)[O-])cc4F)c4nc(c(-c5c(F)cc(S(=O)(=O)[O-])cc5F)c5ccc2[nH]5)C=C4)C=C3)cc1
REMARK SMILES IDX 4 1 3 2 1 3 2 4 29 6 30 7 94 8 31 9 93 10 32 11 33 12 34 13
REMARK SMILES IDX 87 14 35 15 92 16 86 17 88 18 36 19 91 20 85 21 84 22 37 24
REMARK SMILES IDX 71 25 50 26 70 27 51 28 54 29 69 30 89 31 52 32 53 33 68 35
REMARK SMILES IDX 90 36 55 37 38 38 39 39 48 40 40 41 41 42 47 43 49 44 42 45
REMARK SMILES IDX 43 46 44 47 45 48 46 49 72 50 73 51 82 52 74 53 75 54 81 55
REMARK SMILES IDX 83 56 76 57 77 58 78 59 79 60 80 61 56 62 57 63 66 64 58 65
REMARK SMILES IDX 59 66 65 67 67 68 60 69 61 70 62 71 63 72 64 73 5 74 6 75
REMARK SMILES IDX 7 76 8 77 9 79 10 80 11 81 28 82 12 83 27 84 13 85 14 86
REMARK SMILES IDX 15 87 25 88 16 89 17 90 24 91 26 92 18 93 19 94 20 95 23 96
REMARK SMILES IDX 21 97 22 98
REMARK H PARENT 3 5 88 23 54 34 7 78
REMARK Flexibility Score: inf
ROOT
ATOM      1  C   UNL A   1      35.408  30.554  28.129  1.00  0.00     0.118 C 
ENDROOT
BRANCH   1   2
ATOM      2  N   UNL A   1      35.400  30.627  29.587  1.00  0.00    -0.352 N 
ATOM      3  O   UNL A   1      36.106  30.286  31.695  1.00  0.00    -0.269 OA
ATOM      4  C   UNL A   1      36.386  30.330  30.499  1.00  0.00     0.251 C 
ATOM      5  H   UNL A   1      34.553  30.938  29.980  1.00  0.00     0.163 HD
BRANCH   4   6
ATOM      6  C   UNL A   1      37.765  30.047  30.047  1.00  0.00     0.039 A 
ATOM      7  C   UNL A   1      38.126  30.236  28.715  1.00  0.00     0.014 A 
ATOM      8  C   UNL A   1      38.720  29.599  30.968  1.00  0.00     0.014 A 
ATOM      9  C   UNL A   1      39.364  29.800  28.266  1.00  0.00     0.010 A 
ATOM     10  C   UNL A   1      40.011  29.276  30.535  1.00  0.00     0.010 A 
ATOM     11  C   UNL A   1      40.334  29.338  29.172  1.00  0.00    -0.014 A 
BRANCH  11  12
ATOM     12  C   UNL A   1      41.684  29.008  28.645  1.00  0.00     0.031 A 
ATOM     13  C   UNL A   1      42.808  30.008  28.666  1.00  0.00     0.074 A 
ATOM     14  C   UNL A   1      41.906  27.746  28.222  1.00  0.00     0.049 A 
ATOM     15  N   UNL A   1      44.062  29.837  28.332  1.00  0.00    -0.248 NA
ATOM     16  C   UNL A   1      42.489  31.375  29.105  1.00  0.00     0.031 C 
ATOM     17  C   UNL A   1      40.881  26.700  28.127  1.00  0.00     0.029 A 
ATOM     18  N   UNL A   1      43.059  27.112  27.838  1.00  0.00    -0.354 N 
ATOM     19  C   UNL A   1      44.679  31.069  28.510  1.00  0.00     0.074 A 
ATOM     20  C   UNL A   1      43.655  31.990  28.952  1.00  0.00     0.031 C 
ATOM     21  C   UNL A   1      41.462  25.542  27.787  1.00  0.00     0.029 A 
ATOM     22  C   UNL A   1      42.885  25.774  27.574  1.00  0.00     0.049 A 
ATOM     23  H   UNL A   1      43.927  27.571  27.760  1.00  0.00     0.167 HD
ATOM     24  C   UNL A   1      45.983  31.397  28.329  1.00  0.00     0.037 A 
ATOM     25  C   UNL A   1      43.769  24.834  27.194  1.00  0.00     0.037 A 
ATOM     26  C   UNL A   1      46.999  30.467  27.900  1.00  0.00     0.049 A 
ATOM     27  C   UNL A   1      45.208  25.220  27.025  1.00  0.00     0.074 A 
ATOM     28  C   UNL A   1      48.348  30.701  27.690  1.00  0.00     0.029 A 
ATOM     29  N   UNL A   1      46.782  29.125  27.624  1.00  0.00    -0.354 N 
ATOM     30  N   UNL A   1      45.771  26.391  27.205  1.00  0.00    -0.248 NA
ATOM     31  C   UNL A   1      46.133  24.162  26.601  1.00  0.00     0.031 C 
ATOM     32  C   UNL A   1      48.940  29.508  27.259  1.00  0.00     0.029 A 
ATOM     33  C   UNL A   1      47.969  28.521  27.238  1.00  0.00     0.049 A 
ATOM     34  H   UNL A   1      45.912  28.668  27.691  1.00  0.00     0.167 HD
ATOM     35  C   UNL A   1      47.115  26.213  26.909  1.00  0.00     0.074 A 
ATOM     36  C   UNL A   1      47.287  24.812  26.578  1.00  0.00     0.031 C 
ATOM     37  C   UNL A   1      48.116  27.128  26.898  1.00  0.00     0.037 A 
BRANCH  24  38
ATOM     38  C   UNL A   1      46.392  32.820  28.594  1.00  0.00     0.058 A 
ATOM     39  C   UNL A   1      46.398  33.784  27.574  1.00  0.00     0.135 A 
ATOM     40  C   UNL A   1      46.721  33.241  29.893  1.00  0.00     0.135 A 
ATOM     41  F   UNL A   1      46.107  33.435  26.312  1.00  0.00    -0.206 F 
ATOM     42  C   UNL A   1      46.731  35.112  27.829  1.00  0.00     0.059 A 
ATOM     43  C   UNL A   1      47.036  34.568  30.176  1.00  0.00     0.059 A 
ATOM     44  F   UNL A   1      46.732  32.361  30.906  1.00  0.00    -0.206 F 
ATOM     45  C   UNL A   1      47.047  35.494  29.134  1.00  0.00     0.060 A 
BRANCH  45  46
ATOM     46  S   UNL A   1      47.455  37.225  29.451  1.00  0.00     0.124 S 
ATOM     47  O   UNL A   1      48.815  37.112  29.972  1.00  0.00    -0.237 OA
ATOM     48  O   UNL A   1      47.334  37.824  28.126  1.00  0.00    -0.237 OA
ATOM     49  O   UNL A   1      46.446  37.642  30.419  1.00  0.00    -0.744 OA
ENDBRANCH  45  46
ENDBRANCH  24  38
BRANCH  25  50
ATOM     50  C   UNL A   1      43.304  23.448  26.930  1.00  0.00     0.058 A 
ATOM     51  C   UNL A   1      43.130  22.972  25.623  1.00  0.00     0.135 A 
ATOM     52  C   UNL A   1      43.050  22.562  27.989  1.00  0.00     0.135 A 
ATOM     53  F   UNL A   1      43.359  23.781  24.578  1.00  0.00    -0.206 F 
ATOM     54  C   UNL A   1      42.702  21.671  25.374  1.00  0.00     0.059 A 
ATOM     55  C   UNL A   1      42.652  21.249  27.765  1.00  0.00     0.059 A 
ATOM     56  F   UNL A   1      43.225  22.962  29.258  1.00  0.00    -0.206 F 
ATOM     57  C   UNL A   1      42.466  20.817  26.453  1.00  0.00     0.060 A 
BRANCH  57  58
ATOM     58  S   UNL A   1      41.958  19.116  26.128  1.00  0.00     0.124 S 
ATOM     59  O   UNL A   1      40.524  19.276  25.919  1.00  0.00    -0.237 OA
ATOM     60  O   UNL A   1      42.742  18.777  24.944  1.00  0.00    -0.237 OA
ATOM     61  O   UNL A   1      42.345  18.414  27.347  1.00  0.00    -0.744 OA
ENDBRANCH  57  58
ENDBRANCH  25  50
BRANCH  37  62
ATOM     62  C   UNL A   1      49.479  26.630  26.513  1.00  0.00     0.058 A 
ATOM     63  C   UNL A   1      50.353  26.082  27.464  1.00  0.00     0.135 A 
ATOM     64  C   UNL A   1      49.916  26.703  25.181  1.00  0.00     0.135 A 
ATOM     65  F   UNL A   1      49.983  25.999  28.753  1.00  0.00    -0.206 F 
ATOM     66  C   UNL A   1      51.630  25.659  27.117  1.00  0.00     0.059 A 
ATOM     67  C   UNL A   1      51.181  26.262  24.807  1.00  0.00     0.059 A 
ATOM     68  F   UNL A   1      49.114  27.210  24.232  1.00  0.00    -0.206 F 
ATOM     69  C   UNL A   1      52.038  25.759  25.786  1.00  0.00     0.060 A 
BRANCH  69  70
ATOM     70  S   UNL A   1      53.701  25.213  25.344  1.00  0.00     0.124 S 
ATOM     71  O   UNL A   1      53.557  23.761  25.407  1.00  0.00    -0.237 OA
ATOM     72  O   UNL A   1      53.874  25.775  24.007  1.00  0.00    -0.237 OA
ATOM     73  O   UNL A   1      54.538  25.807  26.380  1.00  0.00    -0.744 OA
ENDBRANCH  69  70
ENDBRANCH  37  62
ENDBRANCH  11  12
ENDBRANCH   4   6
ENDBRANCH   1   2
BRANCH   1  74
ATOM     74  C   UNL A   1      34.376  29.579  27.582  1.00  0.00     0.042 C 
BRANCH  74  75
ATOM     75  C   UNL A   1      34.575  29.251  26.111  1.00  0.00     0.118 C 
BRANCH  75  76
ATOM     76  N   UNL A   1      33.377  29.515  25.323  1.00  0.00    -0.352 N 
ATOM     77  C   UNL A   1      32.665  28.669  24.512  1.00  0.00     0.251 C 
ATOM     78  H   UNL A   1      33.029  30.433  25.384  1.00  0.00     0.163 HD
ATOM     79  O   UNL A   1      31.812  29.110  23.746  1.00  0.00    -0.269 OA
BRANCH  77  80
ATOM     80  C   UNL A   1      32.920  27.218  24.562  1.00  0.00     0.039 A 
ATOM     81  C   UNL A   1      33.634  26.614  23.527  1.00  0.00     0.016 A 
ATOM     82  C   UNL A   1      32.428  26.448  25.614  1.00  0.00     0.016 A 
ATOM     83  C   UNL A   1      33.899  25.242  23.581  1.00  0.00     0.027 A 
ATOM     84  C   UNL A   1      32.715  25.084  25.674  1.00  0.00     0.027 A 
ATOM     85  C   UNL A   1      33.442  24.454  24.653  1.00  0.00     0.051 A 
BRANCH  85  86
ATOM     86  N   UNL A   1      33.727  23.052  24.705  1.00  0.00    -0.261 N 
ATOM     87  C   UNL A   1      32.774  22.134  24.256  1.00  0.00     0.270 C 
ATOM     88  C   UNL A   1      34.907  22.506  25.203  1.00  0.00     0.152 C 
ATOM     89  O   UNL A   1      31.669  22.369  23.784  1.00  0.00    -0.268 OA
ATOM     90  C   UNL A   1      33.280  20.745  24.410  1.00  0.00     0.084 C 
ATOM     91  S   UNL A   1      34.880  20.755  25.026  1.00  0.00    -0.054 SA
ATOM     92  S   UNL A   1      36.193  23.224  26.003  1.00  0.00    -0.051 S 
ATOM     93  C   UNL A   1      32.532  19.686  24.077  1.00  0.00     0.068 C 
BRANCH  93  94
ATOM     94  C   UNL A   1      32.969  18.349  24.266  1.00  0.00     0.127 A 
ATOM     95  C   UNL A   1      33.566  17.477  23.363  1.00  0.00     0.050 A 
ATOM     96  O   UNL A   1      32.864  17.693  25.469  1.00  0.00    -0.465 OA
ATOM     97  C   UNL A   1      33.788  16.248  24.027  1.00  0.00     0.042 A 
ATOM     98  C   UNL A   1      33.336  16.433  25.309  1.00  0.00     0.195 A 
ENDBRANCH  93  94
ENDBRANCH  85  86
ENDBRANCH  77  80
ENDBRANCH  75  76
ENDBRANCH  74  75
ENDBRANCH   1  74
TORSDOF 15
ENDMDL
