MODEL 1
REMARK VINA RESULT:     -11.9      0.000      0.000
REMARK SMILES CN(CC(F)(F)F)C(=O)N1CC(n2cc(C(=O)NCCCNC(=O)c3ccc(-c4c5nc(c(-c6c(F)cc(S(=O)(=O)[O-])cc6F)c6ccc([nH]6)c(-c6c(F)cc(S(=O)(=O)[O-])cc6F)c6nc(c(-c7c(F)cc(S(=O)(=O)[O-])cc7F)c7ccc4[nH]7)C=C6)C=C5)cc3)nn2)C1
REMARK SMILES IDX 19 1 18 2 16 3 17 4 15 6 13 7 14 8 92 9 91 10 12 11 8 12
REMARK SMILES IDX 9 13 10 14 11 15 93 16 2 17 1 18 3 19 4 20 5 21 6 22 7 23
REMARK SMILES IDX 20 24 21 25 22 26 23 27 24 29 25 30 26 31 90 32 27 33 89 34
REMARK SMILES IDX 28 35 29 36 30 37 83 38 31 39 88 40 82 41 84 42 32 43 87 44
REMARK SMILES IDX 81 45 80 46 33 48 67 49 46 50 66 51 47 52 50 53 65 54 85 55
REMARK SMILES IDX 48 56 49 57 64 59 86 60 51 61 34 62 35 63 44 64 36 65 37 66
REMARK SMILES IDX 43 67 45 68 38 69 39 70 40 71 41 72 42 73 68 74 69 75 78 76
REMARK SMILES IDX 70 77 71 78 77 79 79 80 72 81 73 82 74 83 75 84 76 85 52 86
REMARK SMILES IDX 53 87 62 88 54 89 55 90 61 91 63 92 56 93 57 94 58 95 59 96
REMARK SMILES IDX 60 97
REMARK H PARENT 18 5 22 28 84 47 50 58
REMARK Flexibility Score: inf
ROOT
ATOM      1  C   UNL A   1      37.819  21.820  25.353  1.00  0.00     0.118 C 
ENDROOT
BRANCH   1   2
ATOM      2  N   UNL A   1      36.922  20.705  25.075  1.00  0.00    -0.351 N 
ATOM      3  C   UNL A   1      35.555  20.612  25.194  1.00  0.00     0.273 C 
ATOM      4  O   UNL A   1      35.002  19.630  24.684  1.00  0.00    -0.267 OA
ATOM      5  H   UNL A   1      37.366  19.888  24.752  1.00  0.00     0.163 HD
BRANCH   3   6
ATOM      6  C   UNL A   1      34.796  21.660  25.857  1.00  0.00     0.170 A 
ATOM      7  N   UNL A   1      33.494  23.312  26.387  1.00  0.00    -0.245 N 
ATOM      8  C   UNL A   1      34.121  22.739  25.318  1.00  0.00     0.145 A 
ATOM      9  N   UNL A   1      33.815  22.696  27.530  1.00  0.00    -0.066 NA
ATOM     10  N   UNL A   1      34.644  21.706  27.226  1.00  0.00    -0.125 NA
BRANCH   7  11
ATOM     11  C   UNL A   1      32.496  24.322  26.246  1.00  0.00     0.148 C 
ATOM     12  C   UNL A   1      31.108  26.713  24.576  1.00  0.00     0.320 C 
ATOM     13  O   UNL A   1      29.894  26.559  24.714  1.00  0.00    -0.248 OA
ATOM     14  N   UNL A   1      31.976  25.677  24.779  1.00  0.00    -0.320 N 
ATOM     15  C   UNL A   1      31.629  24.266  24.991  1.00  0.00     0.150 C 
ATOM     16  C   UNL A   1      33.122  25.608  25.677  1.00  0.00     0.150 C 
BRANCH  12  17
ATOM     17  N   UNL A   1      31.645  27.921  24.165  1.00  0.00    -0.319 N 
ATOM     18  C   UNL A   1      31.458  29.055  25.056  1.00  0.00     0.149 C 
BRANCH  17  19
ATOM     19  C   UNL A   1      32.221  28.199  22.834  1.00  0.00     0.236 C 
BRANCH  19  20
ATOM     20  C   UNL A   1      33.695  27.825  22.653  1.00  0.00     0.406 C 
ATOM     21  F   UNL A   1      34.285  28.514  21.656  1.00  0.00    -0.169 F 
ATOM     22  F   UNL A   1      34.386  28.094  23.786  1.00  0.00    -0.169 F 
ATOM     23  F   UNL A   1      33.848  26.507  22.391  1.00  0.00    -0.169 F 
ENDBRANCH  19  20
ENDBRANCH  17  19
ENDBRANCH  12  17
ENDBRANCH   7  11
ENDBRANCH   3   6
ENDBRANCH   1   2
BRANCH   1  24
ATOM     24  C   UNL A   1      39.088  21.394  26.103  1.00  0.00     0.042 C 
BRANCH  24  25
ATOM     25  C   UNL A   1      39.948  22.586  26.479  1.00  0.00     0.118 C 
BRANCH  25  26
ATOM     26  N   UNL A   1      41.377  22.409  26.168  1.00  0.00    -0.352 N 
ATOM     27  C   UNL A   1      42.345  23.380  25.926  1.00  0.00     0.251 C 
ATOM     28  H   UNL A   1      41.690  21.477  26.125  1.00  0.00     0.163 HD
ATOM     29  O   UNL A   1      43.394  23.083  25.362  1.00  0.00    -0.269 OA
BRANCH  27  30
ATOM     30  C   UNL A   1      42.081  24.766  26.355  1.00  0.00     0.039 A 
ATOM     31  C   UNL A   1      41.144  25.615  25.762  1.00  0.00     0.014 A 
ATOM     32  C   UNL A   1      42.789  25.193  27.462  1.00  0.00     0.014 A 
ATOM     33  C   UNL A   1      40.927  26.863  26.351  1.00  0.00     0.010 A 
ATOM     34  C   UNL A   1      42.274  26.178  28.236  1.00  0.00     0.010 A 
ATOM     35  C   UNL A   1      41.510  27.128  27.600  1.00  0.00    -0.014 A 
BRANCH  35  36
ATOM     36  C   UNL A   1      41.361  28.377  28.326  1.00  0.00     0.031 A 
ATOM     37  C   UNL A   1      42.433  29.358  28.051  1.00  0.00     0.074 A 
ATOM     38  C   UNL A   1      40.223  28.708  28.982  1.00  0.00     0.049 A 
ATOM     39  N   UNL A   1      43.403  29.695  28.829  1.00  0.00    -0.248 NA
ATOM     40  C   UNL A   1      42.552  29.883  26.682  1.00  0.00     0.031 C 
ATOM     41  C   UNL A   1      38.932  28.001  29.047  1.00  0.00     0.029 A 
ATOM     42  N   UNL A   1      39.961  29.837  29.688  1.00  0.00    -0.354 N 
ATOM     43  C   UNL A   1      44.130  30.656  28.134  1.00  0.00     0.074 A 
ATOM     44  C   UNL A   1      43.695  30.567  26.764  1.00  0.00     0.031 C 
ATOM     45  C   UNL A   1      37.981  28.819  29.554  1.00  0.00     0.029 A 
ATOM     46  C   UNL A   1      38.623  30.031  30.021  1.00  0.00     0.049 A 
ATOM     47  H   UNL A   1      40.667  30.473  29.946  1.00  0.00     0.167 HD
ATOM     48  C   UNL A   1      44.862  31.595  28.794  1.00  0.00     0.037 A 
ATOM     49  C   UNL A   1      38.101  31.131  30.623  1.00  0.00     0.037 A 
ATOM     50  C   UNL A   1      44.993  31.253  30.190  1.00  0.00     0.049 A 
ATOM     51  C   UNL A   1      39.242  31.829  31.280  1.00  0.00     0.074 A 
ATOM     52  C   UNL A   1      45.559  30.192  30.872  1.00  0.00     0.029 A 
ATOM     53  N   UNL A   1      44.119  31.842  31.075  1.00  0.00    -0.354 N 
ATOM     54  N   UNL A   1      39.928  31.317  32.268  1.00  0.00    -0.248 NA
ATOM     55  C   UNL A   1      39.939  32.846  30.504  1.00  0.00     0.031 C 
ATOM     56  C   UNL A   1      44.643  29.904  31.927  1.00  0.00     0.029 A 
ATOM     57  C   UNL A   1      43.619  30.852  31.886  1.00  0.00     0.049 A 
ATOM     58  H   UNL A   1      43.892  32.800  31.118  1.00  0.00     0.167 HD
ATOM     59  C   UNL A   1      41.253  31.635  31.995  1.00  0.00     0.074 A 
ATOM     60  C   UNL A   1      41.188  32.627  30.923  1.00  0.00     0.031 C 
ATOM     61  C   UNL A   1      42.282  30.858  32.450  1.00  0.00     0.037 A 
BRANCH  48  62
ATOM     62  C   UNL A   1      45.174  32.977  28.276  1.00  0.00     0.058 A 
ATOM     63  C   UNL A   1      46.523  33.374  28.154  1.00  0.00     0.135 A 
ATOM     64  C   UNL A   1      44.222  34.012  28.141  1.00  0.00     0.135 A 
ATOM     65  F   UNL A   1      47.513  32.474  28.258  1.00  0.00    -0.206 F 
ATOM     66  C   UNL A   1      46.897  34.707  27.993  1.00  0.00     0.059 A 
ATOM     67  C   UNL A   1      44.573  35.339  27.924  1.00  0.00     0.059 A 
ATOM     68  F   UNL A   1      42.910  33.807  28.307  1.00  0.00    -0.206 F 
ATOM     69  C   UNL A   1      45.913  35.685  27.897  1.00  0.00     0.060 A 
BRANCH  69  70
ATOM     70  S   UNL A   1      46.396  37.417  27.801  1.00  0.00     0.124 S 
ATOM     71  O   UNL A   1      46.299  37.823  29.199  1.00  0.00    -0.237 OA
ATOM     72  O   UNL A   1      47.744  37.323  27.253  1.00  0.00    -0.237 OA
ATOM     73  O   UNL A   1      45.399  37.994  26.905  1.00  0.00    -0.744 OA
ENDBRANCH  69  70
ENDBRANCH  48  62
BRANCH  49  74
ATOM     74  C   UNL A   1      36.803  31.801  30.327  1.00  0.00     0.058 A 
ATOM     75  C   UNL A   1      35.877  32.096  31.346  1.00  0.00     0.135 A 
ATOM     76  C   UNL A   1      36.571  32.426  29.085  1.00  0.00     0.135 A 
ATOM     77  F   UNL A   1      36.029  31.563  32.567  1.00  0.00    -0.206 F 
ATOM     78  C   UNL A   1      34.816  32.992  31.157  1.00  0.00     0.059 A 
ATOM     79  C   UNL A   1      35.520  33.318  28.871  1.00  0.00     0.059 A 
ATOM     80  F   UNL A   1      37.423  32.257  28.060  1.00  0.00    -0.206 F 
ATOM     81  C   UNL A   1      34.660  33.618  29.921  1.00  0.00     0.060 A 
BRANCH  81  82
ATOM     82  S   UNL A   1      33.408  34.913  29.725  1.00  0.00     0.124 S 
ATOM     83  O   UNL A   1      34.174  35.981  29.093  1.00  0.00    -0.237 OA
ATOM     84  O   UNL A   1      32.415  34.257  28.881  1.00  0.00    -0.237 OA
ATOM     85  O   UNL A   1      32.977  35.178  31.095  1.00  0.00    -0.744 OA
ENDBRANCH  81  82
ENDBRANCH  49  74
BRANCH  61  86
ATOM     86  C   UNL A   1      41.980  29.777  33.462  1.00  0.00     0.058 A 
ATOM     87  C   UNL A   1      41.697  28.436  33.140  1.00  0.00     0.135 A 
ATOM     88  C   UNL A   1      42.170  30.075  34.819  1.00  0.00     0.135 A 
ATOM     89  F   UNL A   1      41.597  28.040  31.864  1.00  0.00    -0.206 F 
ATOM     90  C   UNL A   1      41.582  27.446  34.121  1.00  0.00     0.059 A 
ATOM     91  C   UNL A   1      42.089  29.101  35.811  1.00  0.00     0.059 A 
ATOM     92  F   UNL A   1      42.503  31.321  35.191  1.00  0.00    -0.206 F 
ATOM     93  C   UNL A   1      41.784  27.789  35.457  1.00  0.00     0.060 A 
BRANCH  93  94
ATOM     94  S   UNL A   1      41.719  26.499  36.721  1.00  0.00     0.124 S 
ATOM     95  O   UNL A   1      42.942  26.747  37.475  1.00  0.00    -0.237 OA
ATOM     96  O   UNL A   1      40.471  26.800  37.418  1.00  0.00    -0.237 OA
ATOM     97  O   UNL A   1      41.704  25.261  35.944  1.00  0.00    -0.744 OA
ENDBRANCH  93  94
ENDBRANCH  61  86
ENDBRANCH  35  36
ENDBRANCH  27  30
ENDBRANCH  25  26
ENDBRANCH  24  25
ENDBRANCH   1  24
TORSDOF 17
ENDMDL
MODEL 2
REMARK VINA RESULT:     -11.6      1.749      2.361
REMARK SMILES CN(CC(F)(F)F)C(=O)N1CC(n2cc(C(=O)NCCCNC(=O)c3ccc(-c4c5nc(c(-c6c(F)cc(S(=O)(=O)[O-])cc6F)c6ccc([nH]6)c(-c6c(F)cc(S(=O)(=O)[O-])cc6F)c6nc(c(-c7c(F)cc(S(=O)(=O)[O-])cc7F)c7ccc4[nH]7)C=C6)C=C5)cc3)nn2)C1
REMARK SMILES IDX 19 1 18 2 16 3 17 4 15 6 13 7 14 8 92 9 91 10 12 11 8 12
REMARK SMILES IDX 9 13 10 14 11 15 93 16 2 17 1 18 3 19 4 20 5 21 6 22 7 23
REMARK SMILES IDX 20 24 21 25 22 26 23 27 24 29 25 30 26 31 90 32 27 33 89 34
REMARK SMILES IDX 28 35 29 36 30 37 83 38 31 39 88 40 82 41 84 42 32 43 87 44
REMARK SMILES IDX 81 45 80 46 33 48 67 49 46 50 66 51 47 52 50 53 65 54 85 55
REMARK SMILES IDX 48 56 49 57 64 59 86 60 51 61 34 62 35 63 44 64 36 65 37 66
REMARK SMILES IDX 43 67 45 68 38 69 39 70 40 71 41 72 42 73 68 74 69 75 78 76
REMARK SMILES IDX 70 77 71 78 77 79 79 80 72 81 73 82 74 83 75 84 76 85 52 86
REMARK SMILES IDX 53 87 62 88 54 89 55 90 61 91 63 92 56 93 57 94 58 95 59 96
REMARK SMILES IDX 60 97
REMARK H PARENT 18 5 22 28 84 47 50 58
REMARK Flexibility Score: inf
ROOT
ATOM      1  C   UNL A   1      35.839  21.702  25.093  1.00  0.00     0.118 C 
ENDROOT
BRANCH   1   2
ATOM      2  N   UNL A   1      34.911  20.704  25.612  1.00  0.00    -0.351 N 
ATOM      3  C   UNL A   1      33.575  20.509  25.350  1.00  0.00     0.273 C 
ATOM      4  O   UNL A   1      33.063  19.455  25.747  1.00  0.00    -0.267 OA
ATOM      5  H   UNL A   1      35.304  20.070  26.255  1.00  0.00     0.163 HD
BRANCH   3   6
ATOM      6  C   UNL A   1      32.818  21.493  24.593  1.00  0.00     0.170 A 
ATOM      7  N   UNL A   1      31.700  23.214  23.893  1.00  0.00    -0.245 N 
ATOM      8  C   UNL A   1      32.090  22.581  25.036  1.00  0.00     0.145 A 
ATOM      9  N   UNL A   1      32.078  22.534  22.804  1.00  0.00    -0.066 NA
ATOM     10  N   UNL A   1      32.730  21.456  23.218  1.00  0.00    -0.125 NA
BRANCH   7  11
ATOM     11  C   UNL A   1      31.121  24.518  23.890  1.00  0.00     0.148 C 
ATOM     12  C   UNL A   1      31.340  27.708  23.436  1.00  0.00     0.320 C 
ATOM     13  O   UNL A   1      30.299  28.040  22.869  1.00  0.00    -0.248 OA
ATOM     14  N   UNL A   1      31.777  26.414  23.406  1.00  0.00    -0.320 N 
ATOM     15  C   UNL A   1      31.229  25.319  22.595  1.00  0.00     0.150 C 
ATOM     16  C   UNL A   1      32.095  25.530  24.520  1.00  0.00     0.150 C 
BRANCH  12  17
ATOM     17  N   UNL A   1      32.138  28.634  24.088  1.00  0.00    -0.319 N 
ATOM     18  C   UNL A   1      33.499  28.781  23.596  1.00  0.00     0.149 C 
BRANCH  17  19
ATOM     19  C   UNL A   1      31.794  29.340  25.338  1.00  0.00     0.236 C 
BRANCH  19  20
ATOM     20  C   UNL A   1      32.071  28.574  26.635  1.00  0.00     0.406 C 
ATOM     21  F   UNL A   1      33.198  27.838  26.571  1.00  0.00    -0.169 F 
ATOM     22  F   UNL A   1      32.218  29.441  27.665  1.00  0.00    -0.169 F 
ATOM     23  F   UNL A   1      31.052  27.743  26.952  1.00  0.00    -0.169 F 
ENDBRANCH  19  20
ENDBRANCH  17  19
ENDBRANCH  12  17
ENDBRANCH   7  11
ENDBRANCH   3   6
ENDBRANCH   1   2
BRANCH   1  24
ATOM     24  C   UNL A   1      36.813  22.224  26.156  1.00  0.00     0.042 C 
BRANCH  24  25
ATOM     25  C   UNL A   1      38.122  22.688  25.544  1.00  0.00     0.118 C 
BRANCH  25  26
ATOM     26  N   UNL A   1      39.308  22.009  26.095  1.00  0.00    -0.352 N 
ATOM     27  C   UNL A   1      40.440  22.568  26.682  1.00  0.00     0.251 C 
ATOM     28  H   UNL A   1      39.299  21.027  26.041  1.00  0.00     0.163 HD
ATOM     29  O   UNL A   1      41.472  21.913  26.788  1.00  0.00    -0.269 OA
BRANCH  27  30
ATOM     30  C   UNL A   1      40.373  23.960  27.166  1.00  0.00     0.039 A 
ATOM     31  C   UNL A   1      39.215  24.739  27.183  1.00  0.00     0.014 A 
ATOM     32  C   UNL A   1      41.549  24.468  27.686  1.00  0.00     0.014 A 
ATOM     33  C   UNL A   1      39.284  26.003  27.775  1.00  0.00     0.010 A 
ATOM     34  C   UNL A   1      41.490  25.464  28.601  1.00  0.00     0.010 A 
ATOM     35  C   UNL A   1      40.444  26.350  28.485  1.00  0.00    -0.014 A 
BRANCH  35  36
ATOM     36  C   UNL A   1      40.646  27.624  29.153  1.00  0.00     0.031 A 
ATOM     37  C   UNL A   1      41.701  28.458  28.540  1.00  0.00     0.074 A 
ATOM     38  C   UNL A   1      39.781  28.106  30.078  1.00  0.00     0.049 A 
ATOM     39  N   UNL A   1      42.882  28.690  29.000  1.00  0.00    -0.248 NA
ATOM     40  C   UNL A   1      41.491  28.934  27.164  1.00  0.00     0.031 C 
ATOM     41  C   UNL A   1      38.490  27.566  30.534  1.00  0.00     0.029 A 
ATOM     42  N   UNL A   1      39.857  29.275  30.764  1.00  0.00    -0.354 N 
ATOM     43  C   UNL A   1      43.488  29.538  28.080  1.00  0.00     0.074 A 
ATOM     44  C   UNL A   1      42.681  29.473  26.890  1.00  0.00     0.031 C 
ATOM     45  C   UNL A   1      37.817  28.506  31.237  1.00  0.00     0.029 A 
ATOM     46  C   UNL A   1      38.696  29.640  31.441  1.00  0.00     0.049 A 
ATOM     47  H   UNL A   1      40.673  29.825  30.782  1.00  0.00     0.167 HD
ATOM     48  C   UNL A   1      44.478  30.394  28.460  1.00  0.00     0.037 A 
ATOM     49  C   UNL A   1      38.490  30.810  32.101  1.00  0.00     0.037 A 
ATOM     50  C   UNL A   1      44.954  30.068  29.783  1.00  0.00     0.049 A 
ATOM     51  C   UNL A   1      39.841  31.375  32.379  1.00  0.00     0.074 A 
ATOM     52  C   UNL A   1      45.565  28.962  30.341  1.00  0.00     0.029 A 
ATOM     53  N   UNL A   1      44.434  30.781  30.840  1.00  0.00    -0.354 N 
ATOM     54  N   UNL A   1      40.713  30.804  33.168  1.00  0.00    -0.248 NA
ATOM     55  C   UNL A   1      40.402  32.281  31.386  1.00  0.00     0.031 C 
ATOM     56  C   UNL A   1      44.955  28.812  31.622  1.00  0.00     0.029 A 
ATOM     57  C   UNL A   1      44.073  29.879  31.812  1.00  0.00     0.049 A 
ATOM     58  H   UNL A   1      44.338  31.760  30.891  1.00  0.00     0.167 HD
ATOM     59  C   UNL A   1      41.936  30.950  32.524  1.00  0.00     0.074 A 
ATOM     60  C   UNL A   1      41.686  31.919  31.457  1.00  0.00     0.031 C 
ATOM     61  C   UNL A   1      42.957  30.062  32.720  1.00  0.00     0.037 A 
BRANCH  48  62
ATOM     62  C   UNL A   1      44.785  31.714  27.800  1.00  0.00     0.058 A 
ATOM     63  C   UNL A   1      45.977  31.847  27.057  1.00  0.00     0.135 A 
ATOM     64  C   UNL A   1      44.103  32.921  28.074  1.00  0.00     0.135 A 
ATOM     65  F   UNL A   1      46.705  30.767  26.732  1.00  0.00    -0.206 F 
ATOM     66  C   UNL A   1      46.493  33.088  26.687  1.00  0.00     0.059 A 
ATOM     67  C   UNL A   1      44.572  34.165  27.666  1.00  0.00     0.059 A 
ATOM     68  F   UNL A   1      43.001  32.967  28.831  1.00  0.00    -0.206 F 
ATOM     69  C   UNL A   1      45.790  34.243  27.013  1.00  0.00     0.060 A 
BRANCH  69  70
ATOM     70  S   UNL A   1      46.509  35.850  26.636  1.00  0.00     0.124 S 
ATOM     71  O   UNL A   1      47.274  36.118  27.847  1.00  0.00    -0.237 OA
ATOM     72  O   UNL A   1      47.288  35.557  25.437  1.00  0.00    -0.237 OA
ATOM     73  O   UNL A   1      45.340  36.699  26.425  1.00  0.00    -0.744 OA
ENDBRANCH  69  70
ENDBRANCH  48  62
BRANCH  49  74
ATOM     74  C   UNL A   1      37.245  31.628  32.137  1.00  0.00     0.058 A 
ATOM     75  C   UNL A   1      36.728  32.130  33.346  1.00  0.00     0.135 A 
ATOM     76  C   UNL A   1      36.699  32.176  30.959  1.00  0.00     0.135 A 
ATOM     77  F   UNL A   1      37.203  31.681  34.518  1.00  0.00    -0.206 F 
ATOM     78  C   UNL A   1      35.765  33.148  33.384  1.00  0.00     0.059 A 
ATOM     79  C   UNL A   1      35.737  33.186  30.970  1.00  0.00     0.059 A 
ATOM     80  F   UNL A   1      37.158  31.809  29.752  1.00  0.00    -0.206 F 
ATOM     81  C   UNL A   1      35.292  33.687  32.188  1.00  0.00     0.060 A 
BRANCH  81  82
ATOM     82  S   UNL A   1      34.189  35.124  32.229  1.00  0.00     0.124 S 
ATOM     83  O   UNL A   1      32.977  34.559  32.810  1.00  0.00    -0.237 OA
ATOM     84  O   UNL A   1      34.928  36.055  33.075  1.00  0.00    -0.237 OA
ATOM     85  O   UNL A   1      34.087  35.513  30.824  1.00  0.00    -0.744 OA
ENDBRANCH  81  82
ENDBRANCH  49  74
BRANCH  61  86
ATOM     86  C   UNL A   1      42.831  29.049  33.834  1.00  0.00     0.058 A 
ATOM     87  C   UNL A   1      43.065  29.322  35.195  1.00  0.00     0.135 A 
ATOM     88  C   UNL A   1      42.267  27.801  33.527  1.00  0.00     0.135 A 
ATOM     89  F   UNL A   1      43.510  30.522  35.590  1.00  0.00    -0.206 F 
ATOM     90  C   UNL A   1      42.779  28.391  36.199  1.00  0.00     0.059 A 
ATOM     91  C   UNL A   1      41.946  26.869  34.512  1.00  0.00     0.059 A 
ATOM     92  F   UNL A   1      41.960  27.500  32.256  1.00  0.00    -0.206 F 
ATOM     93  C   UNL A   1      42.215  27.166  35.846  1.00  0.00     0.060 A 
BRANCH  93  94
ATOM     94  S   UNL A   1      41.767  25.992  37.145  1.00  0.00     0.124 S 
ATOM     95  O   UNL A   1      42.789  26.246  38.153  1.00  0.00    -0.237 OA
ATOM     96  O   UNL A   1      40.412  26.409  37.497  1.00  0.00    -0.237 OA
ATOM     97  O   UNL A   1      41.856  24.695  36.478  1.00  0.00    -0.744 OA
ENDBRANCH  93  94
ENDBRANCH  61  86
ENDBRANCH  35  36
ENDBRANCH  27  30
ENDBRANCH  25  26
ENDBRANCH  24  25
ENDBRANCH   1  24
TORSDOF 17
ENDMDL
MODEL 3
REMARK VINA RESULT:     -11.5      3.001      4.327
REMARK SMILES CN(CC(F)(F)F)C(=O)N1CC(n2cc(C(=O)NCCCNC(=O)c3ccc(-c4c5nc(c(-c6c(F)cc(S(=O)(=O)[O-])cc6F)c6ccc([nH]6)c(-c6c(F)cc(S(=O)(=O)[O-])cc6F)c6nc(c(-c7c(F)cc(S(=O)(=O)[O-])cc7F)c7ccc4[nH]7)C=C6)C=C5)cc3)nn2)C1
REMARK SMILES IDX 19 1 18 2 16 3 17 4 15 6 13 7 14 8 92 9 91 10 12 11 8 12
REMARK SMILES IDX 9 13 10 14 11 15 93 16 2 17 1 18 3 19 4 20 5 21 6 22 7 23
REMARK SMILES IDX 20 24 21 25 22 26 23 27 24 29 25 30 26 31 90 32 27 33 89 34
REMARK SMILES IDX 28 35 29 36 30 37 83 38 31 39 88 40 82 41 84 42 32 43 87 44
REMARK SMILES IDX 81 45 80 46 33 48 67 49 46 50 66 51 47 52 50 53 65 54 85 55
REMARK SMILES IDX 48 56 49 57 64 59 86 60 51 61 34 62 35 63 44 64 36 65 37 66
REMARK SMILES IDX 43 67 45 68 38 69 39 70 40 71 41 72 42 73 68 74 69 75 78 76
REMARK SMILES IDX 70 77 71 78 77 79 79 80 72 81 73 82 74 83 75 84 76 85 52 86
REMARK SMILES IDX 53 87 62 88 54 89 55 90 61 91 63 92 56 93 57 94 58 95 59 96
REMARK SMILES IDX 60 97
REMARK H PARENT 18 5 22 28 84 47 50 58
REMARK Flexibility Score: inf
ROOT
ATOM      1  C   UNL A   1      42.418  18.843  26.683  1.00  0.00     0.118 C 
ENDROOT
BRANCH   1   2
ATOM      2  N   UNL A   1      42.654  20.155  27.273  1.00  0.00    -0.351 N 
ATOM      3  C   UNL A   1      41.812  21.234  27.413  1.00  0.00     0.273 C 
ATOM      4  O   UNL A   1      42.182  22.156  28.149  1.00  0.00    -0.267 OA
ATOM      5  H   UNL A   1      43.563  20.291  27.626  1.00  0.00     0.163 HD
BRANCH   3   6
ATOM      6  C   UNL A   1      40.518  21.253  26.751  1.00  0.00     0.170 A 
ATOM      7  N   UNL A   1      38.626  21.774  25.828  1.00  0.00    -0.245 N 
ATOM      8  C   UNL A   1      39.582  22.266  26.667  1.00  0.00     0.145 A 
ATOM      9  N   UNL A   1      38.890  20.511  25.473  1.00  0.00    -0.066 NA
ATOM     10  N   UNL A   1      40.026  20.164  26.063  1.00  0.00    -0.125 NA
BRANCH   7  11
ATOM     11  C   UNL A   1      37.587  22.584  25.280  1.00  0.00     0.148 C 
ATOM     12  C   UNL A   1      34.686  23.988  25.492  1.00  0.00     0.320 C 
ATOM     13  O   UNL A   1      34.821  25.113  25.010  1.00  0.00    -0.248 OA
ATOM     14  N   UNL A   1      35.765  23.285  25.950  1.00  0.00    -0.320 N 
ATOM     15  C   UNL A   1      37.137  23.784  26.110  1.00  0.00     0.150 C 
ATOM     16  C   UNL A   1      36.214  21.951  25.570  1.00  0.00     0.150 C 
BRANCH  12  17
ATOM     17  N   UNL A   1      33.439  23.404  25.639  1.00  0.00    -0.319 N 
ATOM     18  C   UNL A   1      33.113  22.885  26.958  1.00  0.00     0.149 C 
BRANCH  17  19
ATOM     19  C   UNL A   1      32.496  23.100  24.544  1.00  0.00     0.236 C 
BRANCH  19  20
ATOM     20  C   UNL A   1      33.005  22.128  23.476  1.00  0.00     0.406 C 
ATOM     21  F   UNL A   1      32.041  21.761  22.608  1.00  0.00    -0.169 F 
ATOM     22  F   UNL A   1      33.993  22.707  22.752  1.00  0.00    -0.169 F 
ATOM     23  F   UNL A   1      33.516  21.004  24.026  1.00  0.00    -0.169 F 
ENDBRANCH  19  20
ENDBRANCH  17  19
ENDBRANCH  12  17
ENDBRANCH   7  11
ENDBRANCH   3   6
ENDBRANCH   1   2
BRANCH   1  24
ATOM     24  C   UNL A   1      43.489  18.446  25.659  1.00  0.00     0.042 C 
BRANCH  24  25
ATOM     25  C   UNL A   1      44.615  19.460  25.598  1.00  0.00     0.118 C 
BRANCH  25  26
ATOM     26  N   UNL A   1      44.814  20.046  24.260  1.00  0.00    -0.352 N 
ATOM     27  C   UNL A   1      44.567  21.347  23.831  1.00  0.00     0.251 C 
ATOM     28  H   UNL A   1      45.171  19.433  23.578  1.00  0.00     0.163 HD
ATOM     29  O   UNL A   1      44.466  21.596  22.634  1.00  0.00    -0.269 OA
BRANCH  27  30
ATOM     30  C   UNL A   1      44.425  22.411  24.842  1.00  0.00     0.039 A 
ATOM     31  C   UNL A   1      45.300  22.611  25.912  1.00  0.00     0.014 A 
ATOM     32  C   UNL A   1      43.373  23.285  24.644  1.00  0.00     0.014 A 
ATOM     33  C   UNL A   1      45.097  23.731  26.723  1.00  0.00     0.010 A 
ATOM     34  C   UNL A   1      43.453  24.540  25.149  1.00  0.00     0.010 A 
ATOM     35  C   UNL A   1      44.157  24.692  26.320  1.00  0.00    -0.014 A 
BRANCH  35  36
ATOM     36  C   UNL A   1      43.852  25.902  27.062  1.00  0.00     0.031 A 
ATOM     37  C   UNL A   1      44.803  27.007  26.818  1.00  0.00     0.074 A 
ATOM     38  C   UNL A   1      42.674  26.084  27.707  1.00  0.00     0.049 A 
ATOM     39  N   UNL A   1      45.717  27.444  27.615  1.00  0.00    -0.248 NA
ATOM     40  C   UNL A   1      44.877  27.566  25.459  1.00  0.00     0.031 C 
ATOM     41  C   UNL A   1      41.475  25.229  27.741  1.00  0.00     0.029 A 
ATOM     42  N   UNL A   1      42.271  27.163  28.426  1.00  0.00    -0.354 N 
ATOM     43  C   UNL A   1      46.333  28.495  26.946  1.00  0.00     0.074 A 
ATOM     44  C   UNL A   1      45.929  28.379  25.569  1.00  0.00     0.031 C 
ATOM     45  C   UNL A   1      40.428  25.920  28.247  1.00  0.00     0.029 A 
ATOM     46  C   UNL A   1      40.916  27.192  28.742  1.00  0.00     0.049 A 
ATOM     47  H   UNL A   1      42.893  27.874  28.704  1.00  0.00     0.167 HD
ATOM     48  C   UNL A   1      46.941  29.503  27.631  1.00  0.00     0.037 A 
ATOM     49  C   UNL A   1      40.259  28.212  29.353  1.00  0.00     0.037 A 
ATOM     50  C   UNL A   1      47.093  29.155  29.024  1.00  0.00     0.049 A 
ATOM     51  C   UNL A   1      41.301  29.029  30.037  1.00  0.00     0.074 A 
ATOM     52  C   UNL A   1      47.772  28.157  29.698  1.00  0.00     0.029 A 
ATOM     53  N   UNL A   1      46.144  29.622  29.904  1.00  0.00    -0.354 N 
ATOM     54  N   UNL A   1      42.030  28.585  31.028  1.00  0.00    -0.248 NA
ATOM     55  C   UNL A   1      41.882  30.134  29.287  1.00  0.00     0.031 C 
ATOM     56  C   UNL A   1      46.883  27.745  30.735  1.00  0.00     0.029 A 
ATOM     57  C   UNL A   1      45.754  28.566  30.693  1.00  0.00     0.049 A 
ATOM     58  H   UNL A   1      45.805  30.545  29.959  1.00  0.00     0.167 HD
ATOM     59  C   UNL A   1      43.311  29.061  30.779  1.00  0.00     0.074 A 
ATOM     60  C   UNL A   1      43.143  30.057  29.722  1.00  0.00     0.031 C 
ATOM     61  C   UNL A   1      44.420  28.404  31.237  1.00  0.00     0.037 A 
BRANCH  48  62
ATOM     62  C   UNL A   1      47.094  30.920  27.139  1.00  0.00     0.058 A 
ATOM     63  C   UNL A   1      48.373  31.515  27.151  1.00  0.00     0.135 A 
ATOM     64  C   UNL A   1      46.016  31.803  26.903  1.00  0.00     0.135 A 
ATOM     65  F   UNL A   1      49.471  30.772  27.359  1.00  0.00    -0.206 F 
ATOM     66  C   UNL A   1      48.559  32.891  27.020  1.00  0.00     0.059 A 
ATOM     67  C   UNL A   1      46.185  33.170  26.715  1.00  0.00     0.059 A 
ATOM     68  F   UNL A   1      44.740  31.404  26.937  1.00  0.00    -0.206 F 
ATOM     69  C   UNL A   1      47.455  33.712  26.820  1.00  0.00     0.060 A 
BRANCH  69  70
ATOM     70  S   UNL A   1      47.680  35.497  26.764  1.00  0.00     0.124 S 
ATOM     71  O   UNL A   1      47.394  35.870  28.144  1.00  0.00    -0.237 OA
ATOM     72  O   UNL A   1      49.074  35.611  26.346  1.00  0.00    -0.237 OA
ATOM     73  O   UNL A   1      46.697  35.929  25.775  1.00  0.00    -0.744 OA
ENDBRANCH  69  70
ENDBRANCH  48  62
BRANCH  49  74
ATOM     74  C   UNL A   1      38.895  28.729  29.049  1.00  0.00     0.058 A 
ATOM     75  C   UNL A   1      37.929  28.899  30.058  1.00  0.00     0.135 A 
ATOM     76  C   UNL A   1      38.606  29.338  27.810  1.00  0.00     0.135 A 
ATOM     77  F   UNL A   1      38.129  28.371  31.275  1.00  0.00    -0.206 F 
ATOM     78  C   UNL A   1      36.772  29.667  29.867  1.00  0.00     0.059 A 
ATOM     79  C   UNL A   1      37.460  30.104  27.594  1.00  0.00     0.059 A 
ATOM     80  F   UNL A   1      39.483  29.285  26.796  1.00  0.00    -0.206 F 
ATOM     81  C   UNL A   1      36.558  30.286  28.636  1.00  0.00     0.060 A 
BRANCH  81  82
ATOM     82  S   UNL A   1      35.165  31.428  28.439  1.00  0.00     0.124 S 
ATOM     83  O   UNL A   1      34.161  30.576  27.812  1.00  0.00    -0.237 OA
ATOM     84  O   UNL A   1      34.893  31.824  29.817  1.00  0.00    -0.237 OA
ATOM     85  O   UNL A   1      35.709  32.484  27.588  1.00  0.00    -0.744 OA
ENDBRANCH  81  82
ENDBRANCH  49  74
BRANCH  61  86
ATOM     86  C   UNL A   1      44.235  27.278  32.227  1.00  0.00     0.058 A 
ATOM     87  C   UNL A   1      44.187  25.913  31.887  1.00  0.00     0.135 A 
ATOM     88  C   UNL A   1      44.296  27.587  33.594  1.00  0.00     0.135 A 
ATOM     89  F   UNL A   1      44.225  25.519  30.608  1.00  0.00    -0.206 F 
ATOM     90  C   UNL A   1      44.174  24.906  32.859  1.00  0.00     0.059 A 
ATOM     91  C   UNL A   1      44.313  26.602  34.578  1.00  0.00     0.059 A 
ATOM     92  F   UNL A   1      44.405  28.866  33.987  1.00  0.00    -0.206 F 
ATOM     93  C   UNL A   1      44.241  25.262  34.204  1.00  0.00     0.060 A 
BRANCH  93  94
ATOM     94  S   UNL A   1      44.308  23.964  35.460  1.00  0.00     0.124 S 
ATOM     95  O   UNL A   1      45.625  23.381  35.228  1.00  0.00    -0.237 OA
ATOM     96  O   UNL A   1      44.158  24.716  36.704  1.00  0.00    -0.237 OA
ATOM     97  O   UNL A   1      43.175  23.105  35.123  1.00  0.00    -0.744 OA
ENDBRANCH  93  94
ENDBRANCH  61  86
ENDBRANCH  35  36
ENDBRANCH  27  30
ENDBRANCH  25  26
ENDBRANCH  24  25
ENDBRANCH   1  24
TORSDOF 17
ENDMDL
