MODEL 1
REMARK VINA RESULT:     -11.9      0.000      0.000
REMARK SMILES NS(=O)(=O)CCNC(=O)N1[C@@H]2CC[C@H]1C[C@H](CC(=O)NCCCNC(=O)c1ccc(-c3c4nc(c(-c5c(F)cc(S(=O)(=O)[O-])cc5F)c5ccc([nH]5)c(-c5c(F)cc(S(=O)(=O)[O-])cc5F)c5nc(c(-c6c(F)cc(S(=O)(=O)[O-])cc6F)c6ccc3[nH]6)C=C5)C=C4)cc1)C2
REMARK SMILES IDX 18 1 19 2 20 3 17 5 16 6 10 7 11 8 14 9 12 10 93 11 13 12
REMARK SMILES IDX 15 13 8 14 7 15 9 17 6 18 5 19 2 20 3 21 4 22 1 23 21 26
REMARK SMILES IDX 22 27 23 28 24 29 25 30 26 32 27 33 28 34 92 35 29 36 91 37
REMARK SMILES IDX 30 38 31 39 32 40 85 41 33 42 90 43 84 44 86 45 34 46 89 47
REMARK SMILES IDX 83 48 82 49 35 51 69 52 48 53 68 54 49 55 52 56 67 57 87 58
REMARK SMILES IDX 50 59 51 60 66 62 88 63 53 64 36 65 37 66 46 67 38 68 39 69
REMARK SMILES IDX 45 70 47 71 40 72 41 73 42 74 43 75 44 76 70 77 71 78 80 79
REMARK SMILES IDX 72 80 73 81 79 82 81 83 74 84 75 85 76 86 77 87 78 88 54 89
REMARK SMILES IDX 55 90 64 91 56 92 57 93 63 94 65 95 58 96 59 97 60 98 61 99
REMARK SMILES IDX 62 100
REMARK H PARENT 20 4 7 16 1 24 1 25 24 31 86 50 52 61
REMARK Flexibility Score: inf
ROOT
ATOM      1  C   UNL A   1      34.526  22.884  26.617  1.00  0.00     0.220 C 
ATOM      2  O   UNL A   1      33.907  22.111  27.354  1.00  0.00    -0.275 OA
ATOM      3  N   UNL A   1      35.878  22.970  26.796  1.00  0.00    -0.356 N 
ATOM      4  H   UNL A   1      36.206  22.455  27.569  1.00  0.00     0.163 HD
ENDROOT
BRANCH   1   5
ATOM      5  C   UNL A   1      33.775  23.707  25.572  1.00  0.00     0.103 C 
BRANCH   5   6
ATOM      6  C   UNL A   1      33.249  25.060  26.111  1.00  0.00     0.002 C 
ATOM      7  N   UNL A   1      31.739  27.120  24.800  1.00  0.00    -0.319 N 
ATOM      8  C   UNL A   1      31.164  26.579  26.020  1.00  0.00     0.087 C 
ATOM      9  C   UNL A   1      33.094  27.487  25.140  1.00  0.00     0.087 C 
ATOM     10  C   UNL A   1      31.721  27.495  27.122  1.00  0.00     0.027 C 
ATOM     11  C   UNL A   1      31.699  25.132  26.126  1.00  0.00     0.029 C 
ATOM     12  C   UNL A   1      32.958  28.156  26.505  1.00  0.00     0.027 C 
ATOM     13  C   UNL A   1      33.878  26.190  25.286  1.00  0.00     0.029 C 
BRANCH   7  14
ATOM     14  C   UNL A   1      31.010  27.298  23.672  1.00  0.00     0.317 C 
ATOM     15  N   UNL A   1      30.168  28.345  23.527  1.00  0.00    -0.337 N 
ATOM     16  H   UNL A   1      29.342  28.135  23.035  1.00  0.00     0.165 HD
ATOM     17  O   UNL A   1      31.106  26.536  22.707  1.00  0.00    -0.249 OA
BRANCH  15  18
ATOM     18  C   UNL A   1      30.265  29.730  23.970  1.00  0.00     0.135 C 
BRANCH  18  19
ATOM     19  C   UNL A   1      29.058  30.561  23.558  1.00  0.00     0.175 C 
BRANCH  19  20
ATOM     20  S   UNL A   1      28.905  30.759  21.788  1.00  0.00     0.210 S 
ATOM     21  O   UNL A   1      28.860  32.165  21.477  1.00  0.00    -0.213 OA
ATOM     22  O   UNL A   1      27.907  29.841  21.284  1.00  0.00    -0.213 OA
BRANCH  20  23
ATOM     23  N   UNL A   1      30.369  30.214  21.201  1.00  0.00    -0.229 NA
ATOM     24  H   UNL A   1      30.447  29.210  21.361  1.00  0.00     0.137 HD
ATOM     25  H   UNL A   1      31.129  30.694  21.684  1.00  0.00     0.137 HD
ENDBRANCH  20  23
ENDBRANCH  19  20
ENDBRANCH  18  19
ENDBRANCH  15  18
ENDBRANCH   7  14
ENDBRANCH   5   6
ENDBRANCH   1   5
BRANCH   3  26
ATOM     26  C   UNL A   1      36.934  23.671  26.072  1.00  0.00     0.117 C 
BRANCH  26  27
ATOM     27  C   UNL A   1      38.263  22.900  26.017  1.00  0.00     0.042 C 
BRANCH  27  28
ATOM     28  C   UNL A   1      39.390  23.489  26.851  1.00  0.00     0.118 C 
BRANCH  28  29
ATOM     29  N   UNL A   1      40.354  24.175  26.011  1.00  0.00    -0.352 N 
ATOM     30  C   UNL A   1      40.855  25.452  26.109  1.00  0.00     0.251 C 
ATOM     31  H   UNL A   1      40.704  23.646  25.259  1.00  0.00     0.163 HD
ATOM     32  O   UNL A   1      41.407  25.943  25.127  1.00  0.00    -0.269 OA
BRANCH  30  33
ATOM     33  C   UNL A   1      40.728  26.247  27.358  1.00  0.00     0.039 A 
ATOM     34  C   UNL A   1      41.640  27.284  27.590  1.00  0.00     0.014 A 
ATOM     35  C   UNL A   1      39.771  25.950  28.333  1.00  0.00     0.014 A 
ATOM     36  C   UNL A   1      41.553  28.052  28.757  1.00  0.00     0.010 A 
ATOM     37  C   UNL A   1      39.637  26.764  29.461  1.00  0.00     0.010 A 
ATOM     38  C   UNL A   1      40.524  27.826  29.686  1.00  0.00    -0.014 A 
BRANCH  38  39
ATOM     39  C   UNL A   1      40.343  28.713  30.869  1.00  0.00     0.031 A 
ATOM     40  C   UNL A   1      39.301  29.802  30.866  1.00  0.00     0.074 A 
ATOM     41  C   UNL A   1      41.174  28.581  31.924  1.00  0.00     0.049 A 
ATOM     42  N   UNL A   1      39.060  30.715  31.773  1.00  0.00    -0.248 NA
ATOM     43  C   UNL A   1      38.430  29.893  29.682  1.00  0.00     0.031 C 
ATOM     44  C   UNL A   1      42.254  27.597  32.029  1.00  0.00     0.029 A 
ATOM     45  N   UNL A   1      41.257  29.284  33.101  1.00  0.00    -0.354 N 
ATOM     46  C   UNL A   1      38.026  31.496  31.267  1.00  0.00     0.074 A 
ATOM     47  C   UNL A   1      37.707  30.972  29.956  1.00  0.00     0.031 C 
ATOM     48  C   UNL A   1      42.884  27.754  33.203  1.00  0.00     0.029 A 
ATOM     49  C   UNL A   1      42.289  28.878  33.916  1.00  0.00     0.049 A 
ATOM     50  H   UNL A   1      40.636  30.010  33.340  1.00  0.00     0.167 HD
ATOM     51  C   UNL A   1      37.396  32.544  31.848  1.00  0.00     0.037 A 
ATOM     52  C   UNL A   1      42.731  29.372  35.091  1.00  0.00     0.037 A 
ATOM     53  C   UNL A   1      37.699  33.040  33.167  1.00  0.00     0.049 A 
ATOM     54  C   UNL A   1      42.019  30.547  35.706  1.00  0.00     0.074 A 
ATOM     55  C   UNL A   1      37.052  34.035  33.879  1.00  0.00     0.029 A 
ATOM     56  N   UNL A   1      38.743  32.594  33.965  1.00  0.00    -0.354 N 
ATOM     57  N   UNL A   1      40.977  31.205  35.256  1.00  0.00    -0.248 NA
ATOM     58  C   UNL A   1      42.539  31.048  36.986  1.00  0.00     0.031 C 
ATOM     59  C   UNL A   1      37.743  34.238  35.077  1.00  0.00     0.029 A 
ATOM     60  C   UNL A   1      38.786  33.327  35.140  1.00  0.00     0.049 A 
ATOM     61  H   UNL A   1      39.360  31.864  33.731  1.00  0.00     0.167 HD
ATOM     62  C   UNL A   1      40.713  32.190  36.202  1.00  0.00     0.074 A 
ATOM     63  C   UNL A   1      41.683  32.022  37.263  1.00  0.00     0.031 C 
ATOM     64  C   UNL A   1      39.759  33.152  36.188  1.00  0.00     0.037 A 
BRANCH  51  65
ATOM     65  C   UNL A   1      36.309  33.245  31.077  1.00  0.00     0.058 A 
ATOM     66  C   UNL A   1      34.959  33.156  31.450  1.00  0.00     0.135 A 
ATOM     67  C   UNL A   1      36.637  34.099  30.010  1.00  0.00     0.135 A 
ATOM     68  F   UNL A   1      34.587  32.345  32.454  1.00  0.00    -0.206 F 
ATOM     69  C   UNL A   1      33.973  33.882  30.791  1.00  0.00     0.059 A 
ATOM     70  C   UNL A   1      35.670  34.856  29.353  1.00  0.00     0.059 A 
ATOM     71  F   UNL A   1      37.912  34.221  29.610  1.00  0.00    -0.206 F 
ATOM     72  C   UNL A   1      34.338  34.736  29.749  1.00  0.00     0.060 A 
BRANCH  72  73
ATOM     73  S   UNL A   1      33.050  35.707  28.938  1.00  0.00     0.124 S 
ATOM     74  O   UNL A   1      32.441  34.709  28.063  1.00  0.00    -0.237 OA
ATOM     75  O   UNL A   1      32.233  36.143  30.065  1.00  0.00    -0.237 OA
ATOM     76  O   UNL A   1      33.794  36.763  28.259  1.00  0.00    -0.744 OA
ENDBRANCH  72  73
ENDBRANCH  51  65
BRANCH  52  77
ATOM     77  C   UNL A   1      43.928  28.779  35.749  1.00  0.00     0.058 A 
ATOM     78  C   UNL A   1      43.810  27.722  36.663  1.00  0.00     0.135 A 
ATOM     79  C   UNL A   1      45.217  29.271  35.487  1.00  0.00     0.135 A 
ATOM     80  F   UNL A   1      42.600  27.220  36.955  1.00  0.00    -0.206 F 
ATOM     81  C   UNL A   1      44.919  27.195  37.317  1.00  0.00     0.059 A 
ATOM     82  C   UNL A   1      46.346  28.739  36.102  1.00  0.00     0.059 A 
ATOM     83  F   UNL A   1      45.391  30.270  34.606  1.00  0.00    -0.206 F 
ATOM     84  C   UNL A   1      46.184  27.712  37.029  1.00  0.00     0.060 A 
BRANCH  84  85
ATOM     85  S   UNL A   1      47.620  27.008  37.869  1.00  0.00     0.124 S 
ATOM     86  O   UNL A   1      48.692  27.870  37.386  1.00  0.00    -0.237 OA
ATOM     87  O   UNL A   1      47.257  27.165  39.274  1.00  0.00    -0.237 OA
ATOM     88  O   UNL A   1      47.649  25.631  37.385  1.00  0.00    -0.744 OA
ENDBRANCH  84  85
ENDBRANCH  52  77
BRANCH  64  89
ATOM     89  C   UNL A   1      39.710  34.101  37.354  1.00  0.00     0.058 A 
ATOM     90  C   UNL A   1      40.385  35.332  37.325  1.00  0.00     0.135 A 
ATOM     91  C   UNL A   1      38.928  33.810  38.484  1.00  0.00     0.135 A 
ATOM     92  F   UNL A   1      41.154  35.656  36.274  1.00  0.00    -0.206 F 
ATOM     93  C   UNL A   1      40.296  36.236  38.379  1.00  0.00     0.059 A 
ATOM     94  C   UNL A   1      38.799  34.711  39.536  1.00  0.00     0.059 A 
ATOM     95  F   UNL A   1      38.256  32.650  38.560  1.00  0.00    -0.206 F 
ATOM     96  C   UNL A   1      39.494  35.919  39.477  1.00  0.00     0.060 A 
BRANCH  96  97
ATOM     97  S   UNL A   1      39.346  37.126  40.811  1.00  0.00     0.124 S 
ATOM     98  O   UNL A   1      38.830  36.302  41.899  1.00  0.00    -0.237 OA
ATOM     99  O   UNL A   1      40.720  37.591  40.964  1.00  0.00    -0.237 OA
ATOM    100  O   UNL A   1      38.413  38.113  40.275  1.00  0.00    -0.744 OA
ENDBRANCH  96  97
ENDBRANCH  64  89
ENDBRANCH  38  39
ENDBRANCH  30  33
ENDBRANCH  28  29
ENDBRANCH  27  28
ENDBRANCH  26  27
ENDBRANCH   3  26
TORSDOF 19
ENDMDL
MODEL 2
REMARK VINA RESULT:     -11.7      6.295      8.664
REMARK SMILES NS(=O)(=O)CCNC(=O)N1[C@@H]2CC[C@H]1C[C@H](CC(=O)NCCCNC(=O)c1ccc(-c3c4nc(c(-c5c(F)cc(S(=O)(=O)[O-])cc5F)c5ccc([nH]5)c(-c5c(F)cc(S(=O)(=O)[O-])cc5F)c5nc(c(-c6c(F)cc(S(=O)(=O)[O-])cc6F)c6ccc3[nH]6)C=C5)C=C4)cc1)C2
REMARK SMILES IDX 18 1 19 2 20 3 17 5 16 6 10 7 11 8 14 9 12 10 93 11 13 12
REMARK SMILES IDX 15 13 8 14 7 15 9 17 6 18 5 19 2 20 3 21 4 22 1 23 21 26
REMARK SMILES IDX 22 27 23 28 24 29 25 30 26 32 27 33 28 34 92 35 29 36 91 37
REMARK SMILES IDX 30 38 31 39 32 40 85 41 33 42 90 43 84 44 86 45 34 46 89 47
REMARK SMILES IDX 83 48 82 49 35 51 69 52 48 53 68 54 49 55 52 56 67 57 87 58
REMARK SMILES IDX 50 59 51 60 66 62 88 63 53 64 36 65 37 66 46 67 38 68 39 69
REMARK SMILES IDX 45 70 47 71 40 72 41 73 42 74 43 75 44 76 70 77 71 78 80 79
REMARK SMILES IDX 72 80 73 81 79 82 81 83 74 84 75 85 76 86 77 87 78 88 54 89
REMARK SMILES IDX 55 90 64 91 56 92 57 93 63 94 65 95 58 96 59 97 60 98 61 99
REMARK SMILES IDX 62 100
REMARK H PARENT 20 4 7 16 1 24 1 25 24 31 86 50 52 61
REMARK Flexibility Score: inf
ROOT
ATOM      1  C   UNL A   1      34.750  21.602  26.071  1.00  0.00     0.220 C 
ATOM      2  O   UNL A   1      34.239  21.543  27.193  1.00  0.00    -0.275 OA
ATOM      3  N   UNL A   1      35.952  20.975  25.899  1.00  0.00    -0.356 N 
ATOM      4  H   UNL A   1      36.327  20.608  26.732  1.00  0.00     0.163 HD
ENDROOT
BRANCH   1   5
ATOM      5  C   UNL A   1      34.047  22.367  24.952  1.00  0.00     0.103 C 
BRANCH   5   6
ATOM      6  C   UNL A   1      33.429  23.710  25.414  1.00  0.00     0.002 C 
ATOM      7  N   UNL A   1      33.042  26.167  23.979  1.00  0.00    -0.319 N 
ATOM      8  C   UNL A   1      31.858  25.583  24.585  1.00  0.00     0.087 C 
ATOM      9  C   UNL A   1      34.026  26.232  25.035  1.00  0.00     0.087 C 
ATOM     10  C   UNL A   1      31.808  26.228  25.981  1.00  0.00     0.027 C 
ATOM     11  C   UNL A   1      32.127  24.061  24.646  1.00  0.00     0.029 C 
ATOM     12  C   UNL A   1      33.233  26.727  26.241  1.00  0.00     0.027 C 
ATOM     13  C   UNL A   1      34.496  24.806  25.287  1.00  0.00     0.029 C 
BRANCH   7  14
ATOM     14  C   UNL A   1      33.053  26.622  22.704  1.00  0.00     0.317 C 
ATOM     15  N   UNL A   1      32.405  27.754  22.347  1.00  0.00    -0.337 N 
ATOM     16  H   UNL A   1      31.995  27.720  21.454  1.00  0.00     0.165 HD
ATOM     17  O   UNL A   1      33.685  26.051  21.812  1.00  0.00    -0.249 OA
BRANCH  15  18
ATOM     18  C   UNL A   1      32.207  29.015  23.050  1.00  0.00     0.135 C 
BRANCH  18  19
ATOM     19  C   UNL A   1      30.853  29.091  23.742  1.00  0.00     0.175 C 
BRANCH  19  20
ATOM     20  S   UNL A   1      29.576  29.815  22.723  1.00  0.00     0.210 S 
ATOM     21  O   UNL A   1      29.243  31.117  23.244  1.00  0.00    -0.213 OA
ATOM     22  O   UNL A   1      28.556  28.825  22.452  1.00  0.00    -0.213 OA
BRANCH  20  23
ATOM     23  N   UNL A   1      30.343  30.095  21.268  1.00  0.00    -0.229 NA
ATOM     24  H   UNL A   1      30.190  29.303  20.644  1.00  0.00     0.137 HD
ATOM     25  H   UNL A   1      31.344  30.213  21.428  1.00  0.00     0.137 HD
ENDBRANCH  20  23
ENDBRANCH  19  20
ENDBRANCH  18  19
ENDBRANCH  15  18
ENDBRANCH   7  14
ENDBRANCH   5   6
ENDBRANCH   1   5
BRANCH   3  26
ATOM     26  C   UNL A   1      36.791  20.741  24.728  1.00  0.00     0.117 C 
BRANCH  26  27
ATOM     27  C   UNL A   1      37.937  19.745  24.978  1.00  0.00     0.042 C 
BRANCH  27  28
ATOM     28  C   UNL A   1      39.119  20.299  25.757  1.00  0.00     0.118 C 
BRANCH  28  29
ATOM     29  N   UNL A   1      40.133  19.282  25.957  1.00  0.00    -0.352 N 
ATOM     30  C   UNL A   1      41.496  19.412  26.092  1.00  0.00     0.251 C 
ATOM     31  H   UNL A   1      39.795  18.359  26.005  1.00  0.00     0.163 HD
ATOM     32  O   UNL A   1      42.200  18.417  25.930  1.00  0.00    -0.269 OA
BRANCH  30  33
ATOM     33  C   UNL A   1      42.129  20.718  26.409  1.00  0.00     0.039 A 
ATOM     34  C   UNL A   1      42.538  21.540  25.351  1.00  0.00     0.014 A 
ATOM     35  C   UNL A   1      42.384  21.119  27.723  1.00  0.00     0.014 A 
ATOM     36  C   UNL A   1      43.140  22.776  25.611  1.00  0.00     0.010 A 
ATOM     37  C   UNL A   1      42.916  22.386  27.983  1.00  0.00     0.010 A 
ATOM     38  C   UNL A   1      43.298  23.231  26.931  1.00  0.00    -0.014 A 
BRANCH  38  39
ATOM     39  C   UNL A   1      43.821  24.595  27.221  1.00  0.00     0.031 A 
ATOM     40  C   UNL A   1      42.894  25.705  27.643  1.00  0.00     0.074 A 
ATOM     41  C   UNL A   1      45.134  24.850  27.032  1.00  0.00     0.049 A 
ATOM     42  N   UNL A   1      43.164  26.968  27.858  1.00  0.00    -0.248 NA
ATOM     43  C   UNL A   1      41.475  25.359  27.828  1.00  0.00     0.031 C 
ATOM     44  C   UNL A   1      46.126  23.872  26.580  1.00  0.00     0.029 A 
ATOM     45  N   UNL A   1      45.857  26.009  27.176  1.00  0.00    -0.354 N 
ATOM     46  C   UNL A   1      41.953  27.570  28.185  1.00  0.00     0.074 A 
ATOM     47  C   UNL A   1      40.939  26.540  28.108  1.00  0.00     0.031 C 
ATOM     48  C   UNL A   1      47.326  24.468  26.490  1.00  0.00     0.029 A 
ATOM     49  C   UNL A   1      47.183  25.879  26.830  1.00  0.00     0.049 A 
ATOM     50  H   UNL A   1      45.465  26.853  27.496  1.00  0.00     0.167 HD
ATOM     51  C   UNL A   1      41.715  28.858  28.529  1.00  0.00     0.037 A 
ATOM     52  C   UNL A   1      48.170  26.796  26.762  1.00  0.00     0.037 A 
ATOM     53  C   UNL A   1      42.736  29.869  28.633  1.00  0.00     0.049 A 
ATOM     54  C   UNL A   1      47.872  28.223  27.136  1.00  0.00     0.074 A 
ATOM     55  C   UNL A   1      42.606  31.177  29.067  1.00  0.00     0.029 A 
ATOM     56  N   UNL A   1      44.068  29.695  28.287  1.00  0.00    -0.354 N 
ATOM     57  N   UNL A   1      46.740  28.747  27.542  1.00  0.00    -0.248 NA
ATOM     58  C   UNL A   1      48.980  29.184  27.045  1.00  0.00     0.031 C 
ATOM     59  C   UNL A   1      43.842  31.813  28.919  1.00  0.00     0.029 A 
ATOM     60  C   UNL A   1      44.758  30.885  28.450  1.00  0.00     0.049 A 
ATOM     61  H   UNL A   1      44.464  28.850  27.972  1.00  0.00     0.167 HD
ATOM     62  C   UNL A   1      47.003  30.095  27.763  1.00  0.00     0.074 A 
ATOM     63  C   UNL A   1      48.408  30.299  27.477  1.00  0.00     0.031 C 
ATOM     64  C   UNL A   1      46.157  31.076  28.159  1.00  0.00     0.037 A 
BRANCH  51  65
ATOM     65  C   UNL A   1      40.297  29.271  28.821  1.00  0.00     0.058 A 
ATOM     66  C   UNL A   1      39.836  29.465  30.133  1.00  0.00     0.135 A 
ATOM     67  C   UNL A   1      39.417  29.575  27.768  1.00  0.00     0.135 A 
ATOM     68  F   UNL A   1      40.630  29.179  31.177  1.00  0.00    -0.206 F 
ATOM     69  C   UNL A   1      38.554  29.939  30.390  1.00  0.00     0.059 A 
ATOM     70  C   UNL A   1      38.139  30.076  28.002  1.00  0.00     0.059 A 
ATOM     71  F   UNL A   1      39.805  29.406  26.494  1.00  0.00    -0.206 F 
ATOM     72  C   UNL A   1      37.715  30.250  29.319  1.00  0.00     0.060 A 
BRANCH  72  73
ATOM     73  S   UNL A   1      36.072  30.909  29.673  1.00  0.00     0.124 S 
ATOM     74  O   UNL A   1      35.215  29.905  29.051  1.00  0.00    -0.237 OA
ATOM     75  O   UNL A   1      36.058  30.938  31.132  1.00  0.00    -0.237 OA
ATOM     76  O   UNL A   1      36.080  32.215  29.023  1.00  0.00    -0.744 OA
ENDBRANCH  72  73
ENDBRANCH  51  65
BRANCH  52  77
ATOM     77  C   UNL A   1      49.526  26.402  26.289  1.00  0.00     0.058 A 
ATOM     78  C   UNL A   1      50.431  25.744  27.135  1.00  0.00     0.135 A 
ATOM     79  C   UNL A   1      49.951  26.691  24.982  1.00  0.00     0.135 A 
ATOM     80  F   UNL A   1      50.078  25.450  28.396  1.00  0.00    -0.206 F 
ATOM     81  C   UNL A   1      51.716  25.414  26.715  1.00  0.00     0.059 A 
ATOM     82  C   UNL A   1      51.218  26.343  24.527  1.00  0.00     0.059 A 
ATOM     83  F   UNL A   1      49.119  27.304  24.123  1.00  0.00    -0.206 F 
ATOM     84  C   UNL A   1      52.100  25.719  25.408  1.00  0.00     0.060 A 
BRANCH  84  85
ATOM     85  S   UNL A   1      53.764  25.272  24.866  1.00  0.00     0.124 S 
ATOM     86  O   UNL A   1      53.688  23.816  24.861  1.00  0.00    -0.237 OA
ATOM     87  O   UNL A   1      53.840  25.913  23.557  1.00  0.00    -0.237 OA
ATOM     88  O   UNL A   1      54.619  25.858  25.894  1.00  0.00    -0.744 OA
ENDBRANCH  84  85
ENDBRANCH  52  77
BRANCH  64  89
ATOM     89  C   UNL A   1      46.720  32.463  28.309  1.00  0.00     0.058 A 
ATOM     90  C   UNL A   1      47.296  32.893  29.514  1.00  0.00     0.135 A 
ATOM     91  C   UNL A   1      46.746  33.348  27.218  1.00  0.00     0.135 A 
ATOM     92  F   UNL A   1      47.289  32.091  30.590  1.00  0.00    -0.206 F 
ATOM     93  C   UNL A   1      47.867  34.155  29.638  1.00  0.00     0.059 A 
ATOM     94  C   UNL A   1      47.339  34.604  27.310  1.00  0.00     0.059 A 
ATOM     95  F   UNL A   1      46.215  32.985  26.040  1.00  0.00    -0.206 F 
ATOM     96  C   UNL A   1      47.890  35.001  28.527  1.00  0.00     0.060 A 
BRANCH  96  97
ATOM     97  S   UNL A   1      48.684  36.614  28.690  1.00  0.00     0.124 S 
ATOM     98  O   UNL A   1      47.672  37.499  28.124  1.00  0.00    -0.237 OA
ATOM     99  O   UNL A   1      48.884  36.717  30.132  1.00  0.00    -0.237 OA
ATOM    100  O   UNL A   1      49.906  36.473  27.903  1.00  0.00    -0.744 OA
ENDBRANCH  96  97
ENDBRANCH  64  89
ENDBRANCH  38  39
ENDBRANCH  30  33
ENDBRANCH  28  29
ENDBRANCH  27  28
ENDBRANCH  26  27
ENDBRANCH   3  26
TORSDOF 19
ENDMDL
MODEL 3
REMARK VINA RESULT:     -11.3      0.979      8.236
REMARK SMILES NS(=O)(=O)CCNC(=O)N1[C@@H]2CC[C@H]1C[C@H](CC(=O)NCCCNC(=O)c1ccc(-c3c4nc(c(-c5c(F)cc(S(=O)(=O)[O-])cc5F)c5ccc([nH]5)c(-c5c(F)cc(S(=O)(=O)[O-])cc5F)c5nc(c(-c6c(F)cc(S(=O)(=O)[O-])cc6F)c6ccc3[nH]6)C=C5)C=C4)cc1)C2
REMARK SMILES IDX 18 1 19 2 20 3 17 5 16 6 10 7 11 8 14 9 12 10 93 11 13 12
REMARK SMILES IDX 15 13 8 14 7 15 9 17 6 18 5 19 2 20 3 21 4 22 1 23 21 26
REMARK SMILES IDX 22 27 23 28 24 29 25 30 26 32 27 33 28 34 92 35 29 36 91 37
REMARK SMILES IDX 30 38 31 39 32 40 85 41 33 42 90 43 84 44 86 45 34 46 89 47
REMARK SMILES IDX 83 48 82 49 35 51 69 52 48 53 68 54 49 55 52 56 67 57 87 58
REMARK SMILES IDX 50 59 51 60 66 62 88 63 53 64 36 65 37 66 46 67 38 68 39 69
REMARK SMILES IDX 45 70 47 71 40 72 41 73 42 74 43 75 44 76 70 77 71 78 80 79
REMARK SMILES IDX 72 80 73 81 79 82 81 83 74 84 75 85 76 86 77 87 78 88 54 89
REMARK SMILES IDX 55 90 64 91 56 92 57 93 63 94 65 95 58 96 59 97 60 98 61 99
REMARK SMILES IDX 62 100
REMARK H PARENT 20 4 7 16 1 24 1 25 24 31 86 50 52 61
REMARK Flexibility Score: inf
ROOT
ATOM      1  C   UNL A   1      34.380  23.868  24.189  1.00  0.00     0.220 C 
ATOM      2  O   UNL A   1      33.442  23.958  23.392  1.00  0.00    -0.275 OA
ATOM      3  N   UNL A   1      35.603  23.534  23.679  1.00  0.00    -0.356 N 
ATOM      4  H   UNL A   1      35.582  23.314  22.719  1.00  0.00     0.163 HD
ENDROOT
BRANCH   1   5
ATOM      5  C   UNL A   1      34.141  24.109  25.678  1.00  0.00     0.103 C 
BRANCH   5   6
ATOM      6  C   UNL A   1      33.490  25.480  25.987  1.00  0.00     0.002 C 
ATOM      7  N   UNL A   1      31.479  26.946  24.553  1.00  0.00    -0.319 N 
ATOM      8  C   UNL A   1      31.196  26.663  25.950  1.00  0.00     0.087 C 
ATOM      9  C   UNL A   1      32.792  27.547  24.538  1.00  0.00     0.087 C 
ATOM     10  C   UNL A   1      31.760  27.888  26.690  1.00  0.00     0.027 C 
ATOM     11  C   UNL A   1      31.971  25.365  26.278  1.00  0.00     0.029 C 
ATOM     12  C   UNL A   1      32.761  28.517  25.716  1.00  0.00     0.027 C 
ATOM     13  C   UNL A   1      33.791  26.434  24.823  1.00  0.00     0.029 C 
BRANCH   7  14
ATOM     14  C   UNL A   1      30.566  26.743  23.574  1.00  0.00     0.317 C 
ATOM     15  N   UNL A   1      29.865  27.765  23.033  1.00  0.00    -0.337 N 
ATOM     16  H   UNL A   1      28.935  27.541  22.804  1.00  0.00     0.165 HD
ATOM     17  O   UNL A   1      30.354  25.625  23.099  1.00  0.00    -0.249 OA
BRANCH  15  18
ATOM     18  C   UNL A   1      30.243  29.139  22.729  1.00  0.00     0.135 C 
BRANCH  18  19
ATOM     19  C   UNL A   1      29.410  30.157  23.495  1.00  0.00     0.175 C 
BRANCH  19  20
ATOM     20  S   UNL A   1      27.813  30.469  22.753  1.00  0.00     0.210 S 
ATOM     21  O   UNL A   1      27.961  30.496  21.320  1.00  0.00    -0.213 OA
ATOM     22  O   UNL A   1      27.152  31.541  23.465  1.00  0.00    -0.213 OA
BRANCH  20  23
ATOM     23  N   UNL A   1      26.944  29.086  23.091  1.00  0.00    -0.229 NA
ATOM     24  H   UNL A   1      26.307  28.888  22.319  1.00  0.00     0.137 HD
ATOM     25  H   UNL A   1      26.407  29.222  23.947  1.00  0.00     0.137 HD
ENDBRANCH  20  23
ENDBRANCH  19  20
ENDBRANCH  18  19
ENDBRANCH  15  18
ENDBRANCH   7  14
ENDBRANCH   5   6
ENDBRANCH   1   5
BRANCH   3  26
ATOM     26  C   UNL A   1      36.933  23.437  24.271  1.00  0.00     0.117 C 
BRANCH  26  27
ATOM     27  C   UNL A   1      36.923  23.378  25.808  1.00  0.00     0.042 C 
BRANCH  27  28
ATOM     28  C   UNL A   1      37.872  24.344  26.500  1.00  0.00     0.118 C 
BRANCH  28  29
ATOM     29  N   UNL A   1      39.245  24.101  26.099  1.00  0.00    -0.352 N 
ATOM     30  C   UNL A   1      40.388  24.803  26.404  1.00  0.00     0.251 C 
ATOM     31  H   UNL A   1      39.379  23.315  25.523  1.00  0.00     0.163 HD
ATOM     32  O   UNL A   1      41.388  24.625  25.711  1.00  0.00    -0.269 OA
BRANCH  30  33
ATOM     33  C   UNL A   1      40.433  25.772  27.529  1.00  0.00     0.039 A 
ATOM     34  C   UNL A   1      41.356  26.824  27.473  1.00  0.00     0.014 A 
ATOM     35  C   UNL A   1      39.631  25.627  28.665  1.00  0.00     0.014 A 
ATOM     36  C   UNL A   1      41.429  27.754  28.517  1.00  0.00     0.010 A 
ATOM     37  C   UNL A   1      39.651  26.598  29.670  1.00  0.00     0.010 A 
ATOM     38  C   UNL A   1      40.548  27.674  29.608  1.00  0.00    -0.014 A 
BRANCH  38  39
ATOM     39  C   UNL A   1      40.528  28.726  30.663  1.00  0.00     0.031 A 
ATOM     40  C   UNL A   1      41.420  28.623  31.873  1.00  0.00     0.074 A 
ATOM     41  C   UNL A   1      39.645  29.743  30.563  1.00  0.00     0.049 A 
ATOM     42  N   UNL A   1      41.477  29.402  32.924  1.00  0.00    -0.248 NA
ATOM     43  C   UNL A   1      42.357  27.488  31.921  1.00  0.00     0.031 C 
ATOM     44  C   UNL A   1      38.695  29.929  29.464  1.00  0.00     0.029 A 
ATOM     45  N   UNL A   1      39.388  30.800  31.401  1.00  0.00    -0.354 N 
ATOM     46  C   UNL A   1      42.437  28.846  33.763  1.00  0.00     0.074 A 
ATOM     47  C   UNL A   1      42.914  27.643  33.115  1.00  0.00     0.031 C 
ATOM     48  C   UNL A   1      37.965  31.032  29.691  1.00  0.00     0.029 A 
ATOM     49  C   UNL A   1      38.359  31.608  30.972  1.00  0.00     0.049 A 
ATOM     50  H   UNL A   1      39.892  30.965  32.230  1.00  0.00     0.167 HD
ATOM     51  C   UNL A   1      42.885  29.304  34.956  1.00  0.00     0.037 A 
ATOM     52  C   UNL A   1      37.773  32.674  31.555  1.00  0.00     0.037 A 
ATOM     53  C   UNL A   1      42.426  30.519  35.579  1.00  0.00     0.049 A 
ATOM     54  C   UNL A   1      38.283  33.152  32.888  1.00  0.00     0.074 A 
ATOM     55  C   UNL A   1      42.888  31.115  36.740  1.00  0.00     0.029 A 
ATOM     56  N   UNL A   1      41.392  31.315  35.107  1.00  0.00    -0.354 N 
ATOM     57  N   UNL A   1      39.263  32.669  33.615  1.00  0.00    -0.248 NA
ATOM     58  C   UNL A   1      37.612  34.316  33.483  1.00  0.00     0.031 C 
ATOM     59  C   UNL A   1      42.091  32.232  37.007  1.00  0.00     0.029 A 
ATOM     60  C   UNL A   1      41.170  32.368  35.980  1.00  0.00     0.049 A 
ATOM     61  H   UNL A   1      40.890  31.155  34.275  1.00  0.00     0.167 HD
ATOM     62  C   UNL A   1      39.331  33.476  34.746  1.00  0.00     0.074 A 
ATOM     63  C   UNL A   1      38.315  34.496  34.592  1.00  0.00     0.031 C 
ATOM     64  C   UNL A   1      40.153  33.377  35.818  1.00  0.00     0.037 A 
BRANCH  51  65
ATOM     65  C   UNL A   1      43.927  28.500  35.687  1.00  0.00     0.058 A 
ATOM     66  C   UNL A   1      43.582  27.478  36.584  1.00  0.00     0.135 A 
ATOM     67  C   UNL A   1      45.292  28.690  35.405  1.00  0.00     0.135 A 
ATOM     68  F   UNL A   1      42.295  27.262  36.900  1.00  0.00    -0.206 F 
ATOM     69  C   UNL A   1      44.550  26.678  37.182  1.00  0.00     0.059 A 
ATOM     70  C   UNL A   1      46.275  27.883  35.971  1.00  0.00     0.059 A 
ATOM     71  F   UNL A   1      45.679  29.654  34.555  1.00  0.00    -0.206 F 
ATOM     72  C   UNL A   1      45.894  26.881  36.863  1.00  0.00     0.060 A 
BRANCH  72  73
ATOM     73  S   UNL A   1      47.131  25.801  37.612  1.00  0.00     0.124 S 
ATOM     74  O   UNL A   1      46.474  24.500  37.521  1.00  0.00    -0.237 OA
ATOM     75  O   UNL A   1      48.281  25.991  36.734  1.00  0.00    -0.237 OA
ATOM     76  O   UNL A   1      47.279  26.335  38.961  1.00  0.00    -0.744 OA
ENDBRANCH  72  73
ENDBRANCH  51  65
BRANCH  52  77
ATOM     77  C   UNL A   1      36.616  33.344  30.899  1.00  0.00     0.058 A 
ATOM     78  C   UNL A   1      36.791  34.173  29.782  1.00  0.00     0.135 A 
ATOM     79  C   UNL A   1      35.310  33.179  31.390  1.00  0.00     0.135 A 
ATOM     80  F   UNL A   1      38.019  34.369  29.278  1.00  0.00    -0.206 F 
ATOM     81  C   UNL A   1      35.721  34.839  29.193  1.00  0.00     0.059 A 
ATOM     82  C   UNL A   1      34.219  33.808  30.799  1.00  0.00     0.059 A 
ATOM     83  F   UNL A   1      35.083  32.382  32.446  1.00  0.00    -0.206 F 
ATOM     84  C   UNL A   1      34.438  34.650  29.710  1.00  0.00     0.060 A 
BRANCH  84  85
ATOM     85  S   UNL A   1      33.052  35.505  28.928  1.00  0.00     0.124 S 
ATOM     86  O   UNL A   1      33.738  36.564  28.198  1.00  0.00    -0.237 OA
ATOM     87  O   UNL A   1      32.462  34.446  28.115  1.00  0.00    -0.237 OA
ATOM     88  O   UNL A   1      32.244  35.939  30.064  1.00  0.00    -0.744 OA
ENDBRANCH  84  85
ENDBRANCH  52  77
BRANCH  64  89
ATOM     89  C   UNL A   1      39.996  34.395  36.913  1.00  0.00     0.058 A 
ATOM     90  C   UNL A   1      40.694  35.613  36.887  1.00  0.00     0.135 A 
ATOM     91  C   UNL A   1      39.088  34.183  37.965  1.00  0.00     0.135 A 
ATOM     92  F   UNL A   1      41.580  35.862  35.911  1.00  0.00    -0.206 F 
ATOM     93  C   UNL A   1      40.508  36.579  37.870  1.00  0.00     0.059 A 
ATOM     94  C   UNL A   1      38.863  35.147  38.942  1.00  0.00     0.059 A 
ATOM     95  F   UNL A   1      38.390  33.039  38.034  1.00  0.00    -0.206 F 
ATOM     96  C   UNL A   1      39.584  36.340  38.889  1.00  0.00     0.060 A 
BRANCH  96  97
ATOM     97  S   UNL A   1      39.314  37.628  40.126  1.00  0.00     0.124 S 
ATOM     98  O   UNL A   1      40.603  38.311  40.124  1.00  0.00    -0.237 OA
ATOM     99  O   UNL A   1      38.198  38.376  39.557  1.00  0.00    -0.237 OA
ATOM    100  O   UNL A   1      39.004  36.876  41.338  1.00  0.00    -0.744 OA
ENDBRANCH  96  97
ENDBRANCH  64  89
ENDBRANCH  38  39
ENDBRANCH  30  33
ENDBRANCH  28  29
ENDBRANCH  27  28
ENDBRANCH  26  27
ENDBRANCH   3  26
TORSDOF 19
ENDMDL
