MODEL 1
REMARK VINA RESULT:     -11.5      0.000      0.000
REMARK SMILES C[C@H]1C[C@H](C)CN(S(=O)(=O)N[C@@H](CCC(N)=O)C(=O)NCCCNC(=O)c2ccc(-c3c4nc(c(-c5c(F)cc(S(=O)(=O)[O-])cc5F)c5ccc([nH]5)c(-c5c(F)cc(S(=O)(=O)[O-])cc5F)c5nc(c(-c6c(F)cc(S(=O)(=O)[O-])cc6F)c6ccc3[nH]6)C=C5)C=C4)cc2)C1
REMARK SMILES IDX 22 1 21 2 20 3 18 4 19 5 12 7 11 8 8 10 9 11 10 12 7 13 1 14
REMARK SMILES IDX 2 15 3 16 93 17 4 18 5 19 6 20 13 21 14 22 15 23 16 24 17 25
REMARK SMILES IDX 23 28 24 29 25 30 26 32 27 33 28 34 92 35 29 36 91 37 30 38
REMARK SMILES IDX 31 39 32 40 85 41 33 42 90 43 84 44 86 45 34 46 89 47 83 48
REMARK SMILES IDX 82 49 35 51 69 52 48 53 68 54 49 55 52 56 67 57 87 58 50 59
REMARK SMILES IDX 51 60 66 62 88 63 53 64 36 65 37 66 46 67 38 68 39 69 45 70
REMARK SMILES IDX 47 71 40 72 41 73 42 74 43 75 44 76 70 77 71 78 80 79 72 80
REMARK SMILES IDX 73 81 79 82 81 83 74 84 75 85 76 86 77 87 78 88 54 89 55 90
REMARK SMILES IDX 64 91 56 92 57 93 63 94 65 95 58 96 59 97 60 98 61 99 62 100
REMARK H PARENT 20 6 11 9 16 26 16 27 24 31 86 50 52 61
REMARK Flexibility Score: inf
ROOT
ATOM      1  C   UNL A   1      33.084  29.327  25.503  1.00  0.00     0.042 C 
ENDROOT
BRANCH   1   2
ATOM      2  C   UNL A   1      31.580  29.456  25.424  1.00  0.00     0.117 C 
BRANCH   2   3
ATOM      3  N   UNL A   1      31.108  29.624  24.064  1.00  0.00    -0.355 N 
ATOM      4  C   UNL A   1      30.690  28.703  23.160  1.00  0.00     0.238 C 
ATOM      5  O   UNL A   1      30.296  29.115  22.065  1.00  0.00    -0.273 OA
ATOM      6  H   UNL A   1      31.089  30.555  23.745  1.00  0.00     0.163 HD
BRANCH   4   7
ATOM      7  C   UNL A   1      30.773  27.203  23.445  1.00  0.00     0.160 C 
BRANCH   7   8
ATOM      8  N   UNL A   1      32.179  26.763  23.344  1.00  0.00    -0.190 NA
ATOM      9  H   UNL A   1      32.663  27.546  22.905  1.00  0.00     0.143 HD
BRANCH   8  10
ATOM     10  S   UNL A   1      32.778  25.430  22.586  1.00  0.00     0.280 S 
ATOM     11  O   UNL A   1      33.725  25.835  21.574  1.00  0.00    -0.195 OA
ATOM     12  O   UNL A   1      31.625  24.639  22.236  1.00  0.00    -0.195 OA
BRANCH  10  13
ATOM     13  N   UNL A   1      33.614  24.559  23.797  1.00  0.00    -0.188 NA
ATOM     14  C   UNL A   1      36.838  22.432  23.563  1.00  0.00     0.009 C 
ATOM     15  C   UNL A   1      35.565  22.997  24.193  1.00  0.00     0.001 C 
ATOM     16  C   UNL A   1      35.932  23.796  25.445  1.00  0.00     0.009 C 
ATOM     17  C   UNL A   1      34.804  23.866  23.183  1.00  0.00     0.106 C 
ATOM     18  C   UNL A   1      34.708  24.464  26.054  1.00  0.00     0.001 C 
ATOM     19  C   UNL A   1      33.748  23.462  26.706  1.00  0.00     0.009 C 
ATOM     20  C   UNL A   1      34.006  25.323  25.004  1.00  0.00     0.106 C 
ENDBRANCH  10  13
ENDBRANCH   8  10
ENDBRANCH   7   8
BRANCH   7  21
ATOM     21  C   UNL A   1      29.932  26.682  24.619  1.00  0.00     0.040 C 
BRANCH  21  22
ATOM     22  C   UNL A   1      30.625  26.127  25.864  1.00  0.00     0.102 C 
BRANCH  22  23
ATOM     23  C   UNL A   1      30.388  24.640  26.051  1.00  0.00     0.217 C 
ATOM     24  N   UNL A   1      30.522  23.883  24.928  1.00  0.00    -0.370 N 
ATOM     25  O   UNL A   1      30.084  24.120  27.117  1.00  0.00    -0.275 OA
ATOM     26  H   UNL A   1      30.766  24.308  24.074  1.00  0.00     0.159 HD
ATOM     27  H   UNL A   1      30.374  22.911  24.969  1.00  0.00     0.159 HD
ENDBRANCH  22  23
ENDBRANCH  21  22
ENDBRANCH   7  21
ENDBRANCH   4   7
ENDBRANCH   2   3
ENDBRANCH   1   2
BRANCH   1  28
ATOM     28  C   UNL A   1      33.585  29.184  26.930  1.00  0.00     0.118 C 
BRANCH  28  29
ATOM     29  N   UNL A   1      33.632  30.450  27.661  1.00  0.00    -0.352 N 
ATOM     30  C   UNL A   1      34.639  30.940  28.464  1.00  0.00     0.251 C 
ATOM     31  H   UNL A   1      32.841  31.028  27.567  1.00  0.00     0.163 HD
ATOM     32  O   UNL A   1      34.477  31.950  29.137  1.00  0.00    -0.269 OA
BRANCH  30  33
ATOM     33  C   UNL A   1      35.904  30.181  28.512  1.00  0.00     0.039 A 
ATOM     34  C   UNL A   1      36.766  30.199  27.416  1.00  0.00     0.014 A 
ATOM     35  C   UNL A   1      36.295  29.609  29.723  1.00  0.00     0.014 A 
ATOM     36  C   UNL A   1      38.076  29.741  27.575  1.00  0.00     0.010 A 
ATOM     37  C   UNL A   1      37.628  29.288  29.912  1.00  0.00     0.010 A 
ATOM     38  C   UNL A   1      38.536  29.343  28.841  1.00  0.00    -0.014 A 
BRANCH  38  39
ATOM     39  C   UNL A   1      39.943  28.942  29.100  1.00  0.00     0.031 A 
ATOM     40  C   UNL A   1      40.903  29.981  29.619  1.00  0.00     0.074 A 
ATOM     41  C   UNL A   1      40.387  27.715  28.761  1.00  0.00     0.049 A 
ATOM     42  N   UNL A   1      42.205  29.938  29.702  1.00  0.00    -0.248 NA
ATOM     43  C   UNL A   1      40.317  31.263  30.048  1.00  0.00     0.031 C 
ATOM     44  C   UNL A   1      39.567  26.632  28.212  1.00  0.00     0.029 A 
ATOM     45  N   UNL A   1      41.651  27.179  28.805  1.00  0.00    -0.354 N 
ATOM     46  C   UNL A   1      42.593  31.195  30.149  1.00  0.00     0.074 A 
ATOM     47  C   UNL A   1      41.398  32.000  30.252  1.00  0.00     0.031 C 
ATOM     48  C   UNL A   1      40.345  25.558  27.990  1.00  0.00     0.029 A 
ATOM     49  C   UNL A   1      41.727  25.891  28.324  1.00  0.00     0.049 A 
ATOM     50  H   UNL A   1      42.432  27.670  29.148  1.00  0.00     0.167 HD
ATOM     51  C   UNL A   1      43.830  31.634  30.473  1.00  0.00     0.037 A 
ATOM     52  C   UNL A   1      42.791  25.080  28.153  1.00  0.00     0.037 A 
ATOM     53  C   UNL A   1      45.005  30.808  30.419  1.00  0.00     0.049 A 
ATOM     54  C   UNL A   1      44.162  25.586  28.524  1.00  0.00     0.074 A 
ATOM     55  C   UNL A   1      46.298  31.131  30.788  1.00  0.00     0.029 A 
ATOM     56  N   UNL A   1      45.027  29.494  29.977  1.00  0.00    -0.354 N 
ATOM     57  N   UNL A   1      44.506  26.764  28.989  1.00  0.00    -0.248 NA
ATOM     58  C   UNL A   1      45.288  24.659  28.349  1.00  0.00     0.031 C 
ATOM     59  C   UNL A   1      47.112  30.026  30.524  1.00  0.00     0.029 A 
ATOM     60  C   UNL A   1      46.314  28.996  30.050  1.00  0.00     0.049 A 
ATOM     61  H   UNL A   1      44.243  28.991  29.658  1.00  0.00     0.167 HD
ATOM     62  C   UNL A   1      45.879  26.702  29.206  1.00  0.00     0.074 A 
ATOM     63  C   UNL A   1      46.304  25.375  28.813  1.00  0.00     0.031 C 
ATOM     64  C   UNL A   1      46.710  27.656  29.691  1.00  0.00     0.037 A 
BRANCH  51  65
ATOM     65  C   UNL A   1      43.971  33.062  30.924  1.00  0.00     0.058 A 
ATOM     66  C   UNL A   1      44.107  34.117  30.008  1.00  0.00     0.135 A 
ATOM     67  C   UNL A   1      43.949  33.382  32.291  1.00  0.00     0.135 A 
ATOM     68  F   UNL A   1      44.154  33.867  28.688  1.00  0.00    -0.206 F 
ATOM     69  C   UNL A   1      44.251  35.433  30.429  1.00  0.00     0.059 A 
ATOM     70  C   UNL A   1      44.055  34.696  32.735  1.00  0.00     0.059 A 
ATOM     71  F   UNL A   1      43.825  32.413  33.212  1.00  0.00    -0.206 F 
ATOM     72  C   UNL A   1      44.221  35.713  31.796  1.00  0.00     0.060 A 
BRANCH  72  73
ATOM     73  S   UNL A   1      44.400  37.429  32.325  1.00  0.00     0.124 S 
ATOM     74  O   UNL A   1      43.304  37.552  33.282  1.00  0.00    -0.237 OA
ATOM     75  O   UNL A   1      45.742  37.440  32.896  1.00  0.00    -0.237 OA
ATOM     76  O   UNL A   1      44.239  38.186  31.088  1.00  0.00    -0.744 OA
ENDBRANCH  72  73
ENDBRANCH  51  65
BRANCH  52  77
ATOM     77  C   UNL A   1      42.605  23.701  27.622  1.00  0.00     0.058 A 
ATOM     78  C   UNL A   1      42.462  22.608  28.492  1.00  0.00     0.135 A 
ATOM     79  C   UNL A   1      42.563  23.442  26.243  1.00  0.00     0.135 A 
ATOM     80  F   UNL A   1      42.502  22.800  29.820  1.00  0.00    -0.206 F 
ATOM     81  C   UNL A   1      42.303  21.310  28.018  1.00  0.00     0.059 A 
ATOM     82  C   UNL A   1      42.376  22.155  25.743  1.00  0.00     0.059 A 
ATOM     83  F   UNL A   1      42.679  24.450  25.366  1.00  0.00    -0.206 F 
ATOM     84  C   UNL A   1      42.259  21.094  26.639  1.00  0.00     0.060 A 
BRANCH  84  85
ATOM     85  S   UNL A   1      42.013  19.409  26.037  1.00  0.00     0.124 S 
ATOM     86  O   UNL A   1      40.573  19.388  25.802  1.00  0.00    -0.237 OA
ATOM     87  O   UNL A   1      42.854  19.386  24.845  1.00  0.00    -0.237 OA
ATOM     88  O   UNL A   1      42.484  18.584  27.145  1.00  0.00    -0.744 OA
ENDBRANCH  84  85
ENDBRANCH  52  77
BRANCH  64  89
ATOM     89  C   UNL A   1      48.154  27.298  29.907  1.00  0.00     0.058 A 
ATOM     90  C   UNL A   1      49.125  27.498  28.917  1.00  0.00     0.135 A 
ATOM     91  C   UNL A   1      48.583  26.872  31.176  1.00  0.00     0.135 A 
ATOM     92  F   UNL A   1      48.764  27.896  27.687  1.00  0.00    -0.206 F 
ATOM     93  C   UNL A   1      50.476  27.295  29.178  1.00  0.00     0.059 A 
ATOM     94  C   UNL A   1      49.930  26.690  31.466  1.00  0.00     0.059 A 
ATOM     95  F   UNL A   1      47.692  26.675  32.162  1.00  0.00    -0.206 F 
ATOM     96  C   UNL A   1      50.870  26.906  30.460  1.00  0.00     0.060 A 
BRANCH  96  97
ATOM     97  S   UNL A   1      52.633  26.741  30.811  1.00  0.00     0.124 S 
ATOM     98  O   UNL A   1      52.889  27.939  31.604  1.00  0.00    -0.237 OA
ATOM     99  O   UNL A   1      52.688  25.476  31.537  1.00  0.00    -0.237 OA
ATOM    100  O   UNL A   1      53.246  26.724  29.486  1.00  0.00    -0.744 OA
ENDBRANCH  96  97
ENDBRANCH  64  89
ENDBRANCH  38  39
ENDBRANCH  30  33
ENDBRANCH  28  29
ENDBRANCH   1  28
TORSDOF 19
ENDMDL
MODEL 2
REMARK VINA RESULT:     -11.3      0.891      2.048
REMARK SMILES C[C@H]1C[C@H](C)CN(S(=O)(=O)N[C@@H](CCC(N)=O)C(=O)NCCCNC(=O)c2ccc(-c3c4nc(c(-c5c(F)cc(S(=O)(=O)[O-])cc5F)c5ccc([nH]5)c(-c5c(F)cc(S(=O)(=O)[O-])cc5F)c5nc(c(-c6c(F)cc(S(=O)(=O)[O-])cc6F)c6ccc3[nH]6)C=C5)C=C4)cc2)C1
REMARK SMILES IDX 22 1 21 2 20 3 18 4 19 5 12 7 11 8 8 10 9 11 10 12 7 13 1 14
REMARK SMILES IDX 2 15 3 16 93 17 4 18 5 19 6 20 13 21 14 22 15 23 16 24 17 25
REMARK SMILES IDX 23 28 24 29 25 30 26 32 27 33 28 34 92 35 29 36 91 37 30 38
REMARK SMILES IDX 31 39 32 40 85 41 33 42 90 43 84 44 86 45 34 46 89 47 83 48
REMARK SMILES IDX 82 49 35 51 69 52 48 53 68 54 49 55 52 56 67 57 87 58 50 59
REMARK SMILES IDX 51 60 66 62 88 63 53 64 36 65 37 66 46 67 38 68 39 69 45 70
REMARK SMILES IDX 47 71 40 72 41 73 42 74 43 75 44 76 70 77 71 78 80 79 72 80
REMARK SMILES IDX 73 81 79 82 81 83 74 84 75 85 76 86 77 87 78 88 54 89 55 90
REMARK SMILES IDX 64 91 56 92 57 93 63 94 65 95 58 96 59 97 60 98 61 99 62 100
REMARK H PARENT 20 6 11 9 16 26 16 27 24 31 86 50 52 61
REMARK Flexibility Score: inf
ROOT
ATOM      1  C   UNL A   1      32.104  28.561  26.787  1.00  0.00     0.042 C 
ENDROOT
BRANCH   1   2
ATOM      2  C   UNL A   1      31.488  29.438  25.721  1.00  0.00     0.117 C 
BRANCH   2   3
ATOM      3  N   UNL A   1      32.290  29.493  24.515  1.00  0.00    -0.355 N 
ATOM      4  C   UNL A   1      32.169  28.810  23.349  1.00  0.00     0.238 C 
ATOM      5  O   UNL A   1      32.972  29.072  22.448  1.00  0.00    -0.273 OA
ATOM      6  H   UNL A   1      33.044  30.126  24.548  1.00  0.00     0.163 HD
BRANCH   4   7
ATOM      7  C   UNL A   1      31.134  27.700  23.172  1.00  0.00     0.160 C 
BRANCH   7   8
ATOM      8  N   UNL A   1      31.621  26.467  23.823  1.00  0.00    -0.190 NA
ATOM      9  H   UNL A   1      32.562  26.700  24.142  1.00  0.00     0.143 HD
BRANCH   8  10
ATOM     10  S   UNL A   1      31.764  24.960  23.176  1.00  0.00     0.280 S 
ATOM     11  O   UNL A   1      32.268  25.060  21.826  1.00  0.00    -0.195 OA
ATOM     12  O   UNL A   1      30.506  24.310  23.441  1.00  0.00    -0.195 OA
BRANCH  10  13
ATOM     13  N   UNL A   1      32.933  24.164  24.136  1.00  0.00    -0.188 NA
ATOM     14  C   UNL A   1      36.510  22.988  23.247  1.00  0.00     0.009 C 
ATOM     15  C   UNL A   1      35.233  23.111  24.077  1.00  0.00     0.001 C 
ATOM     16  C   UNL A   1      35.560  23.786  25.411  1.00  0.00     0.009 C 
ATOM     17  C   UNL A   1      34.162  23.895  23.307  1.00  0.00     0.106 C 
ATOM     18  C   UNL A   1      34.304  24.024  26.235  1.00  0.00     0.001 C 
ATOM     19  C   UNL A   1      33.702  22.726  26.787  1.00  0.00     0.009 C 
ATOM     20  C   UNL A   1      33.287  24.818  25.418  1.00  0.00     0.106 C 
ENDBRANCH  10  13
ENDBRANCH   8  10
ENDBRANCH   7   8
BRANCH   7  21
ATOM     21  C   UNL A   1      29.664  28.096  23.377  1.00  0.00     0.040 C 
BRANCH  21  22
ATOM     22  C   UNL A   1      29.070  29.255  22.580  1.00  0.00     0.102 C 
BRANCH  22  23
ATOM     23  C   UNL A   1      27.647  29.583  22.995  1.00  0.00     0.217 C 
ATOM     24  N   UNL A   1      26.785  28.528  23.001  1.00  0.00    -0.370 N 
ATOM     25  O   UNL A   1      27.258  30.703  23.299  1.00  0.00    -0.275 OA
ATOM     26  H   UNL A   1      27.105  27.631  22.755  1.00  0.00     0.159 HD
ATOM     27  H   UNL A   1      25.843  28.665  23.250  1.00  0.00     0.159 HD
ENDBRANCH  22  23
ENDBRANCH  21  22
ENDBRANCH   7  21
ENDBRANCH   4   7
ENDBRANCH   2   3
ENDBRANCH   1   2
BRANCH   1  28
ATOM     28  C   UNL A   1      33.520  28.978  27.142  1.00  0.00     0.118 C 
BRANCH  28  29
ATOM     29  N   UNL A   1      33.600  30.305  27.753  1.00  0.00    -0.352 N 
ATOM     30  C   UNL A   1      34.649  30.867  28.449  1.00  0.00     0.251 C 
ATOM     31  H   UNL A   1      32.800  30.871  27.654  1.00  0.00     0.163 HD
ATOM     32  O   UNL A   1      34.519  31.934  29.036  1.00  0.00    -0.269 OA
BRANCH  30  33
ATOM     33  C   UNL A   1      35.920  30.119  28.490  1.00  0.00     0.039 A 
ATOM     34  C   UNL A   1      36.796  30.179  27.407  1.00  0.00     0.014 A 
ATOM     35  C   UNL A   1      36.300  29.512  29.688  1.00  0.00     0.014 A 
ATOM     36  C   UNL A   1      38.109  29.728  27.569  1.00  0.00     0.010 A 
ATOM     37  C   UNL A   1      37.634  29.197  29.885  1.00  0.00     0.010 A 
ATOM     38  C   UNL A   1      38.555  29.294  28.829  1.00  0.00    -0.014 A 
BRANCH  38  39
ATOM     39  C   UNL A   1      39.962  28.897  29.094  1.00  0.00     0.031 A 
ATOM     40  C   UNL A   1      40.920  29.942  29.606  1.00  0.00     0.074 A 
ATOM     41  C   UNL A   1      40.409  27.668  28.764  1.00  0.00     0.049 A 
ATOM     42  N   UNL A   1      42.221  29.902  29.693  1.00  0.00    -0.248 NA
ATOM     43  C   UNL A   1      40.330  31.227  30.025  1.00  0.00     0.031 C 
ATOM     44  C   UNL A   1      39.593  26.580  28.222  1.00  0.00     0.029 A 
ATOM     45  N   UNL A   1      41.674  27.135  28.816  1.00  0.00    -0.354 N 
ATOM     46  C   UNL A   1      42.605  31.163  30.132  1.00  0.00     0.074 A 
ATOM     47  C   UNL A   1      41.409  31.966  30.226  1.00  0.00     0.031 C 
ATOM     48  C   UNL A   1      40.373  25.506  28.010  1.00  0.00     0.029 A 
ATOM     49  C   UNL A   1      41.753  25.844  28.345  1.00  0.00     0.049 A 
ATOM     50  H   UNL A   1      42.454  27.631  29.157  1.00  0.00     0.167 HD
ATOM     51  C   UNL A   1      43.841  31.607  30.455  1.00  0.00     0.037 A 
ATOM     52  C   UNL A   1      42.819  25.033  28.182  1.00  0.00     0.037 A 
ATOM     53  C   UNL A   1      45.017  30.783  30.410  1.00  0.00     0.049 A 
ATOM     54  C   UNL A   1      44.189  25.545  28.552  1.00  0.00     0.074 A 
ATOM     55  C   UNL A   1      46.309  31.111  30.780  1.00  0.00     0.029 A 
ATOM     56  N   UNL A   1      45.043  29.465  29.978  1.00  0.00    -0.354 N 
ATOM     57  N   UNL A   1      44.529  26.727  29.010  1.00  0.00    -0.248 NA
ATOM     58  C   UNL A   1      45.317  24.618  28.388  1.00  0.00     0.031 C 
ATOM     59  C   UNL A   1      47.126  30.005  30.526  1.00  0.00     0.029 A 
ATOM     60  C   UNL A   1      46.331  28.970  30.058  1.00  0.00     0.049 A 
ATOM     61  H   UNL A   1      44.260  28.959  29.661  1.00  0.00     0.167 HD
ATOM     62  C   UNL A   1      45.902  26.669  29.231  1.00  0.00     0.074 A 
ATOM     63  C   UNL A   1      46.331  25.340  28.849  1.00  0.00     0.031 C 
ATOM     64  C   UNL A   1      46.730  27.628  29.710  1.00  0.00     0.037 A 
BRANCH  51  65
ATOM     65  C   UNL A   1      43.979  33.038  30.896  1.00  0.00     0.058 A 
ATOM     66  C   UNL A   1      43.853  33.413  32.243  1.00  0.00     0.135 A 
ATOM     67  C   UNL A   1      44.263  34.046  29.961  1.00  0.00     0.135 A 
ATOM     68  F   UNL A   1      43.562  32.493  33.179  1.00  0.00    -0.206 F 
ATOM     69  C   UNL A   1      43.968  34.738  32.643  1.00  0.00     0.059 A 
ATOM     70  C   UNL A   1      44.419  35.375  30.344  1.00  0.00     0.059 A 
ATOM     71  F   UNL A   1      44.391  33.745  28.659  1.00  0.00    -0.206 F 
ATOM     72  C   UNL A   1      44.253  35.713  31.686  1.00  0.00     0.060 A 
BRANCH  72  73
ATOM     73  S   UNL A   1      44.409  37.427  32.225  1.00  0.00     0.124 S 
ATOM     74  O   UNL A   1      44.007  38.148  31.020  1.00  0.00    -0.237 OA
ATOM     75  O   UNL A   1      43.471  37.489  33.341  1.00  0.00    -0.237 OA
ATOM     76  O   UNL A   1      45.818  37.545  32.585  1.00  0.00    -0.744 OA
ENDBRANCH  72  73
ENDBRANCH  51  65
BRANCH  52  77
ATOM     77  C   UNL A   1      42.637  23.650  27.661  1.00  0.00     0.058 A 
ATOM     78  C   UNL A   1      42.635  23.395  26.280  1.00  0.00     0.135 A 
ATOM     79  C   UNL A   1      42.466  22.555  28.524  1.00  0.00     0.135 A 
ATOM     80  F   UNL A   1      42.788  24.408  25.413  1.00  0.00    -0.206 F 
ATOM     81  C   UNL A   1      42.451  22.113  25.773  1.00  0.00     0.059 A 
ATOM     82  C   UNL A   1      42.310  21.259  28.040  1.00  0.00     0.059 A 
ATOM     83  F   UNL A   1      42.476  22.739  29.852  1.00  0.00    -0.206 F 
ATOM     84  C   UNL A   1      42.292  21.050  26.662  1.00  0.00     0.060 A 
BRANCH  84  85
ATOM     85  S   UNL A   1      42.094  19.384  25.990  1.00  0.00     0.124 S 
ATOM     86  O   UNL A   1      42.944  19.442  24.807  1.00  0.00    -0.237 OA
ATOM     87  O   UNL A   1      42.581  18.553  27.087  1.00  0.00    -0.237 OA
ATOM     88  O   UNL A   1      40.660  19.294  25.733  1.00  0.00    -0.744 OA
ENDBRANCH  84  85
ENDBRANCH  52  77
BRANCH  64  89
ATOM     89  C   UNL A   1      48.174  27.274  29.933  1.00  0.00     0.058 A 
ATOM     90  C   UNL A   1      49.152  27.498  28.955  1.00  0.00     0.135 A 
ATOM     91  C   UNL A   1      48.595  26.827  31.197  1.00  0.00     0.135 A 
ATOM     92  F   UNL A   1      48.800  27.917  27.729  1.00  0.00    -0.206 F 
ATOM     93  C   UNL A   1      50.502  27.298  29.223  1.00  0.00     0.059 A 
ATOM     94  C   UNL A   1      49.940  26.648  31.496  1.00  0.00     0.059 A 
ATOM     95  F   UNL A   1      47.697  26.607  32.171  1.00  0.00    -0.206 F 
ATOM     96  C   UNL A   1      50.888  26.888  30.502  1.00  0.00     0.060 A 
BRANCH  96  97
ATOM     97  S   UNL A   1      52.649  26.727  30.865  1.00  0.00     0.124 S 
ATOM     98  O   UNL A   1      52.689  25.451  31.571  1.00  0.00    -0.237 OA
ATOM     99  O   UNL A   1      53.242  26.733  29.531  1.00  0.00    -0.237 OA
ATOM    100  O   UNL A   1      52.939  27.904  31.679  1.00  0.00    -0.744 OA
ENDBRANCH  96  97
ENDBRANCH  64  89
ENDBRANCH  38  39
ENDBRANCH  30  33
ENDBRANCH  28  29
ENDBRANCH   1  28
TORSDOF 19
ENDMDL
MODEL 3
REMARK VINA RESULT:     -11.1      0.815      2.015
REMARK SMILES C[C@H]1C[C@H](C)CN(S(=O)(=O)N[C@@H](CCC(N)=O)C(=O)NCCCNC(=O)c2ccc(-c3c4nc(c(-c5c(F)cc(S(=O)(=O)[O-])cc5F)c5ccc([nH]5)c(-c5c(F)cc(S(=O)(=O)[O-])cc5F)c5nc(c(-c6c(F)cc(S(=O)(=O)[O-])cc6F)c6ccc3[nH]6)C=C5)C=C4)cc2)C1
REMARK SMILES IDX 22 1 21 2 20 3 18 4 19 5 12 7 11 8 8 10 9 11 10 12 7 13 1 14
REMARK SMILES IDX 2 15 3 16 93 17 4 18 5 19 6 20 13 21 14 22 15 23 16 24 17 25
REMARK SMILES IDX 23 28 24 29 25 30 26 32 27 33 28 34 92 35 29 36 91 37 30 38
REMARK SMILES IDX 31 39 32 40 85 41 33 42 90 43 84 44 86 45 34 46 89 47 83 48
REMARK SMILES IDX 82 49 35 51 69 52 48 53 68 54 49 55 52 56 67 57 87 58 50 59
REMARK SMILES IDX 51 60 66 62 88 63 53 64 36 65 37 66 46 67 38 68 39 69 45 70
REMARK SMILES IDX 47 71 40 72 41 73 42 74 43 75 44 76 70 77 71 78 80 79 72 80
REMARK SMILES IDX 73 81 79 82 81 83 74 84 75 85 76 86 77 87 78 88 54 89 55 90
REMARK SMILES IDX 64 91 56 92 57 93 63 94 65 95 58 96 59 97 60 98 61 99 62 100
REMARK H PARENT 20 6 11 9 16 26 16 27 24 31 86 50 52 61
REMARK Flexibility Score: inf
ROOT
ATOM      1  C   UNL A   1      32.492  28.730  26.759  1.00  0.00     0.042 C 
ENDROOT
BRANCH   1   2
ATOM      2  C   UNL A   1      32.643  27.247  27.010  1.00  0.00     0.117 C 
BRANCH   2   3
ATOM      3  N   UNL A   1      31.370  26.553  27.017  1.00  0.00    -0.355 N 
ATOM      4  C   UNL A   1      30.622  26.083  25.987  1.00  0.00     0.238 C 
ATOM      5  O   UNL A   1      29.578  25.486  26.266  1.00  0.00    -0.273 OA
ATOM      6  H   UNL A   1      30.987  26.400  27.911  1.00  0.00     0.163 HD
BRANCH   4   7
ATOM      7  C   UNL A   1      31.004  26.345  24.531  1.00  0.00     0.160 C 
BRANCH   7   8
ATOM      8  N   UNL A   1      31.961  25.313  24.083  1.00  0.00    -0.190 NA
ATOM      9  H   UNL A   1      32.026  24.665  24.868  1.00  0.00     0.143 HD
BRANCH   8  10
ATOM     10  S   UNL A   1      33.516  25.513  23.581  1.00  0.00     0.280 S 
ATOM     11  O   UNL A   1      33.882  26.906  23.685  1.00  0.00    -0.195 OA
ATOM     12  O   UNL A   1      33.601  24.826  22.317  1.00  0.00    -0.195 OA
BRANCH  10  13
ATOM     13  N   UNL A   1      34.467  24.617  24.685  1.00  0.00    -0.188 NA
ATOM     14  C   UNL A   1      33.398  22.377  27.652  1.00  0.00     0.009 C 
ATOM     15  C   UNL A   1      34.349  23.168  26.755  1.00  0.00     0.001 C 
ATOM     16  C   UNL A   1      35.364  22.211  26.125  1.00  0.00     0.009 C 
ATOM     17  C   UNL A   1      33.566  23.933  25.680  1.00  0.00     0.106 C 
ATOM     18  C   UNL A   1      36.273  22.935  25.143  1.00  0.00     0.001 C 
ATOM     19  C   UNL A   1      37.262  23.880  25.836  1.00  0.00     0.009 C 
ATOM     20  C   UNL A   1      35.434  23.662  24.094  1.00  0.00     0.106 C 
ENDBRANCH  10  13
ENDBRANCH   8  10
ENDBRANCH   7   8
BRANCH   7  21
ATOM     21  C   UNL A   1      29.862  26.735  23.582  1.00  0.00     0.040 C 
BRANCH  21  22
ATOM     22  C   UNL A   1      30.069  27.851  22.559  1.00  0.00     0.102 C 
BRANCH  22  23
ATOM     23  C   UNL A   1      30.882  29.007  23.112  1.00  0.00     0.217 C 
ATOM     24  N   UNL A   1      32.059  29.250  22.471  1.00  0.00    -0.370 N 
ATOM     25  O   UNL A   1      30.546  29.690  24.071  1.00  0.00    -0.275 OA
ATOM     26  H   UNL A   1      32.323  28.697  21.701  1.00  0.00     0.159 HD
ATOM     27  H   UNL A   1      32.646  29.978  22.778  1.00  0.00     0.159 HD
ENDBRANCH  22  23
ENDBRANCH  21  22
ENDBRANCH   7  21
ENDBRANCH   4   7
ENDBRANCH   2   3
ENDBRANCH   1   2
BRANCH   1  28
ATOM     28  C   UNL A   1      33.818  29.469  26.801  1.00  0.00     0.118 C 
BRANCH  28  29
ATOM     29  N   UNL A   1      33.818  30.616  27.708  1.00  0.00    -0.352 N 
ATOM     30  C   UNL A   1      34.772  30.977  28.635  1.00  0.00     0.251 C 
ATOM     31  H   UNL A   1      33.033  31.208  27.650  1.00  0.00     0.163 HD
ATOM     32  O   UNL A   1      34.567  31.882  29.435  1.00  0.00    -0.269 OA
BRANCH  30  33
ATOM     33  C   UNL A   1      36.032  30.209  28.652  1.00  0.00     0.039 A 
ATOM     34  C   UNL A   1      36.857  30.205  27.528  1.00  0.00     0.014 A 
ATOM     35  C   UNL A   1      36.459  29.651  29.857  1.00  0.00     0.014 A 
ATOM     36  C   UNL A   1      38.169  29.739  27.650  1.00  0.00     0.010 A 
ATOM     37  C   UNL A   1      37.796  29.323  30.007  1.00  0.00     0.010 A 
ATOM     38  C   UNL A   1      38.667  29.356  28.906  1.00  0.00    -0.014 A 
BRANCH  38  39
ATOM     39  C   UNL A   1      40.079  28.947  29.124  1.00  0.00     0.031 A 
ATOM     40  C   UNL A   1      41.061  29.981  29.610  1.00  0.00     0.074 A 
ATOM     41  C   UNL A   1      40.506  27.716  28.774  1.00  0.00     0.049 A 
ATOM     42  N   UNL A   1      42.364  29.931  29.655  1.00  0.00    -0.248 NA
ATOM     43  C   UNL A   1      40.495  31.268  30.053  1.00  0.00     0.031 C 
ATOM     44  C   UNL A   1      39.664  26.636  28.253  1.00  0.00     0.029 A 
ATOM     45  N   UNL A   1      41.767  27.173  28.782  1.00  0.00    -0.354 N 
ATOM     46  C   UNL A   1      42.772  31.187  30.086  1.00  0.00     0.074 A 
ATOM     47  C   UNL A   1      41.585  31.999  30.223  1.00  0.00     0.031 C 
ATOM     48  C   UNL A   1      40.429  25.558  28.011  1.00  0.00     0.029 A 
ATOM     49  C   UNL A   1      41.821  25.883  28.303  1.00  0.00     0.049 A 
ATOM     50  H   UNL A   1      42.562  27.661  29.101  1.00  0.00     0.167 HD
ATOM     51  C   UNL A   1      44.021  31.620  30.372  1.00  0.00     0.037 A 
ATOM     52  C   UNL A   1      42.875  25.066  28.102  1.00  0.00     0.037 A 
ATOM     53  C   UNL A   1      45.188  30.787  30.285  1.00  0.00     0.049 A 
ATOM     54  C   UNL A   1      44.260  25.564  28.431  1.00  0.00     0.074 A 
ATOM     55  C   UNL A   1      46.494  31.103  30.615  1.00  0.00     0.029 A 
ATOM     56  N   UNL A   1      45.190  29.471  29.846  1.00  0.00    -0.354 N 
ATOM     57  N   UNL A   1      44.624  26.742  28.882  1.00  0.00    -0.248 NA
ATOM     58  C   UNL A   1      45.375  24.631  28.225  1.00  0.00     0.031 C 
ATOM     59  C   UNL A   1      47.293  29.993  30.329  1.00  0.00     0.029 A 
ATOM     60  C   UNL A   1      46.476  28.966  29.882  1.00  0.00     0.049 A 
ATOM     61  H   UNL A   1      44.394  28.973  29.552  1.00  0.00     0.167 HD
ATOM     62  C   UNL A   1      46.002  26.672  29.059  1.00  0.00     0.074 A 
ATOM     63  C   UNL A   1      46.409  25.342  28.657  1.00  0.00     0.031 C 
ATOM     64  C   UNL A   1      46.853  27.623  29.516  1.00  0.00     0.037 A 
BRANCH  51  65
ATOM     65  C   UNL A   1      44.184  33.048  30.815  1.00  0.00     0.058 A 
ATOM     66  C   UNL A   1      44.187  33.406  32.173  1.00  0.00     0.135 A 
ATOM     67  C   UNL A   1      44.362  34.070  29.869  1.00  0.00     0.135 A 
ATOM     68  F   UNL A   1      44.001  32.472  33.121  1.00  0.00    -0.206 F 
ATOM     69  C   UNL A   1      44.324  34.728  32.576  1.00  0.00     0.059 A 
ATOM     70  C   UNL A   1      44.538  35.396  30.251  1.00  0.00     0.059 A 
ATOM     71  F   UNL A   1      44.364  33.785  28.557  1.00  0.00    -0.206 F 
ATOM     72  C   UNL A   1      44.502  35.717  31.608  1.00  0.00     0.060 A 
BRANCH  72  73
ATOM     73  S   UNL A   1      44.689  37.427  32.150  1.00  0.00     0.124 S 
ATOM     74  O   UNL A   1      43.995  37.401  33.435  1.00  0.00    -0.237 OA
ATOM     75  O   UNL A   1      46.139  37.576  32.218  1.00  0.00    -0.237 OA
ATOM     76  O   UNL A   1      44.030  38.193  31.097  1.00  0.00    -0.744 OA
ENDBRANCH  72  73
ENDBRANCH  51  65
BRANCH  52  77
ATOM     77  C   UNL A   1      42.666  23.686  27.581  1.00  0.00     0.058 A 
ATOM     78  C   UNL A   1      42.451  22.611  28.458  1.00  0.00     0.135 A 
ATOM     79  C   UNL A   1      42.672  23.410  26.204  1.00  0.00     0.135 A 
ATOM     80  F   UNL A   1      42.443  22.819  29.784  1.00  0.00    -0.206 F 
ATOM     81  C   UNL A   1      42.269  21.312  27.993  1.00  0.00     0.059 A 
ATOM     82  C   UNL A   1      42.463  22.124  25.714  1.00  0.00     0.059 A 
ATOM     83  F   UNL A   1      42.857  24.402  25.321  1.00  0.00    -0.206 F 
ATOM     84  C   UNL A   1      42.274  21.079  26.617  1.00  0.00     0.060 A 
BRANCH  84  85
ATOM     85  S   UNL A   1      41.997  19.395  26.026  1.00  0.00     0.124 S 
ATOM     86  O   UNL A   1      42.450  18.605  27.165  1.00  0.00    -0.237 OA
ATOM     87  O   UNL A   1      40.558  19.391  25.778  1.00  0.00    -0.237 OA
ATOM     88  O   UNL A   1      42.832  19.316  24.831  1.00  0.00    -0.744 OA
ENDBRANCH  84  85
ENDBRANCH  52  77
BRANCH  64  89
ATOM     89  C   UNL A   1      48.301  27.257  29.690  1.00  0.00     0.058 A 
ATOM     90  C   UNL A   1      49.259  27.529  28.704  1.00  0.00     0.135 A 
ATOM     91  C   UNL A   1      48.747  26.746  30.921  1.00  0.00     0.135 A 
ATOM     92  F   UNL A   1      48.882  28.010  27.509  1.00  0.00    -0.206 F 
ATOM     93  C   UNL A   1      50.614  27.315  28.934  1.00  0.00     0.059 A 
ATOM     94  C   UNL A   1      50.098  26.550  31.182  1.00  0.00     0.059 A 
ATOM     95  F   UNL A   1      47.869  26.478  31.900  1.00  0.00    -0.206 F 
ATOM     96  C   UNL A   1      51.025  26.840  30.182  1.00  0.00     0.060 A 
BRANCH  96  97
ATOM     97  S   UNL A   1      52.793  26.659  30.500  1.00  0.00     0.124 S 
ATOM     98  O   UNL A   1      53.156  28.008  30.919  1.00  0.00    -0.237 OA
ATOM     99  O   UNL A   1      52.817  25.642  31.547  1.00  0.00    -0.237 OA
ATOM    100  O   UNL A   1      53.331  26.235  29.211  1.00  0.00    -0.744 OA
ENDBRANCH  96  97
ENDBRANCH  64  89
ENDBRANCH  38  39
ENDBRANCH  30  33
ENDBRANCH  28  29
ENDBRANCH   1  28
TORSDOF 19
ENDMDL
