MODEL 1
REMARK VINA RESULT:     -13.1      0.000      0.000
REMARK SMILES CCc1ccc(S(=O)(=O)c2nnn(-c3ccc(C(=O)NCCCNC(=O)c4ccc(-c5c6nc(c(-c7c(F)cc(S(=O)(=O)[O-])cc7F)c7ccc([nH]7)c(-c7c(F)cc(S(=O)(=O)[O-])cc7F)c7nc(c(-c8c(F)cc(S(=O)(=O)[O-])cc8F)c8ccc5[nH]8)C=C7)C=C6)cc4)cc3)c2C)cc1
REMARK SMILES IDX 21 1 20 2 18 3 19 4 17 6 14 7 15 8 94 9 16 10 93 11 13 12
REMARK SMILES IDX 10 13 11 14 95 15 12 16 96 17 7 18 8 19 9 20 6 21 3 22 4 23
REMARK SMILES IDX 98 24 5 25 97 26 2 27 1 28 22 29 23 30 24 31 25 32 26 34
REMARK SMILES IDX 27 35 28 36 92 37 29 38 91 39 30 40 31 41 32 42 85 43 33 44
REMARK SMILES IDX 90 45 84 46 86 47 34 48 89 49 83 50 82 51 35 53 69 54 48 55
REMARK SMILES IDX 68 56 49 57 52 58 67 59 87 60 50 61 51 62 66 64 88 65 53 66
REMARK SMILES IDX 36 67 37 68 46 69 38 70 39 71 45 72 47 73 40 74 41 75 42 76
REMARK SMILES IDX 43 77 44 78 70 79 71 80 80 81 72 82 73 83 79 84 81 85 74 86
REMARK SMILES IDX 75 87 76 88 77 89 78 90 54 91 55 92 64 93 56 94 57 95 63 96
REMARK SMILES IDX 65 97 58 98 59 99 60 100 61 101 62 102
REMARK H PARENT 20 5 24 33 86 52 52 63
REMARK Flexibility Score: inf
ROOT
ATOM      1  C   UNL A   1      31.549  30.649  25.733  1.00  0.00     0.118 C 
ENDROOT
BRANCH   1   2
ATOM      2  N   UNL A   1      30.601  30.659  24.626  1.00  0.00    -0.352 N 
ATOM      3  C   UNL A   1      30.368  29.770  23.600  1.00  0.00     0.251 C 
ATOM      4  O   UNL A   1      29.386  29.956  22.884  1.00  0.00    -0.269 OA
ATOM      5  H   UNL A   1      30.017  31.451  24.608  1.00  0.00     0.163 HD
BRANCH   3   6
ATOM      6  C   UNL A   1      31.209  28.563  23.367  1.00  0.00     0.039 A 
ATOM      7  C   UNL A   1      32.769  26.253  23.244  1.00  0.00     0.067 A 
ATOM      8  C   UNL A   1      31.392  26.128  23.423  1.00  0.00     0.029 A 
ATOM      9  C   UNL A   1      33.347  27.494  22.990  1.00  0.00     0.029 A 
ATOM     10  C   UNL A   1      30.620  27.294  23.515  1.00  0.00     0.016 A 
ATOM     11  C   UNL A   1      32.554  28.631  23.007  1.00  0.00     0.016 A 
BRANCH   7  12
ATOM     12  N   UNL A   1      33.621  25.150  23.397  1.00  0.00    -0.216 N 
ATOM     13  C   UNL A   1      34.949  23.626  24.186  1.00  0.00     0.205 A 
ATOM     14  N   UNL A   1      34.913  23.516  22.821  1.00  0.00    -0.117 NA
ATOM     15  C   UNL A   1      34.065  24.611  24.593  1.00  0.00     0.081 A 
ATOM     16  N   UNL A   1      34.030  24.393  22.360  1.00  0.00    -0.061 NA
ATOM     17  C   UNL A   1      33.488  24.948  25.922  1.00  0.00     0.070 C 
BRANCH  13  18
ATOM     18  S   UNL A   1      35.754  22.472  25.186  1.00  0.00     0.227 S 
ATOM     19  O   UNL A   1      35.402  22.845  26.535  1.00  0.00    -0.217 OA
ATOM     20  O   UNL A   1      37.133  22.427  24.722  1.00  0.00    -0.217 OA
BRANCH  18  21
ATOM     21  C   UNL A   1      35.010  20.900  24.840  1.00  0.00     0.073 A 
ATOM     22  C   UNL A   1      33.885  18.366  24.409  1.00  0.00    -0.048 A 
ATOM     23  C   UNL A   1      35.266  18.511  24.631  1.00  0.00     0.005 A 
ATOM     24  C   UNL A   1      33.078  19.510  24.432  1.00  0.00     0.005 A 
ATOM     25  C   UNL A   1      35.828  19.770  24.850  1.00  0.00     0.021 A 
ATOM     26  C   UNL A   1      33.635  20.772  24.621  1.00  0.00     0.021 A 
BRANCH  22  27
ATOM     27  C   UNL A   1      33.302  16.986  24.213  1.00  0.00     0.032 C 
ATOM     28  C   UNL A   1      32.930  16.258  25.502  1.00  0.00     0.009 C 
ENDBRANCH  22  27
ENDBRANCH  18  21
ENDBRANCH  13  18
ENDBRANCH   7  12
ENDBRANCH   3   6
ENDBRANCH   1   2
BRANCH   1  29
ATOM     29  C   UNL A   1      31.307  31.791  26.732  1.00  0.00     0.042 C 
BRANCH  29  30
ATOM     30  C   UNL A   1      32.592  32.443  27.196  1.00  0.00     0.118 C 
BRANCH  30  31
ATOM     31  N   UNL A   1      32.401  33.842  27.589  1.00  0.00    -0.352 N 
ATOM     32  C   UNL A   1      33.079  34.560  28.558  1.00  0.00     0.251 C 
ATOM     33  H   UNL A   1      31.700  34.333  27.103  1.00  0.00     0.163 HD
ATOM     34  O   UNL A   1      32.594  35.582  29.027  1.00  0.00    -0.269 OA
BRANCH  32  35
ATOM     35  C   UNL A   1      34.388  34.063  29.016  1.00  0.00     0.039 A 
ATOM     36  C   UNL A   1      34.544  33.379  30.224  1.00  0.00     0.014 A 
ATOM     37  C   UNL A   1      35.468  34.250  28.165  1.00  0.00     0.014 A 
ATOM     38  C   UNL A   1      35.786  32.819  30.519  1.00  0.00     0.010 A 
ATOM     39  C   UNL A   1      36.597  33.503  28.340  1.00  0.00     0.010 A 
ATOM     40  C   UNL A   1      36.805  32.872  29.556  1.00  0.00    -0.014 A 
BRANCH  40  41
ATOM     41  C   UNL A   1      38.092  32.215  29.750  1.00  0.00     0.031 A 
ATOM     42  C   UNL A   1      38.155  30.817  29.248  1.00  0.00     0.074 A 
ATOM     43  C   UNL A   1      39.198  32.904  30.109  1.00  0.00     0.049 A 
ATOM     44  N   UNL A   1      38.265  29.730  29.937  1.00  0.00    -0.248 NA
ATOM     45  C   UNL A   1      37.907  30.584  27.815  1.00  0.00     0.031 C 
ATOM     46  C   UNL A   1      39.351  34.354  30.308  1.00  0.00     0.029 A 
ATOM     47  N   UNL A   1      40.473  32.460  30.251  1.00  0.00    -0.354 N 
ATOM     48  C   UNL A   1      38.356  28.698  29.007  1.00  0.00     0.074 A 
ATOM     49  C   UNL A   1      37.904  29.251  27.757  1.00  0.00     0.031 C 
ATOM     50  C   UNL A   1      40.660  34.683  30.286  1.00  0.00     0.029 A 
ATOM     51  C   UNL A   1      41.440  33.461  30.267  1.00  0.00     0.049 A 
ATOM     52  H   UNL A   1      40.697  31.506  30.338  1.00  0.00     0.167 HD
ATOM     53  C   UNL A   1      39.048  27.556  29.283  1.00  0.00     0.037 A 
ATOM     54  C   UNL A   1      42.786  33.292  30.237  1.00  0.00     0.037 A 
ATOM     55  C   UNL A   1      39.308  27.442  30.699  1.00  0.00     0.049 A 
ATOM     56  C   UNL A   1      43.045  31.893  30.670  1.00  0.00     0.074 A 
ATOM     57  C   UNL A   1      38.514  27.416  31.830  1.00  0.00     0.029 A 
ATOM     58  N   UNL A   1      40.575  27.744  31.142  1.00  0.00    -0.354 N 
ATOM     59  N   UNL A   1      42.788  31.447  31.872  1.00  0.00    -0.248 NA
ATOM     60  C   UNL A   1      43.134  30.874  29.636  1.00  0.00     0.031 C 
ATOM     61  C   UNL A   1      39.225  28.190  32.795  1.00  0.00     0.029 A 
ATOM     62  C   UNL A   1      40.442  28.573  32.229  1.00  0.00     0.049 A 
ATOM     63  H   UNL A   1      41.421  27.426  30.753  1.00  0.00     0.167 HD
ATOM     64  C   UNL A   1      42.265  30.176  31.678  1.00  0.00     0.074 A 
ATOM     65  C   UNL A   1      42.583  29.846  30.289  1.00  0.00     0.031 C 
ATOM     66  C   UNL A   1      41.374  29.631  32.560  1.00  0.00     0.037 A 
BRANCH  53  67
ATOM     67  C   UNL A   1      39.813  26.745  28.258  1.00  0.00     0.058 A 
ATOM     68  C   UNL A   1      39.623  25.347  28.208  1.00  0.00     0.135 A 
ATOM     69  C   UNL A   1      40.918  27.230  27.522  1.00  0.00     0.135 A 
ATOM     70  F   UNL A   1      38.605  24.772  28.868  1.00  0.00    -0.206 F 
ATOM     71  C   UNL A   1      40.512  24.493  27.554  1.00  0.00     0.059 A 
ATOM     72  C   UNL A   1      41.783  26.402  26.815  1.00  0.00     0.059 A 
ATOM     73  F   UNL A   1      41.279  28.518  27.526  1.00  0.00    -0.206 F 
ATOM     74  C   UNL A   1      41.602  25.031  26.876  1.00  0.00     0.060 A 
BRANCH  74  75
ATOM     75  S   UNL A   1      42.817  23.931  26.133  1.00  0.00     0.124 S 
ATOM     76  O   UNL A   1      41.994  22.773  25.805  1.00  0.00    -0.237 OA
ATOM     77  O   UNL A   1      43.290  24.723  25.003  1.00  0.00    -0.237 OA
ATOM     78  O   UNL A   1      43.789  23.735  27.204  1.00  0.00    -0.744 OA
ENDBRANCH  74  75
ENDBRANCH  53  67
BRANCH  54  79
ATOM     79  C   UNL A   1      43.800  34.134  29.548  1.00  0.00     0.058 A 
ATOM     80  C   UNL A   1      44.055  33.989  28.173  1.00  0.00     0.135 A 
ATOM     81  C   UNL A   1      44.340  35.285  30.159  1.00  0.00     0.135 A 
ATOM     82  F   UNL A   1      43.565  32.934  27.506  1.00  0.00    -0.206 F 
ATOM     83  C   UNL A   1      44.754  34.954  27.437  1.00  0.00     0.059 A 
ATOM     84  C   UNL A   1      45.050  36.254  29.449  1.00  0.00     0.059 A 
ATOM     85  F   UNL A   1      44.115  35.551  31.455  1.00  0.00    -0.206 F 
ATOM     86  C   UNL A   1      45.230  36.095  28.081  1.00  0.00     0.060 A 
BRANCH  86  87
ATOM     87  S   UNL A   1      45.971  37.426  27.104  1.00  0.00     0.124 S 
ATOM     88  O   UNL A   1      46.429  36.712  25.918  1.00  0.00    -0.237 OA
ATOM     89  O   UNL A   1      44.843  38.330  26.908  1.00  0.00    -0.237 OA
ATOM     90  O   UNL A   1      47.028  37.936  27.972  1.00  0.00    -0.744 OA
ENDBRANCH  86  87
ENDBRANCH  54  79
BRANCH  66  91
ATOM     91  C   UNL A   1      41.178  30.309  33.896  1.00  0.00     0.058 A 
ATOM     92  C   UNL A   1      42.027  30.152  35.006  1.00  0.00     0.135 A 
ATOM     93  C   UNL A   1      40.176  31.287  33.998  1.00  0.00     0.135 A 
ATOM     94  F   UNL A   1      43.074  29.320  34.962  1.00  0.00    -0.206 F 
ATOM     95  C   UNL A   1      41.864  30.901  36.175  1.00  0.00     0.059 A 
ATOM     96  C   UNL A   1      40.014  32.067  35.140  1.00  0.00     0.059 A 
ATOM     97  F   UNL A   1      39.371  31.533  32.951  1.00  0.00    -0.206 F 
ATOM     98  C   UNL A   1      40.853  31.859  36.231  1.00  0.00     0.060 A 
BRANCH  98  99
ATOM     99  S   UNL A   1      40.687  32.878  37.714  1.00  0.00     0.124 S 
ATOM    100  O   UNL A   1      39.242  32.891  37.918  1.00  0.00    -0.237 OA
ATOM    101  O   UNL A   1      41.461  32.132  38.701  1.00  0.00    -0.237 OA
ATOM    102  O   UNL A   1      41.272  34.157  37.315  1.00  0.00    -0.744 OA
ENDBRANCH  98  99
ENDBRANCH  66  91
ENDBRANCH  40  41
ENDBRANCH  32  35
ENDBRANCH  30  31
ENDBRANCH  29  30
ENDBRANCH   1  29
TORSDOF 17
ENDMDL
MODEL 2
REMARK VINA RESULT:     -13.0      3.112      7.701
REMARK SMILES CCc1ccc(S(=O)(=O)c2nnn(-c3ccc(C(=O)NCCCNC(=O)c4ccc(-c5c6nc(c(-c7c(F)cc(S(=O)(=O)[O-])cc7F)c7ccc([nH]7)c(-c7c(F)cc(S(=O)(=O)[O-])cc7F)c7nc(c(-c8c(F)cc(S(=O)(=O)[O-])cc8F)c8ccc5[nH]8)C=C7)C=C6)cc4)cc3)c2C)cc1
REMARK SMILES IDX 21 1 20 2 18 3 19 4 17 6 14 7 15 8 94 9 16 10 93 11 13 12
REMARK SMILES IDX 10 13 11 14 95 15 12 16 96 17 7 18 8 19 9 20 6 21 3 22 4 23
REMARK SMILES IDX 98 24 5 25 97 26 2 27 1 28 22 29 23 30 24 31 25 32 26 34
REMARK SMILES IDX 27 35 28 36 92 37 29 38 91 39 30 40 31 41 32 42 85 43 33 44
REMARK SMILES IDX 90 45 84 46 86 47 34 48 89 49 83 50 82 51 35 53 69 54 48 55
REMARK SMILES IDX 68 56 49 57 52 58 67 59 87 60 50 61 51 62 66 64 88 65 53 66
REMARK SMILES IDX 36 67 37 68 46 69 38 70 39 71 45 72 47 73 40 74 41 75 42 76
REMARK SMILES IDX 43 77 44 78 70 79 71 80 80 81 72 82 73 83 79 84 81 85 74 86
REMARK SMILES IDX 75 87 76 88 77 89 78 90 54 91 55 92 64 93 56 94 57 95 63 96
REMARK SMILES IDX 65 97 58 98 59 99 60 100 61 101 62 102
REMARK H PARENT 20 5 24 33 86 52 52 63
REMARK Flexibility Score: inf
ROOT
ATOM      1  C   UNL A   1      32.850  29.661  25.188  1.00  0.00     0.118 C 
ENDROOT
BRANCH   1   2
ATOM      2  N   UNL A   1      31.576  29.899  24.522  1.00  0.00    -0.352 N 
ATOM      3  C   UNL A   1      30.694  29.056  23.883  1.00  0.00     0.251 C 
ATOM      4  O   UNL A   1      29.603  29.508  23.541  1.00  0.00    -0.269 OA
ATOM      5  H   UNL A   1      31.292  30.842  24.528  1.00  0.00     0.163 HD
BRANCH   3   6
ATOM      6  C   UNL A   1      30.977  27.612  23.654  1.00  0.00     0.039 A 
ATOM      7  C   UNL A   1      31.617  24.899  23.522  1.00  0.00     0.067 A 
ATOM      8  C   UNL A   1      30.483  25.291  24.232  1.00  0.00     0.029 A 
ATOM      9  C   UNL A   1      32.345  25.820  22.773  1.00  0.00     0.029 A 
ATOM     10  C   UNL A   1      30.186  26.657  24.320  1.00  0.00     0.016 A 
ATOM     11  C   UNL A   1      31.989  27.159  22.808  1.00  0.00     0.016 A 
BRANCH   7  12
ATOM     12  N   UNL A   1      32.108  23.588  23.608  1.00  0.00    -0.216 N 
ATOM     13  C   UNL A   1      33.120  21.770  24.220  1.00  0.00     0.205 A 
ATOM     14  N   UNL A   1      32.579  21.575  22.977  1.00  0.00    -0.117 NA
ATOM     15  C   UNL A   1      32.763  23.022  24.689  1.00  0.00     0.081 A 
ATOM     16  N   UNL A   1      31.888  22.661  22.655  1.00  0.00    -0.061 NA
ATOM     17  C   UNL A   1      32.812  23.633  26.044  1.00  0.00     0.070 C 
BRANCH  13  18
ATOM     18  S   UNL A   1      33.850  20.490  25.122  1.00  0.00     0.227 S 
ATOM     19  O   UNL A   1      33.730  19.329  24.274  1.00  0.00    -0.217 OA
ATOM     20  O   UNL A   1      33.264  20.549  26.453  1.00  0.00    -0.217 OA
BRANCH  18  21
ATOM     21  C   UNL A   1      35.571  20.891  25.263  1.00  0.00     0.073 A 
ATOM     22  C   UNL A   1      38.274  21.553  25.619  1.00  0.00    -0.048 A 
ATOM     23  C   UNL A   1      37.259  22.456  25.983  1.00  0.00     0.005 A 
ATOM     24  C   UNL A   1      37.908  20.306  25.099  1.00  0.00     0.005 A 
ATOM     25  C   UNL A   1      35.912  22.128  25.810  1.00  0.00     0.021 A 
ATOM     26  C   UNL A   1      36.568  19.983  24.897  1.00  0.00     0.021 A 
BRANCH  22  27
ATOM     27  C   UNL A   1      39.720  21.923  25.854  1.00  0.00     0.032 C 
ATOM     28  C   UNL A   1      40.371  21.239  27.052  1.00  0.00     0.009 C 
ENDBRANCH  22  27
ENDBRANCH  18  21
ENDBRANCH  13  18
ENDBRANCH   7  12
ENDBRANCH   3   6
ENDBRANCH   1   2
BRANCH   1  29
ATOM     29  C   UNL A   1      32.684  29.021  26.574  1.00  0.00     0.042 C 
BRANCH  29  30
ATOM     30  C   UNL A   1      33.654  29.578  27.595  1.00  0.00     0.118 C 
BRANCH  30  31
ATOM     31  N   UNL A   1      33.951  30.996  27.370  1.00  0.00    -0.352 N 
ATOM     32  C   UNL A   1      35.047  31.721  27.804  1.00  0.00     0.251 C 
ATOM     33  H   UNL A   1      33.287  31.495  26.842  1.00  0.00     0.163 HD
ATOM     34  O   UNL A   1      34.999  32.944  27.857  1.00  0.00    -0.269 OA
BRANCH  32  35
ATOM     35  C   UNL A   1      36.261  30.990  28.208  1.00  0.00     0.039 A 
ATOM     36  C   UNL A   1      36.526  29.689  27.775  1.00  0.00     0.014 A 
ATOM     37  C   UNL A   1      37.174  31.673  29.000  1.00  0.00     0.014 A 
ATOM     38  C   UNL A   1      37.759  29.120  28.087  1.00  0.00     0.010 A 
ATOM     39  C   UNL A   1      38.455  31.213  29.092  1.00  0.00     0.010 A 
ATOM     40  C   UNL A   1      38.729  29.903  28.733  1.00  0.00    -0.014 A 
BRANCH  40  41
ATOM     41  C   UNL A   1      40.076  29.411  28.992  1.00  0.00     0.031 A 
ATOM     42  C   UNL A   1      40.413  29.259  30.432  1.00  0.00     0.074 A 
ATOM     43  C   UNL A   1      40.847  28.889  28.011  1.00  0.00     0.049 A 
ATOM     44  N   UNL A   1      41.264  29.942  31.124  1.00  0.00    -0.248 NA
ATOM     45  C   UNL A   1      39.593  28.343  31.243  1.00  0.00     0.031 C 
ATOM     46  C   UNL A   1      40.504  28.666  26.597  1.00  0.00     0.029 A 
ATOM     47  N   UNL A   1      42.077  28.322  28.100  1.00  0.00    -0.354 N 
ATOM     48  C   UNL A   1      41.267  29.369  32.393  1.00  0.00     0.074 A 
ATOM     49  C   UNL A   1      40.077  28.562  32.466  1.00  0.00     0.031 C 
ATOM     50  C   UNL A   1      41.381  27.799  26.047  1.00  0.00     0.029 A 
ATOM     51  C   UNL A   1      42.447  27.558  26.998  1.00  0.00     0.049 A 
ATOM     52  H   UNL A   1      42.662  28.444  28.882  1.00  0.00     0.167 HD
ATOM     53  C   UNL A   1      42.382  29.393  33.177  1.00  0.00     0.037 A 
ATOM     54  C   UNL A   1      43.539  26.760  26.892  1.00  0.00     0.037 A 
ATOM     55  C   UNL A   1      43.337  30.357  32.684  1.00  0.00     0.049 A 
ATOM     56  C   UNL A   1      44.498  27.215  27.934  1.00  0.00     0.074 A 
ATOM     57  C   UNL A   1      43.299  31.715  32.433  1.00  0.00     0.029 A 
ATOM     58  N   UNL A   1      44.424  29.881  31.987  1.00  0.00    -0.354 N 
ATOM     59  N   UNL A   1      45.073  28.390  27.926  1.00  0.00    -0.248 NA
ATOM     60  C   UNL A   1      44.442  26.561  29.232  1.00  0.00     0.031 C 
ATOM     61  C   UNL A   1      44.034  31.885  31.221  1.00  0.00     0.029 A 
ATOM     62  C   UNL A   1      44.546  30.640  30.849  1.00  0.00     0.049 A 
ATOM     63  H   UNL A   1      45.007  29.134  32.254  1.00  0.00     0.167 HD
ATOM     64  C   UNL A   1      45.061  28.803  29.251  1.00  0.00     0.074 A 
ATOM     65  C   UNL A   1      44.739  27.601  30.018  1.00  0.00     0.031 C 
ATOM     66  C   UNL A   1      45.024  30.129  29.582  1.00  0.00     0.037 A 
BRANCH  53  67
ATOM     67  C   UNL A   1      42.774  28.299  34.149  1.00  0.00     0.058 A 
ATOM     68  C   UNL A   1      42.972  28.626  35.508  1.00  0.00     0.135 A 
ATOM     69  C   UNL A   1      43.233  27.019  33.764  1.00  0.00     0.135 A 
ATOM     70  F   UNL A   1      42.576  29.815  35.989  1.00  0.00    -0.206 F 
ATOM     71  C   UNL A   1      43.652  27.785  36.390  1.00  0.00     0.059 A 
ATOM     72  C   UNL A   1      43.861  26.142  34.641  1.00  0.00     0.059 A 
ATOM     73  F   UNL A   1      43.188  26.586  32.499  1.00  0.00    -0.206 F 
ATOM     74  C   UNL A   1      44.110  26.551  35.939  1.00  0.00     0.060 A 
BRANCH  74  75
ATOM     75  S   UNL A   1      45.091  25.514  37.034  1.00  0.00     0.124 S 
ATOM     76  O   UNL A   1      44.120  25.194  38.074  1.00  0.00    -0.237 OA
ATOM     77  O   UNL A   1      45.471  24.416  36.151  1.00  0.00    -0.237 OA
ATOM     78  O   UNL A   1      46.184  26.394  37.438  1.00  0.00    -0.744 OA
ENDBRANCH  74  75
ENDBRANCH  53  67
BRANCH  54  79
ATOM     79  C   UNL A   1      43.655  25.451  26.194  1.00  0.00     0.058 A 
ATOM     80  C   UNL A   1      44.648  25.227  25.225  1.00  0.00     0.135 A 
ATOM     81  C   UNL A   1      42.976  24.306  26.660  1.00  0.00     0.135 A 
ATOM     82  F   UNL A   1      45.356  26.257  24.737  1.00  0.00    -0.206 F 
ATOM     83  C   UNL A   1      44.986  23.941  24.785  1.00  0.00     0.059 A 
ATOM     84  C   UNL A   1      43.288  23.016  26.229  1.00  0.00     0.059 A 
ATOM     85  F   UNL A   1      42.046  24.396  27.624  1.00  0.00    -0.206 F 
ATOM     86  C   UNL A   1      44.314  22.839  25.310  1.00  0.00     0.060 A 
BRANCH  86  87
ATOM     87  S   UNL A   1      44.870  21.170  24.883  1.00  0.00     0.124 S 
ATOM     88  O   UNL A   1      44.653  21.139  23.441  1.00  0.00    -0.237 OA
ATOM     89  O   UNL A   1      46.263  21.188  25.318  1.00  0.00    -0.237 OA
ATOM     90  O   UNL A   1      43.989  20.308  25.666  1.00  0.00    -0.744 OA
ENDBRANCH  86  87
ENDBRANCH  54  79
BRANCH  66  91
ATOM     91  C   UNL A   1      45.280  31.149  28.497  1.00  0.00     0.058 A 
ATOM     92  C   UNL A   1      44.322  31.580  27.561  1.00  0.00     0.135 A 
ATOM     93  C   UNL A   1      46.503  31.837  28.514  1.00  0.00     0.135 A 
ATOM     94  F   UNL A   1      43.091  31.055  27.541  1.00  0.00    -0.206 F 
ATOM     95  C   UNL A   1      44.581  32.616  26.660  1.00  0.00     0.059 A 
ATOM     96  C   UNL A   1      46.773  32.894  27.647  1.00  0.00     0.059 A 
ATOM     97  F   UNL A   1      47.439  31.520  29.424  1.00  0.00    -0.206 F 
ATOM     98  C   UNL A   1      45.812  33.269  26.712  1.00  0.00     0.060 A 
BRANCH  98  99
ATOM     99  S   UNL A   1      46.121  34.657  25.597  1.00  0.00     0.124 S 
ATOM    100  O   UNL A   1      47.542  34.503  25.302  1.00  0.00    -0.237 OA
ATOM    101  O   UNL A   1      45.210  34.384  24.490  1.00  0.00    -0.237 OA
ATOM    102  O   UNL A   1      45.775  35.825  26.404  1.00  0.00    -0.744 OA
ENDBRANCH  98  99
ENDBRANCH  66  91
ENDBRANCH  40  41
ENDBRANCH  32  35
ENDBRANCH  30  31
ENDBRANCH  29  30
ENDBRANCH   1  29
TORSDOF 17
ENDMDL
MODEL 3
REMARK VINA RESULT:     -13.0      2.796      7.466
REMARK SMILES CCc1ccc(S(=O)(=O)c2nnn(-c3ccc(C(=O)NCCCNC(=O)c4ccc(-c5c6nc(c(-c7c(F)cc(S(=O)(=O)[O-])cc7F)c7ccc([nH]7)c(-c7c(F)cc(S(=O)(=O)[O-])cc7F)c7nc(c(-c8c(F)cc(S(=O)(=O)[O-])cc8F)c8ccc5[nH]8)C=C7)C=C6)cc4)cc3)c2C)cc1
REMARK SMILES IDX 21 1 20 2 18 3 19 4 17 6 14 7 15 8 94 9 16 10 93 11 13 12
REMARK SMILES IDX 10 13 11 14 95 15 12 16 96 17 7 18 8 19 9 20 6 21 3 22 4 23
REMARK SMILES IDX 98 24 5 25 97 26 2 27 1 28 22 29 23 30 24 31 25 32 26 34
REMARK SMILES IDX 27 35 28 36 92 37 29 38 91 39 30 40 31 41 32 42 85 43 33 44
REMARK SMILES IDX 90 45 84 46 86 47 34 48 89 49 83 50 82 51 35 53 69 54 48 55
REMARK SMILES IDX 68 56 49 57 52 58 67 59 87 60 50 61 51 62 66 64 88 65 53 66
REMARK SMILES IDX 36 67 37 68 46 69 38 70 39 71 45 72 47 73 40 74 41 75 42 76
REMARK SMILES IDX 43 77 44 78 70 79 71 80 80 81 72 82 73 83 79 84 81 85 74 86
REMARK SMILES IDX 75 87 76 88 77 89 78 90 54 91 55 92 64 93 56 94 57 95 63 96
REMARK SMILES IDX 65 97 58 98 59 99 60 100 61 101 62 102
REMARK H PARENT 20 5 24 33 86 52 52 63
REMARK Flexibility Score: inf
ROOT
ATOM      1  C   UNL A   1      32.538  29.997  25.263  1.00  0.00     0.118 C 
ENDROOT
BRANCH   1   2
ATOM      2  N   UNL A   1      31.276  30.088  24.541  1.00  0.00    -0.352 N 
ATOM      3  C   UNL A   1      30.497  29.139  23.916  1.00  0.00     0.251 C 
ATOM      4  O   UNL A   1      29.385  29.475  23.513  1.00  0.00    -0.269 OA
ATOM      5  H   UNL A   1      30.911  31.001  24.488  1.00  0.00     0.163 HD
BRANCH   3   6
ATOM      6  C   UNL A   1      30.914  27.716  23.772  1.00  0.00     0.039 A 
ATOM      7  C   UNL A   1      31.827  25.080  23.789  1.00  0.00     0.067 A 
ATOM      8  C   UNL A   1      30.711  25.413  24.557  1.00  0.00     0.029 A 
ATOM      9  C   UNL A   1      32.397  26.004  22.919  1.00  0.00     0.029 A 
ATOM     10  C   UNL A   1      30.279  26.745  24.567  1.00  0.00     0.016 A 
ATOM     11  C   UNL A   1      31.905  27.300  22.884  1.00  0.00     0.016 A 
BRANCH   7  12
ATOM     12  N   UNL A   1      32.458  23.836  23.933  1.00  0.00    -0.216 N 
ATOM     13  C   UNL A   1      33.822  22.229  24.449  1.00  0.00     0.205 A 
ATOM     14  N   UNL A   1      32.888  21.749  23.569  1.00  0.00    -0.117 NA
ATOM     15  C   UNL A   1      33.523  23.543  24.768  1.00  0.00     0.081 A 
ATOM     16  N   UNL A   1      32.010  22.715  23.333  1.00  0.00    -0.061 NA
ATOM     17  C   UNL A   1      33.997  24.438  25.856  1.00  0.00     0.070 C 
BRANCH  13  18
ATOM     18  S   UNL A   1      34.969  21.202  25.232  1.00  0.00     0.227 S 
ATOM     19  O   UNL A   1      34.907  21.576  26.624  1.00  0.00    -0.217 OA
ATOM     20  O   UNL A   1      36.194  21.297  24.450  1.00  0.00    -0.217 OA
BRANCH  18  21
ATOM     21  C   UNL A   1      34.350  19.548  25.079  1.00  0.00     0.073 A 
ATOM     22  C   UNL A   1      33.482  16.886  24.905  1.00  0.00    -0.048 A 
ATOM     23  C   UNL A   1      34.745  17.263  24.417  1.00  0.00     0.005 A 
ATOM     24  C   UNL A   1      32.674  17.861  25.502  1.00  0.00     0.005 A 
ATOM     25  C   UNL A   1      35.182  18.587  24.506  1.00  0.00     0.021 A 
ATOM     26  C   UNL A   1      33.091  19.189  25.569  1.00  0.00     0.021 A 
BRANCH  22  27
ATOM     27  C   UNL A   1      33.054  15.439  24.827  1.00  0.00     0.032 C 
ATOM     28  C   UNL A   1      32.076  15.000  25.913  1.00  0.00     0.009 C 
ENDBRANCH  22  27
ENDBRANCH  18  21
ENDBRANCH  13  18
ENDBRANCH   7  12
ENDBRANCH   3   6
ENDBRANCH   1   2
BRANCH   1  29
ATOM     29  C   UNL A   1      32.354  29.570  26.728  1.00  0.00     0.042 C 
BRANCH  29  30
ATOM     30  C   UNL A   1      33.499  30.015  27.613  1.00  0.00     0.118 C 
BRANCH  30  31
ATOM     31  N   UNL A   1      33.855  31.422  27.405  1.00  0.00    -0.352 N 
ATOM     32  C   UNL A   1      34.976  32.097  27.853  1.00  0.00     0.251 C 
ATOM     33  H   UNL A   1      33.215  31.953  26.879  1.00  0.00     0.163 HD
ATOM     34  O   UNL A   1      34.979  33.321  27.919  1.00  0.00    -0.269 OA
BRANCH  32  35
ATOM     35  C   UNL A   1      36.157  31.314  28.255  1.00  0.00     0.039 A 
ATOM     36  C   UNL A   1      36.431  30.052  27.723  1.00  0.00     0.014 A 
ATOM     37  C   UNL A   1      37.032  31.908  29.154  1.00  0.00     0.014 A 
ATOM     38  C   UNL A   1      37.639  29.437  28.049  1.00  0.00     0.010 A 
ATOM     39  C   UNL A   1      38.301  31.421  29.275  1.00  0.00     0.010 A 
ATOM     40  C   UNL A   1      38.579  30.143  28.815  1.00  0.00    -0.014 A 
BRANCH  40  41
ATOM     41  C   UNL A   1      39.905  29.608  29.103  1.00  0.00     0.031 A 
ATOM     42  C   UNL A   1      40.214  29.466  30.550  1.00  0.00     0.074 A 
ATOM     43  C   UNL A   1      40.671  29.046  28.141  1.00  0.00     0.049 A 
ATOM     44  N   UNL A   1      41.077  30.128  31.246  1.00  0.00    -0.248 NA
ATOM     45  C   UNL A   1      39.349  28.591  31.360  1.00  0.00     0.031 C 
ATOM     46  C   UNL A   1      40.343  28.815  26.726  1.00  0.00     0.029 A 
ATOM     47  N   UNL A   1      41.879  28.437  28.258  1.00  0.00    -0.354 N 
ATOM     48  C   UNL A   1      41.040  29.574  32.522  1.00  0.00     0.074 A 
ATOM     49  C   UNL A   1      39.821  28.811  32.588  1.00  0.00     0.031 C 
ATOM     50  C   UNL A   1      41.197  27.909  26.201  1.00  0.00     0.029 A 
ATOM     51  C   UNL A   1      42.238  27.644  27.173  1.00  0.00     0.049 A 
ATOM     52  H   UNL A   1      42.456  28.549  29.048  1.00  0.00     0.167 HD
ATOM     53  C   UNL A   1      42.143  29.570  33.324  1.00  0.00     0.037 A 
ATOM     54  C   UNL A   1      43.304  26.807  27.095  1.00  0.00     0.037 A 
ATOM     55  C   UNL A   1      43.139  30.493  32.833  1.00  0.00     0.049 A 
ATOM     56  C   UNL A   1      44.261  27.243  28.146  1.00  0.00     0.074 A 
ATOM     57  C   UNL A   1      43.153  31.848  32.562  1.00  0.00     0.029 A 
ATOM     58  N   UNL A   1      44.219  29.969  32.160  1.00  0.00    -0.354 N 
ATOM     59  N   UNL A   1      44.878  28.397  28.131  1.00  0.00    -0.248 NA
ATOM     60  C   UNL A   1      44.162  26.611  29.452  1.00  0.00     0.031 C 
ATOM     61  C   UNL A   1      43.912  31.974  31.360  1.00  0.00     0.029 A 
ATOM     62  C   UNL A   1      44.385  30.707  31.014  1.00  0.00     0.049 A 
ATOM     63  H   UNL A   1      44.771  29.206  32.446  1.00  0.00     0.167 HD
ATOM     64  C   UNL A   1      44.860  28.830  29.450  1.00  0.00     0.074 A 
ATOM     65  C   UNL A   1      44.484  27.651  30.228  1.00  0.00     0.031 C 
ATOM     66  C   UNL A   1      44.865  30.160  29.761  1.00  0.00     0.037 A 
BRANCH  53  67
ATOM     67  C   UNL A   1      42.481  28.477  34.317  1.00  0.00     0.058 A 
ATOM     68  C   UNL A   1      42.649  28.814  35.677  1.00  0.00     0.135 A 
ATOM     69  C   UNL A   1      42.919  27.182  33.958  1.00  0.00     0.135 A 
ATOM     70  F   UNL A   1      42.269  30.017  36.136  1.00  0.00    -0.206 F 
ATOM     71  C   UNL A   1      43.284  27.966  36.587  1.00  0.00     0.059 A 
ATOM     72  C   UNL A   1      43.501  26.300  34.860  1.00  0.00     0.059 A 
ATOM     73  F   UNL A   1      42.899  26.738  32.696  1.00  0.00    -0.206 F 
ATOM     74  C   UNL A   1      43.724  26.716  36.161  1.00  0.00     0.060 A 
BRANCH  74  75
ATOM     75  S   UNL A   1      44.648  25.667  37.294  1.00  0.00     0.124 S 
ATOM     76  O   UNL A   1      45.987  26.234  37.184  1.00  0.00    -0.237 OA
ATOM     77  O   UNL A   1      43.954  25.901  38.556  1.00  0.00    -0.237 OA
ATOM     78  O   UNL A   1      44.477  24.332  36.729  1.00  0.00    -0.744 OA
ENDBRANCH  74  75
ENDBRANCH  53  67
BRANCH  54  79
ATOM     79  C   UNL A   1      43.383  25.485  26.418  1.00  0.00     0.058 A 
ATOM     80  C   UNL A   1      44.191  25.295  25.282  1.00  0.00     0.135 A 
ATOM     81  C   UNL A   1      42.892  24.313  27.030  1.00  0.00     0.135 A 
ATOM     82  F   UNL A   1      44.715  26.353  24.646  1.00  0.00    -0.206 F 
ATOM     83  C   UNL A   1      44.535  24.021  24.815  1.00  0.00     0.059 A 
ATOM     84  C   UNL A   1      43.213  23.033  26.576  1.00  0.00     0.059 A 
ATOM     85  F   UNL A   1      42.156  24.373  28.150  1.00  0.00    -0.206 F 
ATOM     86  C   UNL A   1      44.058  22.894  25.483  1.00  0.00     0.060 A 
BRANCH  86  87
ATOM     87  S   UNL A   1      44.647  21.254  24.996  1.00  0.00     0.124 S 
ATOM     88  O   UNL A   1      44.786  21.399  23.551  1.00  0.00    -0.237 OA
ATOM     89  O   UNL A   1      45.893  21.137  25.748  1.00  0.00    -0.237 OA
ATOM     90  O   UNL A   1      43.575  20.364  25.433  1.00  0.00    -0.744 OA
ENDBRANCH  86  87
ENDBRANCH  54  79
BRANCH  66  91
ATOM     91  C   UNL A   1      45.173  31.155  28.666  1.00  0.00     0.058 A 
ATOM     92  C   UNL A   1      44.215  31.724  27.808  1.00  0.00     0.135 A 
ATOM     93  C   UNL A   1      46.475  31.675  28.595  1.00  0.00     0.135 A 
ATOM     94  F   UNL A   1      42.927  31.367  27.878  1.00  0.00    -0.206 F 
ATOM     95  C   UNL A   1      44.543  32.731  26.896  1.00  0.00     0.059 A 
ATOM     96  C   UNL A   1      46.818  32.700  27.717  1.00  0.00     0.059 A 
ATOM     97  F   UNL A   1      47.425  31.221  29.430  1.00  0.00    -0.206 F 
ATOM     98  C   UNL A   1      45.850  33.215  26.860  1.00  0.00     0.060 A 
BRANCH  98  99
ATOM     99  S   UNL A   1      46.258  34.567  25.733  1.00  0.00     0.124 S 
ATOM    100  O   UNL A   1      47.682  34.350  25.497  1.00  0.00    -0.237 OA
ATOM    101  O   UNL A   1      45.379  34.310  24.596  1.00  0.00    -0.237 OA
ATOM    102  O   UNL A   1      45.929  35.764  26.504  1.00  0.00    -0.744 OA
ENDBRANCH  98  99
ENDBRANCH  66  91
ENDBRANCH  40  41
ENDBRANCH  32  35
ENDBRANCH  30  31
ENDBRANCH  29  30
ENDBRANCH   1  29
TORSDOF 17
ENDMDL
