MODEL 1
REMARK VINA RESULT:     -11.5      0.000      0.000
REMARK SMILES O=C(CS(=O)(=O)NCc1ccc(N2CCOCC2)nc1)NCCCNC(=O)c1ccc(-c2c3nc(c(-c4c(F)cc(S(=O)(=O)[O-])cc4F)c4ccc([nH]4)c(-c4c(F)cc(S(=O)(=O)[O-])cc4F)c4nc(c(-c5c(F)cc(S(=O)(=O)[O-])cc5F)c5ccc2[nH]5)C=C4)C=C3)cc1
REMARK SMILES IDX 22 1 21 2 1 3 2 4 3 6 4 7 5 8 6 9 7 10 8 12 9 13 10 14 20 15
REMARK SMILES IDX 11 16 19 17 12 18 13 19 14 20 18 21 15 22 17 23 16 24 23 25
REMARK SMILES IDX 24 26 25 27 26 28 27 30 28 31 29 32 93 33 30 34 92 35 31 36
REMARK SMILES IDX 32 37 33 38 86 39 34 40 91 41 85 42 87 43 35 44 90 45 84 46
REMARK SMILES IDX 83 47 36 49 70 50 49 51 69 52 50 53 53 54 68 55 88 56 51 57
REMARK SMILES IDX 52 58 67 60 89 61 54 62 37 63 38 64 47 65 39 66 40 67 46 68
REMARK SMILES IDX 48 69 41 70 42 71 43 72 44 73 45 74 71 75 72 76 81 77 73 78
REMARK SMILES IDX 74 79 80 80 82 81 75 82 76 83 77 84 78 85 79 86 55 87 56 88
REMARK SMILES IDX 65 89 57 90 58 91 64 92 66 93 59 94 60 95 61 96 62 97 63 98
REMARK H PARENT 21 5 7 11 25 29 87 48 53 59
REMARK Flexibility Score: inf
ROOT
ATOM      1  C   UNL A   1      31.775  27.732  25.456  1.00  0.00     0.117 C 
ENDROOT
BRANCH   1   2
ATOM      2  N   UNL A   1      31.897  26.932  24.250  1.00  0.00    -0.355 N 
ATOM      3  O   UNL A   1      30.669  28.342  22.928  1.00  0.00    -0.274 OA
ATOM      4  C   UNL A   1      31.311  27.301  23.060  1.00  0.00     0.236 C 
ATOM      5  H   UNL A   1      32.416  26.097  24.285  1.00  0.00     0.163 HD
BRANCH   4   6
ATOM      6  C   UNL A   1      31.418  26.316  21.940  1.00  0.00     0.253 C 
BRANCH   6   7
ATOM      7  S   UNL A   1      32.996  25.524  21.897  1.00  0.00     0.220 S 
ATOM      8  O   UNL A   1      33.179  24.952  20.583  1.00  0.00    -0.212 OA
ATOM      9  O   UNL A   1      33.962  26.476  22.410  1.00  0.00    -0.212 OA
BRANCH   7  10
ATOM     10  N   UNL A   1      32.962  24.328  23.053  1.00  0.00    -0.210 NA
ATOM     11  H   UNL A   1      33.306  24.766  23.908  1.00  0.00     0.141 HD
BRANCH  10  12
ATOM     12  C   UNL A   1      31.764  23.586  23.446  1.00  0.00     0.135 C 
BRANCH  12  13
ATOM     13  C   UNL A   1      31.942  22.123  23.713  1.00  0.00    -0.015 A 
ATOM     14  C   UNL A   1      32.083  21.225  22.658  1.00  0.00     0.010 A 
ATOM     15  C   UNL A   1      31.994  21.593  24.998  1.00  0.00     0.118 A 
ATOM     16  C   UNL A   1      32.363  19.892  22.930  1.00  0.00     0.047 A 
ATOM     17  N   UNL A   1      32.282  20.300  25.285  1.00  0.00    -0.239 NA
ATOM     18  C   UNL A   1      32.501  19.469  24.249  1.00  0.00     0.128 A 
BRANCH  18  19
ATOM     19  N   UNL A   1      32.946  18.187  24.462  1.00  0.00    -0.352 N 
ATOM     20  C   UNL A   1      34.277  17.802  24.003  1.00  0.00     0.146 C 
ATOM     21  C   UNL A   1      32.475  17.481  25.647  1.00  0.00     0.146 C 
ATOM     22  C   UNL A   1      34.309  16.269  23.822  1.00  0.00     0.181 C 
ATOM     23  C   UNL A   1      32.528  15.977  25.349  1.00  0.00     0.181 C 
ATOM     24  O   UNL A   1      33.867  15.570  25.004  1.00  0.00    -0.378 OA
ENDBRANCH  18  19
ENDBRANCH  12  13
ENDBRANCH  10  12
ENDBRANCH   7  10
ENDBRANCH   6   7
ENDBRANCH   4   6
ENDBRANCH   1   2
BRANCH   1  25
ATOM     25  C   UNL A   1      32.996  28.603  25.716  1.00  0.00     0.042 C 
BRANCH  25  26
ATOM     26  C   UNL A   1      33.335  28.801  27.191  1.00  0.00     0.118 C 
BRANCH  26  27
ATOM     27  N   UNL A   1      33.513  30.204  27.536  1.00  0.00    -0.352 N 
ATOM     28  C   UNL A   1      34.486  30.816  28.286  1.00  0.00     0.251 C 
ATOM     29  H   UNL A   1      32.828  30.810  27.172  1.00  0.00     0.163 HD
ATOM     30  O   UNL A   1      34.230  31.901  28.808  1.00  0.00    -0.269 OA
BRANCH  28  31
ATOM     31  C   UNL A   1      35.824  30.199  28.470  1.00  0.00     0.039 A 
ATOM     32  C   UNL A   1      36.703  30.160  27.383  1.00  0.00     0.014 A 
ATOM     33  C   UNL A   1      36.216  29.631  29.685  1.00  0.00     0.014 A 
ATOM     34  C   UNL A   1      37.999  29.663  27.548  1.00  0.00     0.010 A 
ATOM     35  C   UNL A   1      37.539  29.239  29.878  1.00  0.00     0.010 A 
ATOM     36  C   UNL A   1      38.452  29.268  28.818  1.00  0.00    -0.014 A 
BRANCH  36  37
ATOM     37  C   UNL A   1      39.884  28.957  29.070  1.00  0.00     0.031 A 
ATOM     38  C   UNL A   1      40.820  30.008  29.603  1.00  0.00     0.074 A 
ATOM     39  C   UNL A   1      40.358  27.745  28.710  1.00  0.00     0.049 A 
ATOM     40  N   UNL A   1      42.114  29.944  29.786  1.00  0.00    -0.248 NA
ATOM     41  C   UNL A   1      40.234  31.315  29.938  1.00  0.00     0.031 C 
ATOM     42  C   UNL A   1      39.564  26.672  28.103  1.00  0.00     0.029 A 
ATOM     43  N   UNL A   1      41.620  27.213  28.788  1.00  0.00    -0.354 N 
ATOM     44  C   UNL A   1      42.499  31.202  30.234  1.00  0.00     0.074 A 
ATOM     45  C   UNL A   1      41.311  32.027  30.243  1.00  0.00     0.031 C 
ATOM     46  C   UNL A   1      40.347  25.602  27.899  1.00  0.00     0.029 A 
ATOM     47  C   UNL A   1      41.706  25.924  28.314  1.00  0.00     0.049 A 
ATOM     48  H   UNL A   1      42.392  27.708  29.148  1.00  0.00     0.167 HD
ATOM     49  C   UNL A   1      43.727  31.624  30.626  1.00  0.00     0.037 A 
ATOM     50  C   UNL A   1      42.762  25.093  28.219  1.00  0.00     0.037 A 
ATOM     51  C   UNL A   1      44.895  30.782  30.645  1.00  0.00     0.049 A 
ATOM     52  C   UNL A   1      44.104  25.570  28.698  1.00  0.00     0.074 A 
ATOM     53  C   UNL A   1      46.171  31.088  31.085  1.00  0.00     0.029 A 
ATOM     54  N   UNL A   1      44.929  29.465  30.209  1.00  0.00    -0.354 N 
ATOM     55  N   UNL A   1      44.434  26.743  29.183  1.00  0.00    -0.248 NA
ATOM     56  C   UNL A   1      45.214  24.612  28.626  1.00  0.00     0.031 C 
ATOM     57  C   UNL A   1      46.985  29.968  30.882  1.00  0.00     0.029 A 
ATOM     58  C   UNL A   1      46.206  28.949  30.357  1.00  0.00     0.049 A 
ATOM     59  H   UNL A   1      44.159  28.970  29.845  1.00  0.00     0.167 HD
ATOM     60  C   UNL A   1      45.785  26.656  29.500  1.00  0.00     0.074 A 
ATOM     61  C   UNL A   1      46.206  25.311  29.162  1.00  0.00     0.031 C 
ATOM     62  C   UNL A   1      46.602  27.603  30.023  1.00  0.00     0.037 A 
BRANCH  49  63
ATOM     63  C   UNL A   1      43.864  33.054  31.078  1.00  0.00     0.058 A 
ATOM     64  C   UNL A   1      44.180  34.085  30.178  1.00  0.00     0.135 A 
ATOM     65  C   UNL A   1      43.648  33.407  32.421  1.00  0.00     0.135 A 
ATOM     66  F   UNL A   1      44.408  33.805  28.884  1.00  0.00    -0.206 F 
ATOM     67  C   UNL A   1      44.315  35.404  30.596  1.00  0.00     0.059 A 
ATOM     68  C   UNL A   1      43.749  34.725  32.857  1.00  0.00     0.059 A 
ATOM     69  F   UNL A   1      43.339  32.465  33.327  1.00  0.00    -0.206 F 
ATOM     70  C   UNL A   1      44.100  35.714  31.940  1.00  0.00     0.060 A 
BRANCH  70  71
ATOM     71  S   UNL A   1      44.283  37.431  32.467  1.00  0.00     0.124 S 
ATOM     72  O   UNL A   1      44.036  38.146  31.218  1.00  0.00    -0.237 OA
ATOM     73  O   UNL A   1      43.246  37.559  33.485  1.00  0.00    -0.237 OA
ATOM     74  O   UNL A   1      45.654  37.491  32.962  1.00  0.00    -0.744 OA
ENDBRANCH  70  71
ENDBRANCH  49  63
BRANCH  50  75
ATOM     75  C   UNL A   1      42.578  23.717  27.685  1.00  0.00     0.058 A 
ATOM     76  C   UNL A   1      42.607  23.475  26.304  1.00  0.00     0.135 A 
ATOM     77  C   UNL A   1      42.398  22.617  28.537  1.00  0.00     0.135 A 
ATOM     78  F   UNL A   1      42.776  24.494  25.447  1.00  0.00    -0.206 F 
ATOM     79  C   UNL A   1      42.448  22.194  25.784  1.00  0.00     0.059 A 
ATOM     80  C   UNL A   1      42.262  21.323  28.042  1.00  0.00     0.059 A 
ATOM     81  F   UNL A   1      42.385  22.792  29.868  1.00  0.00    -0.206 F 
ATOM     82  C   UNL A   1      42.278  21.124  26.663  1.00  0.00     0.060 A 
BRANCH  82  83
ATOM     83  S   UNL A   1      42.120  19.459  25.980  1.00  0.00     0.124 S 
ATOM     84  O   UNL A   1      42.616  18.642  27.082  1.00  0.00    -0.237 OA
ATOM     85  O   UNL A   1      40.688  19.370  25.714  1.00  0.00    -0.237 OA
ATOM     86  O   UNL A   1      42.968  19.502  24.792  1.00  0.00    -0.744 OA
ENDBRANCH  82  83
ENDBRANCH  50  75
BRANCH  62  87
ATOM     87  C   UNL A   1      48.025  27.206  30.296  1.00  0.00     0.058 A 
ATOM     88  C   UNL A   1      49.045  27.427  29.358  1.00  0.00     0.135 A 
ATOM     89  C   UNL A   1      48.377  26.640  31.532  1.00  0.00     0.135 A 
ATOM     90  F   UNL A   1      48.759  27.958  28.160  1.00  0.00    -0.206 F 
ATOM     91  C   UNL A   1      50.365  27.079  29.628  1.00  0.00     0.059 A 
ATOM     92  C   UNL A   1      49.694  26.310  31.833  1.00  0.00     0.059 A 
ATOM     93  F   UNL A   1      47.439  26.417  32.466  1.00  0.00    -0.206 F 
ATOM     94  C   UNL A   1      50.679  26.522  30.870  1.00  0.00     0.060 A 
BRANCH  94  95
ATOM     95  S   UNL A   1      52.401  26.107  31.221  1.00  0.00     0.124 S 
ATOM     96  O   UNL A   1      52.261  24.820  31.893  1.00  0.00    -0.237 OA
ATOM     97  O   UNL A   1      52.992  26.065  29.888  1.00  0.00    -0.237 OA
ATOM     98  O   UNL A   1      52.850  27.211  32.064  1.00  0.00    -0.744 OA
ENDBRANCH  94  95
ENDBRANCH  62  87
ENDBRANCH  36  37
ENDBRANCH  28  31
ENDBRANCH  26  27
ENDBRANCH  25  26
ENDBRANCH   1  25
TORSDOF 18
ENDMDL
MODEL 2
REMARK VINA RESULT:     -11.4      5.120     11.198
REMARK SMILES O=C(CS(=O)(=O)NCc1ccc(N2CCOCC2)nc1)NCCCNC(=O)c1ccc(-c2c3nc(c(-c4c(F)cc(S(=O)(=O)[O-])cc4F)c4ccc([nH]4)c(-c4c(F)cc(S(=O)(=O)[O-])cc4F)c4nc(c(-c5c(F)cc(S(=O)(=O)[O-])cc5F)c5ccc2[nH]5)C=C4)C=C3)cc1
REMARK SMILES IDX 22 1 21 2 1 3 2 4 3 6 4 7 5 8 6 9 7 10 8 12 9 13 10 14 20 15
REMARK SMILES IDX 11 16 19 17 12 18 13 19 14 20 18 21 15 22 17 23 16 24 23 25
REMARK SMILES IDX 24 26 25 27 26 28 27 30 28 31 29 32 93 33 30 34 92 35 31 36
REMARK SMILES IDX 32 37 33 38 86 39 34 40 91 41 85 42 87 43 35 44 90 45 84 46
REMARK SMILES IDX 83 47 36 49 70 50 49 51 69 52 50 53 53 54 68 55 88 56 51 57
REMARK SMILES IDX 52 58 67 60 89 61 54 62 37 63 38 64 47 65 39 66 40 67 46 68
REMARK SMILES IDX 48 69 41 70 42 71 43 72 44 73 45 74 71 75 72 76 81 77 73 78
REMARK SMILES IDX 74 79 80 80 82 81 75 82 76 83 77 84 78 85 79 86 55 87 56 88
REMARK SMILES IDX 65 89 57 90 58 91 64 92 66 93 59 94 60 95 61 96 62 97 63 98
REMARK H PARENT 21 5 7 11 25 29 87 48 53 59
REMARK Flexibility Score: inf
ROOT
ATOM      1  C   UNL A   1      37.250  22.804  24.369  1.00  0.00     0.117 C 
ENDROOT
BRANCH   1   2
ATOM      2  N   UNL A   1      35.842  22.497  24.184  1.00  0.00    -0.355 N 
ATOM      3  O   UNL A   1      35.102  24.631  24.558  1.00  0.00    -0.274 OA
ATOM      4  C   UNL A   1      34.858  23.451  24.309  1.00  0.00     0.236 C 
ATOM      5  H   UNL A   1      35.584  21.573  23.963  1.00  0.00     0.163 HD
BRANCH   4   6
ATOM      6  C   UNL A   1      33.449  22.959  24.215  1.00  0.00     0.253 C 
BRANCH   6   7
ATOM      7  S   UNL A   1      32.557  23.739  22.905  1.00  0.00     0.220 S 
ATOM      8  O   UNL A   1      33.283  23.525  21.674  1.00  0.00    -0.212 OA
ATOM      9  O   UNL A   1      31.178  23.303  23.014  1.00  0.00    -0.212 OA
BRANCH   7  10
ATOM     10  N   UNL A   1      32.493  25.360  23.269  1.00  0.00    -0.210 NA
ATOM     11  H   UNL A   1      32.497  25.842  22.370  1.00  0.00     0.141 HD
BRANCH  10  12
ATOM     12  C   UNL A   1      31.432  25.996  24.050  1.00  0.00     0.135 C 
BRANCH  12  13
ATOM     13  C   UNL A   1      30.777  27.195  23.435  1.00  0.00    -0.015 A 
ATOM     14  C   UNL A   1      29.395  27.352  23.495  1.00  0.00     0.010 A 
ATOM     15  C   UNL A   1      31.495  28.204  22.803  1.00  0.00     0.118 A 
ATOM     16  C   UNL A   1      28.821  28.525  23.023  1.00  0.00     0.047 A 
ATOM     17  N   UNL A   1      30.958  29.363  22.351  1.00  0.00    -0.239 NA
ATOM     18  C   UNL A   1      29.630  29.530  22.499  1.00  0.00     0.128 A 
BRANCH  18  19
ATOM     19  N   UNL A   1      29.038  30.734  22.206  1.00  0.00    -0.352 N 
ATOM     20  C   UNL A   1      28.111  30.825  21.081  1.00  0.00     0.146 C 
ATOM     21  C   UNL A   1      28.769  31.656  23.301  1.00  0.00     0.146 C 
ATOM     22  C   UNL A   1      28.055  32.294  20.610  1.00  0.00     0.181 C 
ATOM     23  C   UNL A   1      28.757  33.078  22.726  1.00  0.00     0.181 C 
ATOM     24  O   UNL A   1      27.763  33.203  21.691  1.00  0.00    -0.378 OA
ENDBRANCH  18  19
ENDBRANCH  12  13
ENDBRANCH  10  12
ENDBRANCH   7  10
ENDBRANCH   6   7
ENDBRANCH   4   6
ENDBRANCH   1   2
BRANCH   1  25
ATOM     25  C   UNL A   1      37.678  22.770  25.829  1.00  0.00     0.042 C 
BRANCH  25  26
ATOM     26  C   UNL A   1      38.451  24.001  26.297  1.00  0.00     0.118 C 
BRANCH  26  27
ATOM     27  N   UNL A   1      39.886  23.768  26.350  1.00  0.00    -0.352 N 
ATOM     28  C   UNL A   1      40.906  24.601  26.735  1.00  0.00     0.251 C 
ATOM     29  H   UNL A   1      40.171  22.869  26.065  1.00  0.00     0.163 HD
ATOM     30  O   UNL A   1      42.039  24.380  26.310  1.00  0.00    -0.269 OA
BRANCH  28  31
ATOM     31  C   UNL A   1      40.665  25.748  27.648  1.00  0.00     0.039 A 
ATOM     32  C   UNL A   1      39.627  25.659  28.581  1.00  0.00     0.014 A 
ATOM     33  C   UNL A   1      41.423  26.919  27.581  1.00  0.00     0.014 A 
ATOM     34  C   UNL A   1      39.431  26.685  29.509  1.00  0.00     0.010 A 
ATOM     35  C   UNL A   1      41.300  27.889  28.573  1.00  0.00     0.010 A 
ATOM     36  C   UNL A   1      40.315  27.775  29.561  1.00  0.00    -0.014 A 
BRANCH  36  37
ATOM     37  C   UNL A   1      40.273  28.758  30.677  1.00  0.00     0.031 A 
ATOM     38  C   UNL A   1      41.163  28.598  31.880  1.00  0.00     0.074 A 
ATOM     39  C   UNL A   1      39.345  29.738  30.644  1.00  0.00     0.049 A 
ATOM     40  N   UNL A   1      41.189  29.298  32.985  1.00  0.00    -0.248 NA
ATOM     41  C   UNL A   1      42.124  27.484  31.856  1.00  0.00     0.031 C 
ATOM     42  C   UNL A   1      38.369  29.942  29.569  1.00  0.00     0.029 A 
ATOM     43  N   UNL A   1      39.060  30.737  31.539  1.00  0.00    -0.354 N 
ATOM     44  C   UNL A   1      42.147  28.698  33.794  1.00  0.00     0.074 A 
ATOM     45  C   UNL A   1      42.641  27.544  33.076  1.00  0.00     0.031 C 
ATOM     46  C   UNL A   1      37.619  31.019  29.850  1.00  0.00     0.029 A 
ATOM     47  C   UNL A   1      38.026  31.554  31.143  1.00  0.00     0.049 A 
ATOM     48  H   UNL A   1      39.547  30.857  32.386  1.00  0.00     0.167 HD
ATOM     49  C   UNL A   1      42.591  29.088  35.014  1.00  0.00     0.037 A 
ATOM     50  C   UNL A   1      37.464  32.616  31.753  1.00  0.00     0.037 A 
ATOM     51  C   UNL A   1      42.115  30.259  35.704  1.00  0.00     0.049 A 
ATOM     52  C   UNL A   1      38.001  33.053  33.086  1.00  0.00     0.074 A 
ATOM     53  C   UNL A   1      42.543  30.782  36.912  1.00  0.00     0.029 A 
ATOM     54  N   UNL A   1      41.105  31.093  35.244  1.00  0.00    -0.354 N 
ATOM     55  N   UNL A   1      38.956  32.512  33.805  1.00  0.00    -0.248 NA
ATOM     56  C   UNL A   1      37.394  34.247  33.688  1.00  0.00     0.031 C 
ATOM     57  C   UNL A   1      41.768  31.911  37.200  1.00  0.00     0.029 A 
ATOM     58  C   UNL A   1      40.888  32.119  36.149  1.00  0.00     0.049 A 
ATOM     59  H   UNL A   1      40.614  30.973  34.399  1.00  0.00     0.167 HD
ATOM     60  C   UNL A   1      39.084  33.315  34.932  1.00  0.00     0.074 A 
ATOM     61  C   UNL A   1      38.115  34.385  34.792  1.00  0.00     0.031 C 
ATOM     62  C   UNL A   1      39.925  33.180  35.987  1.00  0.00     0.037 A 
BRANCH  49  63
ATOM     63  C   UNL A   1      43.654  28.248  35.673  1.00  0.00     0.058 A 
ATOM     64  C   UNL A   1      45.020  28.452  35.414  1.00  0.00     0.135 A 
ATOM     65  C   UNL A   1      43.309  27.247  36.596  1.00  0.00     0.135 A 
ATOM     66  F   UNL A   1      45.407  29.388  34.533  1.00  0.00    -0.206 F 
ATOM     67  C   UNL A   1      46.001  27.672  36.016  1.00  0.00     0.059 A 
ATOM     68  C   UNL A   1      44.276  26.473  37.232  1.00  0.00     0.059 A 
ATOM     69  F   UNL A   1      42.020  27.008  36.885  1.00  0.00    -0.206 F 
ATOM     70  C   UNL A   1      45.619  26.681  36.922  1.00  0.00     0.060 A 
BRANCH  70  71
ATOM     71  S   UNL A   1      46.906  25.675  37.691  1.00  0.00     0.124 S 
ATOM     72  O   UNL A   1      46.256  24.369  37.750  1.00  0.00    -0.237 OA
ATOM     73  O   UNL A   1      48.006  25.792  36.740  1.00  0.00    -0.237 OA
ATOM     74  O   UNL A   1      47.122  26.326  38.979  1.00  0.00    -0.744 OA
ENDBRANCH  70  71
ENDBRANCH  49  63
BRANCH  50  75
ATOM     75  C   UNL A   1      36.358  33.355  31.087  1.00  0.00     0.058 A 
ATOM     76  C   UNL A   1      36.603  34.141  29.951  1.00  0.00     0.135 A 
ATOM     77  C   UNL A   1      35.036  33.271  31.550  1.00  0.00     0.135 A 
ATOM     78  F   UNL A   1      37.850  34.254  29.469  1.00  0.00    -0.206 F 
ATOM     79  C   UNL A   1      35.581  34.832  29.308  1.00  0.00     0.059 A 
ATOM     80  C   UNL A   1      33.993  33.932  30.908  1.00  0.00     0.059 A 
ATOM     81  F   UNL A   1      34.746  32.514  32.620  1.00  0.00    -0.206 F 
ATOM     82  C   UNL A   1      34.278  34.719  29.794  1.00  0.00     0.060 A 
BRANCH  82  83
ATOM     83  S   UNL A   1      32.951  35.581  28.922  1.00  0.00     0.124 S 
ATOM     84  O   UNL A   1      32.360  34.498  28.144  1.00  0.00    -0.237 OA
ATOM     85  O   UNL A   1      32.140  36.091  30.024  1.00  0.00    -0.237 OA
ATOM     86  O   UNL A   1      33.661  36.599  28.154  1.00  0.00    -0.744 OA
ENDBRANCH  82  83
ENDBRANCH  50  75
BRANCH  62  87
ATOM     87  C   UNL A   1      39.861  34.235  37.055  1.00  0.00     0.058 A 
ATOM     88  C   UNL A   1      40.494  35.477  36.903  1.00  0.00     0.135 A 
ATOM     89  C   UNL A   1      39.117  34.012  38.225  1.00  0.00     0.135 A 
ATOM     90  F   UNL A   1      41.223  35.735  35.807  1.00  0.00    -0.206 F 
ATOM     91  C   UNL A   1      40.409  36.458  37.886  1.00  0.00     0.059 A 
ATOM     92  C   UNL A   1      38.996  34.988  39.208  1.00  0.00     0.059 A 
ATOM     93  F   UNL A   1      38.485  32.843  38.413  1.00  0.00    -0.206 F 
ATOM     94  C   UNL A   1      39.657  36.204  39.035  1.00  0.00     0.060 A 
BRANCH  94  95
ATOM     95  S   UNL A   1      39.526  37.497  40.288  1.00  0.00     0.124 S 
ATOM     96  O   UNL A   1      40.930  37.796  40.547  1.00  0.00    -0.237 OA
ATOM     97  O   UNL A   1      38.776  38.535  39.590  1.00  0.00    -0.237 OA
ATOM     98  O   UNL A   1      38.811  36.842  41.378  1.00  0.00    -0.744 OA
ENDBRANCH  94  95
ENDBRANCH  62  87
ENDBRANCH  36  37
ENDBRANCH  28  31
ENDBRANCH  26  27
ENDBRANCH  25  26
ENDBRANCH   1  25
TORSDOF 18
ENDMDL
MODEL 3
REMARK VINA RESULT:     -11.4      2.632      3.259
REMARK SMILES O=C(CS(=O)(=O)NCc1ccc(N2CCOCC2)nc1)NCCCNC(=O)c1ccc(-c2c3nc(c(-c4c(F)cc(S(=O)(=O)[O-])cc4F)c4ccc([nH]4)c(-c4c(F)cc(S(=O)(=O)[O-])cc4F)c4nc(c(-c5c(F)cc(S(=O)(=O)[O-])cc5F)c5ccc2[nH]5)C=C4)C=C3)cc1
REMARK SMILES IDX 22 1 21 2 1 3 2 4 3 6 4 7 5 8 6 9 7 10 8 12 9 13 10 14 20 15
REMARK SMILES IDX 11 16 19 17 12 18 13 19 14 20 18 21 15 22 17 23 16 24 23 25
REMARK SMILES IDX 24 26 25 27 26 28 27 30 28 31 29 32 93 33 30 34 92 35 31 36
REMARK SMILES IDX 32 37 33 38 86 39 34 40 91 41 85 42 87 43 35 44 90 45 84 46
REMARK SMILES IDX 83 47 36 49 70 50 49 51 69 52 50 53 53 54 68 55 88 56 51 57
REMARK SMILES IDX 52 58 67 60 89 61 54 62 37 63 38 64 47 65 39 66 40 67 46 68
REMARK SMILES IDX 48 69 41 70 42 71 43 72 44 73 45 74 71 75 72 76 81 77 73 78
REMARK SMILES IDX 74 79 80 80 82 81 75 82 76 83 77 84 78 85 79 86 55 87 56 88
REMARK SMILES IDX 65 89 57 90 58 91 64 92 66 93 59 94 60 95 61 96 62 97 63 98
REMARK H PARENT 21 5 7 11 25 29 87 48 53 59
REMARK Flexibility Score: inf
ROOT
ATOM      1  C   UNL A   1      32.382  28.976  24.002  1.00  0.00     0.117 C 
ENDROOT
BRANCH   1   2
ATOM      2  N   UNL A   1      32.089  28.137  22.853  1.00  0.00    -0.355 N 
ATOM      3  O   UNL A   1      31.222  26.400  24.066  1.00  0.00    -0.274 OA
ATOM      4  C   UNL A   1      31.533  26.885  22.978  1.00  0.00     0.236 C 
ATOM      5  H   UNL A   1      32.296  28.478  21.953  1.00  0.00     0.163 HD
BRANCH   4   6
ATOM      6  C   UNL A   1      31.406  26.091  21.717  1.00  0.00     0.253 C 
BRANCH   6   7
ATOM      7  S   UNL A   1      32.952  25.414  21.197  1.00  0.00     0.220 S 
ATOM      8  O   UNL A   1      32.931  25.293  19.758  1.00  0.00    -0.212 OA
ATOM      9  O   UNL A   1      33.993  26.193  21.840  1.00  0.00    -0.212 OA
BRANCH   7  10
ATOM     10  N   UNL A   1      33.080  23.915  21.905  1.00  0.00    -0.210 NA
ATOM     11  H   UNL A   1      33.598  23.342  21.240  1.00  0.00     0.141 HD
BRANCH  10  12
ATOM     12  C   UNL A   1      33.697  23.660  23.206  1.00  0.00     0.135 C 
BRANCH  12  13
ATOM     13  C   UNL A   1      33.609  22.258  23.726  1.00  0.00    -0.015 A 
ATOM     14  C   UNL A   1      32.505  21.463  23.429  1.00  0.00     0.010 A 
ATOM     15  C   UNL A   1      34.609  21.677  24.498  1.00  0.00     0.118 A 
ATOM     16  C   UNL A   1      32.498  20.131  23.821  1.00  0.00     0.047 A 
ATOM     17  N   UNL A   1      34.630  20.376  24.877  1.00  0.00    -0.239 NA
ATOM     18  C   UNL A   1      33.592  19.605  24.503  1.00  0.00     0.128 A 
BRANCH  18  19
ATOM     19  N   UNL A   1      33.614  18.248  24.718  1.00  0.00    -0.352 N 
ATOM     20  C   UNL A   1      32.355  17.524  24.870  1.00  0.00     0.146 C 
ATOM     21  C   UNL A   1      34.702  17.475  24.135  1.00  0.00     0.146 C 
ATOM     22  C   UNL A   1      32.631  16.221  25.651  1.00  0.00     0.181 C 
ATOM     23  C   UNL A   1      34.903  16.222  24.998  1.00  0.00     0.181 C 
ATOM     24  O   UNL A   1      33.692  15.444  25.059  1.00  0.00    -0.378 OA
ENDBRANCH  18  19
ENDBRANCH  12  13
ENDBRANCH  10  12
ENDBRANCH   7  10
ENDBRANCH   6   7
ENDBRANCH   4   6
ENDBRANCH   1   2
BRANCH   1  25
ATOM     25  C   UNL A   1      33.663  28.573  24.719  1.00  0.00     0.042 C 
BRANCH  25  26
ATOM     26  C   UNL A   1      33.665  28.844  26.221  1.00  0.00     0.118 C 
BRANCH  26  27
ATOM     27  N   UNL A   1      33.789  30.261  26.530  1.00  0.00    -0.352 N 
ATOM     28  C   UNL A   1      34.538  30.897  27.488  1.00  0.00     0.251 C 
ATOM     29  H   UNL A   1      33.251  30.857  25.960  1.00  0.00     0.163 HD
ATOM     30  O   UNL A   1      34.186  32.015  27.862  1.00  0.00    -0.269 OA
BRANCH  28  31
ATOM     31  C   UNL A   1      35.752  30.267  28.066  1.00  0.00     0.039 A 
ATOM     32  C   UNL A   1      36.942  30.300  27.333  1.00  0.00     0.014 A 
ATOM     33  C   UNL A   1      35.731  29.618  29.303  1.00  0.00     0.014 A 
ATOM     34  C   UNL A   1      38.120  29.791  27.887  1.00  0.00     0.010 A 
ATOM     35  C   UNL A   1      36.922  29.212  29.900  1.00  0.00     0.010 A 
ATOM     36  C   UNL A   1      38.134  29.310  29.207  1.00  0.00    -0.014 A 
BRANCH  36  37
ATOM     37  C   UNL A   1      39.408  28.981  29.901  1.00  0.00     0.031 A 
ATOM     38  C   UNL A   1      39.872  29.783  31.087  1.00  0.00     0.074 A 
ATOM     39  C   UNL A   1      40.199  28.018  29.382  1.00  0.00     0.049 A 
ATOM     40  N   UNL A   1      40.997  29.703  31.748  1.00  0.00    -0.248 NA
ATOM     41  C   UNL A   1      38.970  30.841  31.570  1.00  0.00     0.031 C 
ATOM     42  C   UNL A   1      39.896  27.228  28.184  1.00  0.00     0.029 A 
ATOM     43  N   UNL A   1      41.422  27.544  29.785  1.00  0.00    -0.354 N 
ATOM     44  C   UNL A   1      40.950  30.709  32.707  1.00  0.00     0.074 A 
ATOM     45  C   UNL A   1      39.708  31.423  32.506  1.00  0.00     0.031 C 
ATOM     46  C   UNL A   1      40.885  26.347  27.971  1.00  0.00     0.029 A 
ATOM     47  C   UNL A   1      41.914  26.538  28.985  1.00  0.00     0.049 A 
ATOM     48  H   UNL A   1      41.902  27.893  30.570  1.00  0.00     0.167 HD
ATOM     49  C   UNL A   1      41.849  30.996  33.680  1.00  0.00     0.037 A 
ATOM     50  C   UNL A   1      43.068  25.847  29.057  1.00  0.00     0.037 A 
ATOM     51  C   UNL A   1      43.066  30.255  33.890  1.00  0.00     0.049 A 
ATOM     52  C   UNL A   1      44.030  26.155  30.169  1.00  0.00     0.074 A 
ATOM     53  C   UNL A   1      44.013  30.418  34.886  1.00  0.00     0.029 A 
ATOM     54  N   UNL A   1      43.503  29.206  33.093  1.00  0.00    -0.354 N 
ATOM     55  N   UNL A   1      43.934  27.066  31.109  1.00  0.00    -0.248 NA
ATOM     56  C   UNL A   1      45.249  25.340  30.239  1.00  0.00     0.031 C 
ATOM     57  C   UNL A   1      45.040  29.492  34.670  1.00  0.00     0.029 A 
ATOM     58  C   UNL A   1      44.711  28.721  33.566  1.00  0.00     0.049 A 
ATOM     59  H   UNL A   1      43.025  28.859  32.305  1.00  0.00     0.167 HD
ATOM     60  C   UNL A   1      45.068  26.915  31.899  1.00  0.00     0.074 A 
ATOM     61  C   UNL A   1      45.827  25.818  31.332  1.00  0.00     0.031 C 
ATOM     62  C   UNL A   1      45.447  27.621  32.993  1.00  0.00     0.037 A 
BRANCH  49  63
ATOM     63  C   UNL A   1      41.541  32.149  34.599  1.00  0.00     0.058 A 
ATOM     64  C   UNL A   1      40.751  31.985  35.748  1.00  0.00     0.135 A 
ATOM     65  C   UNL A   1      42.065  33.428  34.346  1.00  0.00     0.135 A 
ATOM     66  F   UNL A   1      40.214  30.788  36.033  1.00  0.00    -0.206 F 
ATOM     67  C   UNL A   1      40.460  33.052  36.592  1.00  0.00     0.059 A 
ATOM     68  C   UNL A   1      41.811  34.503  35.193  1.00  0.00     0.059 A 
ATOM     69  F   UNL A   1      42.831  33.644  33.264  1.00  0.00    -0.206 F 
ATOM     70  C   UNL A   1      40.992  34.309  36.304  1.00  0.00     0.060 A 
BRANCH  70  71
ATOM     71  S   UNL A   1      40.601  35.683  37.408  1.00  0.00     0.124 S 
ATOM     72  O   UNL A   1      41.926  36.040  37.907  1.00  0.00    -0.237 OA
ATOM     73  O   UNL A   1      39.986  36.648  36.503  1.00  0.00    -0.237 OA
ATOM     74  O   UNL A   1      39.702  35.086  38.389  1.00  0.00    -0.744 OA
ENDBRANCH  70  71
ENDBRANCH  49  63
BRANCH  50  75
ATOM     75  C   UNL A   1      43.353  24.773  28.067  1.00  0.00     0.058 A 
ATOM     76  C   UNL A   1      43.996  25.067  26.856  1.00  0.00     0.135 A 
ATOM     77  C   UNL A   1      43.016  23.434  28.320  1.00  0.00     0.135 A 
ATOM     78  F   UNL A   1      44.337  26.332  26.567  1.00  0.00    -0.206 F 
ATOM     79  C   UNL A   1      44.280  24.076  25.921  1.00  0.00     0.059 A 
ATOM     80  C   UNL A   1      43.313  22.422  27.412  1.00  0.00     0.059 A 
ATOM     81  F   UNL A   1      42.420  23.097  29.474  1.00  0.00    -0.206 F 
ATOM     82  C   UNL A   1      43.936  22.755  26.211  1.00  0.00     0.060 A 
BRANCH  82  83
ATOM     83  S   UNL A   1      44.353  21.469  25.012  1.00  0.00     0.124 S 
ATOM     84  O   UNL A   1      45.689  21.081  25.452  1.00  0.00    -0.237 OA
ATOM     85  O   UNL A   1      43.298  20.486  25.236  1.00  0.00    -0.237 OA
ATOM     86  O   UNL A   1      44.286  22.169  23.733  1.00  0.00    -0.744 OA
ENDBRANCH  82  83
ENDBRANCH  50  75
BRANCH  62  87
ATOM     87  C   UNL A   1      46.721  27.204  33.672  1.00  0.00     0.058 A 
ATOM     88  C   UNL A   1      47.957  27.775  33.334  1.00  0.00     0.135 A 
ATOM     89  C   UNL A   1      46.693  26.254  34.705  1.00  0.00     0.135 A 
ATOM     90  F   UNL A   1      48.036  28.681  32.348  1.00  0.00    -0.206 F 
ATOM     91  C   UNL A   1      49.129  27.401  33.984  1.00  0.00     0.059 A 
ATOM     92  C   UNL A   1      47.848  25.886  35.387  1.00  0.00     0.059 A 
ATOM     93  F   UNL A   1      45.534  25.686  35.072  1.00  0.00    -0.206 F 
ATOM     94  C   UNL A   1      49.063  26.457  35.010  1.00  0.00     0.060 A 
BRANCH  94  95
ATOM     95  S   UNL A   1      50.586  26.006  35.870  1.00  0.00     0.124 S 
ATOM     96  O   UNL A   1      51.580  26.184  34.817  1.00  0.00    -0.237 OA
ATOM     97  O   UNL A   1      50.632  26.978  36.957  1.00  0.00    -0.237 OA
ATOM     98  O   UNL A   1      50.347  24.626  36.281  1.00  0.00    -0.744 OA
ENDBRANCH  94  95
ENDBRANCH  62  87
ENDBRANCH  36  37
ENDBRANCH  28  31
ENDBRANCH  26  27
ENDBRANCH  25  26
ENDBRANCH   1  25
TORSDOF 18
ENDMDL
