MODEL 1
REMARK VINA RESULT:     -12.8      0.000      0.000
REMARK SMILES O=C(NCCCNC(=O)c1ccc(-c2c3nc(c(-c4c(F)cc(S(=O)(=O)[O-])cc4F)c4ccc([nH]4)c(-c4c(F)cc(S(=O)(=O)[O-])cc4F)c4nc(c(-c5c(F)cc(S(=O)(=O)[O-])cc5F)c5ccc2[nH]5)C=C4)C=C3)cc1)C1=N[C@@H]2NC=NN2[C@@H]([C@H]2C=NN=C2c2ccc(F)cc2)C1
REMARK SMILES IDX 5 1 4 2 3 3 1 4 2 5 76 7 77 8 96 9 78 10 83 11 79 12 82 13
REMARK SMILES IDX 80 14 81 16 84 17 85 18 88 19 86 20 87 21 89 22 90 23 95 24
REMARK SMILES IDX 91 25 94 26 92 27 93 28 6 29 7 30 8 31 9 33 10 34 11 35
REMARK SMILES IDX 75 36 12 37 74 38 13 39 14 40 15 41 68 42 16 43 73 44 67 45
REMARK SMILES IDX 69 46 17 47 72 48 66 49 65 50 18 52 52 53 31 54 51 55 32 56
REMARK SMILES IDX 35 57 50 58 70 59 33 60 34 61 49 63 71 64 36 65 19 66 20 67
REMARK SMILES IDX 29 68 21 69 22 70 28 71 30 72 23 73 24 74 25 75 26 76 27 77
REMARK SMILES IDX 53 78 54 79 63 80 55 81 56 82 62 83 64 84 57 85 58 86 59 87
REMARK SMILES IDX 60 88 61 89 37 90 38 91 47 92 39 93 40 94 46 95 48 96 41 97
REMARK SMILES IDX 42 98 43 99 44 100 45 101
REMARK H PARENT 3 6 79 15 7 32 69 51 35 62
REMARK Flexibility Score: inf
ROOT
ATOM      1  C   UNL A   1      32.127  27.945  27.187  1.00  0.00     0.042 C 
ENDROOT
BRANCH   1   2
ATOM      2  C   UNL A   1      31.571  27.485  25.849  1.00  0.00     0.118 C 
BRANCH   2   3
ATOM      3  N   UNL A   1      30.314  26.760  25.894  1.00  0.00    -0.351 N 
ATOM      4  O   UNL A   1      28.869  25.124  26.399  1.00  0.00    -0.268 OA
ATOM      5  C   UNL A   1      30.037  25.444  26.190  1.00  0.00     0.265 C 
ATOM      6  H   UNL A   1      29.523  27.303  25.673  1.00  0.00     0.163 HD
BRANCH   5   7
ATOM      7  C   UNL A   1      31.102  24.330  26.180  1.00  0.00     0.106 C 
ATOM      8  N   UNL A   1      31.274  23.700  27.291  1.00  0.00    -0.237 NA
ATOM      9  C   UNL A   1      31.910  24.071  24.941  1.00  0.00     0.090 C 
ATOM     10  C   UNL A   1      32.060  22.494  27.313  1.00  0.00     0.319 C 
ATOM     11  C   UNL A   1      32.990  23.018  25.158  1.00  0.00     0.127 C 
ATOM     12  N   UNL A   1      33.212  22.428  28.170  1.00  0.00    -0.335 N 
ATOM     13  N   UNL A   1      32.536  21.915  26.034  1.00  0.00    -0.249 NA
ATOM     14  C   UNL A   1      33.995  21.484  27.575  1.00  0.00     0.217 C 
ATOM     15  H   UNL A   1      33.392  22.942  28.989  1.00  0.00     0.165 HD
ATOM     16  N   UNL A   1      33.633  21.089  26.381  1.00  0.00    -0.164 NA
BRANCH  11  17
ATOM     17  C   UNL A   1      33.576  22.418  23.865  1.00  0.00     0.109 C 
ATOM     18  C   UNL A   1      32.940  22.918  22.609  1.00  0.00     0.120 C 
ATOM     19  C   UNL A   1      34.969  22.874  23.560  1.00  0.00     0.081 C 
ATOM     20  N   UNL A   1      33.779  23.477  21.800  1.00  0.00    -0.162 NA
ATOM     21  N   UNL A   1      35.068  23.463  22.408  1.00  0.00    -0.155 NA
BRANCH  19  22
ATOM     22  C   UNL A   1      36.060  22.777  24.539  1.00  0.00    -0.001 A 
ATOM     23  C   UNL A   1      36.458  23.883  25.299  1.00  0.00     0.013 A 
ATOM     24  C   UNL A   1      36.801  21.590  24.564  1.00  0.00     0.013 A 
ATOM     25  C   UNL A   1      37.629  23.809  26.053  1.00  0.00     0.040 A 
ATOM     26  C   UNL A   1      37.973  21.525  25.314  1.00  0.00     0.040 A 
ATOM     27  C   UNL A   1      38.381  22.636  26.044  1.00  0.00     0.123 A 
ATOM     28  F   UNL A   1      39.524  22.584  26.738  1.00  0.00    -0.207 F 
ENDBRANCH  19  22
ENDBRANCH  11  17
ENDBRANCH   5   7
ENDBRANCH   2   3
ENDBRANCH   1   2
BRANCH   1  29
ATOM     29  C   UNL A   1      33.514  28.562  27.183  1.00  0.00     0.118 C 
BRANCH  29  30
ATOM     30  N   UNL A   1      33.552  29.945  27.635  1.00  0.00    -0.352 N 
ATOM     31  C   UNL A   1      34.555  30.682  28.221  1.00  0.00     0.251 C 
ATOM     32  H   UNL A   1      32.712  30.440  27.497  1.00  0.00     0.163 HD
ATOM     33  O   UNL A   1      34.296  31.823  28.613  1.00  0.00    -0.269 OA
BRANCH  31  34
ATOM     34  C   UNL A   1      35.916  30.129  28.430  1.00  0.00     0.039 A 
ATOM     35  C   UNL A   1      36.828  30.162  27.369  1.00  0.00     0.014 A 
ATOM     36  C   UNL A   1      36.308  29.562  29.644  1.00  0.00     0.014 A 
ATOM     37  C   UNL A   1      38.145  29.723  27.560  1.00  0.00     0.010 A 
ATOM     38  C   UNL A   1      37.644  29.232  29.866  1.00  0.00     0.010 A 
ATOM     39  C   UNL A   1      38.582  29.309  28.827  1.00  0.00    -0.014 A 
BRANCH  39  40
ATOM     40  C   UNL A   1      40.010  28.966  29.087  1.00  0.00     0.031 A 
ATOM     41  C   UNL A   1      40.954  29.996  29.654  1.00  0.00     0.074 A 
ATOM     42  C   UNL A   1      40.475  27.746  28.747  1.00  0.00     0.049 A 
ATOM     43  N   UNL A   1      42.241  29.902  29.878  1.00  0.00    -0.248 NA
ATOM     44  C   UNL A   1      40.388  31.314  29.985  1.00  0.00     0.031 C 
ATOM     45  C   UNL A   1      39.682  26.677  28.135  1.00  0.00     0.029 A 
ATOM     46  N   UNL A   1      41.732  27.199  28.853  1.00  0.00    -0.354 N 
ATOM     47  C   UNL A   1      42.638  31.146  30.359  1.00  0.00     0.074 A 
ATOM     48  C   UNL A   1      41.468  31.996  30.340  1.00  0.00     0.031 C 
ATOM     49  C   UNL A   1      40.460  25.599  27.948  1.00  0.00     0.029 A 
ATOM     50  C   UNL A   1      41.819  25.910  28.378  1.00  0.00     0.049 A 
ATOM     51  H   UNL A   1      42.499  27.685  29.233  1.00  0.00     0.167 HD
ATOM     52  C   UNL A   1      43.858  31.537  30.799  1.00  0.00     0.037 A 
ATOM     53  C   UNL A   1      42.873  25.074  28.288  1.00  0.00     0.037 A 
ATOM     54  C   UNL A   1      45.013  30.679  30.843  1.00  0.00     0.049 A 
ATOM     55  C   UNL A   1      44.218  25.534  28.783  1.00  0.00     0.074 A 
ATOM     56  C   UNL A   1      46.276  30.963  31.336  1.00  0.00     0.029 A 
ATOM     57  N   UNL A   1      45.053  29.373  30.375  1.00  0.00    -0.354 N 
ATOM     58  N   UNL A   1      44.554  26.690  29.305  1.00  0.00    -0.248 NA
ATOM     59  C   UNL A   1      45.328  24.575  28.685  1.00  0.00     0.031 C 
ATOM     60  C   UNL A   1      47.092  29.850  31.114  1.00  0.00     0.029 A 
ATOM     61  C   UNL A   1      46.324  28.849  30.543  1.00  0.00     0.049 A 
ATOM     62  H   UNL A   1      44.290  28.890  29.982  1.00  0.00     0.167 HD
ATOM     63  C   UNL A   1      45.904  26.585  29.624  1.00  0.00     0.074 A 
ATOM     64  C   UNL A   1      46.318  25.249  29.252  1.00  0.00     0.031 C 
ATOM     65  C   UNL A   1      46.725  27.513  30.177  1.00  0.00     0.037 A 
BRANCH  52  66
ATOM     66  C   UNL A   1      44.013  32.956  31.279  1.00  0.00     0.058 A 
ATOM     67  C   UNL A   1      44.380  33.995  30.410  1.00  0.00     0.135 A 
ATOM     68  C   UNL A   1      43.731  33.293  32.615  1.00  0.00     0.135 A 
ATOM     69  F   UNL A   1      44.676  33.732  29.127  1.00  0.00    -0.206 F 
ATOM     70  C   UNL A   1      44.484  35.311  30.849  1.00  0.00     0.059 A 
ATOM     71  C   UNL A   1      43.798  34.607  33.068  1.00  0.00     0.059 A 
ATOM     72  F   UNL A   1      43.376  32.339  33.491  1.00  0.00    -0.206 F 
ATOM     73  C   UNL A   1      44.185  35.608  32.180  1.00  0.00     0.060 A 
BRANCH  73  74
ATOM     74  S   UNL A   1      44.301  37.325  32.725  1.00  0.00     0.124 S 
ATOM     75  O   UNL A   1      43.221  37.392  33.705  1.00  0.00    -0.237 OA
ATOM     76  O   UNL A   1      45.654  37.387  33.269  1.00  0.00    -0.237 OA
ATOM     77  O   UNL A   1      44.085  38.088  31.501  1.00  0.00    -0.744 OA
ENDBRANCH  73  74
ENDBRANCH  52  66
BRANCH  53  78
ATOM     78  C   UNL A   1      42.699  23.711  27.713  1.00  0.00     0.058 A 
ATOM     79  C   UNL A   1      42.478  22.598  28.539  1.00  0.00     0.135 A 
ATOM     80  C   UNL A   1      42.756  23.491  26.327  1.00  0.00     0.135 A 
ATOM     81  F   UNL A   1      42.422  22.753  29.871  1.00  0.00    -0.206 F 
ATOM     82  C   UNL A   1      42.345  21.316  28.017  1.00  0.00     0.059 A 
ATOM     83  C   UNL A   1      42.594  22.223  25.779  1.00  0.00     0.059 A 
ATOM     84  F   UNL A   1      42.947  24.523  25.489  1.00  0.00    -0.206 F 
ATOM     85  C   UNL A   1      42.405  21.138  26.634  1.00  0.00     0.060 A 
BRANCH  85  86
ATOM     86  S   UNL A   1      42.203  19.473  25.965  1.00  0.00     0.124 S 
ATOM     87  O   UNL A   1      40.766  19.427  25.721  1.00  0.00    -0.237 OA
ATOM     88  O   UNL A   1      43.052  19.514  24.779  1.00  0.00    -0.237 OA
ATOM     89  O   UNL A   1      42.687  18.617  27.045  1.00  0.00    -0.744 OA
ENDBRANCH  85  86
ENDBRANCH  53  78
BRANCH  65  90
ATOM     90  C   UNL A   1      48.147  27.107  30.454  1.00  0.00     0.058 A 
ATOM     91  C   UNL A   1      49.188  27.392  29.557  1.00  0.00     0.135 A 
ATOM     92  C   UNL A   1      48.479  26.469  31.660  1.00  0.00     0.135 A 
ATOM     93  F   UNL A   1      48.926  27.995  28.387  1.00  0.00    -0.206 F 
ATOM     94  C   UNL A   1      50.504  27.036  29.834  1.00  0.00     0.059 A 
ATOM     95  C   UNL A   1      49.793  26.133  31.973  1.00  0.00     0.059 A 
ATOM     96  F   UNL A   1      47.525  26.181  32.559  1.00  0.00    -0.206 F 
ATOM     97  C   UNL A   1      50.797  26.409  31.047  1.00  0.00     0.060 A 
BRANCH  97  98
ATOM     98  S   UNL A   1      52.514  25.983  31.407  1.00  0.00     0.124 S 
ATOM     99  O   UNL A   1      53.110  26.010  30.075  1.00  0.00    -0.237 OA
ATOM    100  O   UNL A   1      52.920  27.060  32.305  1.00  0.00    -0.237 OA
ATOM    101  O   UNL A   1      52.416  24.664  32.025  1.00  0.00    -0.744 OA
ENDBRANCH  97  98
ENDBRANCH  65  90
ENDBRANCH  39  40
ENDBRANCH  31  34
ENDBRANCH  29  30
ENDBRANCH   1  29
TORSDOF 15
ENDMDL
MODEL 2
REMARK VINA RESULT:     -12.4      3.143      9.453
REMARK SMILES O=C(NCCCNC(=O)c1ccc(-c2c3nc(c(-c4c(F)cc(S(=O)(=O)[O-])cc4F)c4ccc([nH]4)c(-c4c(F)cc(S(=O)(=O)[O-])cc4F)c4nc(c(-c5c(F)cc(S(=O)(=O)[O-])cc5F)c5ccc2[nH]5)C=C4)C=C3)cc1)C1=N[C@@H]2NC=NN2[C@@H]([C@H]2C=NN=C2c2ccc(F)cc2)C1
REMARK SMILES IDX 5 1 4 2 3 3 1 4 2 5 76 7 77 8 96 9 78 10 83 11 79 12 82 13
REMARK SMILES IDX 80 14 81 16 84 17 85 18 88 19 86 20 87 21 89 22 90 23 95 24
REMARK SMILES IDX 91 25 94 26 92 27 93 28 6 29 7 30 8 31 9 33 10 34 11 35
REMARK SMILES IDX 75 36 12 37 74 38 13 39 14 40 15 41 68 42 16 43 73 44 67 45
REMARK SMILES IDX 69 46 17 47 72 48 66 49 65 50 18 52 52 53 31 54 51 55 32 56
REMARK SMILES IDX 35 57 50 58 70 59 33 60 34 61 49 63 71 64 36 65 19 66 20 67
REMARK SMILES IDX 29 68 21 69 22 70 28 71 30 72 23 73 24 74 25 75 26 76 27 77
REMARK SMILES IDX 53 78 54 79 63 80 55 81 56 82 62 83 64 84 57 85 58 86 59 87
REMARK SMILES IDX 60 88 61 89 37 90 38 91 47 92 39 93 40 94 46 95 48 96 41 97
REMARK SMILES IDX 42 98 43 99 44 100 45 101
REMARK H PARENT 3 6 79 15 7 32 69 51 35 62
REMARK Flexibility Score: inf
ROOT
ATOM      1  C   UNL A   1      36.192  23.323  23.946  1.00  0.00     0.042 C 
ENDROOT
BRANCH   1   2
ATOM      2  C   UNL A   1      34.784  22.763  24.074  1.00  0.00     0.118 C 
BRANCH   2   3
ATOM      3  N   UNL A   1      34.046  22.595  22.836  1.00  0.00    -0.351 N 
ATOM      4  O   UNL A   1      33.106  23.150  20.878  1.00  0.00    -0.268 OA
ATOM      5  C   UNL A   1      33.466  23.519  21.994  1.00  0.00     0.265 C 
ATOM      6  H   UNL A   1      33.941  21.660  22.548  1.00  0.00     0.163 HD
BRANCH   5   7
ATOM      7  C   UNL A   1      33.156  24.970  22.412  1.00  0.00     0.106 C 
ATOM      8  N   UNL A   1      33.721  25.894  21.715  1.00  0.00    -0.237 NA
ATOM      9  C   UNL A   1      32.288  25.240  23.608  1.00  0.00     0.090 C 
ATOM     10  C   UNL A   1      33.302  27.262  21.871  1.00  0.00     0.319 C 
ATOM     11  C   UNL A   1      32.193  26.725  23.936  1.00  0.00     0.127 C 
ATOM     12  N   UNL A   1      34.272  28.249  22.257  1.00  0.00    -0.335 N 
ATOM     13  N   UNL A   1      32.127  27.569  22.721  1.00  0.00    -0.249 NA
ATOM     14  C   UNL A   1      33.518  29.224  22.838  1.00  0.00     0.217 C 
ATOM     15  H   UNL A   1      35.248  28.226  22.131  1.00  0.00     0.165 HD
ATOM     16  N   UNL A   1      32.263  28.935  23.072  1.00  0.00    -0.164 NA
BRANCH  11  17
ATOM     17  C   UNL A   1      31.028  27.106  24.870  1.00  0.00     0.109 C 
ATOM     18  C   UNL A   1      30.157  25.961  25.271  1.00  0.00     0.120 C 
ATOM     19  C   UNL A   1      31.458  27.502  26.248  1.00  0.00     0.081 C 
ATOM     20  N   UNL A   1      30.096  25.790  26.551  1.00  0.00    -0.162 NA
ATOM     21  N   UNL A   1      30.933  26.760  27.175  1.00  0.00    -0.155 NA
BRANCH  19  22
ATOM     22  C   UNL A   1      32.477  28.533  26.489  1.00  0.00    -0.001 A 
ATOM     23  C   UNL A   1      33.817  28.195  26.708  1.00  0.00     0.013 A 
ATOM     24  C   UNL A   1      32.034  29.849  26.661  1.00  0.00     0.013 A 
ATOM     25  C   UNL A   1      34.707  29.178  27.145  1.00  0.00     0.040 A 
ATOM     26  C   UNL A   1      32.926  30.823  27.103  1.00  0.00     0.040 A 
ATOM     27  C   UNL A   1      34.251  30.478  27.349  1.00  0.00     0.123 A 
ATOM     28  F   UNL A   1      35.099  31.407  27.806  1.00  0.00    -0.207 F 
ENDBRANCH  19  22
ENDBRANCH  11  17
ENDBRANCH   5   7
ENDBRANCH   2   3
ENDBRANCH   1   2
BRANCH   1  29
ATOM     29  C   UNL A   1      36.934  23.627  25.235  1.00  0.00     0.118 C 
BRANCH  29  30
ATOM     30  N   UNL A   1      38.103  22.790  25.460  1.00  0.00    -0.352 N 
ATOM     31  C   UNL A   1      39.290  23.043  26.107  1.00  0.00     0.251 C 
ATOM     32  H   UNL A   1      38.031  21.883  25.083  1.00  0.00     0.163 HD
ATOM     33  O   UNL A   1      40.177  22.186  26.067  1.00  0.00    -0.269 OA
BRANCH  31  34
ATOM     34  C   UNL A   1      39.544  24.325  26.810  1.00  0.00     0.039 A 
ATOM     35  C   UNL A   1      39.030  24.502  28.099  1.00  0.00     0.014 A 
ATOM     36  C   UNL A   1      40.263  25.365  26.218  1.00  0.00     0.014 A 
ATOM     37  C   UNL A   1      39.321  25.667  28.819  1.00  0.00     0.010 A 
ATOM     38  C   UNL A   1      40.648  26.471  26.974  1.00  0.00     0.010 A 
ATOM     39  C   UNL A   1      40.183  26.638  28.286  1.00  0.00    -0.014 A 
BRANCH  39  40
ATOM     40  C   UNL A   1      40.616  27.821  29.084  1.00  0.00     0.031 A 
ATOM     41  C   UNL A   1      41.940  27.815  29.806  1.00  0.00     0.074 A 
ATOM     42  C   UNL A   1      39.785  28.876  29.218  1.00  0.00     0.049 A 
ATOM     43  N   UNL A   1      42.450  28.719  30.603  1.00  0.00    -0.248 NA
ATOM     44  C   UNL A   1      42.791  26.625  29.636  1.00  0.00     0.031 C 
ATOM     45  C   UNL A   1      38.451  28.985  28.621  1.00  0.00     0.029 A 
ATOM     46  N   UNL A   1      39.931  30.055  29.909  1.00  0.00    -0.354 N 
ATOM     47  C   UNL A   1      43.667  28.204  31.038  1.00  0.00     0.074 A 
ATOM     48  C   UNL A   1      43.793  26.883  30.463  1.00  0.00     0.031 C 
ATOM     49  C   UNL A   1      37.915  30.172  28.947  1.00  0.00     0.029 A 
ATOM     50  C   UNL A   1      38.841  30.891  29.815  1.00  0.00     0.049 A 
ATOM     51  H   UNL A   1      40.738  30.280  30.424  1.00  0.00     0.167 HD
ATOM     52  C   UNL A   1      44.604  28.787  31.824  1.00  0.00     0.037 A 
ATOM     53  C   UNL A   1      38.606  32.096  30.371  1.00  0.00     0.037 A 
ATOM     54  C   UNL A   1      44.487  30.114  32.371  1.00  0.00     0.049 A 
ATOM     55  C   UNL A   1      39.664  32.721  31.242  1.00  0.00     0.074 A 
ATOM     56  C   UNL A   1      45.414  30.817  33.122  1.00  0.00     0.029 A 
ATOM     57  N   UNL A   1      43.379  30.937  32.233  1.00  0.00    -0.354 N 
ATOM     58  N   UNL A   1      40.840  32.248  31.578  1.00  0.00    -0.248 NA
ATOM     59  C   UNL A   1      39.367  34.047  31.803  1.00  0.00     0.031 C 
ATOM     60  C   UNL A   1      44.844  32.041  33.485  1.00  0.00     0.029 A 
ATOM     61  C   UNL A   1      43.588  32.129  32.907  1.00  0.00     0.049 A 
ATOM     62  H   UNL A   1      42.564  30.708  31.729  1.00  0.00     0.167 HD
ATOM     63  C   UNL A   1      41.434  33.231  32.364  1.00  0.00     0.074 A 
ATOM     64  C   UNL A   1      40.495  34.329  32.439  1.00  0.00     0.031 C 
ATOM     65  C   UNL A   1      42.649  33.222  32.968  1.00  0.00     0.037 A 
BRANCH  52  66
ATOM     66  C   UNL A   1      45.850  28.000  32.138  1.00  0.00     0.058 A 
ATOM     67  C   UNL A   1      45.957  27.219  33.300  1.00  0.00     0.135 A 
ATOM     68  C   UNL A   1      46.927  27.978  31.236  1.00  0.00     0.135 A 
ATOM     69  F   UNL A   1      44.966  27.213  34.206  1.00  0.00    -0.206 F 
ATOM     70  C   UNL A   1      47.094  26.462  33.567  1.00  0.00     0.059 A 
ATOM     71  C   UNL A   1      48.060  27.204  31.468  1.00  0.00     0.059 A 
ATOM     72  F   UNL A   1      46.879  28.706  30.109  1.00  0.00    -0.206 F 
ATOM     73  C   UNL A   1      48.138  26.457  32.642  1.00  0.00     0.060 A 
BRANCH  73  74
ATOM     74  S   UNL A   1      49.595  25.450  32.993  1.00  0.00     0.124 S 
ATOM     75  O   UNL A   1      50.058  25.128  31.647  1.00  0.00    -0.237 OA
ATOM     76  O   UNL A   1      50.436  26.373  33.749  1.00  0.00    -0.237 OA
ATOM     77  O   UNL A   1      49.058  24.328  33.756  1.00  0.00    -0.744 OA
ENDBRANCH  73  74
ENDBRANCH  52  66
BRANCH  53  78
ATOM     78  C   UNL A   1      37.317  32.799  30.116  1.00  0.00     0.058 A 
ATOM     79  C   UNL A   1      36.171  32.509  30.873  1.00  0.00     0.135 A 
ATOM     80  C   UNL A   1      37.204  33.771  29.109  1.00  0.00     0.135 A 
ATOM     81  F   UNL A   1      36.225  31.584  31.843  1.00  0.00    -0.206 F 
ATOM     82  C   UNL A   1      34.955  33.136  30.623  1.00  0.00     0.059 A 
ATOM     83  C   UNL A   1      36.006  34.434  28.862  1.00  0.00     0.059 A 
ATOM     84  F   UNL A   1      38.273  34.100  28.367  1.00  0.00    -0.206 F 
ATOM     85  C   UNL A   1      34.882  34.099  29.615  1.00  0.00     0.060 A 
BRANCH  85  86
ATOM     86  S   UNL A   1      33.304  34.926  29.320  1.00  0.00     0.124 S 
ATOM     87  O   UNL A   1      32.671  34.019  28.368  1.00  0.00    -0.237 OA
ATOM     88  O   UNL A   1      32.720  34.957  30.656  1.00  0.00    -0.237 OA
ATOM     89  O   UNL A   1      33.702  36.225  28.785  1.00  0.00    -0.744 OA
ENDBRANCH  85  86
ENDBRANCH  53  78
BRANCH  65  90
ATOM     90  C   UNL A   1      43.056  34.454  33.731  1.00  0.00     0.058 A 
ATOM     91  C   UNL A   1      42.878  34.558  35.119  1.00  0.00     0.135 A 
ATOM     92  C   UNL A   1      43.681  35.523  33.069  1.00  0.00     0.135 A 
ATOM     93  F   UNL A   1      42.281  33.568  35.801  1.00  0.00    -0.206 F 
ATOM     94  C   UNL A   1      43.281  35.691  35.820  1.00  0.00     0.059 A 
ATOM     95  C   UNL A   1      44.122  36.651  33.754  1.00  0.00     0.059 A 
ATOM     96  F   UNL A   1      43.886  35.471  31.743  1.00  0.00    -0.206 F 
ATOM     97  C   UNL A   1      43.906  36.731  35.128  1.00  0.00     0.060 A 
BRANCH  97  98
ATOM     98  S   UNL A   1      44.454  38.179  36.056  1.00  0.00     0.124 S 
ATOM     99  O   UNL A   1      43.694  38.040  37.294  1.00  0.00    -0.237 OA
ATOM    100  O   UNL A   1      45.892  37.952  36.166  1.00  0.00    -0.237 OA
ATOM    101  O   UNL A   1      44.066  39.298  35.203  1.00  0.00    -0.744 OA
ENDBRANCH  97  98
ENDBRANCH  65  90
ENDBRANCH  39  40
ENDBRANCH  31  34
ENDBRANCH  29  30
ENDBRANCH   1  29
TORSDOF 15
ENDMDL
MODEL 3
REMARK VINA RESULT:     -12.4      4.931     10.551
REMARK SMILES O=C(NCCCNC(=O)c1ccc(-c2c3nc(c(-c4c(F)cc(S(=O)(=O)[O-])cc4F)c4ccc([nH]4)c(-c4c(F)cc(S(=O)(=O)[O-])cc4F)c4nc(c(-c5c(F)cc(S(=O)(=O)[O-])cc5F)c5ccc2[nH]5)C=C4)C=C3)cc1)C1=N[C@@H]2NC=NN2[C@@H]([C@H]2C=NN=C2c2ccc(F)cc2)C1
REMARK SMILES IDX 5 1 4 2 3 3 1 4 2 5 76 7 77 8 96 9 78 10 83 11 79 12 82 13
REMARK SMILES IDX 80 14 81 16 84 17 85 18 88 19 86 20 87 21 89 22 90 23 95 24
REMARK SMILES IDX 91 25 94 26 92 27 93 28 6 29 7 30 8 31 9 33 10 34 11 35
REMARK SMILES IDX 75 36 12 37 74 38 13 39 14 40 15 41 68 42 16 43 73 44 67 45
REMARK SMILES IDX 69 46 17 47 72 48 66 49 65 50 18 52 52 53 31 54 51 55 32 56
REMARK SMILES IDX 35 57 50 58 70 59 33 60 34 61 49 63 71 64 36 65 19 66 20 67
REMARK SMILES IDX 29 68 21 69 22 70 28 71 30 72 23 73 24 74 25 75 26 76 27 77
REMARK SMILES IDX 53 78 54 79 63 80 55 81 56 82 62 83 64 84 57 85 58 86 59 87
REMARK SMILES IDX 60 88 61 89 37 90 38 91 47 92 39 93 40 94 46 95 48 96 41 97
REMARK SMILES IDX 42 98 43 99 44 100 45 101
REMARK H PARENT 3 6 79 15 7 32 69 51 35 62
REMARK Flexibility Score: inf
ROOT
ATOM      1  C   UNL A   1      37.345  23.417  25.179  1.00  0.00     0.042 C 
ENDROOT
BRANCH   1   2
ATOM      2  C   UNL A   1      35.852  23.704  25.143  1.00  0.00     0.118 C 
BRANCH   2   3
ATOM      3  N   UNL A   1      35.108  23.087  24.060  1.00  0.00    -0.351 N 
ATOM      4  O   UNL A   1      33.999  22.929  22.119  1.00  0.00    -0.268 OA
ATOM      5  C   UNL A   1      34.328  23.639  23.067  1.00  0.00     0.265 C 
ATOM      6  H   UNL A   1      35.171  22.105  24.030  1.00  0.00     0.163 HD
BRANCH   5   7
ATOM      7  C   UNL A   1      33.766  25.073  23.128  1.00  0.00     0.106 C 
ATOM      8  N   UNL A   1      34.165  25.878  22.205  1.00  0.00    -0.237 NA
ATOM      9  C   UNL A   1      32.856  25.477  24.252  1.00  0.00     0.090 C 
ATOM     10  C   UNL A   1      33.512  27.149  22.036  1.00  0.00     0.319 C 
ATOM     11  C   UNL A   1      32.500  26.959  24.210  1.00  0.00     0.127 C 
ATOM     12  N   UNL A   1      34.291  28.352  22.132  1.00  0.00    -0.335 N 
ATOM     13  N   UNL A   1      32.295  27.451  22.828  1.00  0.00    -0.249 NA
ATOM     14  C   UNL A   1      33.374  29.297  22.485  1.00  0.00     0.217 C 
ATOM     15  H   UNL A   1      35.257  28.466  21.980  1.00  0.00     0.165 HD
ATOM     16  N   UNL A   1      32.188  28.864  22.829  1.00  0.00    -0.164 NA
BRANCH  11  17
ATOM     17  C   UNL A   1      31.280  27.354  25.065  1.00  0.00     0.109 C 
ATOM     18  C   UNL A   1      30.414  26.207  25.472  1.00  0.00     0.120 C 
ATOM     19  C   UNL A   1      31.630  27.820  26.444  1.00  0.00     0.081 C 
ATOM     20  N   UNL A   1      30.290  26.092  26.755  1.00  0.00    -0.162 NA
ATOM     21  N   UNL A   1      31.073  27.109  27.375  1.00  0.00    -0.155 NA
BRANCH  19  22
ATOM     22  C   UNL A   1      32.613  28.884  26.689  1.00  0.00    -0.001 A 
ATOM     23  C   UNL A   1      33.947  28.588  26.990  1.00  0.00     0.013 A 
ATOM     24  C   UNL A   1      32.134  30.196  26.779  1.00  0.00     0.013 A 
ATOM     25  C   UNL A   1      34.792  29.609  27.427  1.00  0.00     0.040 A 
ATOM     26  C   UNL A   1      32.981  31.209  27.221  1.00  0.00     0.040 A 
ATOM     27  C   UNL A   1      34.299  30.906  27.549  1.00  0.00     0.123 A 
ATOM     28  F   UNL A   1      35.103  31.874  28.005  1.00  0.00    -0.207 F 
ENDBRANCH  19  22
ENDBRANCH  11  17
ENDBRANCH   5   7
ENDBRANCH   2   3
ENDBRANCH   1   2
BRANCH   1  29
ATOM     29  C   UNL A   1      38.185  24.249  26.132  1.00  0.00     0.118 C 
BRANCH  29  30
ATOM     30  N   UNL A   1      39.609  23.955  26.082  1.00  0.00    -0.352 N 
ATOM     31  C   UNL A   1      40.684  24.566  26.685  1.00  0.00     0.251 C 
ATOM     32  H   UNL A   1      39.845  23.185  25.516  1.00  0.00     0.163 HD
ATOM     33  O   UNL A   1      41.820  24.184  26.391  1.00  0.00    -0.269 OA
BRANCH  31  34
ATOM     34  C   UNL A   1      40.516  25.690  27.639  1.00  0.00     0.039 A 
ATOM     35  C   UNL A   1      39.512  25.605  28.611  1.00  0.00     0.014 A 
ATOM     36  C   UNL A   1      41.313  26.834  27.586  1.00  0.00     0.014 A 
ATOM     37  C   UNL A   1      39.381  26.611  29.576  1.00  0.00     0.010 A 
ATOM     38  C   UNL A   1      41.258  27.777  28.611  1.00  0.00     0.010 A 
ATOM     39  C   UNL A   1      40.291  27.679  29.622  1.00  0.00    -0.014 A 
BRANCH  39  40
ATOM     40  C   UNL A   1      40.256  28.689  30.718  1.00  0.00     0.031 A 
ATOM     41  C   UNL A   1      41.144  28.538  31.928  1.00  0.00     0.074 A 
ATOM     42  C   UNL A   1      39.373  29.708  30.659  1.00  0.00     0.049 A 
ATOM     43  N   UNL A   1      41.199  29.274  33.009  1.00  0.00    -0.248 NA
ATOM     44  C   UNL A   1      42.070  27.393  31.941  1.00  0.00     0.031 C 
ATOM     45  C   UNL A   1      38.416  29.937  29.574  1.00  0.00     0.029 A 
ATOM     46  N   UNL A   1      39.124  30.737  31.536  1.00  0.00    -0.354 N 
ATOM     47  C   UNL A   1      42.149  28.676  33.832  1.00  0.00     0.074 A 
ATOM     48  C   UNL A   1      42.603  27.484  33.151  1.00  0.00     0.031 C 
ATOM     49  C   UNL A   1      37.707  31.047  29.834  1.00  0.00     0.029 A 
ATOM     50  C   UNL A   1      38.121  31.584  31.125  1.00  0.00     0.049 A 
ATOM     51  H   UNL A   1      39.618  30.855  32.379  1.00  0.00     0.167 HD
ATOM     52  C   UNL A   1      42.617  29.095  35.032  1.00  0.00     0.037 A 
ATOM     53  C   UNL A   1      37.584  32.667  31.723  1.00  0.00     0.037 A 
ATOM     54  C   UNL A   1      42.182  30.298  35.693  1.00  0.00     0.049 A 
ATOM     55  C   UNL A   1      38.122  33.111  33.058  1.00  0.00     0.074 A 
ATOM     56  C   UNL A   1      42.647  30.841  36.879  1.00  0.00     0.029 A 
ATOM     57  N   UNL A   1      41.182  31.142  35.233  1.00  0.00    -0.354 N 
ATOM     58  N   UNL A   1      39.074  32.573  33.782  1.00  0.00    -0.248 NA
ATOM     59  C   UNL A   1      37.520  34.311  33.654  1.00  0.00     0.031 C 
ATOM     60  C   UNL A   1      41.890  31.981  37.164  1.00  0.00     0.029 A 
ATOM     61  C   UNL A   1      40.997  32.186  36.125  1.00  0.00     0.049 A 
ATOM     62  H   UNL A   1      40.678  31.017  34.397  1.00  0.00     0.167 HD
ATOM     63  C   UNL A   1      39.205  33.387  34.904  1.00  0.00     0.074 A 
ATOM     64  C   UNL A   1      38.245  34.460  34.753  1.00  0.00     0.031 C 
ATOM     65  C   UNL A   1      40.044  33.256  35.961  1.00  0.00     0.037 A 
BRANCH  52  66
ATOM     66  C   UNL A   1      43.664  28.253  35.713  1.00  0.00     0.058 A 
ATOM     67  C   UNL A   1      45.035  28.442  35.476  1.00  0.00     0.135 A 
ATOM     68  C   UNL A   1      43.294  27.285  36.663  1.00  0.00     0.135 A 
ATOM     69  F   UNL A   1      45.447  29.342  34.568  1.00  0.00    -0.206 F 
ATOM     70  C   UNL A   1      46.000  27.689  36.137  1.00  0.00     0.059 A 
ATOM     71  C   UNL A   1      44.244  26.542  37.358  1.00  0.00     0.059 A 
ATOM     72  F   UNL A   1      41.998  27.060  36.929  1.00  0.00    -0.206 F 
ATOM     73  C   UNL A   1      45.595  26.745  37.081  1.00  0.00     0.060 A 
BRANCH  73  74
ATOM     74  S   UNL A   1      46.862  25.794  37.947  1.00  0.00     0.124 S 
ATOM     75  O   UNL A   1      46.523  24.431  37.553  1.00  0.00    -0.237 OA
ATOM     76  O   UNL A   1      48.095  26.330  37.378  1.00  0.00    -0.237 OA
ATOM     77  O   UNL A   1      46.631  26.117  39.351  1.00  0.00    -0.744 OA
ENDBRANCH  73  74
ENDBRANCH  52  66
BRANCH  53  78
ATOM     78  C   UNL A   1      36.479  33.416  31.062  1.00  0.00     0.058 A 
ATOM     79  C   UNL A   1      35.167  33.358  31.556  1.00  0.00     0.135 A 
ATOM     80  C   UNL A   1      36.711  34.200  29.921  1.00  0.00     0.135 A 
ATOM     81  F   UNL A   1      34.890  32.617  32.639  1.00  0.00    -0.206 F 
ATOM     82  C   UNL A   1      34.121  34.028  30.929  1.00  0.00     0.059 A 
ATOM     83  C   UNL A   1      35.687  34.905  29.295  1.00  0.00     0.059 A 
ATOM     84  F   UNL A   1      37.951  34.305  29.416  1.00  0.00    -0.206 F 
ATOM     85  C   UNL A   1      34.391  34.799  29.797  1.00  0.00     0.060 A 
BRANCH  85  86
ATOM     86  S   UNL A   1      33.031  35.687  29.009  1.00  0.00     0.124 S 
ATOM     87  O   UNL A   1      32.427  34.636  28.196  1.00  0.00    -0.237 OA
ATOM     88  O   UNL A   1      32.250  36.133  30.157  1.00  0.00    -0.237 OA
ATOM     89  O   UNL A   1      33.707  36.748  28.268  1.00  0.00    -0.744 OA
ENDBRANCH  85  86
ENDBRANCH  53  78
BRANCH  65  90
ATOM     90  C   UNL A   1      39.997  34.321  37.023  1.00  0.00     0.058 A 
ATOM     91  C   UNL A   1      40.859  35.427  37.003  1.00  0.00     0.135 A 
ATOM     92  C   UNL A   1      39.038  34.258  38.047  1.00  0.00     0.135 A 
ATOM     93  F   UNL A   1      41.799  35.535  36.050  1.00  0.00    -0.206 F 
ATOM     94  C   UNL A   1      40.791  36.421  37.975  1.00  0.00     0.059 A 
ATOM     95  C   UNL A   1      38.929  35.256  39.011  1.00  0.00     0.059 A 
ATOM     96  F   UNL A   1      38.180  33.227  38.109  1.00  0.00    -0.206 F 
ATOM     97  C   UNL A   1      39.819  36.328  38.973  1.00  0.00     0.060 A 
BRANCH  97  98
ATOM     98  S   UNL A   1      39.719  37.641  40.208  1.00  0.00     0.124 S 
ATOM     99  O   UNL A   1      38.309  38.009  40.132  1.00  0.00    -0.237 OA
ATOM    100  O   UNL A   1      40.130  36.953  41.428  1.00  0.00    -0.237 OA
ATOM    101  O   UNL A   1      40.658  38.644  39.715  1.00  0.00    -0.744 OA
ENDBRANCH  97  98
ENDBRANCH  65  90
ENDBRANCH  39  40
ENDBRANCH  31  34
ENDBRANCH  29  30
ENDBRANCH   1  29
TORSDOF 15
ENDMDL
