MODEL 1
REMARK VINA RESULT:     -10.9      0.000      0.000
REMARK SMILES O=C(NCCCNC(=O)[C@@H]1CC[C@H](CNC(=O)C2CCOCC2)O1)c1ccc(-c2c3nc(c(-c4c(F)cc(S(=O)(=O)[O-])cc4F)c4ccc([nH]4)c(-c4c(F)cc(S(=O)(=O)[O-])cc4F)c4nc(c(-c5c(F)cc(S(=O)(=O)[O-])cc5F)c5ccc2[nH]5)C=C4)C=C3)cc1
REMARK SMILES IDX 5 1 4 2 3 3 1 4 2 5 25 7 26 8 90 9 27 10 89 11 28 12 29 13
REMARK SMILES IDX 30 14 83 15 31 16 88 17 82 18 84 19 32 20 87 21 81 22 80 23
REMARK SMILES IDX 33 25 67 26 46 27 66 28 47 29 50 30 65 31 85 32 48 33 49 34
REMARK SMILES IDX 64 36 86 37 51 38 34 39 35 40 44 41 36 42 37 43 43 44 45 45
REMARK SMILES IDX 38 46 39 47 40 48 41 49 42 50 68 51 69 52 78 53 70 54 71 55
REMARK SMILES IDX 77 56 79 57 72 58 73 59 74 60 75 61 76 62 52 63 53 64 62 65
REMARK SMILES IDX 54 66 55 67 61 68 63 69 56 70 57 71 58 72 59 73 60 74 6 75
REMARK SMILES IDX 7 76 8 77 9 79 10 80 11 81 24 82 12 83 13 84 14 85 15 86
REMARK SMILES IDX 16 87 17 89 18 90 19 91 23 92 20 93 22 94 21 95
REMARK H PARENT 3 6 84 24 50 35 7 78 15 88
REMARK Flexibility Score: inf
ROOT
ATOM      1  C   UNL A   1      40.893  20.735  27.099  1.00  0.00     0.042 C 
ENDROOT
BRANCH   1   2
ATOM      2  C   UNL A   1      40.926  22.077  26.390  1.00  0.00     0.118 C 
BRANCH   2   3
ATOM      3  N   UNL A   1      39.637  22.400  25.782  1.00  0.00    -0.352 N 
ATOM      4  O   UNL A   1      37.634  23.398  25.570  1.00  0.00    -0.269 OA
ATOM      5  C   UNL A   1      38.775  23.442  26.029  1.00  0.00     0.251 C 
ATOM      6  H   UNL A   1      39.340  21.772  25.085  1.00  0.00     0.163 HD
BRANCH   5   7
ATOM      7  C   UNL A   1      39.206  24.598  26.843  1.00  0.00     0.039 A 
ATOM      8  C   UNL A   1      38.786  24.720  28.167  1.00  0.00     0.014 A 
ATOM      9  C   UNL A   1      40.065  25.559  26.297  1.00  0.00     0.014 A 
ATOM     10  C   UNL A   1      39.068  25.875  28.878  1.00  0.00     0.010 A 
ATOM     11  C   UNL A   1      40.458  26.662  27.063  1.00  0.00     0.010 A 
ATOM     12  C   UNL A   1      39.939  26.844  28.352  1.00  0.00    -0.014 A 
BRANCH  12  13
ATOM     13  C   UNL A   1      40.341  27.967  29.237  1.00  0.00     0.031 A 
ATOM     14  C   UNL A   1      39.446  29.151  29.469  1.00  0.00     0.074 A 
ATOM     15  C   UNL A   1      41.505  27.850  29.909  1.00  0.00     0.049 A 
ATOM     16  N   UNL A   1      39.616  30.158  30.287  1.00  0.00    -0.248 NA
ATOM     17  C   UNL A   1      38.207  29.227  28.677  1.00  0.00     0.031 C 
ATOM     18  C   UNL A   1      42.467  26.754  29.736  1.00  0.00     0.029 A 
ATOM     19  N   UNL A   1      42.061  28.617  30.897  1.00  0.00    -0.354 N 
ATOM     20  C   UNL A   1      38.518  30.990  30.108  1.00  0.00     0.074 A 
ATOM     21  C   UNL A   1      37.700  30.387  29.078  1.00  0.00     0.031 C 
ATOM     22  C   UNL A   1      43.446  26.876  30.641  1.00  0.00     0.029 A 
ATOM     23  C   UNL A   1      43.228  28.096  31.406  1.00  0.00     0.049 A 
ATOM     24  H   UNL A   1      41.664  29.461  31.213  1.00  0.00     0.167 HD
ATOM     25  C   UNL A   1      38.221  32.145  30.752  1.00  0.00     0.037 A 
ATOM     26  C   UNL A   1      44.044  28.553  32.374  1.00  0.00     0.037 A 
ATOM     27  C   UNL A   1      39.043  32.729  31.783  1.00  0.00     0.049 A 
ATOM     28  C   UNL A   1      43.679  29.824  33.079  1.00  0.00     0.074 A 
ATOM     29  C   UNL A   1      38.832  33.896  32.497  1.00  0.00     0.029 A 
ATOM     30  N   UNL A   1      40.231  32.187  32.254  1.00  0.00    -0.354 N 
ATOM     31  N   UNL A   1      42.633  30.594  32.895  1.00  0.00    -0.248 NA
ATOM     32  C   UNL A   1      44.604  30.295  34.116  1.00  0.00     0.031 C 
ATOM     33  C   UNL A   1      39.907  34.077  33.374  1.00  0.00     0.029 A 
ATOM     34  C   UNL A   1      40.768  32.999  33.241  1.00  0.00     0.049 A 
ATOM     35  H   UNL A   1      40.634  31.347  31.935  1.00  0.00     0.167 HD
ATOM     36  C   UNL A   1      42.775  31.645  33.791  1.00  0.00     0.074 A 
ATOM     37  C   UNL A   1      43.988  31.388  34.544  1.00  0.00     0.031 C 
ATOM     38  C   UNL A   1      41.984  32.731  33.967  1.00  0.00     0.037 A 
BRANCH  25  39
ATOM     39  C   UNL A   1      36.959  32.864  30.359  1.00  0.00     0.058 A 
ATOM     40  C   UNL A   1      35.775  32.733  31.104  1.00  0.00     0.135 A 
ATOM     41  C   UNL A   1      36.945  33.739  29.262  1.00  0.00     0.135 A 
ATOM     42  F   UNL A   1      35.726  31.897  32.153  1.00  0.00    -0.206 F 
ATOM     43  C   UNL A   1      34.621  33.434  30.767  1.00  0.00     0.059 A 
ATOM     44  C   UNL A   1      35.810  34.468  28.920  1.00  0.00     0.059 A 
ATOM     45  F   UNL A   1      38.048  33.900  28.512  1.00  0.00    -0.206 F 
ATOM     46  C   UNL A   1      34.649  34.303  29.674  1.00  0.00     0.060 A 
BRANCH  46  47
ATOM     47  S   UNL A   1      33.153  35.228  29.264  1.00  0.00     0.124 S 
ATOM     48  O   UNL A   1      32.537  34.358  28.267  1.00  0.00    -0.237 OA
ATOM     49  O   UNL A   1      32.469  35.304  30.551  1.00  0.00    -0.237 OA
ATOM     50  O   UNL A   1      33.666  36.496  28.756  1.00  0.00    -0.744 OA
ENDBRANCH  46  47
ENDBRANCH  25  39
BRANCH  26  51
ATOM     51  C   UNL A   1      45.289  27.810  32.702  1.00  0.00     0.058 A 
ATOM     52  C   UNL A   1      45.299  26.779  33.652  1.00  0.00     0.135 A 
ATOM     53  C   UNL A   1      46.495  28.109  32.048  1.00  0.00     0.135 A 
ATOM     54  F   UNL A   1      44.172  26.455  34.304  1.00  0.00    -0.206 F 
ATOM     55  C   UNL A   1      46.465  26.082  33.956  1.00  0.00     0.059 A 
ATOM     56  C   UNL A   1      47.665  27.406  32.311  1.00  0.00     0.059 A 
ATOM     57  F   UNL A   1      46.533  29.073  31.113  1.00  0.00    -0.206 F 
ATOM     58  C   UNL A   1      47.643  26.404  33.279  1.00  0.00     0.060 A 
BRANCH  58  59
ATOM     59  S   UNL A   1      49.145  25.471  33.645  1.00  0.00     0.124 S 
ATOM     60  O   UNL A   1      49.715  25.304  32.314  1.00  0.00    -0.237 OA
ATOM     61  O   UNL A   1      49.860  26.375  34.540  1.00  0.00    -0.237 OA
ATOM     62  O   UNL A   1      48.637  24.255  34.273  1.00  0.00    -0.744 OA
ENDBRANCH  58  59
ENDBRANCH  26  51
BRANCH  38  63
ATOM     63  C   UNL A   1      42.414  33.713  35.019  1.00  0.00     0.058 A 
ATOM     64  C   UNL A   1      43.264  34.789  34.713  1.00  0.00     0.135 A 
ATOM     65  C   UNL A   1      41.977  33.577  36.345  1.00  0.00     0.135 A 
ATOM     66  F   UNL A   1      43.715  34.957  33.459  1.00  0.00    -0.206 F 
ATOM     67  C   UNL A   1      43.698  35.671  35.694  1.00  0.00     0.059 A 
ATOM     68  C   UNL A   1      42.377  34.465  37.338  1.00  0.00     0.059 A 
ATOM     69  F   UNL A   1      41.157  32.570  36.687  1.00  0.00    -0.206 F 
ATOM     70  C   UNL A   1      43.254  35.497  37.006  1.00  0.00     0.060 A 
BRANCH  70  71
ATOM     71  S   UNL A   1      43.830  36.644  38.275  1.00  0.00     0.124 S 
ATOM     72  O   UNL A   1      45.213  36.215  38.452  1.00  0.00    -0.237 OA
ATOM     73  O   UNL A   1      43.646  37.942  37.632  1.00  0.00    -0.237 OA
ATOM     74  O   UNL A   1      42.939  36.378  39.401  1.00  0.00    -0.744 OA
ENDBRANCH  70  71
ENDBRANCH  38  63
ENDBRANCH  12  13
ENDBRANCH   5   7
ENDBRANCH   2   3
ENDBRANCH   1   2
BRANCH   1  75
ATOM     75  C   UNL A   1      41.037  19.562  26.142  1.00  0.00     0.117 C 
BRANCH  75  76
ATOM     76  N   UNL A   1      41.916  18.528  26.646  1.00  0.00    -0.354 N 
ATOM     77  C   UNL A   1      43.191  18.225  26.260  1.00  0.00     0.249 C 
ATOM     78  H   UNL A   1      41.545  17.968  27.365  1.00  0.00     0.163 HD
ATOM     79  O   UNL A   1      43.786  17.336  26.876  1.00  0.00    -0.272 OA
BRANCH  77  80
ATOM     80  C   UNL A   1      43.890  19.013  25.136  1.00  0.00     0.207 C 
ATOM     81  C   UNL A   1      45.379  18.732  25.048  1.00  0.00     0.045 C 
ATOM     82  O   UNL A   1      43.758  20.434  25.220  1.00  0.00    -0.363 OA
ATOM     83  C   UNL A   1      45.889  19.931  24.283  1.00  0.00     0.037 C 
ATOM     84  C   UNL A   1      44.944  21.057  24.685  1.00  0.00     0.138 C 
BRANCH  84  85
ATOM     85  C   UNL A   1      45.517  22.008  25.750  1.00  0.00     0.147 C 
BRANCH  85  86
ATOM     86  N   UNL A   1      44.629  22.211  26.875  1.00  0.00    -0.353 N 
ATOM     87  C   UNL A   1      44.488  23.296  27.689  1.00  0.00     0.223 C 
ATOM     88  H   UNL A   1      44.038  21.453  27.084  1.00  0.00     0.163 HD
ATOM     89  O   UNL A   1      43.551  23.260  28.489  1.00  0.00    -0.275 OA
BRANCH  87  90
ATOM     90  C   UNL A   1      45.429  24.500  27.569  1.00  0.00     0.083 C 
ATOM     91  C   UNL A   1      46.010  24.918  28.925  1.00  0.00     0.042 C 
ATOM     92  C   UNL A   1      44.672  25.688  26.942  1.00  0.00     0.042 C 
ATOM     93  C   UNL A   1      46.760  26.239  28.825  1.00  0.00     0.161 C 
ATOM     94  C   UNL A   1      45.478  26.978  26.987  1.00  0.00     0.161 C 
ATOM     95  O   UNL A   1      45.903  27.252  28.318  1.00  0.00    -0.381 OA
ENDBRANCH  87  90
ENDBRANCH  85  86
ENDBRANCH  84  85
ENDBRANCH  77  80
ENDBRANCH  75  76
ENDBRANCH   1  75
TORSDOF 16
ENDMDL
MODEL 2
REMARK VINA RESULT:     -10.8      3.724     12.192
REMARK SMILES O=C(NCCCNC(=O)[C@@H]1CC[C@H](CNC(=O)C2CCOCC2)O1)c1ccc(-c2c3nc(c(-c4c(F)cc(S(=O)(=O)[O-])cc4F)c4ccc([nH]4)c(-c4c(F)cc(S(=O)(=O)[O-])cc4F)c4nc(c(-c5c(F)cc(S(=O)(=O)[O-])cc5F)c5ccc2[nH]5)C=C4)C=C3)cc1
REMARK SMILES IDX 5 1 4 2 3 3 1 4 2 5 25 7 26 8 90 9 27 10 89 11 28 12 29 13
REMARK SMILES IDX 30 14 83 15 31 16 88 17 82 18 84 19 32 20 87 21 81 22 80 23
REMARK SMILES IDX 33 25 67 26 46 27 66 28 47 29 50 30 65 31 85 32 48 33 49 34
REMARK SMILES IDX 64 36 86 37 51 38 34 39 35 40 44 41 36 42 37 43 43 44 45 45
REMARK SMILES IDX 38 46 39 47 40 48 41 49 42 50 68 51 69 52 78 53 70 54 71 55
REMARK SMILES IDX 77 56 79 57 72 58 73 59 74 60 75 61 76 62 52 63 53 64 62 65
REMARK SMILES IDX 54 66 55 67 61 68 63 69 56 70 57 71 58 72 59 73 60 74 6 75
REMARK SMILES IDX 7 76 8 77 9 79 10 80 11 81 24 82 12 83 13 84 14 85 15 86
REMARK SMILES IDX 16 87 17 89 18 90 19 91 23 92 20 93 22 94 21 95
REMARK H PARENT 3 6 84 24 50 35 7 78 15 88
REMARK Flexibility Score: inf
ROOT
ATOM      1  C   UNL A   1      34.911  33.513  28.041  1.00  0.00     0.042 C 
ENDROOT
BRANCH   1   2
ATOM      2  C   UNL A   1      35.073  32.386  29.046  1.00  0.00     0.118 C 
BRANCH   2   3
ATOM      3  N   UNL A   1      34.385  31.172  28.613  1.00  0.00    -0.352 N 
ATOM      4  O   UNL A   1      34.138  29.156  27.650  1.00  0.00    -0.269 OA
ATOM      5  C   UNL A   1      34.890  29.966  28.191  1.00  0.00     0.251 C 
ATOM      6  H   UNL A   1      33.402  31.227  28.629  1.00  0.00     0.163 HD
BRANCH   5   7
ATOM      7  C   UNL A   1      36.323  29.646  28.371  1.00  0.00     0.039 A 
ATOM      8  C   UNL A   1      36.775  29.102  29.572  1.00  0.00     0.014 A 
ATOM      9  C   UNL A   1      37.225  29.860  27.323  1.00  0.00     0.014 A 
ATOM     10  C   UNL A   1      38.133  28.944  29.791  1.00  0.00     0.010 A 
ATOM     11  C   UNL A   1      38.584  29.574  27.502  1.00  0.00     0.010 A 
ATOM     12  C   UNL A   1      39.054  29.139  28.748  1.00  0.00    -0.014 A 
BRANCH  12  13
ATOM     13  C   UNL A   1      40.473  28.779  29.000  1.00  0.00     0.031 A 
ATOM     14  C   UNL A   1      41.034  27.446  28.595  1.00  0.00     0.074 A 
ATOM     15  C   UNL A   1      41.276  29.728  29.524  1.00  0.00     0.049 A 
ATOM     16  N   UNL A   1      42.271  27.026  28.659  1.00  0.00    -0.248 NA
ATOM     17  C   UNL A   1      40.091  26.450  28.061  1.00  0.00     0.031 C 
ATOM     18  C   UNL A   1      40.828  31.049  29.981  1.00  0.00     0.029 A 
ATOM     19  N   UNL A   1      42.632  29.759  29.718  1.00  0.00    -0.354 N 
ATOM     20  C   UNL A   1      42.260  25.721  28.184  1.00  0.00     0.074 A 
ATOM     21  C   UNL A   1      40.885  25.404  27.864  1.00  0.00     0.031 C 
ATOM     22  C   UNL A   1      41.893  31.785  30.324  1.00  0.00     0.029 A 
ATOM     23  C   UNL A   1      43.091  30.968  30.186  1.00  0.00     0.049 A 
ATOM     24  H   UNL A   1      43.221  28.991  29.540  1.00  0.00     0.167 HD
ATOM     25  C   UNL A   1      43.304  24.871  28.024  1.00  0.00     0.037 A 
ATOM     26  C   UNL A   1      44.338  31.377  30.485  1.00  0.00     0.037 A 
ATOM     27  C   UNL A   1      44.671  25.205  28.341  1.00  0.00     0.049 A 
ATOM     28  C   UNL A   1      45.474  30.420  30.282  1.00  0.00     0.074 A 
ATOM     29  C   UNL A   1      45.803  24.417  28.216  1.00  0.00     0.029 A 
ATOM     30  N   UNL A   1      45.096  26.430  28.837  1.00  0.00    -0.354 N 
ATOM     31  N   UNL A   1      45.440  29.190  29.828  1.00  0.00    -0.248 NA
ATOM     32  C   UNL A   1      46.815  30.900  30.636  1.00  0.00     0.031 C 
ATOM     33  C   UNL A   1      46.904  25.152  28.668  1.00  0.00     0.029 A 
ATOM     34  C   UNL A   1      46.468  26.416  29.033  1.00  0.00     0.049 A 
ATOM     35  H   UNL A   1      44.508  27.198  29.023  1.00  0.00     0.167 HD
ATOM     36  C   UNL A   1      46.755  28.745  29.845  1.00  0.00     0.074 A 
ATOM     37  C   UNL A   1      47.563  29.853  30.316  1.00  0.00     0.031 C 
ATOM     38  C   UNL A   1      47.249  27.526  29.516  1.00  0.00     0.037 A 
BRANCH  25  39
ATOM     39  C   UNL A   1      43.016  23.495  27.490  1.00  0.00     0.058 A 
ATOM     40  C   UNL A   1      43.249  23.162  26.146  1.00  0.00     0.135 A 
ATOM     41  C   UNL A   1      42.557  22.478  28.343  1.00  0.00     0.135 A 
ATOM     42  F   UNL A   1      43.671  24.099  25.282  1.00  0.00    -0.206 F 
ATOM     43  C   UNL A   1      43.025  21.875  25.664  1.00  0.00     0.059 A 
ATOM     44  C   UNL A   1      42.349  21.179  27.890  1.00  0.00     0.059 A 
ATOM     45  F   UNL A   1      42.314  22.741  29.638  1.00  0.00    -0.206 F 
ATOM     46  C   UNL A   1      42.578  20.889  26.545  1.00  0.00     0.060 A 
BRANCH  46  47
ATOM     47  S   UNL A   1      42.318  19.217  25.914  1.00  0.00     0.124 S 
ATOM     48  O   UNL A   1      40.868  19.189  25.750  1.00  0.00    -0.237 OA
ATOM     49  O   UNL A   1      43.097  19.223  24.679  1.00  0.00    -0.237 OA
ATOM     50  O   UNL A   1      42.844  18.366  26.977  1.00  0.00    -0.744 OA
ENDBRANCH  46  47
ENDBRANCH  25  39
BRANCH  26  51
ATOM     51  C   UNL A   1      44.558  32.742  31.030  1.00  0.00     0.058 A 
ATOM     52  C   UNL A   1      44.542  32.992  32.410  1.00  0.00     0.135 A 
ATOM     53  C   UNL A   1      44.812  33.824  30.172  1.00  0.00     0.135 A 
ATOM     54  F   UNL A   1      44.304  31.990  33.271  1.00  0.00    -0.206 F 
ATOM     55  C   UNL A   1      44.751  34.270  32.920  1.00  0.00     0.059 A 
ATOM     56  C   UNL A   1      45.055  35.103  30.659  1.00  0.00     0.059 A 
ATOM     57  F   UNL A   1      44.860  33.633  28.844  1.00  0.00    -0.206 F 
ATOM     58  C   UNL A   1      45.008  35.318  32.035  1.00  0.00     0.060 A 
BRANCH  58  59
ATOM     59  S   UNL A   1      45.320  36.968  32.701  1.00  0.00     0.124 S 
ATOM     60  O   UNL A   1      44.880  36.812  34.082  1.00  0.00    -0.237 OA
ATOM     61  O   UNL A   1      46.758  37.116  32.499  1.00  0.00    -0.237 OA
ATOM     62  O   UNL A   1      44.487  37.827  31.864  1.00  0.00    -0.744 OA
ENDBRANCH  58  59
ENDBRANCH  26  51
BRANCH  38  63
ATOM     63  C   UNL A   1      48.734  27.344  29.655  1.00  0.00     0.058 A 
ATOM     64  C   UNL A   1      49.300  26.808  30.823  1.00  0.00     0.135 A 
ATOM     65  C   UNL A   1      49.599  27.710  28.612  1.00  0.00     0.135 A 
ATOM     66  F   UNL A   1      48.514  26.450  31.851  1.00  0.00    -0.206 F 
ATOM     67  C   UNL A   1      50.676  26.680  30.969  1.00  0.00     0.059 A 
ATOM     68  C   UNL A   1      50.978  27.565  28.726  1.00  0.00     0.059 A 
ATOM     69  F   UNL A   1      49.106  28.218  27.471  1.00  0.00    -0.206 F 
ATOM     70  C   UNL A   1      51.507  27.068  29.917  1.00  0.00     0.060 A 
BRANCH  70  71
ATOM     71  S   UNL A   1      53.293  26.905  30.119  1.00  0.00     0.124 S 
ATOM     72  O   UNL A   1      53.704  28.300  30.233  1.00  0.00    -0.237 OA
ATOM     73  O   UNL A   1      53.401  26.110  31.339  1.00  0.00    -0.237 OA
ATOM     74  O   UNL A   1      53.711  26.224  28.897  1.00  0.00    -0.744 OA
ENDBRANCH  70  71
ENDBRANCH  38  63
ENDBRANCH  12  13
ENDBRANCH   5   7
ENDBRANCH   2   3
ENDBRANCH   1   2
BRANCH   1  75
ATOM     75  C   UNL A   1      33.516  34.117  28.057  1.00  0.00     0.117 C 
BRANCH  75  76
ATOM     76  N   UNL A   1      33.529  35.564  28.099  1.00  0.00    -0.354 N 
ATOM     77  C   UNL A   1      33.269  36.393  29.154  1.00  0.00     0.249 C 
ATOM     78  H   UNL A   1      33.757  36.011  27.253  1.00  0.00     0.163 HD
ATOM     79  O   UNL A   1      33.403  37.607  28.981  1.00  0.00    -0.272 OA
BRANCH  77  80
ATOM     80  C   UNL A   1      32.886  35.826  30.534  1.00  0.00     0.207 C 
ATOM     81  C   UNL A   1      32.822  36.888  31.617  1.00  0.00     0.045 C 
ATOM     82  O   UNL A   1      33.753  34.803  31.031  1.00  0.00    -0.363 OA
ATOM     83  C   UNL A   1      32.945  36.069  32.880  1.00  0.00     0.037 C 
ATOM     84  C   UNL A   1      33.809  34.882  32.470  1.00  0.00     0.138 C 
BRANCH  84  85
ATOM     85  C   UNL A   1      35.283  35.002  32.894  1.00  0.00     0.147 C 
BRANCH  85  86
ATOM     86  N   UNL A   1      36.206  34.956  31.781  1.00  0.00    -0.353 N 
ATOM     87  C   UNL A   1      37.250  34.110  31.547  1.00  0.00     0.223 C 
ATOM     88  H   UNL A   1      36.058  35.637  31.086  1.00  0.00     0.163 HD
ATOM     89  O   UNL A   1      37.789  34.201  30.443  1.00  0.00    -0.275 OA
BRANCH  87  90
ATOM     90  C   UNL A   1      37.683  33.084  32.600  1.00  0.00     0.083 C 
ATOM     91  C   UNL A   1      39.209  32.963  32.697  1.00  0.00     0.042 C 
ATOM     92  C   UNL A   1      37.075  31.708  32.262  1.00  0.00     0.042 C 
ATOM     93  C   UNL A   1      39.618  31.791  33.579  1.00  0.00     0.161 C 
ATOM     94  C   UNL A   1      37.632  30.596  33.139  1.00  0.00     0.161 C 
ATOM     95  O   UNL A   1      39.055  30.585  33.085  1.00  0.00    -0.381 OA
ENDBRANCH  87  90
ENDBRANCH  85  86
ENDBRANCH  84  85
ENDBRANCH  77  80
ENDBRANCH  75  76
ENDBRANCH   1  75
TORSDOF 16
ENDMDL
MODEL 3
REMARK VINA RESULT:     -10.8      4.039     10.714
REMARK SMILES O=C(NCCCNC(=O)[C@@H]1CC[C@H](CNC(=O)C2CCOCC2)O1)c1ccc(-c2c3nc(c(-c4c(F)cc(S(=O)(=O)[O-])cc4F)c4ccc([nH]4)c(-c4c(F)cc(S(=O)(=O)[O-])cc4F)c4nc(c(-c5c(F)cc(S(=O)(=O)[O-])cc5F)c5ccc2[nH]5)C=C4)C=C3)cc1
REMARK SMILES IDX 5 1 4 2 3 3 1 4 2 5 25 7 26 8 90 9 27 10 89 11 28 12 29 13
REMARK SMILES IDX 30 14 83 15 31 16 88 17 82 18 84 19 32 20 87 21 81 22 80 23
REMARK SMILES IDX 33 25 67 26 46 27 66 28 47 29 50 30 65 31 85 32 48 33 49 34
REMARK SMILES IDX 64 36 86 37 51 38 34 39 35 40 44 41 36 42 37 43 43 44 45 45
REMARK SMILES IDX 38 46 39 47 40 48 41 49 42 50 68 51 69 52 78 53 70 54 71 55
REMARK SMILES IDX 77 56 79 57 72 58 73 59 74 60 75 61 76 62 52 63 53 64 62 65
REMARK SMILES IDX 54 66 55 67 61 68 63 69 56 70 57 71 58 72 59 73 60 74 6 75
REMARK SMILES IDX 7 76 8 77 9 79 10 80 11 81 24 82 12 83 13 84 14 85 15 86
REMARK SMILES IDX 16 87 17 89 18 90 19 91 23 92 20 93 22 94 21 95
REMARK H PARENT 3 6 84 24 50 35 7 78 15 88
REMARK Flexibility Score: inf
ROOT
ATOM      1  C   UNL A   1      37.486  23.762  25.500  1.00  0.00     0.042 C 
ENDROOT
BRANCH   1   2
ATOM      2  C   UNL A   1      38.523  24.146  26.540  1.00  0.00     0.118 C 
BRANCH   2   3
ATOM      3  N   UNL A   1      39.805  24.488  25.927  1.00  0.00    -0.352 N 
ATOM      4  O   UNL A   1      41.585  25.757  25.406  1.00  0.00    -0.269 OA
ATOM      5  C   UNL A   1      40.674  25.517  26.198  1.00  0.00     0.251 C 
ATOM      6  H   UNL A   1      40.091  23.883  25.205  1.00  0.00     0.163 HD
BRANCH   5   7
ATOM      7  C   UNL A   1      40.513  26.335  27.419  1.00  0.00     0.039 A 
ATOM      8  C   UNL A   1      41.178  27.554  27.541  1.00  0.00     0.014 A 
ATOM      9  C   UNL A   1      39.666  25.901  28.446  1.00  0.00     0.014 A 
ATOM     10  C   UNL A   1      41.144  28.243  28.742  1.00  0.00     0.010 A 
ATOM     11  C   UNL A   1      39.528  26.668  29.609  1.00  0.00     0.010 A 
ATOM     12  C   UNL A   1      40.289  27.833  29.778  1.00  0.00    -0.014 A 
BRANCH  12  13
ATOM     13  C   UNL A   1      40.167  28.716  30.966  1.00  0.00     0.031 A 
ATOM     14  C   UNL A   1      41.095  28.596  32.140  1.00  0.00     0.074 A 
ATOM     15  C   UNL A   1      39.247  29.702  30.921  1.00  0.00     0.049 A 
ATOM     16  N   UNL A   1      41.174  29.357  33.202  1.00  0.00    -0.248 NA
ATOM     17  C   UNL A   1      42.050  27.476  32.135  1.00  0.00     0.031 C 
ATOM     18  C   UNL A   1      38.272  29.891  29.839  1.00  0.00     0.029 A 
ATOM     19  N   UNL A   1      39.006  30.754  31.764  1.00  0.00    -0.354 N 
ATOM     20  C   UNL A   1      42.176  28.810  33.994  1.00  0.00     0.074 A 
ATOM     21  C   UNL A   1      42.657  27.631  33.306  1.00  0.00     0.031 C 
ATOM     22  C   UNL A   1      37.599  31.031  30.044  1.00  0.00     0.029 A 
ATOM     23  C   UNL A   1      38.035  31.613  31.305  1.00  0.00     0.049 A 
ATOM     24  H   UNL A   1      39.481  30.882  32.617  1.00  0.00     0.167 HD
ATOM     25  C   UNL A   1      42.653  29.258  35.181  1.00  0.00     0.037 A 
ATOM     26  C   UNL A   1      37.538  32.742  31.844  1.00  0.00     0.037 A 
ATOM     27  C   UNL A   1      42.168  30.440  35.851  1.00  0.00     0.049 A 
ATOM     28  C   UNL A   1      38.097  33.221  33.149  1.00  0.00     0.074 A 
ATOM     29  C   UNL A   1      42.582  30.979  37.057  1.00  0.00     0.029 A 
ATOM     30  N   UNL A   1      41.166  31.271  35.369  1.00  0.00    -0.354 N 
ATOM     31  N   UNL A   1      39.047  32.689  33.880  1.00  0.00    -0.248 NA
ATOM     32  C   UNL A   1      37.515  34.447  33.709  1.00  0.00     0.031 C 
ATOM     33  C   UNL A   1      41.810  32.116  37.320  1.00  0.00     0.029 A 
ATOM     34  C   UNL A   1      40.942  32.313  36.257  1.00  0.00     0.049 A 
ATOM     35  H   UNL A   1      40.684  31.142  34.520  1.00  0.00     0.167 HD
ATOM     36  C   UNL A   1      39.176  33.512  34.990  1.00  0.00     0.074 A 
ATOM     37  C   UNL A   1      38.233  34.600  34.812  1.00  0.00     0.031 C 
ATOM     38  C   UNL A   1      39.989  33.376  36.066  1.00  0.00     0.037 A 
BRANCH  25  39
ATOM     39  C   UNL A   1      43.749  28.468  35.842  1.00  0.00     0.058 A 
ATOM     40  C   UNL A   1      45.104  28.760  35.619  1.00  0.00     0.135 A 
ATOM     41  C   UNL A   1      43.444  27.445  36.755  1.00  0.00     0.135 A 
ATOM     42  F   UNL A   1      45.454  29.717  34.744  1.00  0.00    -0.206 F 
ATOM     43  C   UNL A   1      46.118  28.059  36.266  1.00  0.00     0.059 A 
ATOM     44  C   UNL A   1      44.440  26.747  37.431  1.00  0.00     0.059 A 
ATOM     45  F   UNL A   1      42.165  27.121  37.004  1.00  0.00    -0.206 F 
ATOM     46  C   UNL A   1      45.775  27.055  37.174  1.00  0.00     0.060 A 
BRANCH  46  47
ATOM     47  S   UNL A   1      47.098  26.171  38.029  1.00  0.00     0.124 S 
ATOM     48  O   UNL A   1      47.097  24.893  37.325  1.00  0.00    -0.237 OA
ATOM     49  O   UNL A   1      48.254  27.028  37.787  1.00  0.00    -0.237 OA
ATOM     50  O   UNL A   1      46.637  26.123  39.413  1.00  0.00    -0.744 OA
ENDBRANCH  46  47
ENDBRANCH  25  39
BRANCH  26  51
ATOM     51  C   UNL A   1      36.438  33.468  31.155  1.00  0.00     0.058 A 
ATOM     52  C   UNL A   1      36.666  34.199  29.980  1.00  0.00     0.135 A 
ATOM     53  C   UNL A   1      35.126  33.421  31.653  1.00  0.00     0.135 A 
ATOM     54  F   UNL A   1      37.902  34.274  29.464  1.00  0.00    -0.206 F 
ATOM     55  C   UNL A   1      35.635  34.875  29.334  1.00  0.00     0.059 A 
ATOM     56  C   UNL A   1      34.074  34.061  31.008  1.00  0.00     0.059 A 
ATOM     57  F   UNL A   1      34.852  32.715  32.761  1.00  0.00    -0.206 F 
ATOM     58  C   UNL A   1      34.342  34.799  29.856  1.00  0.00     0.060 A 
BRANCH  58  59
ATOM     59  S   UNL A   1      33.000  35.642  28.993  1.00  0.00     0.124 S 
ATOM     60  O   UNL A   1      33.731  36.636  28.217  1.00  0.00    -0.237 OA
ATOM     61  O   UNL A   1      32.391  34.556  28.231  1.00  0.00    -0.237 OA
ATOM     62  O   UNL A   1      32.181  36.166  30.082  1.00  0.00    -0.744 OA
ENDBRANCH  58  59
ENDBRANCH  26  51
BRANCH  38  63
ATOM     63  C   UNL A   1      39.886  34.437  37.124  1.00  0.00     0.058 A 
ATOM     64  C   UNL A   1      39.000  34.310  38.206  1.00  0.00     0.135 A 
ATOM     65  C   UNL A   1      40.680  35.593  37.057  1.00  0.00     0.135 A 
ATOM     66  F   UNL A   1      38.214  33.226  38.311  1.00  0.00    -0.206 F 
ATOM     67  C   UNL A   1      38.872  35.311  39.161  1.00  0.00     0.059 A 
ATOM     68  C   UNL A   1      40.589  36.595  38.017  1.00  0.00     0.059 A 
ATOM     69  F   UNL A   1      41.550  35.758  36.048  1.00  0.00    -0.206 F 
ATOM     70  C   UNL A   1      39.667  36.454  39.054  1.00  0.00     0.060 A 
BRANCH  70  71
ATOM     71  S   UNL A   1      39.489  37.751  40.295  1.00  0.00     0.124 S 
ATOM     72  O   UNL A   1      39.440  36.972  41.528  1.00  0.00    -0.237 OA
ATOM     73  O   UNL A   1      40.698  38.546  40.096  1.00  0.00    -0.237 OA
ATOM     74  O   UNL A   1      38.243  38.412  39.919  1.00  0.00    -0.744 OA
ENDBRANCH  70  71
ENDBRANCH  38  63
ENDBRANCH  12  13
ENDBRANCH   5   7
ENDBRANCH   2   3
ENDBRANCH   1   2
BRANCH   1  75
ATOM     75  C   UNL A   1      36.649  22.564  25.920  1.00  0.00     0.117 C 
BRANCH  75  76
ATOM     76  N   UNL A   1      35.452  22.939  26.642  1.00  0.00    -0.354 N 
ATOM     77  C   UNL A   1      34.206  23.214  26.152  1.00  0.00     0.249 C 
ATOM     78  H   UNL A   1      35.547  23.004  27.619  1.00  0.00     0.163 HD
ATOM     79  O   UNL A   1      33.306  23.451  26.961  1.00  0.00    -0.272 OA
BRANCH  77  80
ATOM     80  C   UNL A   1      33.919  23.164  24.639  1.00  0.00     0.207 C 
ATOM     81  C   UNL A   1      33.934  24.534  23.985  1.00  0.00     0.045 C 
ATOM     82  O   UNL A   1      32.671  22.565  24.278  1.00  0.00    -0.363 OA
ATOM     83  C   UNL A   1      33.157  24.291  22.711  1.00  0.00     0.037 C 
ATOM     84  C   UNL A   1      32.166  23.196  23.085  1.00  0.00     0.138 C 
BRANCH  84  85
ATOM     85  C   UNL A   1      30.743  23.706  23.369  1.00  0.00     0.147 C 
BRANCH  85  86
ATOM     86  N   UNL A   1      30.559  24.164  24.729  1.00  0.00    -0.353 N 
ATOM     87  C   UNL A   1      30.468  25.434  25.217  1.00  0.00     0.223 C 
ATOM     88  H   UNL A   1      30.488  23.452  25.404  1.00  0.00     0.163 HD
ATOM     89  O   UNL A   1      30.167  25.542  26.407  1.00  0.00    -0.275 OA
BRANCH  87  90
ATOM     90  C   UNL A   1      30.693  26.646  24.306  1.00  0.00     0.083 C 
ATOM     91  C   UNL A   1      31.308  27.831  25.061  1.00  0.00     0.042 C 
ATOM     92  C   UNL A   1      29.352  27.074  23.675  1.00  0.00     0.042 C 
ATOM     93  C   UNL A   1      31.318  29.090  24.204  1.00  0.00     0.161 C 
ATOM     94  C   UNL A   1      29.458  28.396  22.929  1.00  0.00     0.161 C 
ATOM     95  O   UNL A   1      30.000  29.404  23.777  1.00  0.00    -0.381 OA
ENDBRANCH  87  90
ENDBRANCH  85  86
ENDBRANCH  84  85
ENDBRANCH  77  80
ENDBRANCH  75  76
ENDBRANCH   1  75
TORSDOF 16
ENDMDL
