MODEL 1
REMARK VINA RESULT:     -12.7      0.000      0.000
REMARK SMILES CC1(C)C[C@@H](Nc2ccc(Cl)c(C(=O)NCCCNC(=O)c3ccc(-c4c5nc(c(-c6c(F)cc(S(=O)(=O)[O-])cc6F)c6ccc([nH]6)c(-c6c(F)cc(S(=O)(=O)[O-])cc6F)c6nc(c(-c7c(F)cc(S(=O)(=O)[O-])cc7F)c7ccc4[nH]7)C=C6)C=C5)cc3)c2)C(C)(C)O1
REMARK SMILES IDX 17 1 16 2 15 3 13 4 14 5 12 7 7 8 8 9 88 10 9 11 10 12 11 13
REMARK SMILES IDX 6 14 5 16 1 17 2 18 3 19 4 20 92 21 89 22 90 23 91 24 18 25
REMARK SMILES IDX 19 26 20 27 21 29 22 30 23 31 87 32 24 33 86 34 25 35 26 36
REMARK SMILES IDX 27 37 80 38 28 39 85 40 79 41 81 42 29 43 84 44 78 45 77 46
REMARK SMILES IDX 30 48 64 49 43 50 63 51 44 52 47 53 62 54 82 55 45 56 46 57
REMARK SMILES IDX 61 59 83 60 48 61 31 62 32 63 41 64 33 65 34 66 40 67 42 68
REMARK SMILES IDX 35 69 36 70 37 71 38 72 39 73 65 74 66 75 75 76 67 77 68 78
REMARK SMILES IDX 74 79 76 80 69 81 70 82 71 83 72 84 73 85 49 86 50 87 59 88
REMARK SMILES IDX 51 89 52 90 58 91 60 92 53 93 54 94 55 95 56 96 57 97
REMARK H PARENT 15 6 6 15 19 28 81 47 47 58
REMARK Flexibility Score: inf
ROOT
ATOM      1  C   UNL A   1      39.362  21.980  26.422  1.00  0.00     0.042 C 
ENDROOT
BRANCH   1   2
ATOM      2  C   UNL A   1      37.987  22.458  25.996  1.00  0.00     0.118 C 
BRANCH   2   3
ATOM      3  N   UNL A   1      37.772  22.542  24.562  1.00  0.00    -0.352 N 
ATOM      4  C   UNL A   1      36.652  22.868  23.834  1.00  0.00     0.252 C 
ATOM      5  O   UNL A   1      36.769  22.956  22.610  1.00  0.00    -0.269 OA
ATOM      6  H   UNL A   1      38.565  22.332  24.018  1.00  0.00     0.163 HD
BRANCH   4   7
ATOM      7  C   UNL A   1      35.295  23.008  24.430  1.00  0.00     0.060 A 
ATOM      8  C   UNL A   1      33.701  24.586  25.415  1.00  0.00     0.035 A 
ATOM      9  C   UNL A   1      32.746  23.569  25.443  1.00  0.00     0.027 A 
ATOM     10  C   UNL A   1      34.937  24.315  24.822  1.00  0.00     0.041 A 
ATOM     11  C   UNL A   1      33.095  22.265  25.114  1.00  0.00     0.023 A 
ATOM     12  C   UNL A   1      34.405  21.970  24.724  1.00  0.00     0.053 A 
ATOM     13  Cl  UNL A   1      34.873  20.311  24.886  1.00  0.00    -0.083 Cl
BRANCH   8  14
ATOM     14  N   UNL A   1      33.512  25.763  26.135  1.00  0.00    -0.379 N 
ATOM     15  H   UNL A   1      34.071  25.987  26.915  1.00  0.00     0.160 HD
BRANCH  14  16
ATOM     16  C   UNL A   1      32.441  26.654  25.676  1.00  0.00     0.113 C 
ATOM     17  C   UNL A   1      32.114  29.003  22.831  1.00  0.00     0.042 C 
ATOM     18  C   UNL A   1      31.677  28.170  24.031  1.00  0.00     0.065 C 
ATOM     19  C   UNL A   1      30.183  27.840  23.916  1.00  0.00     0.042 C 
ATOM     20  C   UNL A   1      32.541  26.924  24.191  1.00  0.00     0.062 C 
ATOM     21  O   UNL A   1      31.871  28.941  25.234  1.00  0.00    -0.367 OA
ATOM     22  C   UNL A   1      32.421  28.082  26.270  1.00  0.00     0.083 C 
ATOM     23  C   UNL A   1      33.794  28.657  26.626  1.00  0.00     0.044 C 
ATOM     24  C   UNL A   1      31.495  28.175  27.485  1.00  0.00     0.044 C 
ENDBRANCH  14  16
ENDBRANCH   8  14
ENDBRANCH   4   7
ENDBRANCH   2   3
ENDBRANCH   1   2
BRANCH   1  25
ATOM     25  C   UNL A   1      40.264  23.034  27.043  1.00  0.00     0.118 C 
BRANCH  25  26
ATOM     26  N   UNL A   1      41.010  23.822  26.068  1.00  0.00    -0.352 N 
ATOM     27  C   UNL A   1      41.471  25.117  26.097  1.00  0.00     0.251 C 
ATOM     28  H   UNL A   1      41.223  23.338  25.238  1.00  0.00     0.163 HD
ATOM     29  O   UNL A   1      41.960  25.595  25.072  1.00  0.00    -0.269 OA
BRANCH  27  30
ATOM     30  C   UNL A   1      41.366  25.957  27.314  1.00  0.00     0.039 A 
ATOM     31  C   UNL A   1      42.351  26.919  27.560  1.00  0.00     0.014 A 
ATOM     32  C   UNL A   1      40.327  25.794  28.230  1.00  0.00     0.014 A 
ATOM     33  C   UNL A   1      42.242  27.766  28.668  1.00  0.00     0.010 A 
ATOM     34  C   UNL A   1      40.152  26.713  29.261  1.00  0.00     0.010 A 
ATOM     35  C   UNL A   1      41.112  27.705  29.500  1.00  0.00    -0.014 A 
BRANCH  35  36
ATOM     36  C   UNL A   1      40.919  28.669  30.618  1.00  0.00     0.031 A 
ATOM     37  C   UNL A   1      41.748  28.559  31.873  1.00  0.00     0.074 A 
ATOM     38  C   UNL A   1      39.948  29.599  30.531  1.00  0.00     0.049 A 
ATOM     39  N   UNL A   1      41.691  29.279  32.965  1.00  0.00    -0.248 NA
ATOM     40  C   UNL A   1      42.747  27.480  31.923  1.00  0.00     0.031 C 
ATOM     41  C   UNL A   1      39.028  29.757  29.402  1.00  0.00     0.029 A 
ATOM     42  N   UNL A   1      39.562  30.582  31.409  1.00  0.00    -0.354 N 
ATOM     43  C   UNL A   1      42.626  28.728  33.833  1.00  0.00     0.074 A 
ATOM     44  C   UNL A   1      43.194  27.578  33.166  1.00  0.00     0.031 C 
ATOM     45  C   UNL A   1      38.207  30.792  29.641  1.00  0.00     0.029 A 
ATOM     46  C   UNL A   1      38.510  31.346  30.956  1.00  0.00     0.049 A 
ATOM     47  H   UNL A   1      39.996  30.726  32.280  1.00  0.00     0.167 HD
ATOM     48  C   UNL A   1      42.999  29.156  35.063  1.00  0.00     0.037 A 
ATOM     49  C   UNL A   1      37.858  32.372  31.536  1.00  0.00     0.037 A 
ATOM     50  C   UNL A   1      42.447  30.320  35.708  1.00  0.00     0.049 A 
ATOM     51  C   UNL A   1      38.304  32.848  32.891  1.00  0.00     0.074 A 
ATOM     52  C   UNL A   1      42.813  30.889  36.915  1.00  0.00     0.029 A 
ATOM     53  N   UNL A   1      41.406  31.088  35.203  1.00  0.00    -0.354 N 
ATOM     54  N   UNL A   1      39.257  32.371  33.657  1.00  0.00    -0.248 NA
ATOM     55  C   UNL A   1      37.596  34.003  33.457  1.00  0.00     0.031 C 
ATOM     56  C   UNL A   1      41.954  31.964  37.169  1.00  0.00     0.029 A 
ATOM     57  C   UNL A   1      41.093  32.105  36.091  1.00  0.00     0.049 A 
ATOM     58  H   UNL A   1      40.955  30.932  34.342  1.00  0.00     0.167 HD
ATOM     59  C   UNL A   1      39.275  33.181  34.789  1.00  0.00     0.074 A 
ATOM     60  C   UNL A   1      38.252  34.189  34.593  1.00  0.00     0.031 C 
ATOM     61  C   UNL A   1      40.065  33.096  35.888  1.00  0.00     0.037 A 
BRANCH  48  62
ATOM     62  C   UNL A   1      44.049  28.362  35.795  1.00  0.00     0.058 A 
ATOM     63  C   UNL A   1      43.714  27.317  36.674  1.00  0.00     0.135 A 
ATOM     64  C   UNL A   1      45.414  28.630  35.595  1.00  0.00     0.135 A 
ATOM     65  F   UNL A   1      42.426  27.024  36.916  1.00  0.00    -0.206 F 
ATOM     66  C   UNL A   1      44.689  26.595  37.353  1.00  0.00     0.059 A 
ATOM     67  C   UNL A   1      46.408  27.897  36.238  1.00  0.00     0.059 A 
ATOM     68  F   UNL A   1      45.794  29.616  34.766  1.00  0.00    -0.206 F 
ATOM     69  C   UNL A   1      46.035  26.892  37.129  1.00  0.00     0.060 A 
BRANCH  69  70
ATOM     70  S   UNL A   1      47.287  25.944  38.018  1.00  0.00     0.124 S 
ATOM     71  O   UNL A   1      48.506  26.661  37.655  1.00  0.00    -0.237 OA
ATOM     72  O   UNL A   1      46.858  26.087  39.405  1.00  0.00    -0.237 OA
ATOM     73  O   UNL A   1      47.159  24.602  37.460  1.00  0.00    -0.744 OA
ENDBRANCH  69  70
ENDBRANCH  48  62
BRANCH  49  74
ATOM     74  C   UNL A   1      36.728  33.025  30.822  1.00  0.00     0.058 A 
ATOM     75  C   UNL A   1      35.398  32.793  31.200  1.00  0.00     0.135 A 
ATOM     76  C   UNL A   1      36.958  33.926  29.769  1.00  0.00     0.135 A 
ATOM     77  F   UNL A   1      35.123  31.936  32.196  1.00  0.00    -0.206 F 
ATOM     78  C   UNL A   1      34.335  33.422  30.558  1.00  0.00     0.059 A 
ATOM     79  C   UNL A   1      35.914  34.589  29.130  1.00  0.00     0.059 A 
ATOM     80  F   UNL A   1      38.213  34.197  29.378  1.00  0.00    -0.206 F 
ATOM     81  C   UNL A   1      34.604  34.325  29.528  1.00  0.00     0.060 A 
BRANCH  81  82
ATOM     82  S   UNL A   1      33.223  35.188  28.748  1.00  0.00     0.124 S 
ATOM     83  O   UNL A   1      32.473  35.651  29.910  1.00  0.00    -0.237 OA
ATOM     84  O   UNL A   1      33.907  36.220  27.975  1.00  0.00    -0.237 OA
ATOM     85  O   UNL A   1      32.580  34.146  27.955  1.00  0.00    -0.744 OA
ENDBRANCH  81  82
ENDBRANCH  49  74
BRANCH  61  86
ATOM     86  C   UNL A   1      39.869  34.133  36.961  1.00  0.00     0.058 A 
ATOM     87  C   UNL A   1      39.071  33.887  38.089  1.00  0.00     0.135 A 
ATOM     88  C   UNL A   1      40.519  35.375  36.877  1.00  0.00     0.135 A 
ATOM     89  F   UNL A   1      38.421  32.718  38.217  1.00  0.00    -0.206 F 
ATOM     90  C   UNL A   1      38.897  34.848  39.080  1.00  0.00     0.059 A 
ATOM     91  C   UNL A   1      40.387  36.338  37.873  1.00  0.00     0.059 A 
ATOM     92  F   UNL A   1      41.305  35.658  35.825  1.00  0.00    -0.206 F 
ATOM     93  C   UNL A   1      39.562  36.070  38.963  1.00  0.00     0.060 A 
BRANCH  93  94
ATOM     94  S   UNL A   1      39.343  37.301  40.265  1.00  0.00     0.124 S 
ATOM     95  O   UNL A   1      40.726  37.647  40.578  1.00  0.00    -0.237 OA
ATOM     96  O   UNL A   1      38.569  38.337  39.587  1.00  0.00    -0.237 OA
ATOM     97  O   UNL A   1      38.627  36.572  41.307  1.00  0.00    -0.744 OA
ENDBRANCH  93  94
ENDBRANCH  61  86
ENDBRANCH  35  36
ENDBRANCH  27  30
ENDBRANCH  25  26
ENDBRANCH   1  25
TORSDOF 15
ENDMDL
MODEL 2
REMARK VINA RESULT:     -12.6      1.137      2.166
REMARK SMILES CC1(C)C[C@@H](Nc2ccc(Cl)c(C(=O)NCCCNC(=O)c3ccc(-c4c5nc(c(-c6c(F)cc(S(=O)(=O)[O-])cc6F)c6ccc([nH]6)c(-c6c(F)cc(S(=O)(=O)[O-])cc6F)c6nc(c(-c7c(F)cc(S(=O)(=O)[O-])cc7F)c7ccc4[nH]7)C=C6)C=C5)cc3)c2)C(C)(C)O1
REMARK SMILES IDX 17 1 16 2 15 3 13 4 14 5 12 7 7 8 8 9 88 10 9 11 10 12 11 13
REMARK SMILES IDX 6 14 5 16 1 17 2 18 3 19 4 20 92 21 89 22 90 23 91 24 18 25
REMARK SMILES IDX 19 26 20 27 21 29 22 30 23 31 87 32 24 33 86 34 25 35 26 36
REMARK SMILES IDX 27 37 80 38 28 39 85 40 79 41 81 42 29 43 84 44 78 45 77 46
REMARK SMILES IDX 30 48 64 49 43 50 63 51 44 52 47 53 62 54 82 55 45 56 46 57
REMARK SMILES IDX 61 59 83 60 48 61 31 62 32 63 41 64 33 65 34 66 40 67 42 68
REMARK SMILES IDX 35 69 36 70 37 71 38 72 39 73 65 74 66 75 75 76 67 77 68 78
REMARK SMILES IDX 74 79 76 80 69 81 70 82 71 83 72 84 73 85 49 86 50 87 59 88
REMARK SMILES IDX 51 89 52 90 58 91 60 92 53 93 54 94 55 95 56 96 57 97
REMARK H PARENT 15 6 6 15 19 28 81 47 47 58
REMARK Flexibility Score: inf
ROOT
ATOM      1  C   UNL A   1      37.229  23.429  25.197  1.00  0.00     0.042 C 
ENDROOT
BRANCH   1   2
ATOM      2  C   UNL A   1      36.779  21.994  25.397  1.00  0.00     0.118 C 
BRANCH   2   3
ATOM      3  N   UNL A   1      35.840  21.782  26.484  1.00  0.00    -0.352 N 
ATOM      4  C   UNL A   1      34.466  21.707  26.490  1.00  0.00     0.252 C 
ATOM      5  O   UNL A   1      33.912  21.421  27.553  1.00  0.00    -0.269 OA
ATOM      6  H   UNL A   1      36.258  21.671  27.369  1.00  0.00     0.163 HD
BRANCH   4   7
ATOM      7  C   UNL A   1      33.618  22.058  25.318  1.00  0.00     0.060 A 
ATOM      8  C   UNL A   1      32.233  23.810  24.311  1.00  0.00     0.035 A 
ATOM      9  C   UNL A   1      32.106  23.020  23.168  1.00  0.00     0.027 A 
ATOM     10  C   UNL A   1      33.066  23.357  25.338  1.00  0.00     0.041 A 
ATOM     11  C   UNL A   1      32.593  21.719  23.152  1.00  0.00     0.023 A 
ATOM     12  C   UNL A   1      33.243  21.204  24.277  1.00  0.00     0.053 A 
ATOM     13  Cl  UNL A   1      33.300  19.476  24.376  1.00  0.00    -0.083 Cl
BRANCH   8  14
ATOM     14  N   UNL A   1      31.402  24.909  24.517  1.00  0.00    -0.379 N 
ATOM     15  H   UNL A   1      30.426  24.848  24.398  1.00  0.00     0.160 HD
BRANCH  14  16
ATOM     16  C   UNL A   1      32.051  26.162  24.919  1.00  0.00     0.113 C 
ATOM     17  C   UNL A   1      31.420  28.611  27.626  1.00  0.00     0.042 C 
ATOM     18  C   UNL A   1      32.159  27.941  26.472  1.00  0.00     0.065 C 
ATOM     19  C   UNL A   1      33.665  28.206  26.598  1.00  0.00     0.042 C 
ATOM     20  C   UNL A   1      31.831  26.454  26.388  1.00  0.00     0.062 C 
ATOM     21  O   UNL A   1      31.708  28.515  25.229  1.00  0.00    -0.367 OA
ATOM     22  C   UNL A   1      31.540  27.457  24.245  1.00  0.00     0.083 C 
ATOM     23  C   UNL A   1      30.058  27.451  23.865  1.00  0.00     0.044 C 
ATOM     24  C   UNL A   1      32.383  27.827  23.022  1.00  0.00     0.044 C 
ENDBRANCH  14  16
ENDBRANCH   8  14
ENDBRANCH   4   7
ENDBRANCH   2   3
ENDBRANCH   1   2
BRANCH   1  25
ATOM     25  C   UNL A   1      38.077  24.016  26.313  1.00  0.00     0.118 C 
BRANCH  25  26
ATOM     26  N   UNL A   1      39.513  23.871  26.104  1.00  0.00    -0.352 N 
ATOM     27  C   UNL A   1      40.585  24.600  26.564  1.00  0.00     0.251 C 
ATOM     28  H   UNL A   1      39.761  23.113  25.528  1.00  0.00     0.163 HD
ATOM     29  O   UNL A   1      41.706  24.349  26.120  1.00  0.00    -0.269 OA
BRANCH  27  30
ATOM     30  C   UNL A   1      40.419  25.694  27.551  1.00  0.00     0.039 A 
ATOM     31  C   UNL A   1      39.441  25.568  28.544  1.00  0.00     0.014 A 
ATOM     32  C   UNL A   1      41.192  26.853  27.498  1.00  0.00     0.014 A 
ATOM     33  C   UNL A   1      39.306  26.557  29.524  1.00  0.00     0.010 A 
ATOM     34  C   UNL A   1      41.143  27.776  28.539  1.00  0.00     0.010 A 
ATOM     35  C   UNL A   1      40.192  27.645  29.561  1.00  0.00    -0.014 A 
BRANCH  35  36
ATOM     36  C   UNL A   1      40.140  28.651  30.657  1.00  0.00     0.031 A 
ATOM     37  C   UNL A   1      41.021  28.505  31.872  1.00  0.00     0.074 A 
ATOM     38  C   UNL A   1      39.248  29.659  30.590  1.00  0.00     0.049 A 
ATOM     39  N   UNL A   1      41.082  29.255  32.942  1.00  0.00    -0.248 NA
ATOM     40  C   UNL A   1      41.927  27.345  31.905  1.00  0.00     0.031 C 
ATOM     41  C   UNL A   1      38.286  29.866  29.503  1.00  0.00     0.029 A 
ATOM     42  N   UNL A   1      38.993  30.695  31.455  1.00  0.00    -0.354 N 
ATOM     43  C   UNL A   1      42.012  28.649  33.779  1.00  0.00     0.074 A 
ATOM     44  C   UNL A   1      42.445  27.438  33.120  1.00  0.00     0.031 C 
ATOM     45  C   UNL A   1      37.570  30.973  29.751  1.00  0.00     0.029 A 
ATOM     46  C   UNL A   1      37.987  31.534  31.031  1.00  0.00     0.049 A 
ATOM     47  H   UNL A   1      39.483  30.824  32.299  1.00  0.00     0.167 HD
ATOM     48  C   UNL A   1      42.483  29.076  34.975  1.00  0.00     0.037 A 
ATOM     49  C   UNL A   1      37.455  32.627  31.611  1.00  0.00     0.037 A 
ATOM     50  C   UNL A   1      42.065  30.300  35.611  1.00  0.00     0.049 A 
ATOM     51  C   UNL A   1      38.010  33.099  32.927  1.00  0.00     0.074 A 
ATOM     52  C   UNL A   1      42.541  30.867  36.780  1.00  0.00     0.029 A 
ATOM     53  N   UNL A   1      41.068  31.141  35.135  1.00  0.00    -0.354 N 
ATOM     54  N   UNL A   1      38.958  32.562  33.659  1.00  0.00    -0.248 NA
ATOM     55  C   UNL A   1      37.432  34.325  33.491  1.00  0.00     0.031 C 
ATOM     56  C   UNL A   1      41.790  32.018  37.043  1.00  0.00     0.029 A 
ATOM     57  C   UNL A   1      40.890  32.204  36.006  1.00  0.00     0.049 A 
ATOM     58  H   UNL A   1      40.561  31.001  34.303  1.00  0.00     0.167 HD
ATOM     59  C   UNL A   1      39.103  33.397  34.763  1.00  0.00     0.074 A 
ATOM     60  C   UNL A   1      38.160  34.484  34.587  1.00  0.00     0.031 C 
ATOM     61  C   UNL A   1      39.940  33.274  35.823  1.00  0.00     0.037 A 
BRANCH  48  62
ATOM     62  C   UNL A   1      43.499  28.214  35.678  1.00  0.00     0.058 A 
ATOM     63  C   UNL A   1      44.878  28.348  35.443  1.00  0.00     0.135 A 
ATOM     64  C   UNL A   1      43.090  27.256  36.622  1.00  0.00     0.135 A 
ATOM     65  F   UNL A   1      45.328  29.236  34.543  1.00  0.00    -0.206 F 
ATOM     66  C   UNL A   1      45.810  27.542  36.090  1.00  0.00     0.059 A 
ATOM     67  C   UNL A   1      44.007  26.462  37.305  1.00  0.00     0.059 A 
ATOM     68  F   UNL A   1      41.786  27.084  36.888  1.00  0.00    -0.206 F 
ATOM     69  C   UNL A   1      45.365  26.601  37.020  1.00  0.00     0.060 A 
BRANCH  69  70
ATOM     70  S   UNL A   1      46.587  25.563  37.849  1.00  0.00     0.124 S 
ATOM     71  O   UNL A   1      45.730  24.646  38.596  1.00  0.00    -0.237 OA
ATOM     72  O   UNL A   1      47.312  24.978  36.725  1.00  0.00    -0.237 OA
ATOM     73  O   UNL A   1      47.347  26.510  38.657  1.00  0.00    -0.744 OA
ENDBRANCH  69  70
ENDBRANCH  48  62
BRANCH  49  74
ATOM     74  C   UNL A   1      36.348  33.356  30.934  1.00  0.00     0.058 A 
ATOM     75  C   UNL A   1      35.041  33.327  31.442  1.00  0.00     0.135 A 
ATOM     76  C   UNL A   1      36.584  34.130  29.786  1.00  0.00     0.135 A 
ATOM     77  F   UNL A   1      34.762  32.598  32.533  1.00  0.00    -0.206 F 
ATOM     78  C   UNL A   1      34.005  34.029  30.833  1.00  0.00     0.059 A 
ATOM     79  C   UNL A   1      35.571  34.863  29.175  1.00  0.00     0.059 A 
ATOM     80  F   UNL A   1      37.820  34.206  29.268  1.00  0.00    -0.206 F 
ATOM     81  C   UNL A   1      34.282  34.801  29.703  1.00  0.00     0.060 A 
BRANCH  81  82
ATOM     82  S   UNL A   1      32.946  35.764  28.962  1.00  0.00     0.124 S 
ATOM     83  O   UNL A   1      32.156  36.122  30.135  1.00  0.00    -0.237 OA
ATOM     84  O   UNL A   1      33.675  36.856  28.324  1.00  0.00    -0.237 OA
ATOM     85  O   UNL A   1      32.320  34.818  28.043  1.00  0.00    -0.744 OA
ENDBRANCH  81  82
ENDBRANCH  49  74
BRANCH  61  86
ATOM     86  C   UNL A   1      39.888  34.352  36.872  1.00  0.00     0.058 A 
ATOM     87  C   UNL A   1      40.687  35.503  36.788  1.00  0.00     0.135 A 
ATOM     88  C   UNL A   1      38.999  34.250  37.954  1.00  0.00     0.135 A 
ATOM     89  F   UNL A   1      41.558  35.651  35.777  1.00  0.00    -0.206 F 
ATOM     90  C   UNL A   1      40.630  36.499  37.758  1.00  0.00     0.059 A 
ATOM     91  C   UNL A   1      38.902  35.249  38.918  1.00  0.00     0.059 A 
ATOM     92  F   UNL A   1      38.203  33.175  38.076  1.00  0.00    -0.206 F 
ATOM     93  C   UNL A   1      39.733  36.363  38.818  1.00  0.00     0.060 A 
BRANCH  93  94
ATOM     94  S   UNL A   1      39.656  37.671  40.061  1.00  0.00     0.124 S 
ATOM     95  O   UNL A   1      40.952  38.319  39.886  1.00  0.00    -0.237 OA
ATOM     96  O   UNL A   1      38.497  38.444  39.627  1.00  0.00    -0.237 OA
ATOM     97  O   UNL A   1      39.483  36.941  41.313  1.00  0.00    -0.744 OA
ENDBRANCH  93  94
ENDBRANCH  61  86
ENDBRANCH  35  36
ENDBRANCH  27  30
ENDBRANCH  25  26
ENDBRANCH   1  25
TORSDOF 15
ENDMDL
MODEL 3
REMARK VINA RESULT:     -12.6      2.791      8.965
REMARK SMILES CC1(C)C[C@@H](Nc2ccc(Cl)c(C(=O)NCCCNC(=O)c3ccc(-c4c5nc(c(-c6c(F)cc(S(=O)(=O)[O-])cc6F)c6ccc([nH]6)c(-c6c(F)cc(S(=O)(=O)[O-])cc6F)c6nc(c(-c7c(F)cc(S(=O)(=O)[O-])cc7F)c7ccc4[nH]7)C=C6)C=C5)cc3)c2)C(C)(C)O1
REMARK SMILES IDX 17 1 16 2 15 3 13 4 14 5 12 7 7 8 8 9 88 10 9 11 10 12 11 13
REMARK SMILES IDX 6 14 5 16 1 17 2 18 3 19 4 20 92 21 89 22 90 23 91 24 18 25
REMARK SMILES IDX 19 26 20 27 21 29 22 30 23 31 87 32 24 33 86 34 25 35 26 36
REMARK SMILES IDX 27 37 80 38 28 39 85 40 79 41 81 42 29 43 84 44 78 45 77 46
REMARK SMILES IDX 30 48 64 49 43 50 63 51 44 52 47 53 62 54 82 55 45 56 46 57
REMARK SMILES IDX 61 59 83 60 48 61 31 62 32 63 41 64 33 65 34 66 40 67 42 68
REMARK SMILES IDX 35 69 36 70 37 71 38 72 39 73 65 74 66 75 75 76 67 77 68 78
REMARK SMILES IDX 74 79 76 80 69 81 70 82 71 83 72 84 73 85 49 86 50 87 59 88
REMARK SMILES IDX 51 89 52 90 58 91 60 92 53 93 54 94 55 95 56 96 57 97
REMARK H PARENT 15 6 6 15 19 28 81 47 47 58
REMARK Flexibility Score: inf
ROOT
ATOM      1  C   UNL A   1      31.633  31.831  26.702  1.00  0.00     0.042 C 
ENDROOT
BRANCH   1   2
ATOM      2  C   UNL A   1      31.744  30.343  26.429  1.00  0.00     0.118 C 
BRANCH   2   3
ATOM      3  N   UNL A   1      32.593  29.977  25.308  1.00  0.00    -0.352 N 
ATOM      4  C   UNL A   1      32.325  29.251  24.171  1.00  0.00     0.252 C 
ATOM      5  O   UNL A   1      33.215  29.167  23.323  1.00  0.00    -0.269 OA
ATOM      6  H   UNL A   1      33.519  30.306  25.374  1.00  0.00     0.163 HD
BRANCH   4   7
ATOM      7  C   UNL A   1      31.070  28.479  23.964  1.00  0.00     0.060 A 
ATOM      8  C   UNL A   1      29.884  26.411  24.525  1.00  0.00     0.035 A 
ATOM      9  C   UNL A   1      28.759  26.902  23.861  1.00  0.00     0.027 A 
ATOM     10  C   UNL A   1      30.997  27.246  24.648  1.00  0.00     0.041 A 
ATOM     11  C   UNL A   1      28.830  28.086  23.136  1.00  0.00     0.023 A 
ATOM     12  C   UNL A   1      30.026  28.807  23.094  1.00  0.00     0.053 A 
ATOM     13  Cl  UNL A   1      30.185  29.905  21.764  1.00  0.00    -0.083 Cl
BRANCH   8  14
ATOM     14  N   UNL A   1      29.977  25.065  24.874  1.00  0.00    -0.379 N 
ATOM     15  H   UNL A   1      29.238  24.597  25.328  1.00  0.00     0.160 HD
BRANCH  14  16
ATOM     16  C   UNL A   1      31.228  24.379  24.532  1.00  0.00     0.113 C 
ATOM     17  C   UNL A   1      32.033  21.417  22.460  1.00  0.00     0.042 C 
ATOM     18  C   UNL A   1      32.288  22.668  23.293  1.00  0.00     0.065 C 
ATOM     19  C   UNL A   1      33.612  23.314  22.865  1.00  0.00     0.042 C 
ATOM     20  C   UNL A   1      31.113  23.638  23.218  1.00  0.00     0.062 C 
ATOM     21  O   UNL A   1      32.403  22.293  24.680  1.00  0.00    -0.367 OA
ATOM     22  C   UNL A   1      31.697  23.266  25.499  1.00  0.00     0.083 C 
ATOM     23  C   UNL A   1      30.574  22.504  26.206  1.00  0.00     0.044 C 
ATOM     24  C   UNL A   1      32.688  23.801  26.536  1.00  0.00     0.044 C 
ENDBRANCH  14  16
ENDBRANCH   8  14
ENDBRANCH   4   7
ENDBRANCH   2   3
ENDBRANCH   1   2
BRANCH   1  25
ATOM     25  C   UNL A   1      32.864  32.484  27.308  1.00  0.00     0.118 C 
BRANCH  25  26
ATOM     26  N   UNL A   1      32.670  33.882  27.679  1.00  0.00    -0.352 N 
ATOM     27  C   UNL A   1      33.263  34.666  28.640  1.00  0.00     0.251 C 
ATOM     28  H   UNL A   1      31.990  34.350  27.142  1.00  0.00     0.163 HD
ATOM     29  O   UNL A   1      32.813  35.795  28.845  1.00  0.00    -0.269 OA
BRANCH  27  30
ATOM     30  C   UNL A   1      34.403  34.177  29.453  1.00  0.00     0.039 A 
ATOM     31  C   UNL A   1      34.140  33.432  30.608  1.00  0.00     0.014 A 
ATOM     32  C   UNL A   1      35.724  34.461  29.110  1.00  0.00     0.014 A 
ATOM     33  C   UNL A   1      35.197  32.906  31.357  1.00  0.00     0.010 A 
ATOM     34  C   UNL A   1      36.771  33.838  29.782  1.00  0.00     0.010 A 
ATOM     35  C   UNL A   1      36.523  33.060  30.921  1.00  0.00    -0.014 A 
BRANCH  35  36
ATOM     36  C   UNL A   1      37.656  32.416  31.640  1.00  0.00     0.031 A 
ATOM     37  C   UNL A   1      38.119  32.949  32.972  1.00  0.00     0.074 A 
ATOM     38  C   UNL A   1      38.315  31.394  31.058  1.00  0.00     0.049 A 
ATOM     39  N   UNL A   1      39.113  32.547  33.722  1.00  0.00    -0.248 NA
ATOM     40  C   UNL A   1      37.392  34.107  33.518  1.00  0.00     0.031 C 
ATOM     41  C   UNL A   1      38.013  30.837  29.736  1.00  0.00     0.029 A 
ATOM     42  N   UNL A   1      39.380  30.645  31.494  1.00  0.00    -0.354 N 
ATOM     43  C   UNL A   1      39.143  33.410  34.811  1.00  0.00     0.074 A 
ATOM     44  C   UNL A   1      38.107  34.395  34.595  1.00  0.00     0.031 C 
ATOM     45  C   UNL A   1      38.851  29.819  29.483  1.00  0.00     0.029 A 
ATOM     46  C   UNL A   1      39.776  29.675  30.601  1.00  0.00     0.049 A 
ATOM     47  H   UNL A   1      39.819  30.788  32.363  1.00  0.00     0.167 HD
ATOM     48  C   UNL A   1      39.941  33.371  35.904  1.00  0.00     0.037 A 
ATOM     49  C   UNL A   1      40.777  28.775  30.671  1.00  0.00     0.037 A 
ATOM     50  C   UNL A   1      40.952  32.369  36.123  1.00  0.00     0.049 A 
ATOM     51  C   UNL A   1      41.636  28.733  31.904  1.00  0.00     0.074 A 
ATOM     52  C   UNL A   1      41.757  32.188  37.233  1.00  0.00     0.029 A 
ATOM     53  N   UNL A   1      41.302  31.382  35.211  1.00  0.00    -0.354 N 
ATOM     54  N   UNL A   1      41.586  29.500  32.968  1.00  0.00    -0.248 NA
ATOM     55  C   UNL A   1      42.677  27.699  31.954  1.00  0.00     0.031 C 
ATOM     56  C   UNL A   1      42.636  31.131  36.969  1.00  0.00     0.029 A 
ATOM     57  C   UNL A   1      42.336  30.612  35.719  1.00  0.00     0.049 A 
ATOM     58  H   UNL A   1      40.879  31.251  34.331  1.00  0.00     0.167 HD
ATOM     59  C   UNL A   1      42.579  29.030  33.822  1.00  0.00     0.074 A 
ATOM     60  C   UNL A   1      43.196  27.899  33.157  1.00  0.00     0.031 C 
ATOM     61  C   UNL A   1      42.947  29.493  35.042  1.00  0.00     0.037 A 
BRANCH  48  62
ATOM     62  C   UNL A   1      39.759  34.445  36.945  1.00  0.00     0.058 A 
ATOM     63  C   UNL A   1      38.925  34.264  38.062  1.00  0.00     0.135 A 
ATOM     64  C   UNL A   1      40.450  35.664  36.840  1.00  0.00     0.135 A 
ATOM     65  F   UNL A   1      38.229  33.126  38.209  1.00  0.00    -0.206 F 
ATOM     66  C   UNL A   1      38.755  35.264  39.014  1.00  0.00     0.059 A 
ATOM     67  C   UNL A   1      40.321  36.666  37.799  1.00  0.00     0.059 A 
ATOM     68  F   UNL A   1      41.261  35.893  35.795  1.00  0.00    -0.206 F 
ATOM     69  C   UNL A   1      39.458  36.462  38.874  1.00  0.00     0.060 A 
BRANCH  69  70
ATOM     70  S   UNL A   1      39.225  37.748  40.119  1.00  0.00     0.124 S 
ATOM     71  O   UNL A   1      38.122  38.513  39.544  1.00  0.00    -0.237 OA
ATOM     72  O   UNL A   1      38.903  36.972  41.312  1.00  0.00    -0.237 OA
ATOM     73  O   UNL A   1      40.514  38.432  40.148  1.00  0.00    -0.744 OA
ENDBRANCH  69  70
ENDBRANCH  48  62
BRANCH  49  74
ATOM     74  C   UNL A   1      41.000  27.833  29.541  1.00  0.00     0.058 A 
ATOM     75  C   UNL A   1      42.082  27.994  28.663  1.00  0.00     0.135 A 
ATOM     76  C   UNL A   1      40.157  26.727  29.340  1.00  0.00     0.135 A 
ATOM     77  F   UNL A   1      42.914  29.037  28.808  1.00  0.00    -0.206 F 
ATOM     78  C   UNL A   1      42.317  27.101  27.622  1.00  0.00     0.059 A 
ATOM     79  C   UNL A   1      40.387  25.805  28.323  1.00  0.00     0.059 A 
ATOM     80  F   UNL A   1      39.117  26.517  30.162  1.00  0.00    -0.206 F 
ATOM     81  C   UNL A   1      41.467  26.005  27.464  1.00  0.00     0.060 A 
BRANCH  81  82
ATOM     82  S   UNL A   1      41.821  24.814  26.154  1.00  0.00     0.124 S 
ATOM     83  O   UNL A   1      41.966  25.687  24.995  1.00  0.00    -0.237 OA
ATOM     84  O   UNL A   1      43.046  24.184  26.638  1.00  0.00    -0.237 OA
ATOM     85  O   UNL A   1      40.642  23.954  26.154  1.00  0.00    -0.744 OA
ENDBRANCH  81  82
ENDBRANCH  49  74
BRANCH  61  86
ATOM     86  C   UNL A   1      44.057  28.766  35.751  1.00  0.00     0.058 A 
ATOM     87  C   UNL A   1      45.404  29.115  35.566  1.00  0.00     0.135 A 
ATOM     88  C   UNL A   1      43.766  27.733  36.657  1.00  0.00     0.135 A 
ATOM     89  F   UNL A   1      45.739  30.092  34.707  1.00  0.00    -0.206 F 
ATOM     90  C   UNL A   1      46.426  28.442  36.229  1.00  0.00     0.059 A 
ATOM     91  C   UNL A   1      44.770  27.070  37.356  1.00  0.00     0.059 A 
ATOM     92  F   UNL A   1      42.494  27.368  36.881  1.00  0.00    -0.206 F 
ATOM     93  C   UNL A   1      46.098  27.422  37.123  1.00  0.00     0.060 A 
BRANCH  93  94
ATOM     94  S   UNL A   1      47.433  26.569  37.990  1.00  0.00     0.124 S 
ATOM     95  O   UNL A   1      48.516  26.651  37.015  1.00  0.00    -0.237 OA
ATOM     96  O   UNL A   1      47.596  27.386  39.189  1.00  0.00    -0.237 OA
ATOM     97  O   UNL A   1      46.892  25.233  38.218  1.00  0.00    -0.744 OA
ENDBRANCH  93  94
ENDBRANCH  61  86
ENDBRANCH  35  36
ENDBRANCH  27  30
ENDBRANCH  25  26
ENDBRANCH   1  25
TORSDOF 15
ENDMDL
