MODEL 1
REMARK VINA RESULT:     -12.9      0.000      0.000
REMARK SMILES O=C(N/N=C/c1ccccc1O)C(=O)Nc1cccc(C(=O)NCCCNC(=O)c2ccc(-c3c4nc(c(-c5c(F)cc(S(=O)(=O)[O-])cc5F)c5ccc([nH]5)c(-c5c(F)cc(S(=O)(=O)[O-])cc5F)c5nc(c(-c6c(F)cc(S(=O)(=O)[O-])cc6F)c6ccc3[nH]6)C=C5)C=C4)cc2)c1
REMARK SMILES IDX 24 1 23 2 21 3 22 4 20 6 16 7 17 8 96 9 18 10 19 11 15 12
REMARK SMILES IDX 13 13 14 14 2 16 1 17 3 18 4 20 5 21 6 22 7 23 11 24 8 25
REMARK SMILES IDX 10 26 9 27 12 28 25 30 26 31 27 32 28 33 29 35 30 36 31 37
REMARK SMILES IDX 95 38 32 39 94 40 33 41 34 42 35 43 88 44 36 45 93 46 87 47
REMARK SMILES IDX 89 48 37 49 92 50 86 51 85 52 38 54 72 55 51 56 71 57 52 58
REMARK SMILES IDX 55 59 70 60 90 61 53 62 54 63 69 65 91 66 56 67 39 68 40 69
REMARK SMILES IDX 49 70 41 71 42 72 48 73 50 74 43 75 44 76 45 77 46 78 47 79
REMARK SMILES IDX 73 80 74 81 83 82 75 83 76 84 82 85 84 86 77 87 78 88 79 89
REMARK SMILES IDX 80 90 81 91 57 92 58 93 67 94 59 95 60 96 66 97 68 98 61 99
REMARK SMILES IDX 62 100 63 101 64 102 65 103
REMARK H PARENT 23 5 15 15 3 19 12 29 27 34 89 53 55 64
REMARK Flexibility Score: inf
ROOT
ATOM      1  C   UNL A   1      34.322  30.669  27.477  1.00  0.00     0.118 C 
ENDROOT
BRANCH   1   2
ATOM      2  N   UNL A   1      33.025  30.058  27.704  1.00  0.00    -0.352 N 
ATOM      3  C   UNL A   1      32.435  28.973  27.115  1.00  0.00     0.251 C 
ATOM      4  O   UNL A   1      31.409  28.495  27.606  1.00  0.00    -0.269 OA
ATOM      5  H   UNL A   1      32.479  30.498  28.396  1.00  0.00     0.163 HD
BRANCH   3   6
ATOM      6  C   UNL A   1      32.959  28.312  25.893  1.00  0.00     0.041 A 
ATOM      7  C   UNL A   1      33.773  25.780  24.205  1.00  0.00     0.042 A 
ATOM      8  C   UNL A   1      33.591  26.731  22.645  1.00  0.00     0.026 A 
ATOM      9  C   UNL A   1      33.563  26.586  25.820  1.00  0.00     0.040 A 
ATOM     10  C   UNL A   1      33.182  28.512  22.737  1.00  0.00     0.003 A 
ATOM     11  C   UNL A   1      32.813  29.274  24.343  1.00  0.00     0.014 A 
BRANCH   7  12
ATOM     12  N   UNL A   1      33.438  24.433  24.111  1.00  0.00    -0.318 N 
ATOM     13  C   UNL A   1      32.264  23.822  24.534  1.00  0.00     0.315 C 
ATOM     14  O   UNL A   1      32.158  22.614  24.303  1.00  0.00    -0.263 OA
ATOM     15  H   UNL A   1      34.110  23.844  23.696  1.00  0.00     0.170 HD
BRANCH  13  16
ATOM     16  C   UNL A   1      31.026  24.526  25.165  1.00  0.00     0.329 C 
ATOM     17  O   UNL A   1      30.953  24.597  26.393  1.00  0.00    -0.262 OA
ATOM     18  N   UNL A   1      29.923  24.941  24.411  1.00  0.00    -0.239 N 
ATOM     19  H   UNL A   1      29.034  24.535  24.533  1.00  0.00     0.194 HD
BRANCH  18  20
ATOM     20  N   UNL A   1      30.135  25.935  23.498  1.00  0.00    -0.180 NA
ATOM     21  C   UNL A   1      29.920  27.212  23.952  1.00  0.00     0.145 C 
BRANCH  21  22
ATOM     22  C   UNL A   1      29.127  29.035  23.186  1.00  0.00     0.036 A 
ATOM     23  C   UNL A   1      27.766  29.664  23.497  1.00  0.00     0.013 A 
ATOM     24  C   UNL A   1      29.667  30.150  22.284  1.00  0.00     0.124 A 
ATOM     25  C   UNL A   1      27.276  30.992  23.327  1.00  0.00     0.001 A 
ATOM     26  C   UNL A   1      29.203  31.502  22.137  1.00  0.00     0.047 A 
ATOM     27  C   UNL A   1      28.041  31.942  22.713  1.00  0.00     0.004 A 
BRANCH  24  28
ATOM     28  O   UNL A   1      30.594  30.007  21.252  1.00  0.00    -0.507 OA
ATOM     29  H   UNL A   1      30.322  29.668  20.422  1.00  0.00     0.293 HD
ENDBRANCH  24  28
ENDBRANCH  21  22
ENDBRANCH  18  20
ENDBRANCH  13  16
ENDBRANCH   7  12
ENDBRANCH   3   6
ENDBRANCH   1   2
BRANCH   1  30
ATOM     30  C   UNL A   1      34.243  32.183  27.362  1.00  0.00     0.042 C 
BRANCH  30  31
ATOM     31  C   UNL A   1      32.859  32.727  27.665  1.00  0.00     0.118 C 
BRANCH  31  32
ATOM     32  N   UNL A   1      32.893  34.140  28.016  1.00  0.00    -0.352 N 
ATOM     33  C   UNL A   1      33.658  34.803  28.940  1.00  0.00     0.251 C 
ATOM     34  H   UNL A   1      32.269  34.709  27.509  1.00  0.00     0.163 HD
ATOM     35  O   UNL A   1      33.390  35.968  29.218  1.00  0.00    -0.269 OA
BRANCH  33  36
ATOM     36  C   UNL A   1      34.793  34.125  29.603  1.00  0.00     0.039 A 
ATOM     37  C   UNL A   1      34.529  33.257  30.665  1.00  0.00     0.014 A 
ATOM     38  C   UNL A   1      36.113  34.378  29.220  1.00  0.00     0.014 A 
ATOM     39  C   UNL A   1      35.586  32.629  31.325  1.00  0.00     0.010 A 
ATOM     40  C   UNL A   1      37.158  33.680  29.814  1.00  0.00     0.010 A 
ATOM     41  C   UNL A   1      36.908  32.825  30.895  1.00  0.00    -0.014 A 
BRANCH  41  42
ATOM     42  C   UNL A   1      38.043  32.200  31.614  1.00  0.00     0.031 A 
ATOM     43  C   UNL A   1      38.448  32.721  32.968  1.00  0.00     0.074 A 
ATOM     44  C   UNL A   1      38.723  31.190  31.038  1.00  0.00     0.049 A 
ATOM     45  N   UNL A   1      39.428  32.335  33.743  1.00  0.00    -0.248 NA
ATOM     46  C   UNL A   1      37.666  33.846  33.511  1.00  0.00     0.031 C 
ATOM     47  C   UNL A   1      38.461  30.645  29.703  1.00  0.00     0.029 A 
ATOM     48  N   UNL A   1      39.775  30.442  31.499  1.00  0.00    -0.354 N 
ATOM     49  C   UNL A   1      39.383  33.171  34.854  1.00  0.00     0.074 A 
ATOM     50  C   UNL A   1      38.328  34.130  34.622  1.00  0.00     0.031 C 
ATOM     51  C   UNL A   1      39.315  29.637  29.464  1.00  0.00     0.029 A 
ATOM     52  C   UNL A   1      40.197  29.478  30.616  1.00  0.00     0.049 A 
ATOM     53  H   UNL A   1      40.190  30.584  32.381  1.00  0.00     0.167 HD
ATOM     54  C   UNL A   1      40.129  33.120  35.983  1.00  0.00     0.037 A 
ATOM     55  C   UNL A   1      41.183  28.569  30.727  1.00  0.00     0.037 A 
ATOM     56  C   UNL A   1      41.157  32.141  36.220  1.00  0.00     0.049 A 
ATOM     57  C   UNL A   1      41.974  28.508  32.005  1.00  0.00     0.074 A 
ATOM     58  C   UNL A   1      41.950  31.977  37.341  1.00  0.00     0.029 A 
ATOM     59  N   UNL A   1      41.522  31.151  35.320  1.00  0.00    -0.354 N 
ATOM     60  N   UNL A   1      41.886  29.275  33.066  1.00  0.00    -0.248 NA
ATOM     61  C   UNL A   1      42.987  27.450  32.110  1.00  0.00     0.031 C 
ATOM     62  C   UNL A   1      42.814  30.900  37.109  1.00  0.00     0.029 A 
ATOM     63  C   UNL A   1      42.532  30.371  35.859  1.00  0.00     0.049 A 
ATOM     64  H   UNL A   1      41.123  31.021  34.429  1.00  0.00     0.167 HD
ATOM     65  C   UNL A   1      42.817  28.781  33.972  1.00  0.00     0.074 A 
ATOM     66  C   UNL A   1      43.442  27.636  33.341  1.00  0.00     0.031 C 
ATOM     67  C   UNL A   1      43.135  29.235  35.210  1.00  0.00     0.037 A 
BRANCH  54  68
ATOM     68  C   UNL A   1      39.837  34.136  37.053  1.00  0.00     0.058 A 
ATOM     69  C   UNL A   1      38.962  33.850  38.114  1.00  0.00     0.135 A 
ATOM     70  C   UNL A   1      40.448  35.401  37.034  1.00  0.00     0.135 A 
ATOM     71  F   UNL A   1      38.335  32.665  38.172  1.00  0.00    -0.206 F 
ATOM     72  C   UNL A   1      38.680  34.789  39.101  1.00  0.00     0.059 A 
ATOM     73  C   UNL A   1      40.201  36.346  38.027  1.00  0.00     0.059 A 
ATOM     74  F   UNL A   1      41.291  35.729  36.043  1.00  0.00    -0.206 F 
ATOM     75  C   UNL A   1      39.304  36.035  39.048  1.00  0.00     0.060 A 
BRANCH  75  76
ATOM     76  S   UNL A   1      38.934  37.240  40.340  1.00  0.00     0.124 S 
ATOM     77  O   UNL A   1      38.184  38.246  39.594  1.00  0.00    -0.237 OA
ATOM     78  O   UNL A   1      38.158  36.450  41.292  1.00  0.00    -0.237 OA
ATOM     79  O   UNL A   1      40.253  37.657  40.806  1.00  0.00    -0.744 OA
ENDBRANCH  75  76
ENDBRANCH  54  68
BRANCH  55  80
ATOM     80  C   UNL A   1      41.456  27.626  29.610  1.00  0.00     0.058 A 
ATOM     81  C   UNL A   1      40.552  26.606  29.283  1.00  0.00     0.135 A 
ATOM     82  C   UNL A   1      42.627  27.732  28.842  1.00  0.00     0.135 A 
ATOM     83  F   UNL A   1      39.419  26.463  29.988  1.00  0.00    -0.206 F 
ATOM     84  C   UNL A   1      40.807  25.705  28.254  1.00  0.00     0.059 A 
ATOM     85  C   UNL A   1      42.894  26.860  27.792  1.00  0.00     0.059 A 
ATOM     86  F   UNL A   1      43.514  28.706  29.099  1.00  0.00    -0.206 F 
ATOM     87  C   UNL A   1      41.984  25.840  27.514  1.00  0.00     0.060 A 
BRANCH  87  88
ATOM     88  S   UNL A   1      42.298  24.686  26.160  1.00  0.00     0.124 S 
ATOM     89  O   UNL A   1      41.359  23.614  26.467  1.00  0.00    -0.237 OA
ATOM     90  O   UNL A   1      41.983  25.494  24.987  1.00  0.00    -0.237 OA
ATOM     91  O   UNL A   1      43.710  24.355  26.324  1.00  0.00    -0.744 OA
ENDBRANCH  87  88
ENDBRANCH  55  80
BRANCH  67  92
ATOM     92  C   UNL A   1      44.187  28.474  35.966  1.00  0.00     0.058 A 
ATOM     93  C   UNL A   1      43.853  27.411  36.819  1.00  0.00     0.135 A 
ATOM     94  C   UNL A   1      45.546  28.795  35.813  1.00  0.00     0.135 A 
ATOM     95  F   UNL A   1      42.569  27.068  37.001  1.00  0.00    -0.206 F 
ATOM     96  C   UNL A   1      44.829  26.714  37.523  1.00  0.00     0.059 A 
ATOM     97  C   UNL A   1      46.539  28.094  36.486  1.00  0.00     0.059 A 
ATOM     98  F   UNL A   1      45.916  29.795  34.998  1.00  0.00    -0.206 F 
ATOM     99  C   UNL A   1      46.170  27.066  37.353  1.00  0.00     0.060 A 
BRANCH  99 100
ATOM    100  S   UNL A   1      47.429  26.147  38.263  1.00  0.00     0.124 S 
ATOM    101  O   UNL A   1      47.841  25.158  37.274  1.00  0.00    -0.237 OA
ATOM    102  O   UNL A   1      48.412  27.182  38.572  1.00  0.00    -0.237 OA
ATOM    103  O   UNL A   1      46.699  25.621  39.413  1.00  0.00    -0.744 OA
ENDBRANCH  99 100
ENDBRANCH  67  92
ENDBRANCH  41  42
ENDBRANCH  33  36
ENDBRANCH  31  32
ENDBRANCH  30  31
ENDBRANCH   1  30
TORSDOF 18
ENDMDL
MODEL 2
REMARK VINA RESULT:     -12.8      6.060      8.854
REMARK SMILES O=C(N/N=C/c1ccccc1O)C(=O)Nc1cccc(C(=O)NCCCNC(=O)c2ccc(-c3c4nc(c(-c5c(F)cc(S(=O)(=O)[O-])cc5F)c5ccc([nH]5)c(-c5c(F)cc(S(=O)(=O)[O-])cc5F)c5nc(c(-c6c(F)cc(S(=O)(=O)[O-])cc6F)c6ccc3[nH]6)C=C5)C=C4)cc2)c1
REMARK SMILES IDX 24 1 23 2 21 3 22 4 20 6 16 7 17 8 96 9 18 10 19 11 15 12
REMARK SMILES IDX 13 13 14 14 2 16 1 17 3 18 4 20 5 21 6 22 7 23 11 24 8 25
REMARK SMILES IDX 10 26 9 27 12 28 25 30 26 31 27 32 28 33 29 35 30 36 31 37
REMARK SMILES IDX 95 38 32 39 94 40 33 41 34 42 35 43 88 44 36 45 93 46 87 47
REMARK SMILES IDX 89 48 37 49 92 50 86 51 85 52 38 54 72 55 51 56 71 57 52 58
REMARK SMILES IDX 55 59 70 60 90 61 53 62 54 63 69 65 91 66 56 67 39 68 40 69
REMARK SMILES IDX 49 70 41 71 42 72 48 73 50 74 43 75 44 76 45 77 46 78 47 79
REMARK SMILES IDX 73 80 74 81 83 82 75 83 76 84 82 85 84 86 77 87 78 88 79 89
REMARK SMILES IDX 80 90 81 91 57 92 58 93 67 94 59 95 60 96 66 97 68 98 61 99
REMARK SMILES IDX 62 100 63 101 64 102 65 103
REMARK H PARENT 23 5 15 15 3 19 12 29 27 34 89 53 55 64
REMARK Flexibility Score: inf
ROOT
ATOM      1  C   UNL A   1      33.942  30.386  27.137  1.00  0.00     0.118 C 
ENDROOT
BRANCH   1   2
ATOM      2  N   UNL A   1      32.926  29.505  27.683  1.00  0.00    -0.352 N 
ATOM      3  C   UNL A   1      32.206  28.500  27.096  1.00  0.00     0.251 C 
ATOM      4  O   UNL A   1      31.542  27.734  27.798  1.00  0.00    -0.269 OA
ATOM      5  H   UNL A   1      32.719  29.656  28.634  1.00  0.00     0.163 HD
BRANCH   3   6
ATOM      6  C   UNL A   1      32.171  28.260  25.631  1.00  0.00     0.041 A 
ATOM      7  C   UNL A   1      32.691  26.512  23.063  1.00  0.00     0.042 A 
ATOM      8  C   UNL A   1      31.422  27.457  22.132  1.00  0.00     0.026 A 
ATOM      9  C   UNL A   1      33.140  26.973  24.762  1.00  0.00     0.040 A 
ATOM     10  C   UNL A   1      30.600  28.874  22.946  1.00  0.00     0.003 A 
ATOM     11  C   UNL A   1      30.932  29.229  24.696  1.00  0.00     0.014 A 
BRANCH   7  12
ATOM     12  N   UNL A   1      32.793  25.169  22.713  1.00  0.00    -0.318 N 
ATOM     13  C   UNL A   1      32.123  24.094  23.285  1.00  0.00     0.315 C 
ATOM     14  O   UNL A   1      32.328  22.986  22.780  1.00  0.00    -0.263 OA
ATOM     15  H   UNL A   1      33.409  24.955  21.976  1.00  0.00     0.170 HD
BRANCH  13  16
ATOM     16  C   UNL A   1      31.057  24.160  24.419  1.00  0.00     0.329 C 
ATOM     17  O   UNL A   1      30.175  25.017  24.348  1.00  0.00    -0.262 OA
ATOM     18  N   UNL A   1      31.145  23.395  25.588  1.00  0.00    -0.239 N 
ATOM     19  H   UNL A   1      31.271  23.816  26.470  1.00  0.00     0.194 HD
BRANCH  18  20
ATOM     20  N   UNL A   1      31.047  22.039  25.450  1.00  0.00    -0.180 NA
ATOM     21  C   UNL A   1      32.239  21.364  25.384  1.00  0.00     0.145 C 
BRANCH  21  22
ATOM     22  C   UNL A   1      33.032  19.684  24.340  1.00  0.00     0.036 A 
ATOM     23  C   UNL A   1      34.279  18.868  24.695  1.00  0.00     0.013 A 
ATOM     24  C   UNL A   1      32.582  18.857  23.131  1.00  0.00     0.124 A 
ATOM     25  C   UNL A   1      34.704  17.568  24.292  1.00  0.00     0.001 A 
ATOM     26  C   UNL A   1      32.977  17.531  22.742  1.00  0.00     0.047 A 
ATOM     27  C   UNL A   1      33.995  16.859  23.366  1.00  0.00     0.004 A 
BRANCH  24  28
ATOM     28  O   UNL A   1      31.854  19.317  22.034  1.00  0.00    -0.507 OA
ATOM     29  H   UNL A   1      32.256  19.360  21.189  1.00  0.00     0.293 HD
ENDBRANCH  24  28
ENDBRANCH  21  22
ENDBRANCH  18  20
ENDBRANCH  13  16
ENDBRANCH   7  12
ENDBRANCH   3   6
ENDBRANCH   1   2
BRANCH   1  30
ATOM     30  C   UNL A   1      34.305  31.519  28.084  1.00  0.00     0.042 C 
BRANCH  30  31
ATOM     31  C   UNL A   1      35.691  31.367  28.682  1.00  0.00     0.118 C 
BRANCH  31  32
ATOM     32  N   UNL A   1      35.641  31.040  30.100  1.00  0.00    -0.352 N 
ATOM     33  C   UNL A   1      36.502  30.298  30.866  1.00  0.00     0.251 C 
ATOM     34  H   UNL A   1      34.868  31.409  30.585  1.00  0.00     0.163 HD
ATOM     35  O   UNL A   1      36.170  29.978  32.004  1.00  0.00    -0.269 OA
BRANCH  33  36
ATOM     36  C   UNL A   1      37.817  29.882  30.332  1.00  0.00     0.039 A 
ATOM     37  C   UNL A   1      38.796  29.443  31.228  1.00  0.00     0.014 A 
ATOM     38  C   UNL A   1      38.108  29.971  28.968  1.00  0.00     0.014 A 
ATOM     39  C   UNL A   1      40.054  29.073  30.751  1.00  0.00     0.010 A 
ATOM     40  C   UNL A   1      39.327  29.512  28.484  1.00  0.00     0.010 A 
ATOM     41  C   UNL A   1      40.325  29.092  29.373  1.00  0.00    -0.014 A 
BRANCH  41  42
ATOM     42  C   UNL A   1      41.670  28.745  28.856  1.00  0.00     0.031 A 
ATOM     43  C   UNL A   1      42.730  29.810  28.759  1.00  0.00     0.074 A 
ATOM     44  C   UNL A   1      41.924  27.485  28.451  1.00  0.00     0.049 A 
ATOM     45  N   UNL A   1      43.954  29.719  28.306  1.00  0.00    -0.248 NA
ATOM     46  C   UNL A   1      42.356  31.166  29.198  1.00  0.00     0.031 C 
ATOM     47  C   UNL A   1      40.955  26.387  28.440  1.00  0.00     0.029 A 
ATOM     48  N   UNL A   1      43.074  26.918  27.967  1.00  0.00    -0.354 N 
ATOM     49  C   UNL A   1      44.489  30.999  28.401  1.00  0.00     0.074 A 
ATOM     50  C   UNL A   1      43.437  31.864  28.885  1.00  0.00     0.031 C 
ATOM     51  C   UNL A   1      41.558  25.273  27.994  1.00  0.00     0.029 A 
ATOM     52  C   UNL A   1      42.946  25.583  27.667  1.00  0.00     0.049 A 
ATOM     53  H   UNL A   1      43.912  27.420  27.844  1.00  0.00     0.167 HD
ATOM     54  C   UNL A   1      45.753  31.411  28.145  1.00  0.00     0.037 A 
ATOM     55  C   UNL A   1      43.850  24.710  27.185  1.00  0.00     0.037 A 
ATOM     56  C   UNL A   1      46.803  30.537  27.694  1.00  0.00     0.049 A 
ATOM     57  C   UNL A   1      45.257  25.182  26.942  1.00  0.00     0.074 A 
ATOM     58  C   UNL A   1      48.128  30.841  27.436  1.00  0.00     0.029 A 
ATOM     59  N   UNL A   1      46.646  29.181  27.447  1.00  0.00    -0.354 N 
ATOM     60  N   UNL A   1      45.759  26.386  27.084  1.00  0.00    -0.248 NA
ATOM     61  C   UNL A   1      46.227  24.175  26.489  1.00  0.00     0.031 C 
ATOM     62  C   UNL A   1      48.767  29.671  27.008  1.00  0.00     0.029 A 
ATOM     63  C   UNL A   1      47.849  28.632  27.037  1.00  0.00     0.049 A 
ATOM     64  H   UNL A   1      45.803  28.681  27.548  1.00  0.00     0.167 HD
ATOM     65  C   UNL A   1      47.106  26.279  26.757  1.00  0.00     0.074 A 
ATOM     66  C   UNL A   1      47.344  24.887  26.432  1.00  0.00     0.031 C 
ATOM     67  C   UNL A   1      48.060  27.242  26.721  1.00  0.00     0.037 A 
BRANCH  54  68
ATOM     68  C   UNL A   1      46.069  32.864  28.375  1.00  0.00     0.058 A 
ATOM     69  C   UNL A   1      46.515  33.326  29.623  1.00  0.00     0.135 A 
ATOM     70  C   UNL A   1      45.946  33.802  27.336  1.00  0.00     0.135 A 
ATOM     71  F   UNL A   1      46.632  32.477  30.656  1.00  0.00    -0.206 F 
ATOM     72  C   UNL A   1      46.799  34.670  29.845  1.00  0.00     0.059 A 
ATOM     73  C   UNL A   1      46.251  35.147  27.529  1.00  0.00     0.059 A 
ATOM     74  F   UNL A   1      45.521  33.417  26.123  1.00  0.00    -0.206 F 
ATOM     75  C   UNL A   1      46.663  35.574  28.791  1.00  0.00     0.060 A 
BRANCH  75  76
ATOM     76  S   UNL A   1      47.044  37.312  29.093  1.00  0.00     0.124 S 
ATOM     77  O   UNL A   1      45.708  37.902  29.119  1.00  0.00    -0.237 OA
ATOM     78  O   UNL A   1      47.739  37.263  30.374  1.00  0.00    -0.237 OA
ATOM     79  O   UNL A   1      47.871  37.683  27.948  1.00  0.00    -0.744 OA
ENDBRANCH  75  76
ENDBRANCH  54  68
BRANCH  55  80
ATOM     80  C   UNL A   1      43.459  23.298  26.928  1.00  0.00     0.058 A 
ATOM     81  C   UNL A   1      43.236  22.403  27.985  1.00  0.00     0.135 A 
ATOM     82  C   UNL A   1      43.294  22.818  25.620  1.00  0.00     0.135 A 
ATOM     83  F   UNL A   1      43.382  22.815  29.253  1.00  0.00    -0.206 F 
ATOM     84  C   UNL A   1      42.890  21.075  27.756  1.00  0.00     0.059 A 
ATOM     85  C   UNL A   1      42.925  21.501  25.365  1.00  0.00     0.059 A 
ATOM     86  F   UNL A   1      43.473  23.639  24.574  1.00  0.00    -0.206 F 
ATOM     87  C   UNL A   1      42.739  20.633  26.441  1.00  0.00     0.060 A 
BRANCH  87  88
ATOM     88  S   UNL A   1      42.263  18.914  26.150  1.00  0.00     0.124 S 
ATOM     89  O   UNL A   1      42.445  18.333  27.474  1.00  0.00    -0.237 OA
ATOM     90  O   UNL A   1      40.882  19.049  25.696  1.00  0.00    -0.237 OA
ATOM     91  O   UNL A   1      43.209  18.473  25.130  1.00  0.00    -0.744 OA
ENDBRANCH  87  88
ENDBRANCH  55  80
BRANCH  67  92
ATOM     92  C   UNL A   1      49.447  26.814  26.339  1.00  0.00     0.058 A 
ATOM     93  C   UNL A   1      49.915  26.933  25.021  1.00  0.00     0.135 A 
ATOM     94  C   UNL A   1      50.328  26.304  27.307  1.00  0.00     0.135 A 
ATOM     95  F   UNL A   1      49.110  27.410  24.059  1.00  0.00    -0.206 F 
ATOM     96  C   UNL A   1      51.198  26.528  24.668  1.00  0.00     0.059 A 
ATOM     97  C   UNL A   1      51.623  25.919  26.981  1.00  0.00     0.059 A 
ATOM     98  F   UNL A   1      49.933  26.184  28.584  1.00  0.00    -0.206 F 
ATOM     99  C   UNL A   1      52.043  26.018  25.655  1.00  0.00     0.060 A 
BRANCH  99 100
ATOM    100  S   UNL A   1      53.710  25.505  25.188  1.00  0.00     0.124 S 
ATOM    101  O   UNL A   1      53.623  25.520  23.733  1.00  0.00    -0.237 OA
ATOM    102  O   UNL A   1      54.539  26.550  25.784  1.00  0.00    -0.237 OA
ATOM    103  O   UNL A   1      53.842  24.186  25.798  1.00  0.00    -0.744 OA
ENDBRANCH  99 100
ENDBRANCH  67  92
ENDBRANCH  41  42
ENDBRANCH  33  36
ENDBRANCH  31  32
ENDBRANCH  30  31
ENDBRANCH   1  30
TORSDOF 18
ENDMDL
MODEL 3
REMARK VINA RESULT:     -12.4      0.771      8.156
REMARK SMILES O=C(N/N=C/c1ccccc1O)C(=O)Nc1cccc(C(=O)NCCCNC(=O)c2ccc(-c3c4nc(c(-c5c(F)cc(S(=O)(=O)[O-])cc5F)c5ccc([nH]5)c(-c5c(F)cc(S(=O)(=O)[O-])cc5F)c5nc(c(-c6c(F)cc(S(=O)(=O)[O-])cc6F)c6ccc3[nH]6)C=C5)C=C4)cc2)c1
REMARK SMILES IDX 24 1 23 2 21 3 22 4 20 6 16 7 17 8 96 9 18 10 19 11 15 12
REMARK SMILES IDX 13 13 14 14 2 16 1 17 3 18 4 20 5 21 6 22 7 23 11 24 8 25
REMARK SMILES IDX 10 26 9 27 12 28 25 30 26 31 27 32 28 33 29 35 30 36 31 37
REMARK SMILES IDX 95 38 32 39 94 40 33 41 34 42 35 43 88 44 36 45 93 46 87 47
REMARK SMILES IDX 89 48 37 49 92 50 86 51 85 52 38 54 72 55 51 56 71 57 52 58
REMARK SMILES IDX 55 59 70 60 90 61 53 62 54 63 69 65 91 66 56 67 39 68 40 69
REMARK SMILES IDX 49 70 41 71 42 72 48 73 50 74 43 75 44 76 45 77 46 78 47 79
REMARK SMILES IDX 73 80 74 81 83 82 75 83 76 84 82 85 84 86 77 87 78 88 79 89
REMARK SMILES IDX 80 90 81 91 57 92 58 93 67 94 59 95 60 96 66 97 68 98 61 99
REMARK SMILES IDX 62 100 63 101 64 102 65 103
REMARK H PARENT 23 5 15 15 3 19 12 29 27 34 89 53 55 64
REMARK Flexibility Score: inf
ROOT
ATOM      1  C   UNL A   1      34.536  30.554  27.398  1.00  0.00     0.118 C 
ENDROOT
BRANCH   1   2
ATOM      2  N   UNL A   1      33.315  29.859  27.760  1.00  0.00    -0.352 N 
ATOM      3  C   UNL A   1      32.737  28.737  27.231  1.00  0.00     0.251 C 
ATOM      4  O   UNL A   1      31.805  28.192  27.828  1.00  0.00    -0.269 OA
ATOM      5  H   UNL A   1      32.819  30.262  28.509  1.00  0.00     0.163 HD
BRANCH   3   6
ATOM      6  C   UNL A   1      33.169  28.110  25.956  1.00  0.00     0.041 A 
ATOM      7  C   UNL A   1      33.678  25.631  24.082  1.00  0.00     0.042 A 
ATOM      8  C   UNL A   1      33.578  26.703  22.595  1.00  0.00     0.026 A 
ATOM      9  C   UNL A   1      33.581  26.338  25.753  1.00  0.00     0.040 A 
ATOM     10  C   UNL A   1      33.367  28.506  22.817  1.00  0.00     0.003 A 
ATOM     11  C   UNL A   1      33.106  29.188  24.479  1.00  0.00     0.014 A 
BRANCH   7  12
ATOM     12  N   UNL A   1      33.198  24.336  23.904  1.00  0.00    -0.318 N 
ATOM     13  C   UNL A   1      31.951  23.841  24.263  1.00  0.00     0.315 C 
ATOM     14  O   UNL A   1      31.717  22.667  23.962  1.00  0.00    -0.263 OA
ATOM     15  H   UNL A   1      33.812  23.699  23.473  1.00  0.00     0.170 HD
BRANCH  13  16
ATOM     16  C   UNL A   1      30.781  24.646  24.903  1.00  0.00     0.329 C 
ATOM     17  O   UNL A   1      30.605  24.561  26.120  1.00  0.00    -0.262 OA
ATOM     18  N   UNL A   1      29.828  25.335  24.143  1.00  0.00    -0.239 N 
ATOM     19  H   UNL A   1      28.880  25.067  24.140  1.00  0.00     0.194 HD
BRANCH  18  20
ATOM     20  N   UNL A   1      30.273  26.395  23.405  1.00  0.00    -0.180 NA
ATOM     21  C   UNL A   1      29.951  27.634  23.896  1.00  0.00     0.145 C 
BRANCH  21  22
ATOM     22  C   UNL A   1      29.389  29.534  23.111  1.00  0.00     0.036 A 
ATOM     23  C   UNL A   1      28.828  29.840  21.720  1.00  0.00     0.013 A 
ATOM     24  C   UNL A   1      29.310  30.954  23.681  1.00  0.00     0.124 A 
ATOM     25  C   UNL A   1      28.120  30.969  21.212  1.00  0.00     0.001 A 
ATOM     26  C   UNL A   1      28.568  32.086  23.197  1.00  0.00     0.047 A 
ATOM     27  C   UNL A   1      27.917  32.071  21.992  1.00  0.00     0.004 A 
BRANCH  24  28
ATOM     28  O   UNL A   1      30.126  31.498  24.673  1.00  0.00    -0.507 OA
ATOM     29  H   UNL A   1      30.744  30.955  25.121  1.00  0.00     0.293 HD
ENDBRANCH  24  28
ENDBRANCH  21  22
ENDBRANCH  18  20
ENDBRANCH  13  16
ENDBRANCH   7  12
ENDBRANCH   3   6
ENDBRANCH   1   2
BRANCH   1  30
ATOM     30  C   UNL A   1      34.443  32.055  27.621  1.00  0.00     0.042 C 
BRANCH  30  31
ATOM     31  C   UNL A   1      33.015  32.569  27.590  1.00  0.00     0.118 C 
BRANCH  31  32
ATOM     32  N   UNL A   1      32.945  34.002  27.841  1.00  0.00    -0.352 N 
ATOM     33  C   UNL A   1      33.579  34.764  28.789  1.00  0.00     0.251 C 
ATOM     34  H   UNL A   1      32.351  34.502  27.237  1.00  0.00     0.163 HD
ATOM     35  O   UNL A   1      33.228  35.928  28.955  1.00  0.00    -0.269 OA
BRANCH  33  36
ATOM     36  C   UNL A   1      34.671  34.194  29.607  1.00  0.00     0.039 A 
ATOM     37  C   UNL A   1      35.984  34.307  29.144  1.00  0.00     0.014 A 
ATOM     38  C   UNL A   1      34.406  33.508  30.795  1.00  0.00     0.014 A 
ATOM     39  C   UNL A   1      37.029  33.752  29.884  1.00  0.00     0.010 A 
ATOM     40  C   UNL A   1      35.454  33.039  31.578  1.00  0.00     0.010 A 
ATOM     41  C   UNL A   1      36.772  33.125  31.113  1.00  0.00    -0.014 A 
BRANCH  41  42
ATOM     42  C   UNL A   1      37.866  32.492  31.889  1.00  0.00     0.031 A 
ATOM     43  C   UNL A   1      38.612  31.320  31.307  1.00  0.00     0.074 A 
ATOM     44  C   UNL A   1      38.165  32.951  33.119  1.00  0.00     0.049 A 
ATOM     45  N   UNL A   1      39.574  30.608  31.834  1.00  0.00    -0.248 NA
ATOM     46  C   UNL A   1      38.200  30.866  29.966  1.00  0.00     0.031 C 
ATOM     47  C   UNL A   1      37.468  34.040  33.810  1.00  0.00     0.029 A 
ATOM     48  N   UNL A   1      39.131  32.560  34.009  1.00  0.00    -0.354 N 
ATOM     49  C   UNL A   1      39.876  29.625  30.897  1.00  0.00     0.074 A 
ATOM     50  C   UNL A   1      38.947  29.785  29.801  1.00  0.00     0.031 C 
ATOM     51  C   UNL A   1      38.044  34.242  35.005  1.00  0.00     0.029 A 
ATOM     52  C   UNL A   1      39.133  33.286  35.175  1.00  0.00     0.049 A 
ATOM     53  H   UNL A   1      39.762  31.826  33.830  1.00  0.00     0.167 HD
ATOM     54  C   UNL A   1      40.861  28.698  30.929  1.00  0.00     0.037 A 
ATOM     55  C   UNL A   1      39.929  33.191  36.257  1.00  0.00     0.037 A 
ATOM     56  C   UNL A   1      41.801  28.566  32.009  1.00  0.00     0.049 A 
ATOM     57  C   UNL A   1      41.039  32.176  36.254  1.00  0.00     0.074 A 
ATOM     58  C   UNL A   1      42.860  27.684  32.130  1.00  0.00     0.029 A 
ATOM     59  N   UNL A   1      41.801  29.352  33.152  1.00  0.00    -0.354 N 
ATOM     60  N   UNL A   1      41.341  31.287  35.338  1.00  0.00    -0.248 NA
ATOM     61  C   UNL A   1      41.929  32.161  37.423  1.00  0.00     0.031 C 
ATOM     62  C   UNL A   1      43.486  27.921  33.360  1.00  0.00     0.029 A 
ATOM     63  C   UNL A   1      42.840  28.975  33.986  1.00  0.00     0.049 A 
ATOM     64  H   UNL A   1      41.157  30.072  33.343  1.00  0.00     0.167 HD
ATOM     65  C   UNL A   1      42.465  30.619  35.810  1.00  0.00     0.074 A 
ATOM     66  C   UNL A   1      42.802  31.224  37.083  1.00  0.00     0.031 C 
ATOM     67  C   UNL A   1      43.155  29.595  35.248  1.00  0.00     0.037 A 
BRANCH  54  68
ATOM     68  C   UNL A   1      40.983  27.775  29.746  1.00  0.00     0.058 A 
ATOM     69  C   UNL A   1      42.048  27.888  28.838  1.00  0.00     0.135 A 
ATOM     70  C   UNL A   1      40.042  26.756  29.526  1.00  0.00     0.135 A 
ATOM     71  F   UNL A   1      42.965  28.856  28.989  1.00  0.00    -0.206 F 
ATOM     72  C   UNL A   1      42.161  27.044  27.737  1.00  0.00     0.059 A 
ATOM     73  C   UNL A   1      40.151  25.883  28.446  1.00  0.00     0.059 A 
ATOM     74  F   UNL A   1      39.002  26.604  30.361  1.00  0.00    -0.206 F 
ATOM     75  C   UNL A   1      41.206  26.045  27.549  1.00  0.00     0.060 A 
BRANCH  75  76
ATOM     76  S   UNL A   1      41.371  24.954  26.121  1.00  0.00     0.124 S 
ATOM     77  O   UNL A   1      41.340  25.910  25.018  1.00  0.00    -0.237 OA
ATOM     78  O   UNL A   1      42.658  24.311  26.365  1.00  0.00    -0.237 OA
ATOM     79  O   UNL A   1      40.208  24.078  26.225  1.00  0.00    -0.744 OA
ENDBRANCH  75  76
ENDBRANCH  54  68
BRANCH  55  80
ATOM     80  C   UNL A   1      39.721  34.098  37.417  1.00  0.00     0.058 A 
ATOM     81  C   UNL A   1      38.933  33.711  38.510  1.00  0.00     0.135 A 
ATOM     82  C   UNL A   1      40.313  35.371  37.456  1.00  0.00     0.135 A 
ATOM     83  F   UNL A   1      38.346  32.505  38.519  1.00  0.00    -0.206 F 
ATOM     84  C   UNL A   1      38.715  34.560  39.590  1.00  0.00     0.059 A 
ATOM     85  C   UNL A   1      40.130  36.229  38.536  1.00  0.00     0.059 A 
ATOM     86  F   UNL A   1      41.094  35.781  36.445  1.00  0.00    -0.206 F 
ATOM     87  C   UNL A   1      39.317  35.820  39.592  1.00  0.00     0.060 A 
BRANCH  87  88
ATOM     88  S   UNL A   1      39.054  36.908  41.010  1.00  0.00     0.124 S 
ATOM     89  O   UNL A   1      38.160  36.103  41.834  1.00  0.00    -0.237 OA
ATOM     90  O   UNL A   1      40.409  37.083  41.522  1.00  0.00    -0.237 OA
ATOM     91  O   UNL A   1      38.460  38.099  40.411  1.00  0.00    -0.744 OA
ENDBRANCH  87  88
ENDBRANCH  55  80
BRANCH  67  92
ATOM     92  C   UNL A   1      44.352  29.086  35.999  1.00  0.00     0.058 A 
ATOM     93  C   UNL A   1      45.612  29.688  35.866  1.00  0.00     0.135 A 
ATOM     94  C   UNL A   1      44.230  28.002  36.883  1.00  0.00     0.135 A 
ATOM     95  F   UNL A   1      45.781  30.725  35.031  1.00  0.00    -0.206 F 
ATOM     96  C   UNL A   1      46.720  29.210  36.557  1.00  0.00     0.059 A 
ATOM     97  C   UNL A   1      45.318  27.524  37.604  1.00  0.00     0.059 A 
ATOM     98  F   UNL A   1      43.042  27.400  37.055  1.00  0.00    -0.206 F 
ATOM     99  C   UNL A   1      46.564  28.124  37.421  1.00  0.00     0.060 A 
BRANCH  99 100
ATOM    100  S   UNL A   1      48.006  27.518  38.321  1.00  0.00     0.124 S 
ATOM    101  O   UNL A   1      48.619  28.764  38.764  1.00  0.00    -0.237 OA
ATOM    102  O   UNL A   1      47.402  26.701  39.370  1.00  0.00    -0.237 OA
ATOM    103  O   UNL A   1      48.749  26.775  37.308  1.00  0.00    -0.744 OA
ENDBRANCH  99 100
ENDBRANCH  67  92
ENDBRANCH  41  42
ENDBRANCH  33  36
ENDBRANCH  31  32
ENDBRANCH  30  31
ENDBRANCH   1  30
TORSDOF 18
ENDMDL
