MODEL 1
REMARK VINA RESULT:     -10.7      0.000      0.000
REMARK SMILES N#CCNC(=O)Cn1ccc(C(=O)NCCCNC(=O)c2ccc(-c3c4nc(c(-c5c(F)cc(S(=O)(=O)[O-])cc5F)c5ccc([nH]5)c(-c5c(F)cc(S(=O)(=O)[O-])cc5F)c5nc(c(-c6c(F)cc(S(=O)(=O)[O-])cc6F)c6ccc3[nH]6)C=C5)C=C4)cc2)c1
REMARK SMILES IDX 15 1 14 2 12 3 13 4 11 6 8 7 9 8 87 9 10 10 7 11 5 12 4 13
REMARK SMILES IDX 6 15 3 16 2 17 1 18 16 19 17 20 18 21 19 22 20 24 21 25
REMARK SMILES IDX 22 26 86 27 23 28 85 29 24 30 25 31 26 32 79 33 27 34 84 35
REMARK SMILES IDX 78 36 80 37 28 38 83 39 77 40 76 41 29 43 63 44 42 45 62 46
REMARK SMILES IDX 43 47 46 48 61 49 81 50 44 51 45 52 60 54 82 55 47 56 30 57
REMARK SMILES IDX 31 58 40 59 32 60 33 61 39 62 41 63 34 64 35 65 36 66 37 67
REMARK SMILES IDX 38 68 64 69 65 70 74 71 66 72 67 73 73 74 75 75 68 76 69 77
REMARK SMILES IDX 70 78 71 79 72 80 48 81 49 82 58 83 50 84 51 85 57 86 59 87
REMARK SMILES IDX 52 88 53 89 54 90 55 91 56 92
REMARK H PARENT 14 5 4 14 18 23 80 42 46 53
REMARK Flexibility Score: inf
ROOT
ATOM      1  C   UNL A   1      34.710  35.385  28.745  1.00  0.00     0.118 C 
ENDROOT
BRANCH   1   2
ATOM      2  N   UNL A   1      33.614  35.894  29.558  1.00  0.00    -0.352 N 
ATOM      3  C   UNL A   1      33.302  35.930  30.888  1.00  0.00     0.252 C 
ATOM      4  O   UNL A   1      32.319  36.629  31.191  1.00  0.00    -0.269 OA
ATOM      5  H   UNL A   1      32.920  36.323  29.008  1.00  0.00     0.163 HD
BRANCH   3   6
ATOM      6  C   UNL A   1      33.993  35.178  31.932  1.00  0.00     0.057 A 
ATOM      7  N   UNL A   1      35.528  34.375  33.353  1.00  0.00    -0.344 N 
ATOM      8  C   UNL A   1      34.617  33.369  33.193  1.00  0.00     0.087 A 
ATOM      9  C   UNL A   1      35.060  35.517  32.745  1.00  0.00     0.100 A 
ATOM     10  C   UNL A   1      33.671  33.826  32.303  1.00  0.00     0.033 A 
BRANCH   7  11
ATOM     11  C   UNL A   1      36.854  34.202  33.930  1.00  0.00     0.221 C 
BRANCH  11  12
ATOM     12  C   UNL A   1      36.882  33.213  35.085  1.00  0.00     0.240 C 
ATOM     13  N   UNL A   1      37.526  32.012  34.963  1.00  0.00    -0.341 N 
ATOM     14  H   UNL A   1      37.598  31.478  35.786  1.00  0.00     0.164 HD
ATOM     15  O   UNL A   1      36.315  33.464  36.150  1.00  0.00    -0.273 OA
BRANCH  13  16
ATOM     16  C   UNL A   1      38.120  31.421  33.773  1.00  0.00     0.236 C 
BRANCH  16  17
ATOM     17  C   UNL A   1      37.728  29.981  33.489  1.00  0.00     0.084 C 
ATOM     18  N   UNL A   1      37.402  28.785  33.253  1.00  0.00    -0.196 NA
ENDBRANCH  16  17
ENDBRANCH  13  16
ENDBRANCH  11  12
ENDBRANCH   7  11
ENDBRANCH   3   6
ENDBRANCH   1   2
BRANCH   1  19
ATOM     19  C   UNL A   1      34.564  33.975  28.142  1.00  0.00     0.042 C 
BRANCH  19  20
ATOM     20  C   UNL A   1      34.969  32.802  29.044  1.00  0.00     0.118 C 
BRANCH  20  21
ATOM     21  N   UNL A   1      34.179  31.620  28.761  1.00  0.00    -0.352 N 
ATOM     22  C   UNL A   1      34.553  30.525  28.026  1.00  0.00     0.251 C 
ATOM     23  H   UNL A   1      33.270  31.602  29.140  1.00  0.00     0.163 HD
ATOM     24  O   UNL A   1      33.693  30.007  27.314  1.00  0.00    -0.269 OA
BRANCH  22  25
ATOM     25  C   UNL A   1      35.897  29.892  28.155  1.00  0.00     0.039 A 
ATOM     26  C   UNL A   1      36.208  29.350  29.413  1.00  0.00     0.014 A 
ATOM     27  C   UNL A   1      36.901  29.966  27.180  1.00  0.00     0.014 A 
ATOM     28  C   UNL A   1      37.509  28.970  29.712  1.00  0.00     0.010 A 
ATOM     29  C   UNL A   1      38.206  29.574  27.470  1.00  0.00     0.010 A 
ATOM     30  C   UNL A   1      38.511  29.113  28.747  1.00  0.00    -0.014 A 
BRANCH  30  31
ATOM     31  C   UNL A   1      39.885  28.714  29.111  1.00  0.00     0.031 A 
ATOM     32  C   UNL A   1      40.655  29.901  29.695  1.00  0.00     0.074 A 
ATOM     33  C   UNL A   1      40.259  27.446  28.754  1.00  0.00     0.049 A 
ATOM     34  N   UNL A   1      41.837  30.341  29.403  1.00  0.00    -0.248 NA
ATOM     35  C   UNL A   1      39.949  30.827  30.620  1.00  0.00     0.031 C 
ATOM     36  C   UNL A   1      39.334  26.414  28.232  1.00  0.00     0.029 A 
ATOM     37  N   UNL A   1      41.456  26.759  28.734  1.00  0.00    -0.354 N 
ATOM     38  C   UNL A   1      42.094  31.461  30.227  1.00  0.00     0.074 A 
ATOM     39  C   UNL A   1      40.842  31.797  30.839  1.00  0.00     0.031 C 
ATOM     40  C   UNL A   1      40.002  25.298  27.871  1.00  0.00     0.029 A 
ATOM     41  C   UNL A   1      41.419  25.479  28.111  1.00  0.00     0.049 A 
ATOM     42  H   UNL A   1      42.280  27.129  29.125  1.00  0.00     0.167 HD
ATOM     43  C   UNL A   1      43.354  31.944  30.453  1.00  0.00     0.037 A 
ATOM     44  C   UNL A   1      42.459  24.663  27.742  1.00  0.00     0.037 A 
ATOM     45  C   UNL A   1      44.300  31.094  29.804  1.00  0.00     0.049 A 
ATOM     46  C   UNL A   1      43.671  25.381  28.171  1.00  0.00     0.074 A 
ATOM     47  C   UNL A   1      44.649  30.925  28.491  1.00  0.00     0.029 A 
ATOM     48  N   UNL A   1      44.747  30.018  30.535  1.00  0.00    -0.354 N 
ATOM     49  N   UNL A   1      44.075  25.513  29.399  1.00  0.00    -0.248 NA
ATOM     50  C   UNL A   1      44.426  26.128  27.154  1.00  0.00     0.031 C 
ATOM     51  C   UNL A   1      44.878  29.537  28.393  1.00  0.00     0.029 A 
ATOM     52  C   UNL A   1      44.876  28.961  29.669  1.00  0.00     0.049 A 
ATOM     53  H   UNL A   1      44.940  30.008  31.501  1.00  0.00     0.167 HD
ATOM     54  C   UNL A   1      44.911  26.601  29.319  1.00  0.00     0.074 A 
ATOM     55  C   UNL A   1      45.325  26.711  27.939  1.00  0.00     0.031 C 
ATOM     56  C   UNL A   1      44.782  27.620  30.206  1.00  0.00     0.037 A 
BRANCH  43  57
ATOM     57  C   UNL A   1      43.927  32.954  31.414  1.00  0.00     0.058 A 
ATOM     58  C   UNL A   1      43.792  32.689  32.804  1.00  0.00     0.135 A 
ATOM     59  C   UNL A   1      44.274  34.267  31.072  1.00  0.00     0.135 A 
ATOM     60  F   UNL A   1      43.547  31.444  33.247  1.00  0.00    -0.206 F 
ATOM     61  C   UNL A   1      43.825  33.690  33.768  1.00  0.00     0.059 A 
ATOM     62  C   UNL A   1      44.360  35.282  32.033  1.00  0.00     0.059 A 
ATOM     63  F   UNL A   1      44.463  34.623  29.795  1.00  0.00    -0.206 F 
ATOM     64  C   UNL A   1      44.069  34.996  33.366  1.00  0.00     0.060 A 
BRANCH  64  65
ATOM     65  S   UNL A   1      43.956  36.304  34.603  1.00  0.00     0.124 S 
ATOM     66  O   UNL A   1      43.041  37.242  33.963  1.00  0.00    -0.237 OA
ATOM     67  O   UNL A   1      43.423  35.593  35.762  1.00  0.00    -0.237 OA
ATOM     68  O   UNL A   1      45.338  36.757  34.739  1.00  0.00    -0.744 OA
ENDBRANCH  64  65
ENDBRANCH  43  57
BRANCH  44  69
ATOM     69  C   UNL A   1      42.671  23.418  26.893  1.00  0.00     0.058 A 
ATOM     70  C   UNL A   1      43.257  23.363  25.621  1.00  0.00     0.135 A 
ATOM     71  C   UNL A   1      42.330  22.136  27.419  1.00  0.00     0.135 A 
ATOM     72  F   UNL A   1      43.476  24.477  24.913  1.00  0.00    -0.206 F 
ATOM     73  C   UNL A   1      43.635  22.148  25.010  1.00  0.00     0.059 A 
ATOM     74  C   UNL A   1      42.731  20.925  26.861  1.00  0.00     0.059 A 
ATOM     75  F   UNL A   1      41.596  21.997  28.531  1.00  0.00    -0.206 F 
ATOM     76  C   UNL A   1      43.417  20.937  25.666  1.00  0.00     0.060 A 
BRANCH  76  77
ATOM     77  S   UNL A   1      44.114  19.392  25.039  1.00  0.00     0.124 S 
ATOM     78  O   UNL A   1      43.134  18.410  25.484  1.00  0.00    -0.237 OA
ATOM     79  O   UNL A   1      44.169  19.632  23.600  1.00  0.00    -0.237 OA
ATOM     80  O   UNL A   1      45.417  19.324  25.697  1.00  0.00    -0.744 OA
ENDBRANCH  76  77
ENDBRANCH  44  69
BRANCH  56  81
ATOM     81  C   UNL A   1      44.189  27.219  31.546  1.00  0.00     0.058 A 
ATOM     82  C   UNL A   1      44.877  26.314  32.369  1.00  0.00     0.135 A 
ATOM     83  C   UNL A   1      42.922  27.622  32.006  1.00  0.00     0.135 A 
ATOM     84  F   UNL A   1      46.093  25.874  32.006  1.00  0.00    -0.206 F 
ATOM     85  C   UNL A   1      44.346  25.842  33.573  1.00  0.00     0.059 A 
ATOM     86  C   UNL A   1      42.368  27.176  33.210  1.00  0.00     0.059 A 
ATOM     87  F   UNL A   1      42.178  28.458  31.283  1.00  0.00    -0.206 F 
ATOM     88  C   UNL A   1      43.090  26.282  33.991  1.00  0.00     0.060 A 
BRANCH  88  89
ATOM     89  S   UNL A   1      42.440  25.693  35.571  1.00  0.00     0.124 S 
ATOM     90  O   UNL A   1      43.153  26.526  36.534  1.00  0.00    -0.237 OA
ATOM     91  O   UNL A   1      41.013  25.969  35.436  1.00  0.00    -0.237 OA
ATOM     92  O   UNL A   1      42.799  24.277  35.589  1.00  0.00    -0.744 OA
ENDBRANCH  88  89
ENDBRANCH  56  81
ENDBRANCH  30  31
ENDBRANCH  22  25
ENDBRANCH  20  21
ENDBRANCH  19  20
ENDBRANCH   1  19
TORSDOF 17
ENDMDL
MODEL 2
REMARK VINA RESULT:     -10.7      5.393     10.932
REMARK SMILES N#CCNC(=O)Cn1ccc(C(=O)NCCCNC(=O)c2ccc(-c3c4nc(c(-c5c(F)cc(S(=O)(=O)[O-])cc5F)c5ccc([nH]5)c(-c5c(F)cc(S(=O)(=O)[O-])cc5F)c5nc(c(-c6c(F)cc(S(=O)(=O)[O-])cc6F)c6ccc3[nH]6)C=C5)C=C4)cc2)c1
REMARK SMILES IDX 15 1 14 2 12 3 13 4 11 6 8 7 9 8 87 9 10 10 7 11 5 12 4 13
REMARK SMILES IDX 6 15 3 16 2 17 1 18 16 19 17 20 18 21 19 22 20 24 21 25
REMARK SMILES IDX 22 26 86 27 23 28 85 29 24 30 25 31 26 32 79 33 27 34 84 35
REMARK SMILES IDX 78 36 80 37 28 38 83 39 77 40 76 41 29 43 63 44 42 45 62 46
REMARK SMILES IDX 43 47 46 48 61 49 81 50 44 51 45 52 60 54 82 55 47 56 30 57
REMARK SMILES IDX 31 58 40 59 32 60 33 61 39 62 41 63 34 64 35 65 36 66 37 67
REMARK SMILES IDX 38 68 64 69 65 70 74 71 66 72 67 73 73 74 75 75 68 76 69 77
REMARK SMILES IDX 70 78 71 79 72 80 48 81 49 82 58 83 50 84 51 85 57 86 59 87
REMARK SMILES IDX 52 88 53 89 54 90 55 91 56 92
REMARK H PARENT 14 5 4 14 18 23 80 42 46 53
REMARK Flexibility Score: inf
ROOT
ATOM      1  C   UNL A   1      48.551  20.304  35.754  1.00  0.00     0.118 C 
ENDROOT
BRANCH   1   2
ATOM      2  N   UNL A   1      47.253  19.645  35.735  1.00  0.00    -0.352 N 
ATOM      3  C   UNL A   1      46.291  19.326  36.652  1.00  0.00     0.252 C 
ATOM      4  O   UNL A   1      45.221  18.899  36.182  1.00  0.00    -0.269 OA
ATOM      5  H   UNL A   1      47.005  19.354  34.828  1.00  0.00     0.163 HD
BRANCH   3   6
ATOM      6  C   UNL A   1      46.456  19.398  38.100  1.00  0.00     0.057 A 
ATOM      7  N   UNL A   1      46.346  19.013  40.305  1.00  0.00    -0.344 N 
ATOM      8  C   UNL A   1      46.605  20.349  40.180  1.00  0.00     0.087 A 
ATOM      9  C   UNL A   1      46.437  18.412  39.071  1.00  0.00     0.100 A 
ATOM     10  C   UNL A   1      46.656  20.621  38.832  1.00  0.00     0.033 A 
BRANCH   7  11
ATOM     11  C   UNL A   1      45.879  18.375  41.529  1.00  0.00     0.221 C 
BRANCH  11  12
ATOM     12  C   UNL A   1      44.391  18.571  41.777  1.00  0.00     0.240 C 
ATOM     13  N   UNL A   1      43.526  17.512  41.717  1.00  0.00    -0.341 N 
ATOM     14  H   UNL A   1      42.602  17.697  42.001  1.00  0.00     0.164 HD
ATOM     15  O   UNL A   1      43.930  19.686  42.026  1.00  0.00    -0.273 OA
BRANCH  13  16
ATOM     16  C   UNL A   1      43.795  16.148  41.287  1.00  0.00     0.236 C 
BRANCH  16  17
ATOM     17  C   UNL A   1      43.604  15.877  39.804  1.00  0.00     0.084 C 
ATOM     18  N   UNL A   1      43.446  15.652  38.573  1.00  0.00    -0.196 NA
ENDBRANCH  16  17
ENDBRANCH  13  16
ENDBRANCH  11  12
ENDBRANCH   7  11
ENDBRANCH   3   6
ENDBRANCH   1   2
BRANCH   1  19
ATOM     19  C   UNL A   1      48.590  21.825  35.509  1.00  0.00     0.042 C 
BRANCH  19  20
ATOM     20  C   UNL A   1      47.246  22.502  35.210  1.00  0.00     0.118 C 
BRANCH  20  21
ATOM     21  N   UNL A   1      46.768  23.255  36.352  1.00  0.00    -0.352 N 
ATOM     22  C   UNL A   1      46.511  24.600  36.414  1.00  0.00     0.251 C 
ATOM     23  H   UNL A   1      46.611  22.742  37.178  1.00  0.00     0.163 HD
ATOM     24  O   UNL A   1      46.800  25.180  37.461  1.00  0.00    -0.269 OA
BRANCH  22  25
ATOM     25  C   UNL A   1      45.799  25.333  35.327  1.00  0.00     0.039 A 
ATOM     26  C   UNL A   1      44.482  24.922  35.064  1.00  0.00     0.014 A 
ATOM     27  C   UNL A   1      46.410  26.250  34.462  1.00  0.00     0.014 A 
ATOM     28  C   UNL A   1      43.826  25.357  33.921  1.00  0.00     0.010 A 
ATOM     29  C   UNL A   1      45.752  26.700  33.321  1.00  0.00     0.010 A 
ATOM     30  C   UNL A   1      44.477  26.222  33.035  1.00  0.00    -0.014 A 
BRANCH  30  31
ATOM     31  C   UNL A   1      43.751  26.646  31.821  1.00  0.00     0.031 A 
ATOM     32  C   UNL A   1      42.700  27.704  32.163  1.00  0.00     0.074 A 
ATOM     33  C   UNL A   1      44.038  25.953  30.676  1.00  0.00     0.049 A 
ATOM     34  N   UNL A   1      41.451  27.764  31.824  1.00  0.00    -0.248 NA
ATOM     35  C   UNL A   1      43.041  28.759  33.152  1.00  0.00     0.031 C 
ATOM     36  C   UNL A   1      45.146  24.979  30.539  1.00  0.00     0.029 A 
ATOM     37  N   UNL A   1      43.481  25.895  29.414  1.00  0.00    -0.354 N 
ATOM     38  C   UNL A   1      40.910  28.943  32.389  1.00  0.00     0.074 A 
ATOM     39  C   UNL A   1      41.893  29.426  33.313  1.00  0.00     0.031 C 
ATOM     40  C   UNL A   1      45.121  24.380  29.329  1.00  0.00     0.029 A 
ATOM     41  C   UNL A   1      44.005  24.886  28.557  1.00  0.00     0.049 A 
ATOM     42  H   UNL A   1      42.770  26.512  29.125  1.00  0.00     0.167 HD
ATOM     43  C   UNL A   1      39.747  29.511  31.947  1.00  0.00     0.037 A 
ATOM     44  C   UNL A   1      43.527  24.437  27.351  1.00  0.00     0.037 A 
ATOM     45  C   UNL A   1      39.268  28.775  30.821  1.00  0.00     0.049 A 
ATOM     46  C   UNL A   1      42.339  25.265  27.086  1.00  0.00     0.074 A 
ATOM     47  C   UNL A   1      38.664  27.553  30.699  1.00  0.00     0.029 A 
ATOM     48  N   UNL A   1      39.747  29.170  29.593  1.00  0.00    -0.354 N 
ATOM     49  N   UNL A   1      42.354  26.515  26.731  1.00  0.00    -0.248 NA
ATOM     50  C   UNL A   1      41.017  24.685  27.369  1.00  0.00     0.031 C 
ATOM     51  C   UNL A   1      39.212  27.038  29.506  1.00  0.00     0.029 A 
ATOM     52  C   UNL A   1      39.943  28.034  28.847  1.00  0.00     0.049 A 
ATOM     53  H   UNL A   1      39.918  30.095  29.303  1.00  0.00     0.167 HD
ATOM     54  C   UNL A   1      41.089  26.933  27.068  1.00  0.00     0.074 A 
ATOM     55  C   UNL A   1      40.260  25.751  27.132  1.00  0.00     0.031 C 
ATOM     56  C   UNL A   1      40.921  28.075  27.782  1.00  0.00     0.037 A 
BRANCH  43  57
ATOM     57  C   UNL A   1      39.066  30.831  32.210  1.00  0.00     0.058 A 
ATOM     58  C   UNL A   1      37.939  30.828  33.074  1.00  0.00     0.135 A 
ATOM     59  C   UNL A   1      39.236  31.980  31.428  1.00  0.00     0.135 A 
ATOM     60  F   UNL A   1      37.730  29.813  33.931  1.00  0.00    -0.206 F 
ATOM     61  C   UNL A   1      36.959  31.813  33.037  1.00  0.00     0.059 A 
ATOM     62  C   UNL A   1      38.284  33.008  31.410  1.00  0.00     0.059 A 
ATOM     63  F   UNL A   1      40.282  32.108  30.602  1.00  0.00    -0.206 F 
ATOM     64  C   UNL A   1      37.121  32.882  32.167  1.00  0.00     0.060 A 
BRANCH  64  65
ATOM     65  S   UNL A   1      35.771  34.071  32.017  1.00  0.00     0.124 S 
ATOM     66  O   UNL A   1      34.645  33.311  32.546  1.00  0.00    -0.237 OA
ATOM     67  O   UNL A   1      36.235  35.176  32.851  1.00  0.00    -0.237 OA
ATOM     68  O   UNL A   1      35.731  34.354  30.585  1.00  0.00    -0.744 OA
ENDBRANCH  64  65
ENDBRANCH  43  57
BRANCH  44  69
ATOM     69  C   UNL A   1      43.767  23.269  26.406  1.00  0.00     0.058 A 
ATOM     70  C   UNL A   1      44.544  23.282  25.240  1.00  0.00     0.135 A 
ATOM     71  C   UNL A   1      43.237  21.982  26.722  1.00  0.00     0.135 A 
ATOM     72  F   UNL A   1      44.970  24.434  24.707  1.00  0.00    -0.206 F 
ATOM     73  C   UNL A   1      44.911  22.103  24.557  1.00  0.00     0.059 A 
ATOM     74  C   UNL A   1      43.617  20.799  26.094  1.00  0.00     0.059 A 
ATOM     75  F   UNL A   1      42.323  21.808  27.686  1.00  0.00    -0.206 F 
ATOM     76  C   UNL A   1      44.487  20.860  25.027  1.00  0.00     0.060 A 
BRANCH  76  77
ATOM     77  S   UNL A   1      45.141  19.324  24.338  1.00  0.00     0.124 S 
ATOM     78  O   UNL A   1      44.476  19.262  23.042  1.00  0.00    -0.237 OA
ATOM     79  O   UNL A   1      46.578  19.578  24.307  1.00  0.00    -0.237 OA
ATOM     80  O   UNL A   1      44.719  18.317  25.310  1.00  0.00    -0.744 OA
ENDBRANCH  76  77
ENDBRANCH  44  69
BRANCH  56  81
ATOM     81  C   UNL A   1      42.034  29.095  27.610  1.00  0.00     0.058 A 
ATOM     82  C   UNL A   1      42.302  29.625  26.338  1.00  0.00     0.135 A 
ATOM     83  C   UNL A   1      42.906  29.498  28.637  1.00  0.00     0.135 A 
ATOM     84  F   UNL A   1      41.521  29.292  25.298  1.00  0.00    -0.206 F 
ATOM     85  C   UNL A   1      43.364  30.503  26.101  1.00  0.00     0.059 A 
ATOM     86  C   UNL A   1      43.971  30.382  28.433  1.00  0.00     0.059 A 
ATOM     87  F   UNL A   1      42.752  29.029  29.874  1.00  0.00    -0.206 F 
ATOM     88  C   UNL A   1      44.194  30.882  27.156  1.00  0.00     0.060 A 
BRANCH  88  89
ATOM     89  S   UNL A   1      45.535  32.050  26.836  1.00  0.00     0.124 S 
ATOM     90  O   UNL A   1      45.304  32.419  25.443  1.00  0.00    -0.237 OA
ATOM     91  O   UNL A   1      45.269  33.097  27.817  1.00  0.00    -0.237 OA
ATOM     92  O   UNL A   1      46.744  31.266  27.078  1.00  0.00    -0.744 OA
ENDBRANCH  88  89
ENDBRANCH  56  81
ENDBRANCH  30  31
ENDBRANCH  22  25
ENDBRANCH  20  21
ENDBRANCH  19  20
ENDBRANCH   1  19
TORSDOF 17
ENDMDL
MODEL 3
REMARK VINA RESULT:     -10.7      3.563      6.154
REMARK SMILES N#CCNC(=O)Cn1ccc(C(=O)NCCCNC(=O)c2ccc(-c3c4nc(c(-c5c(F)cc(S(=O)(=O)[O-])cc5F)c5ccc([nH]5)c(-c5c(F)cc(S(=O)(=O)[O-])cc5F)c5nc(c(-c6c(F)cc(S(=O)(=O)[O-])cc6F)c6ccc3[nH]6)C=C5)C=C4)cc2)c1
REMARK SMILES IDX 15 1 14 2 12 3 13 4 11 6 8 7 9 8 87 9 10 10 7 11 5 12 4 13
REMARK SMILES IDX 6 15 3 16 2 17 1 18 16 19 17 20 18 21 19 22 20 24 21 25
REMARK SMILES IDX 22 26 86 27 23 28 85 29 24 30 25 31 26 32 79 33 27 34 84 35
REMARK SMILES IDX 78 36 80 37 28 38 83 39 77 40 76 41 29 43 63 44 42 45 62 46
REMARK SMILES IDX 43 47 46 48 61 49 81 50 44 51 45 52 60 54 82 55 47 56 30 57
REMARK SMILES IDX 31 58 40 59 32 60 33 61 39 62 41 63 34 64 35 65 36 66 37 67
REMARK SMILES IDX 38 68 64 69 65 70 74 71 66 72 67 73 73 74 75 75 68 76 69 77
REMARK SMILES IDX 70 78 71 79 72 80 48 81 49 82 58 83 50 84 51 85 57 86 59 87
REMARK SMILES IDX 52 88 53 89 54 90 55 91 56 92
REMARK H PARENT 14 5 4 14 18 23 80 42 46 53
REMARK Flexibility Score: inf
ROOT
ATOM      1  C   UNL A   1      34.143  28.311  24.820  1.00  0.00     0.118 C 
ENDROOT
BRANCH   1   2
ATOM      2  N   UNL A   1      34.110  27.552  23.578  1.00  0.00    -0.352 N 
ATOM      3  C   UNL A   1      33.184  27.274  22.611  1.00  0.00     0.252 C 
ATOM      4  O   UNL A   1      33.622  26.707  21.594  1.00  0.00    -0.269 OA
ATOM      5  H   UNL A   1      34.978  27.131  23.384  1.00  0.00     0.163 HD
BRANCH   3   6
ATOM      6  C   UNL A   1      31.753  27.541  22.720  1.00  0.00     0.057 A 
ATOM      7  N   UNL A   1      29.760  28.506  23.066  1.00  0.00    -0.344 N 
ATOM      8  C   UNL A   1      29.550  27.165  23.228  1.00  0.00     0.087 A 
ATOM      9  C   UNL A   1      31.032  28.715  22.586  1.00  0.00     0.100 A 
ATOM     10  C   UNL A   1      30.766  26.546  23.043  1.00  0.00     0.033 A 
BRANCH   7  11
ATOM     11  C   UNL A   1      28.835  29.543  23.503  1.00  0.00     0.221 C 
BRANCH  11  12
ATOM     12  C   UNL A   1      27.551  29.584  22.688  1.00  0.00     0.240 C 
ATOM     13  N   UNL A   1      27.435  30.414  21.606  1.00  0.00    -0.341 N 
ATOM     14  H   UNL A   1      26.621  30.301  21.065  1.00  0.00     0.164 HD
ATOM     15  O   UNL A   1      26.585  28.881  22.990  1.00  0.00    -0.273 OA
BRANCH  13  16
ATOM     16  C   UNL A   1      28.358  31.443  21.153  1.00  0.00     0.236 C 
BRANCH  16  17
ATOM     17  C   UNL A   1      28.468  32.667  22.048  1.00  0.00     0.084 C 
ATOM     18  N   UNL A   1      28.560  33.683  22.790  1.00  0.00    -0.196 NA
ENDBRANCH  16  17
ENDBRANCH  13  16
ENDBRANCH  11  12
ENDBRANCH   7  11
ENDBRANCH   3   6
ENDBRANCH   1   2
BRANCH   1  19
ATOM     19  C   UNL A   1      33.530  27.663  26.076  1.00  0.00     0.042 C 
BRANCH  19  20
ATOM     20  C   UNL A   1      33.560  28.500  27.361  1.00  0.00     0.118 C 
BRANCH  20  21
ATOM     21  N   UNL A   1      33.694  29.913  27.068  1.00  0.00    -0.352 N 
ATOM     22  C   UNL A   1      34.275  30.875  27.853  1.00  0.00     0.251 C 
ATOM     23  H   UNL A   1      33.324  30.217  26.207  1.00  0.00     0.163 HD
ATOM     24  O   UNL A   1      33.743  31.985  27.868  1.00  0.00    -0.269 OA
BRANCH  22  25
ATOM     25  C   UNL A   1      35.563  30.655  28.571  1.00  0.00     0.039 A 
ATOM     26  C   UNL A   1      36.722  31.098  27.914  1.00  0.00     0.014 A 
ATOM     27  C   UNL A   1      35.695  29.893  29.741  1.00  0.00     0.014 A 
ATOM     28  C   UNL A   1      37.977  30.720  28.370  1.00  0.00     0.010 A 
ATOM     29  C   UNL A   1      36.952  29.522  30.211  1.00  0.00     0.010 A 
ATOM     30  C   UNL A   1      38.086  29.905  29.502  1.00  0.00    -0.014 A 
BRANCH  30  31
ATOM     31  C   UNL A   1      39.438  29.509  29.943  1.00  0.00     0.031 A 
ATOM     32  C   UNL A   1      40.110  30.649  30.712  1.00  0.00     0.074 A 
ATOM     33  C   UNL A   1      39.888  28.298  29.491  1.00  0.00     0.049 A 
ATOM     34  N   UNL A   1      41.295  31.152  30.572  1.00  0.00    -0.248 NA
ATOM     35  C   UNL A   1      39.294  31.451  31.662  1.00  0.00     0.031 C 
ATOM     36  C   UNL A   1      39.050  27.301  28.785  1.00  0.00     0.029 A 
ATOM     37  N   UNL A   1      41.108  27.651  29.506  1.00  0.00    -0.354 N 
ATOM     38  C   UNL A   1      41.439  32.185  31.528  1.00  0.00     0.074 A 
ATOM     39  C   UNL A   1      40.128  32.417  32.058  1.00  0.00     0.031 C 
ATOM     40  C   UNL A   1      39.789  26.249  28.372  1.00  0.00     0.029 A 
ATOM     41  C   UNL A   1      41.173  26.445  28.753  1.00  0.00     0.049 A 
ATOM     42  H   UNL A   1      41.882  28.001  30.005  1.00  0.00     0.167 HD
ATOM     43  C   UNL A   1      42.656  32.676  31.912  1.00  0.00     0.037 A 
ATOM     44  C   UNL A   1      42.270  25.702  28.395  1.00  0.00     0.037 A 
ATOM     45  C   UNL A   1      43.685  31.928  31.265  1.00  0.00     0.049 A 
ATOM     46  C   UNL A   1      43.413  26.405  29.002  1.00  0.00     0.074 A 
ATOM     47  C   UNL A   1      44.150  31.909  29.978  1.00  0.00     0.029 A 
ATOM     48  N   UNL A   1      44.109  30.793  31.918  1.00  0.00    -0.354 N 
ATOM     49  N   UNL A   1      43.706  26.418  30.267  1.00  0.00    -0.248 NA
ATOM     50  C   UNL A   1      44.223  27.277  28.138  1.00  0.00     0.031 C 
ATOM     51  C   UNL A   1      44.440  30.547  29.757  1.00  0.00     0.029 A 
ATOM     52  C   UNL A   1      44.350  29.839  30.962  1.00  0.00     0.049 A 
ATOM     53  H   UNL A   1      44.220  30.686  32.891  1.00  0.00     0.167 HD
ATOM     54  C   UNL A   1      44.504  27.532  30.374  1.00  0.00     0.074 A 
ATOM     55  C   UNL A   1      45.030  27.799  29.055  1.00  0.00     0.031 C 
ATOM     56  C   UNL A   1      44.262  28.446  31.347  1.00  0.00     0.037 A 
BRANCH  43  57
ATOM     57  C   UNL A   1      43.106  33.595  33.020  1.00  0.00     0.058 A 
ATOM     58  C   UNL A   1      42.963  33.133  34.356  1.00  0.00     0.135 A 
ATOM     59  C   UNL A   1      43.336  34.968  32.868  1.00  0.00     0.135 A 
ATOM     60  F   UNL A   1      42.827  31.823  34.621  1.00  0.00    -0.206 F 
ATOM     61  C   UNL A   1      42.877  33.993  35.445  1.00  0.00     0.059 A 
ATOM     62  C   UNL A   1      43.301  35.847  33.957  1.00  0.00     0.059 A 
ATOM     63  F   UNL A   1      43.521  35.510  31.657  1.00  0.00    -0.206 F 
ATOM     64  C   UNL A   1      43.006  35.358  35.228  1.00  0.00     0.060 A 
BRANCH  64  65
ATOM     65  S   UNL A   1      42.739  36.471  36.624  1.00  0.00     0.124 S 
ATOM     66  O   UNL A   1      41.431  37.032  36.311  1.00  0.00    -0.237 OA
ATOM     67  O   UNL A   1      42.780  35.558  37.763  1.00  0.00    -0.237 OA
ATOM     68  O   UNL A   1      43.866  37.396  36.534  1.00  0.00    -0.744 OA
ENDBRANCH  64  65
ENDBRANCH  43  57
BRANCH  44  69
ATOM     69  C   UNL A   1      42.600  24.561  27.444  1.00  0.00     0.058 A 
ATOM     70  C   UNL A   1      42.545  24.596  26.044  1.00  0.00     0.135 A 
ATOM     71  C   UNL A   1      43.095  23.327  27.964  1.00  0.00     0.135 A 
ATOM     72  F   UNL A   1      41.946  25.605  25.402  1.00  0.00    -0.206 F 
ATOM     73  C   UNL A   1      43.097  23.579  25.236  1.00  0.00     0.059 A 
ATOM     74  C   UNL A   1      43.685  22.330  27.192  1.00  0.00     0.059 A 
ATOM     75  F   UNL A   1      43.045  23.036  29.270  1.00  0.00    -0.206 F 
ATOM     76  C   UNL A   1      43.716  22.476  25.823  1.00  0.00     0.060 A 
BRANCH  76  77
ATOM     77  S   UNL A   1      44.654  21.291  24.834  1.00  0.00     0.124 S 
ATOM     78  O   UNL A   1      43.876  20.069  24.999  1.00  0.00    -0.237 OA
ATOM     79  O   UNL A   1      44.622  21.893  23.504  1.00  0.00    -0.237 OA
ATOM     80  O   UNL A   1      45.969  21.291  25.473  1.00  0.00    -0.744 OA
ENDBRANCH  76  77
ENDBRANCH  44  69
BRANCH  56  81
ATOM     81  C   UNL A   1      43.573  27.889  32.581  1.00  0.00     0.058 A 
ATOM     82  C   UNL A   1      44.257  26.988  33.413  1.00  0.00     0.135 A 
ATOM     83  C   UNL A   1      42.231  28.136  32.921  1.00  0.00     0.135 A 
ATOM     84  F   UNL A   1      45.542  26.691  33.160  1.00  0.00    -0.206 F 
ATOM     85  C   UNL A   1      43.651  26.376  34.514  1.00  0.00     0.059 A 
ATOM     86  C   UNL A   1      41.599  27.548  34.021  1.00  0.00     0.059 A 
ATOM     87  F   UNL A   1      41.488  28.954  32.177  1.00  0.00    -0.206 F 
ATOM     88  C   UNL A   1      42.320  26.665  34.816  1.00  0.00     0.060 A 
BRANCH  88  89
ATOM     89  S   UNL A   1      41.567  25.896  36.268  1.00  0.00     0.124 S 
ATOM     90  O   UNL A   1      41.184  27.053  37.072  1.00  0.00    -0.237 OA
ATOM     91  O   UNL A   1      40.463  25.146  35.679  1.00  0.00    -0.237 OA
ATOM     92  O   UNL A   1      42.644  25.082  36.827  1.00  0.00    -0.744 OA
ENDBRANCH  88  89
ENDBRANCH  56  81
ENDBRANCH  30  31
ENDBRANCH  22  25
ENDBRANCH  20  21
ENDBRANCH  19  20
ENDBRANCH   1  19
TORSDOF 17
ENDMDL
