MODEL 1
REMARK VINA RESULT:     -12.6      0.000      0.000
REMARK SMILES C[C@@H](C(=O)NCCCNC(=O)c1ccc(-c2c3nc(c(-c4c(F)cc(S(=O)(=O)[O-])cc4F)c4ccc([nH]4)c(-c4c(F)cc(S(=O)(=O)[O-])cc4F)c4nc(c(-c5c(F)cc(S(=O)(=O)[O-])cc5F)c5ccc2[nH]5)C=C4)C=C3)cc1)N(C)c1ccc(C(N)=O)nn1
REMARK SMILES IDX 7 1 6 2 5 3 3 4 4 5 2 7 1 8 78 9 79 10 80 11 81 12 88 13
REMARK SMILES IDX 82 14 87 15 83 16 84 17 85 18 86 19 8 22 9 23 10 24 11 26
REMARK SMILES IDX 12 27 13 28 77 29 14 30 76 31 15 32 16 33 17 34 70 35 18 36
REMARK SMILES IDX 75 37 69 38 71 39 19 40 74 41 68 42 67 43 20 45 54 46 33 47
REMARK SMILES IDX 53 48 34 49 37 50 52 51 72 52 35 53 36 54 51 56 73 57 38 58
REMARK SMILES IDX 21 59 22 60 31 61 23 62 24 63 30 64 32 65 25 66 26 67 27 68
REMARK SMILES IDX 28 69 29 70 55 71 56 72 65 73 57 74 58 75 64 76 66 77 59 78
REMARK SMILES IDX 60 79 61 80 62 81 63 82 39 83 40 84 49 85 41 86 42 87 48 88
REMARK SMILES IDX 50 89 43 90 44 91 45 92 46 93 47 94
REMARK H PARENT 5 6 85 20 85 21 9 25 71 44 37 55
REMARK Flexibility Score: inf
ROOT
ATOM      1  C   UNL A   1      37.773  23.674  25.760  1.00  0.00     0.042 C 
ENDROOT
BRANCH   1   2
ATOM      2  C   UNL A   1      37.323  22.215  25.743  1.00  0.00     0.117 C 
BRANCH   2   3
ATOM      3  N   UNL A   1      36.096  22.015  26.493  1.00  0.00    -0.354 N 
ATOM      4  C   UNL A   1      34.823  21.743  26.073  1.00  0.00     0.242 C 
ATOM      5  O   UNL A   1      33.987  21.596  26.968  1.00  0.00    -0.273 OA
ATOM      6  H   UNL A   1      36.198  22.089  27.470  1.00  0.00     0.163 HD
BRANCH   4   7
ATOM      7  C   UNL A   1      34.508  21.558  24.559  1.00  0.00     0.169 C 
ATOM      8  C   UNL A   1      34.486  22.860  23.760  1.00  0.00     0.042 C 
BRANCH   7   9
ATOM      9  N   UNL A   1      33.276  20.750  24.313  1.00  0.00    -0.346 N 
ATOM     10  C   UNL A   1      32.435  21.171  23.195  1.00  0.00     0.146 C 
BRANCH   9  11
ATOM     11  C   UNL A   1      33.233  19.375  24.571  1.00  0.00     0.151 A 
ATOM     12  C   UNL A   1      34.298  18.533  24.266  1.00  0.00     0.051 A 
ATOM     13  N   UNL A   1      32.153  18.830  25.187  1.00  0.00    -0.132 NA
ATOM     14  C   UNL A   1      34.234  17.164  24.531  1.00  0.00     0.040 A 
ATOM     15  N   UNL A   1      32.060  17.470  25.448  1.00  0.00    -0.143 NA
ATOM     16  C   UNL A   1      33.089  16.666  25.110  1.00  0.00     0.150 A 
BRANCH  16  17
ATOM     17  C   UNL A   1      32.954  15.215  25.407  1.00  0.00     0.269 C 
ATOM     18  N   UNL A   1      31.688  14.757  25.657  1.00  0.00    -0.364 N 
ATOM     19  O   UNL A   1      33.918  14.458  25.430  1.00  0.00    -0.268 OA
ATOM     20  H   UNL A   1      30.926  15.380  25.634  1.00  0.00     0.160 HD
ATOM     21  H   UNL A   1      31.541  13.805  25.860  1.00  0.00     0.160 HD
ENDBRANCH  16  17
ENDBRANCH   9  11
ENDBRANCH   7   9
ENDBRANCH   4   7
ENDBRANCH   2   3
ENDBRANCH   1   2
BRANCH   1  22
ATOM     22  C   UNL A   1      38.923  23.963  26.727  1.00  0.00     0.118 C 
BRANCH  22  23
ATOM     23  N   UNL A   1      40.193  24.167  26.041  1.00  0.00    -0.352 N 
ATOM     24  C   UNL A   1      41.201  25.069  26.285  1.00  0.00     0.251 C 
ATOM     25  H   UNL A   1      40.354  23.562  25.282  1.00  0.00     0.163 HD
ATOM     26  O   UNL A   1      42.099  25.201  25.457  1.00  0.00    -0.269 OA
BRANCH  24  27
ATOM     27  C   UNL A   1      41.201  25.893  27.513  1.00  0.00     0.039 A 
ATOM     28  C   UNL A   1      42.285  26.743  27.753  1.00  0.00     0.014 A 
ATOM     29  C   UNL A   1      40.152  25.824  28.434  1.00  0.00     0.014 A 
ATOM     30  C   UNL A   1      42.272  27.590  28.865  1.00  0.00     0.010 A 
ATOM     31  C   UNL A   1      40.112  26.711  29.510  1.00  0.00     0.010 A 
ATOM     32  C   UNL A   1      41.160  27.621  29.722  1.00  0.00    -0.014 A 
BRANCH  32  33
ATOM     33  C   UNL A   1      41.034  28.652  30.788  1.00  0.00     0.031 A 
ATOM     34  C   UNL A   1      41.853  28.564  32.046  1.00  0.00     0.074 A 
ATOM     35  C   UNL A   1      40.099  29.616  30.654  1.00  0.00     0.049 A 
ATOM     36  N   UNL A   1      41.790  29.307  33.120  1.00  0.00    -0.248 NA
ATOM     37  C   UNL A   1      42.862  27.495  32.115  1.00  0.00     0.031 C 
ATOM     38  C   UNL A   1      39.211  29.777  29.498  1.00  0.00     0.029 A 
ATOM     39  N   UNL A   1      39.717  30.626  31.502  1.00  0.00    -0.354 N 
ATOM     40  C   UNL A   1      42.732  28.787  34.001  1.00  0.00     0.074 A 
ATOM     41  C   UNL A   1      43.339  27.649  33.344  1.00  0.00     0.031 C 
ATOM     42  C   UNL A   1      38.392  30.819  29.711  1.00  0.00     0.029 A 
ATOM     43  C   UNL A   1      38.657  31.371  31.034  1.00  0.00     0.049 A 
ATOM     44  H   UNL A   1      40.159  30.801  32.365  1.00  0.00     0.167 HD
ATOM     45  C   UNL A   1      43.061  29.227  35.238  1.00  0.00     0.037 A 
ATOM     46  C   UNL A   1      37.954  32.363  31.616  1.00  0.00     0.037 A 
ATOM     47  C   UNL A   1      42.472  30.380  35.870  1.00  0.00     0.049 A 
ATOM     48  C   UNL A   1      38.330  32.811  33.003  1.00  0.00     0.074 A 
ATOM     49  C   UNL A   1      42.816  30.963  37.079  1.00  0.00     0.029 A 
ATOM     50  N   UNL A   1      41.414  31.116  35.360  1.00  0.00    -0.354 N 
ATOM     51  N   UNL A   1      39.297  32.375  33.775  1.00  0.00    -0.248 NA
ATOM     52  C   UNL A   1      37.519  33.881  33.603  1.00  0.00     0.031 C 
ATOM     53  C   UNL A   1      41.923  32.008  37.330  1.00  0.00     0.029 A 
ATOM     54  C   UNL A   1      41.060  32.114  36.252  1.00  0.00     0.049 A 
ATOM     55  H   UNL A   1      40.979  30.954  34.491  1.00  0.00     0.167 HD
ATOM     56  C   UNL A   1      39.220  33.129  34.941  1.00  0.00     0.074 A 
ATOM     57  C   UNL A   1      38.130  34.065  34.766  1.00  0.00     0.031 C 
ATOM     58  C   UNL A   1      39.977  33.046  36.062  1.00  0.00     0.037 A 
BRANCH  45  59
ATOM     59  C   UNL A   1      44.104  28.473  36.016  1.00  0.00     0.058 A 
ATOM     60  C   UNL A   1      45.460  28.827  35.967  1.00  0.00     0.135 A 
ATOM     61  C   UNL A   1      43.722  27.466  36.918  1.00  0.00     0.135 A 
ATOM     62  F   UNL A   1      45.882  29.774  35.113  1.00  0.00    -0.206 F 
ATOM     63  C   UNL A   1      46.401  28.212  36.786  1.00  0.00     0.059 A 
ATOM     64  C   UNL A   1      44.641  26.854  37.764  1.00  0.00     0.059 A 
ATOM     65  F   UNL A   1      42.436  27.088  37.003  1.00  0.00    -0.206 F 
ATOM     66  C   UNL A   1      45.980  27.234  37.690  1.00  0.00     0.060 A 
BRANCH  66  67
ATOM     67  S   UNL A   1      47.205  26.496  38.792  1.00  0.00     0.124 S 
ATOM     68  O   UNL A   1      47.359  25.167  38.208  1.00  0.00    -0.237 OA
ATOM     69  O   UNL A   1      48.346  27.392  38.633  1.00  0.00    -0.237 OA
ATOM     70  O   UNL A   1      46.557  26.535  40.099  1.00  0.00    -0.744 OA
ENDBRANCH  66  67
ENDBRANCH  45  59
BRANCH  46  71
ATOM     71  C   UNL A   1      36.795  32.980  30.913  1.00  0.00     0.058 A 
ATOM     72  C   UNL A   1      36.983  33.901  29.873  1.00  0.00     0.135 A 
ATOM     73  C   UNL A   1      35.475  32.689  31.295  1.00  0.00     0.135 A 
ATOM     74  F   UNL A   1      38.225  34.217  29.474  1.00  0.00    -0.206 F 
ATOM     75  C   UNL A   1      35.910  34.542  29.263  1.00  0.00     0.059 A 
ATOM     76  C   UNL A   1      34.385  33.292  30.678  1.00  0.00     0.059 A 
ATOM     77  F   UNL A   1      35.235  31.800  32.272  1.00  0.00    -0.206 F 
ATOM     78  C   UNL A   1      34.612  34.234  29.676  1.00  0.00     0.060 A 
BRANCH  78  79
ATOM     79  S   UNL A   1      33.224  35.068  28.879  1.00  0.00     0.124 S 
ATOM     80  O   UNL A   1      32.771  34.048  27.941  1.00  0.00    -0.237 OA
ATOM     81  O   UNL A   1      32.339  35.338  30.008  1.00  0.00    -0.237 OA
ATOM     82  O   UNL A   1      33.842  36.248  28.282  1.00  0.00    -0.744 OA
ENDBRANCH  78  79
ENDBRANCH  46  71
BRANCH  58  83
ATOM     83  C   UNL A   1      39.669  33.997  37.185  1.00  0.00     0.058 A 
ATOM     84  C   UNL A   1      38.935  33.591  38.309  1.00  0.00     0.135 A 
ATOM     85  C   UNL A   1      40.175  35.308  37.170  1.00  0.00     0.135 A 
ATOM     86  F   UNL A   1      38.418  32.353  38.367  1.00  0.00    -0.206 F 
ATOM     87  C   UNL A   1      38.704  34.451  39.376  1.00  0.00     0.059 A 
ATOM     88  C   UNL A   1      39.981  36.177  38.240  1.00  0.00     0.059 A 
ATOM     89  F   UNL A   1      40.889  35.746  36.121  1.00  0.00    -0.206 F 
ATOM     90  C   UNL A   1      39.239  35.740  39.337  1.00  0.00     0.060 A 
BRANCH  90  91
ATOM     91  S   UNL A   1      38.982  36.825  40.757  1.00  0.00     0.124 S 
ATOM     92  O   UNL A   1      38.371  37.992  40.131  1.00  0.00    -0.237 OA
ATOM     93  O   UNL A   1      38.101  36.026  41.602  1.00  0.00    -0.237 OA
ATOM     94  O   UNL A   1      40.330  37.027  41.280  1.00  0.00    -0.744 OA
ENDBRANCH  90  91
ENDBRANCH  58  83
ENDBRANCH  32  33
ENDBRANCH  24  27
ENDBRANCH  22  23
ENDBRANCH   1  22
TORSDOF 16
ENDMDL
MODEL 2
REMARK VINA RESULT:     -12.5      2.973      3.690
REMARK SMILES C[C@@H](C(=O)NCCCNC(=O)c1ccc(-c2c3nc(c(-c4c(F)cc(S(=O)(=O)[O-])cc4F)c4ccc([nH]4)c(-c4c(F)cc(S(=O)(=O)[O-])cc4F)c4nc(c(-c5c(F)cc(S(=O)(=O)[O-])cc5F)c5ccc2[nH]5)C=C4)C=C3)cc1)N(C)c1ccc(C(N)=O)nn1
REMARK SMILES IDX 7 1 6 2 5 3 3 4 4 5 2 7 1 8 78 9 79 10 80 11 81 12 88 13
REMARK SMILES IDX 82 14 87 15 83 16 84 17 85 18 86 19 8 22 9 23 10 24 11 26
REMARK SMILES IDX 12 27 13 28 77 29 14 30 76 31 15 32 16 33 17 34 70 35 18 36
REMARK SMILES IDX 75 37 69 38 71 39 19 40 74 41 68 42 67 43 20 45 54 46 33 47
REMARK SMILES IDX 53 48 34 49 37 50 52 51 72 52 35 53 36 54 51 56 73 57 38 58
REMARK SMILES IDX 21 59 22 60 31 61 23 62 24 63 30 64 32 65 25 66 26 67 27 68
REMARK SMILES IDX 28 69 29 70 55 71 56 72 65 73 57 74 58 75 64 76 66 77 59 78
REMARK SMILES IDX 60 79 61 80 62 81 63 82 39 83 40 84 49 85 41 86 42 87 48 88
REMARK SMILES IDX 50 89 43 90 44 91 45 92 46 93 47 94
REMARK H PARENT 5 6 85 20 85 21 9 25 71 44 37 55
REMARK Flexibility Score: inf
ROOT
ATOM      1  C   UNL A   1      36.023  23.776  25.919  1.00  0.00     0.042 C 
ENDROOT
BRANCH   1   2
ATOM      2  C   UNL A   1      35.358  22.449  26.284  1.00  0.00     0.117 C 
BRANCH   2   3
ATOM      3  N   UNL A   1      33.913  22.563  26.342  1.00  0.00    -0.354 N 
ATOM      4  C   UNL A   1      32.954  22.298  25.403  1.00  0.00     0.242 C 
ATOM      5  O   UNL A   1      31.788  22.468  25.768  1.00  0.00    -0.273 OA
ATOM      6  H   UNL A   1      33.563  22.886  27.204  1.00  0.00     0.163 HD
BRANCH   4   7
ATOM      7  C   UNL A   1      33.346  21.743  24.001  1.00  0.00     0.169 C 
ATOM      8  C   UNL A   1      33.557  22.820  22.938  1.00  0.00     0.042 C 
BRANCH   7   9
ATOM      9  N   UNL A   1      32.421  20.675  23.516  1.00  0.00    -0.346 N 
ATOM     10  C   UNL A   1      31.893  20.838  22.164  1.00  0.00     0.146 C 
BRANCH   9  11
ATOM     11  C   UNL A   1      32.562  19.342  23.915  1.00  0.00     0.151 A 
ATOM     12  C   UNL A   1      33.058  18.363  23.059  1.00  0.00     0.051 A 
ATOM     13  N   UNL A   1      32.264  18.975  25.188  1.00  0.00    -0.132 NA
ATOM     14  C   UNL A   1      33.190  17.038  23.477  1.00  0.00     0.040 A 
ATOM     15  N   UNL A   1      32.373  17.662  25.623  1.00  0.00    -0.143 NA
ATOM     16  C   UNL A   1      32.821  16.723  24.765  1.00  0.00     0.150 A 
BRANCH  16  17
ATOM     17  C   UNL A   1      32.927  15.327  25.268  1.00  0.00     0.269 C 
ATOM     18  N   UNL A   1      31.760  14.727  25.659  1.00  0.00    -0.364 N 
ATOM     19  O   UNL A   1      33.998  14.732  25.334  1.00  0.00    -0.268 OA
ATOM     20  H   UNL A   1      30.909  15.220  25.599  1.00  0.00     0.160 HD
ATOM     21  H   UNL A   1      31.771  13.804  26.000  1.00  0.00     0.160 HD
ENDBRANCH  16  17
ENDBRANCH   9  11
ENDBRANCH   7   9
ENDBRANCH   4   7
ENDBRANCH   2   3
ENDBRANCH   1   2
BRANCH   1  22
ATOM     22  C   UNL A   1      37.207  23.638  24.960  1.00  0.00     0.118 C 
BRANCH  22  23
ATOM     23  N   UNL A   1      38.220  22.712  25.450  1.00  0.00    -0.352 N 
ATOM     24  C   UNL A   1      39.341  22.940  26.210  1.00  0.00     0.251 C 
ATOM     25  H   UNL A   1      38.078  21.772  25.194  1.00  0.00     0.163 HD
ATOM     26  O   UNL A   1      40.169  22.041  26.342  1.00  0.00    -0.269 OA
BRANCH  24  27
ATOM     27  C   UNL A   1      39.571  24.255  26.847  1.00  0.00     0.039 A 
ATOM     28  C   UNL A   1      39.069  24.477  28.134  1.00  0.00     0.014 A 
ATOM     29  C   UNL A   1      40.261  25.272  26.183  1.00  0.00     0.014 A 
ATOM     30  C   UNL A   1      39.341  25.682  28.788  1.00  0.00     0.010 A 
ATOM     31  C   UNL A   1      40.583  26.450  26.859  1.00  0.00     0.010 A 
ATOM     32  C   UNL A   1      40.148  26.656  28.177  1.00  0.00    -0.014 A 
BRANCH  32  33
ATOM     33  C   UNL A   1      40.617  27.852  28.928  1.00  0.00     0.031 A 
ATOM     34  C   UNL A   1      41.939  27.842  29.645  1.00  0.00     0.074 A 
ATOM     35  C   UNL A   1      39.793  28.915  29.040  1.00  0.00     0.049 A 
ATOM     36  N   UNL A   1      42.451  28.749  30.436  1.00  0.00    -0.248 NA
ATOM     37  C   UNL A   1      42.790  26.654  29.466  1.00  0.00     0.031 C 
ATOM     38  C   UNL A   1      38.466  29.023  28.427  1.00  0.00     0.029 A 
ATOM     39  N   UNL A   1      39.932  30.095  29.728  1.00  0.00    -0.354 N 
ATOM     40  C   UNL A   1      43.670  28.238  30.866  1.00  0.00     0.074 A 
ATOM     41  C   UNL A   1      43.813  26.929  30.265  1.00  0.00     0.031 C 
ATOM     42  C   UNL A   1      37.916  30.200  28.766  1.00  0.00     0.029 A 
ATOM     43  C   UNL A   1      38.824  30.910  29.659  1.00  0.00     0.049 A 
ATOM     44  H   UNL A   1      40.748  30.336  30.225  1.00  0.00     0.167 HD
ATOM     45  C   UNL A   1      44.585  28.815  31.679  1.00  0.00     0.037 A 
ATOM     46  C   UNL A   1      38.552  32.080  30.272  1.00  0.00     0.037 A 
ATOM     47  C   UNL A   1      44.448  30.132  32.247  1.00  0.00     0.049 A 
ATOM     48  C   UNL A   1      39.582  32.682  31.191  1.00  0.00     0.074 A 
ATOM     49  C   UNL A   1      45.370  30.842  32.998  1.00  0.00     0.029 A 
ATOM     50  N   UNL A   1      43.319  30.932  32.142  1.00  0.00    -0.354 N 
ATOM     51  N   UNL A   1      40.775  32.231  31.497  1.00  0.00    -0.248 NA
ATOM     52  C   UNL A   1      39.230  33.947  31.852  1.00  0.00     0.031 C 
ATOM     53  C   UNL A   1      44.775  32.039  33.404  1.00  0.00     0.029 A 
ATOM     54  C   UNL A   1      43.503  32.103  32.858  1.00  0.00     0.049 A 
ATOM     55  H   UNL A   1      42.507  30.700  31.635  1.00  0.00     0.167 HD
ATOM     56  C   UNL A   1      41.320  33.166  32.371  1.00  0.00     0.074 A 
ATOM     57  C   UNL A   1      40.339  34.219  32.526  1.00  0.00     0.031 C 
ATOM     58  C   UNL A   1      42.522  33.148  32.998  1.00  0.00     0.037 A 
BRANCH  45  59
ATOM     59  C   UNL A   1      45.830  28.044  32.024  1.00  0.00     0.058 A 
ATOM     60  C   UNL A   1      45.895  27.211  33.150  1.00  0.00     0.135 A 
ATOM     61  C   UNL A   1      46.927  28.045  31.145  1.00  0.00     0.135 A 
ATOM     62  F   UNL A   1      44.880  27.181  34.029  1.00  0.00    -0.206 F 
ATOM     63  C   UNL A   1      47.000  26.402  33.391  1.00  0.00     0.059 A 
ATOM     64  C   UNL A   1      48.032  27.227  31.354  1.00  0.00     0.059 A 
ATOM     65  F   UNL A   1      46.916  28.827  30.053  1.00  0.00    -0.206 F 
ATOM     66  C   UNL A   1      48.060  26.408  32.482  1.00  0.00     0.060 A 
BRANCH  66  67
ATOM     67  S   UNL A   1      49.455  25.302  32.778  1.00  0.00     0.124 S 
ATOM     68  O   UNL A   1      49.821  24.924  31.416  1.00  0.00    -0.237 OA
ATOM     69  O   UNL A   1      50.402  26.173  33.468  1.00  0.00    -0.237 OA
ATOM     70  O   UNL A   1      48.880  24.236  33.591  1.00  0.00    -0.744 OA
ENDBRANCH  66  67
ENDBRANCH  45  59
BRANCH  46  71
ATOM     71  C   UNL A   1      37.236  32.747  30.075  1.00  0.00     0.058 A 
ATOM     72  C   UNL A   1      37.049  33.703  29.066  1.00  0.00     0.135 A 
ATOM     73  C   UNL A   1      36.147  32.470  30.919  1.00  0.00     0.135 A 
ATOM     74  F   UNL A   1      38.060  34.007  28.237  1.00  0.00    -0.206 F 
ATOM     75  C   UNL A   1      35.848  34.389  28.923  1.00  0.00     0.059 A 
ATOM     76  C   UNL A   1      34.926  33.120  30.776  1.00  0.00     0.059 A 
ATOM     77  F   UNL A   1      36.263  31.551  31.890  1.00  0.00    -0.206 F 
ATOM     78  C   UNL A   1      34.792  34.093  29.788  1.00  0.00     0.060 A 
BRANCH  78  79
ATOM     79  S   UNL A   1      33.235  34.987  29.596  1.00  0.00     0.124 S 
ATOM     80  O   UNL A   1      32.515  34.122  28.668  1.00  0.00    -0.237 OA
ATOM     81  O   UNL A   1      32.729  35.018  30.965  1.00  0.00    -0.237 OA
ATOM     82  O   UNL A   1      33.655  36.278  29.062  1.00  0.00    -0.744 OA
ENDBRANCH  78  79
ENDBRANCH  46  71
BRANCH  58  83
ATOM     83  C   UNL A   1      42.855  34.304  33.900  1.00  0.00     0.058 A 
ATOM     84  C   UNL A   1      42.617  34.249  35.281  1.00  0.00     0.135 A 
ATOM     85  C   UNL A   1      43.486  35.450  33.388  1.00  0.00     0.135 A 
ATOM     86  F   UNL A   1      42.005  33.181  35.818  1.00  0.00    -0.206 F 
ATOM     87  C   UNL A   1      42.984  35.291  36.124  1.00  0.00     0.059 A 
ATOM     88  C   UNL A   1      43.889  36.493  34.218  1.00  0.00     0.059 A 
ATOM     89  F   UNL A   1      43.743  35.553  32.074  1.00  0.00    -0.206 F 
ATOM     90  C   UNL A   1      43.628  36.406  35.584  1.00  0.00     0.060 A 
BRANCH  90  91
ATOM     91  S   UNL A   1      44.152  37.724  36.701  1.00  0.00     0.124 S 
ATOM     92  O   UNL A   1      43.141  37.644  37.749  1.00  0.00    -0.237 OA
ATOM     93  O   UNL A   1      45.494  37.293  37.081  1.00  0.00    -0.237 OA
ATOM     94  O   UNL A   1      44.098  38.920  35.866  1.00  0.00    -0.744 OA
ENDBRANCH  90  91
ENDBRANCH  58  83
ENDBRANCH  32  33
ENDBRANCH  24  27
ENDBRANCH  22  23
ENDBRANCH   1  22
TORSDOF 16
ENDMDL
MODEL 3
REMARK VINA RESULT:     -12.4      6.672     11.877
REMARK SMILES C[C@@H](C(=O)NCCCNC(=O)c1ccc(-c2c3nc(c(-c4c(F)cc(S(=O)(=O)[O-])cc4F)c4ccc([nH]4)c(-c4c(F)cc(S(=O)(=O)[O-])cc4F)c4nc(c(-c5c(F)cc(S(=O)(=O)[O-])cc5F)c5ccc2[nH]5)C=C4)C=C3)cc1)N(C)c1ccc(C(N)=O)nn1
REMARK SMILES IDX 7 1 6 2 5 3 3 4 4 5 2 7 1 8 78 9 79 10 80 11 81 12 88 13
REMARK SMILES IDX 82 14 87 15 83 16 84 17 85 18 86 19 8 22 9 23 10 24 11 26
REMARK SMILES IDX 12 27 13 28 77 29 14 30 76 31 15 32 16 33 17 34 70 35 18 36
REMARK SMILES IDX 75 37 69 38 71 39 19 40 74 41 68 42 67 43 20 45 54 46 33 47
REMARK SMILES IDX 53 48 34 49 37 50 52 51 72 52 35 53 36 54 51 56 73 57 38 58
REMARK SMILES IDX 21 59 22 60 31 61 23 62 24 63 30 64 32 65 25 66 26 67 27 68
REMARK SMILES IDX 28 69 29 70 55 71 56 72 65 73 57 74 58 75 64 76 66 77 59 78
REMARK SMILES IDX 60 79 61 80 62 81 63 82 39 83 40 84 49 85 41 86 42 87 48 88
REMARK SMILES IDX 50 89 43 90 44 91 45 92 46 93 47 94
REMARK H PARENT 5 6 85 20 85 21 9 25 71 44 37 55
REMARK Flexibility Score: inf
ROOT
ATOM      1  C   UNL A   1      32.252  28.172  27.466  1.00  0.00     0.042 C 
ENDROOT
BRANCH   1   2
ATOM      2  C   UNL A   1      31.425  27.961  26.199  1.00  0.00     0.117 C 
BRANCH   2   3
ATOM      3  N   UNL A   1      32.031  28.594  25.042  1.00  0.00    -0.354 N 
ATOM      4  C   UNL A   1      31.979  28.273  23.714  1.00  0.00     0.242 C 
ATOM      5  O   UNL A   1      32.585  29.035  22.956  1.00  0.00    -0.273 OA
ATOM      6  H   UNL A   1      32.571  29.391  25.250  1.00  0.00     0.163 HD
BRANCH   4   7
ATOM      7  C   UNL A   1      31.133  27.061  23.222  1.00  0.00     0.169 C 
ATOM      8  C   UNL A   1      31.686  26.378  21.971  1.00  0.00     0.042 C 
BRANCH   7   9
ATOM      9  N   UNL A   1      29.683  27.385  23.067  1.00  0.00    -0.346 N 
ATOM     10  C   UNL A   1      28.762  26.681  23.956  1.00  0.00     0.146 C 
BRANCH   9  11
ATOM     11  C   UNL A   1      29.249  28.662  22.693  1.00  0.00     0.151 A 
ATOM     12  C   UNL A   1      28.337  29.384  23.456  1.00  0.00     0.051 A 
ATOM     13  N   UNL A   1      29.761  29.259  21.586  1.00  0.00    -0.132 NA
ATOM     14  C   UNL A   1      27.917  30.656  23.064  1.00  0.00     0.040 A 
ATOM     15  N   UNL A   1      29.349  30.517  21.169  1.00  0.00    -0.143 NA
ATOM     16  C   UNL A   1      28.435  31.184  21.903  1.00  0.00     0.150 A 
BRANCH  16  17
ATOM     17  C   UNL A   1      28.020  32.530  21.426  1.00  0.00     0.269 C 
ATOM     18  N   UNL A   1      27.614  32.618  20.121  1.00  0.00    -0.364 N 
ATOM     19  O   UNL A   1      28.035  33.518  22.153  1.00  0.00    -0.268 OA
ATOM     20  H   UNL A   1      27.609  31.815  19.552  1.00  0.00     0.160 HD
ATOM     21  H   UNL A   1      27.328  33.485  19.752  1.00  0.00     0.160 HD
ENDBRANCH  16  17
ENDBRANCH   9  11
ENDBRANCH   7   9
ENDBRANCH   4   7
ENDBRANCH   2   3
ENDBRANCH   1   2
BRANCH   1  22
ATOM     22  C   UNL A   1      33.591  28.873  27.229  1.00  0.00     0.118 C 
BRANCH  22  23
ATOM     23  N   UNL A   1      33.623  30.221  27.784  1.00  0.00    -0.352 N 
ATOM     24  C   UNL A   1      34.597  30.861  28.511  1.00  0.00     0.251 C 
ATOM     25  H   UNL A   1      32.817  30.757  27.611  1.00  0.00     0.163 HD
ATOM     26  O   UNL A   1      34.334  31.932  29.053  1.00  0.00    -0.269 OA
BRANCH  24  27
ATOM     27  C   UNL A   1      35.942  30.264  28.667  1.00  0.00     0.039 A 
ATOM     28  C   UNL A   1      36.776  30.182  27.547  1.00  0.00     0.014 A 
ATOM     29  C   UNL A   1      36.380  29.774  29.900  1.00  0.00     0.014 A 
ATOM     30  C   UNL A   1      38.079  29.695  27.685  1.00  0.00     0.010 A 
ATOM     31  C   UNL A   1      37.700  29.345  30.048  1.00  0.00     0.010 A 
ATOM     32  C   UNL A   1      38.570  29.326  28.947  1.00  0.00    -0.014 A 
BRANCH  32  33
ATOM     33  C   UNL A   1      40.008  29.001  29.152  1.00  0.00     0.031 A 
ATOM     34  C   UNL A   1      40.986  30.063  29.572  1.00  0.00     0.074 A 
ATOM     35  C   UNL A   1      40.442  27.757  28.859  1.00  0.00     0.049 A 
ATOM     36  N   UNL A   1      42.287  29.983  29.687  1.00  0.00    -0.248 NA
ATOM     37  C   UNL A   1      40.438  31.392  29.888  1.00  0.00     0.031 C 
ATOM     38  C   UNL A   1      39.595  26.653  28.398  1.00  0.00     0.029 A 
ATOM     39  N   UNL A   1      41.704  27.215  28.876  1.00  0.00    -0.354 N 
ATOM     40  C   UNL A   1      42.716  31.250  30.066  1.00  0.00     0.074 A 
ATOM     41  C   UNL A   1      41.539  32.088  30.142  1.00  0.00     0.031 C 
ATOM     42  C   UNL A   1      40.358  25.571  28.178  1.00  0.00     0.029 A 
ATOM     43  C   UNL A   1      41.753  25.913  28.431  1.00  0.00     0.049 A 
ATOM     44  H   UNL A   1      42.499  27.711  29.179  1.00  0.00     0.167 HD
ATOM     45  C   UNL A   1      43.976  31.666  30.334  1.00  0.00     0.037 A 
ATOM     46  C   UNL A   1      42.803  25.096  28.215  1.00  0.00     0.037 A 
ATOM     47  C   UNL A   1      45.137  30.814  30.287  1.00  0.00     0.049 A 
ATOM     48  C   UNL A   1      44.194  25.599  28.500  1.00  0.00     0.074 A 
ATOM     49  C   UNL A   1      46.440  31.122  30.643  1.00  0.00     0.029 A 
ATOM     50  N   UNL A   1      45.145  29.500  29.846  1.00  0.00    -0.354 N 
ATOM     51  N   UNL A   1      44.567  26.768  28.963  1.00  0.00    -0.248 NA
ATOM     52  C   UNL A   1      45.306  24.677  28.229  1.00  0.00     0.031 C 
ATOM     53  C   UNL A   1      47.245  30.018  30.354  1.00  0.00     0.029 A 
ATOM     54  C   UNL A   1      46.436  29.000  29.873  1.00  0.00     0.049 A 
ATOM     55  H   UNL A   1      44.350  28.996  29.557  1.00  0.00     0.167 HD
ATOM     56  C   UNL A   1      45.953  26.714  29.053  1.00  0.00     0.074 A 
ATOM     57  C   UNL A   1      46.352  25.391  28.623  1.00  0.00     0.031 C 
ATOM     58  C   UNL A   1      46.820  27.678  29.449  1.00  0.00     0.037 A 
BRANCH  45  59
ATOM     59  C   UNL A   1      44.194  33.107  30.704  1.00  0.00     0.058 A 
ATOM     60  C   UNL A   1      44.427  34.092  29.734  1.00  0.00     0.135 A 
ATOM     61  C   UNL A   1      44.043  33.524  32.038  1.00  0.00     0.135 A 
ATOM     62  F   UNL A   1      44.592  33.747  28.446  1.00  0.00    -0.206 F 
ATOM     63  C   UNL A   1      44.498  35.440  30.070  1.00  0.00     0.059 A 
ATOM     64  C   UNL A   1      44.088  34.868  32.394  1.00  0.00     0.059 A 
ATOM     65  F   UNL A   1      43.821  32.621  33.007  1.00  0.00    -0.206 F 
ATOM     66  C   UNL A   1      44.316  35.819  31.401  1.00  0.00     0.060 A 
BRANCH  66  67
ATOM     67  S   UNL A   1      44.346  37.578  31.807  1.00  0.00     0.124 S 
ATOM     68  O   UNL A   1      45.778  37.821  31.949  1.00  0.00    -0.237 OA
ATOM     69  O   UNL A   1      43.717  38.179  30.634  1.00  0.00    -0.237 OA
ATOM     70  O   UNL A   1      43.571  37.658  33.041  1.00  0.00    -0.744 OA
ENDBRANCH  66  67
ENDBRANCH  45  59
BRANCH  46  71
ATOM     71  C   UNL A   1      42.594  23.727  27.666  1.00  0.00     0.058 A 
ATOM     72  C   UNL A   1      42.464  22.616  28.512  1.00  0.00     0.135 A 
ATOM     73  C   UNL A   1      42.561  23.498  26.280  1.00  0.00     0.135 A 
ATOM     74  F   UNL A   1      42.495  22.781  29.843  1.00  0.00    -0.206 F 
ATOM     75  C   UNL A   1      42.348  21.325  28.008  1.00  0.00     0.059 A 
ATOM     76  C   UNL A   1      42.413  22.220  25.753  1.00  0.00     0.059 A 
ATOM     77  F   UNL A   1      42.663  24.527  25.424  1.00  0.00    -0.206 F 
ATOM     78  C   UNL A   1      42.328  21.136  26.625  1.00  0.00     0.060 A 
BRANCH  78  79
ATOM     79  S   UNL A   1      42.176  19.458  25.979  1.00  0.00     0.124 S 
ATOM     80  O   UNL A   1      40.740  19.368  25.736  1.00  0.00    -0.237 OA
ATOM     81  O   UNL A   1      43.023  19.509  24.790  1.00  0.00    -0.237 OA
ATOM     82  O   UNL A   1      42.686  18.633  27.068  1.00  0.00    -0.744 OA
ENDBRANCH  78  79
ENDBRANCH  46  71
BRANCH  58  83
ATOM     83  C   UNL A   1      48.285  27.342  29.449  1.00  0.00     0.058 A 
ATOM     84  C   UNL A   1      49.109  27.653  28.356  1.00  0.00     0.135 A 
ATOM     85  C   UNL A   1      48.887  26.768  30.582  1.00  0.00     0.135 A 
ATOM     86  F   UNL A   1      48.582  28.189  27.245  1.00  0.00    -0.206 F 
ATOM     87  C   UNL A   1      50.476  27.400  28.381  1.00  0.00     0.059 A 
ATOM     88  C   UNL A   1      50.258  26.534  30.640  1.00  0.00     0.059 A 
ATOM     89  F   UNL A   1      48.146  26.457  31.657  1.00  0.00    -0.206 F 
ATOM     90  C   UNL A   1      51.043  26.848  29.532  1.00  0.00     0.060 A 
BRANCH  90  91
ATOM     91  S   UNL A   1      52.828  26.583  29.572  1.00  0.00     0.124 S 
ATOM     92  O   UNL A   1      53.329  27.952  29.620  1.00  0.00    -0.237 OA
ATOM     93  O   UNL A   1      52.999  25.802  30.793  1.00  0.00    -0.237 OA
ATOM     94  O   UNL A   1      53.093  25.861  28.331  1.00  0.00    -0.744 OA
ENDBRANCH  90  91
ENDBRANCH  58  83
ENDBRANCH  32  33
ENDBRANCH  24  27
ENDBRANCH  22  23
ENDBRANCH   1  22
TORSDOF 16
ENDMDL
