MODEL 1
REMARK VINA RESULT:     -12.4      0.000      0.000
REMARK SMILES Cc1oc(-c2ccc(Cl)cc2[N+](=O)[O-])cc1C(=O)NCCCNC(=O)c1ccc(-c2c3nc(c(-c4c(F)cc(S(=O)(=O)[O-])cc4F)c4ccc([nH]4)c(-c4c(F)cc(S(=O)(=O)[O-])cc4F)c4nc(c(-c5c(F)cc(S(=O)(=O)[O-])cc5F)c5ccc2[nH]5)C=C4)C=C3)cc1
REMARK SMILES IDX 21 1 20 2 19 3 17 4 18 5 16 7 1 8 2 9 3 10 4 11 15 12 5 13
REMARK SMILES IDX 6 14 11 15 7 16 10 17 8 18 9 19 12 20 13 21 14 22 22 23
REMARK SMILES IDX 23 24 24 25 25 27 26 28 27 29 91 30 28 31 90 32 29 33 30 34
REMARK SMILES IDX 31 35 84 36 32 37 89 38 83 39 85 40 33 41 88 42 82 43 81 44
REMARK SMILES IDX 34 46 68 47 47 48 67 49 48 50 51 51 66 52 86 53 49 54 50 55
REMARK SMILES IDX 65 57 87 58 52 59 35 60 36 61 45 62 37 63 38 64 44 65 46 66
REMARK SMILES IDX 39 67 40 68 41 69 42 70 43 71 69 72 70 73 79 74 71 75 72 76
REMARK SMILES IDX 78 77 80 78 73 79 74 80 75 81 76 82 77 83 53 84 54 85 63 86
REMARK SMILES IDX 55 87 56 88 62 89 64 90 57 91 58 92 59 93 60 94 61 95
REMARK H PARENT 19 6 23 26 85 45 51 56
REMARK Flexibility Score: inf
ROOT
ATOM      1  C   UNL A   1      37.419  23.905  25.468  1.00  0.00     0.042 C 
ENDROOT
BRANCH   1   2
ATOM      2  C   UNL A   1      36.651  22.587  25.486  1.00  0.00     0.118 C 
BRANCH   2   3
ATOM      3  N   UNL A   1      35.757  22.537  26.617  1.00  0.00    -0.352 N 
ATOM      4  C   UNL A   1      34.432  22.809  26.774  1.00  0.00     0.254 C 
ATOM      5  O   UNL A   1      34.004  22.633  27.924  1.00  0.00    -0.269 OA
ATOM      6  H   UNL A   1      36.197  22.247  27.448  1.00  0.00     0.163 HD
BRANCH   4   7
ATOM      7  C   UNL A   1      33.506  23.207  25.718  1.00  0.00     0.081 A 
ATOM      8  C   UNL A   1      32.948  21.294  23.912  1.00  0.00     0.088 C 
ATOM      9  C   UNL A   1      32.923  22.596  24.608  1.00  0.00     0.114 A 
ATOM     10  O   UNL A   1      32.100  23.480  23.962  1.00  0.00    -0.460 OA
ATOM     11  C   UNL A   1      32.175  24.668  24.597  1.00  0.00     0.142 A 
ATOM     12  C   UNL A   1      33.032  24.567  25.658  1.00  0.00     0.065 A 
BRANCH  11  13
ATOM     13  C   UNL A   1      31.403  25.743  24.015  1.00  0.00     0.095 A 
ATOM     14  C   UNL A   1      30.028  25.794  24.293  1.00  0.00     0.021 A 
ATOM     15  C   UNL A   1      31.956  26.752  23.212  1.00  0.00     0.281 A 
ATOM     16  C   UNL A   1      29.232  26.824  23.783  1.00  0.00     0.022 A 
ATOM     17  C   UNL A   1      31.164  27.790  22.696  1.00  0.00     0.107 A 
ATOM     18  C   UNL A   1      29.803  27.815  22.989  1.00  0.00     0.047 A 
ATOM     19  Cl  UNL A   1      28.818  29.072  22.354  1.00  0.00    -0.084 Cl
BRANCH  15  20
ATOM     20  N   UNL A   1      33.367  26.741  22.839  1.00  0.00     0.063 N 
ATOM     21  O   UNL A   1      34.138  27.413  23.541  1.00  0.00    -0.258 OA
ATOM     22  O   UNL A   1      33.692  26.142  21.805  1.00  0.00    -0.258 OA
ENDBRANCH  15  20
ENDBRANCH  11  13
ENDBRANCH   4   7
ENDBRANCH   2   3
ENDBRANCH   1   2
BRANCH   1  23
ATOM     23  C   UNL A   1      38.383  24.069  26.636  1.00  0.00     0.118 C 
BRANCH  23  24
ATOM     24  N   UNL A   1      39.771  24.021  26.198  1.00  0.00    -0.352 N 
ATOM     25  C   UNL A   1      40.811  24.865  26.487  1.00  0.00     0.251 C 
ATOM     26  H   UNL A   1      39.995  23.270  25.604  1.00  0.00     0.163 HD
ATOM     27  O   UNL A   1      41.837  24.802  25.804  1.00  0.00    -0.269 OA
BRANCH  25  28
ATOM     28  C   UNL A   1      40.719  25.840  27.594  1.00  0.00     0.039 A 
ATOM     29  C   UNL A   1      41.661  26.870  27.667  1.00  0.00     0.014 A 
ATOM     30  C   UNL A   1      39.743  25.716  28.588  1.00  0.00     0.014 A 
ATOM     31  C   UNL A   1      41.598  27.797  28.709  1.00  0.00     0.010 A 
ATOM     32  C   UNL A   1      39.633  26.685  29.581  1.00  0.00     0.010 A 
ATOM     33  C   UNL A   1      40.567  27.728  29.660  1.00  0.00    -0.014 A 
BRANCH  33  34
ATOM     34  C   UNL A   1      40.456  28.732  30.750  1.00  0.00     0.031 A 
ATOM     35  C   UNL A   1      41.323  28.614  31.975  1.00  0.00     0.074 A 
ATOM     36  C   UNL A   1      39.534  29.710  30.660  1.00  0.00     0.049 A 
ATOM     37  N   UNL A   1      41.324  29.348  33.059  1.00  0.00    -0.248 NA
ATOM     38  C   UNL A   1      42.296  27.511  31.999  1.00  0.00     0.031 C 
ATOM     39  C   UNL A   1      38.605  29.895  29.542  1.00  0.00     0.029 A 
ATOM     40  N   UNL A   1      39.218  30.726  31.524  1.00  0.00    -0.354 N 
ATOM     41  C   UNL A   1      42.282  28.787  33.896  1.00  0.00     0.074 A 
ATOM     42  C   UNL A   1      42.804  27.620  33.218  1.00  0.00     0.031 C 
ATOM     43  C   UNL A   1      37.839  30.971  29.780  1.00  0.00     0.029 A 
ATOM     44  C   UNL A   1      38.193  31.529  31.081  1.00  0.00     0.049 A 
ATOM     45  H   UNL A   1      39.681  30.868  32.382  1.00  0.00     0.167 HD
ATOM     46  C   UNL A   1      42.705  29.218  35.108  1.00  0.00     0.037 A 
ATOM     47  C   UNL A   1      37.601  32.591  31.660  1.00  0.00     0.037 A 
ATOM     48  C   UNL A   1      42.197  30.398  35.762  1.00  0.00     0.049 A 
ATOM     49  C   UNL A   1      38.092  33.057  33.004  1.00  0.00     0.074 A 
ATOM     50  C   UNL A   1      42.598  30.956  36.964  1.00  0.00     0.029 A 
ATOM     51  N   UNL A   1      41.178  31.200  35.269  1.00  0.00    -0.354 N 
ATOM     52  N   UNL A   1      39.042  32.550  33.754  1.00  0.00    -0.248 NA
ATOM     53  C   UNL A   1      37.440  34.242  33.576  1.00  0.00     0.031 C 
ATOM     54  C   UNL A   1      41.791  32.071  37.218  1.00  0.00     0.029 A 
ATOM     55  C   UNL A   1      40.924  32.238  36.150  1.00  0.00     0.049 A 
ATOM     56  H   UNL A   1      40.706  31.054  34.418  1.00  0.00     0.167 HD
ATOM     57  C   UNL A   1      39.120  33.370  34.875  1.00  0.00     0.074 A 
ATOM     58  C   UNL A   1      38.128  34.412  34.696  1.00  0.00     0.031 C 
ATOM     59  C   UNL A   1      39.936  33.270  35.953  1.00  0.00     0.037 A 
BRANCH  46  60
ATOM     60  C   UNL A   1      43.771  28.416  35.804  1.00  0.00     0.058 A 
ATOM     61  C   UNL A   1      45.137  28.682  35.615  1.00  0.00     0.135 A 
ATOM     62  C   UNL A   1      43.425  27.389  36.698  1.00  0.00     0.135 A 
ATOM     63  F   UNL A   1      45.527  29.642  34.762  1.00  0.00    -0.206 F 
ATOM     64  C   UNL A   1      46.120  27.939  36.259  1.00  0.00     0.059 A 
ATOM     65  C   UNL A   1      44.392  26.653  37.376  1.00  0.00     0.059 A 
ATOM     66  F   UNL A   1      42.134  27.090  36.918  1.00  0.00    -0.206 F 
ATOM     67  C   UNL A   1      45.738  26.925  37.139  1.00  0.00     0.060 A 
BRANCH  67  68
ATOM     68  S   UNL A   1      47.027  25.973  37.970  1.00  0.00     0.124 S 
ATOM     69  O   UNL A   1      47.046  26.598  39.288  1.00  0.00    -0.237 OA
ATOM     70  O   UNL A   1      46.493  24.615  37.920  1.00  0.00    -0.237 OA
ATOM     71  O   UNL A   1      48.208  26.209  37.145  1.00  0.00    -0.744 OA
ENDBRANCH  67  68
ENDBRANCH  46  60
BRANCH  47  72
ATOM     72  C   UNL A   1      36.495  33.297  30.961  1.00  0.00     0.058 A 
ATOM     73  C   UNL A   1      35.168  33.169  31.397  1.00  0.00     0.135 A 
ATOM     74  C   UNL A   1      36.742  34.131  29.859  1.00  0.00     0.135 A 
ATOM     75  F   UNL A   1      34.880  32.381  32.445  1.00  0.00    -0.206 F 
ATOM     76  C   UNL A   1      34.122  33.826  30.758  1.00  0.00     0.059 A 
ATOM     77  C   UNL A   1      35.717  34.819  29.218  1.00  0.00     0.059 A 
ATOM     78  F   UNL A   1      37.997  34.303  29.415  1.00  0.00    -0.206 F 
ATOM     79  C   UNL A   1      34.408  34.652  29.669  1.00  0.00     0.060 A 
BRANCH  79  80
ATOM     80  S   UNL A   1      33.051  35.541  28.877  1.00  0.00     0.124 S 
ATOM     81  O   UNL A   1      33.771  36.515  28.065  1.00  0.00    -0.237 OA
ATOM     82  O   UNL A   1      32.373  34.475  28.145  1.00  0.00    -0.237 OA
ATOM     83  O   UNL A   1      32.304  36.088  30.006  1.00  0.00    -0.744 OA
ENDBRANCH  79  80
ENDBRANCH  47  72
BRANCH  59  84
ATOM     84  C   UNL A   1      39.817  34.333  37.009  1.00  0.00     0.058 A 
ATOM     85  C   UNL A   1      40.457  35.576  36.881  1.00  0.00     0.135 A 
ATOM     86  C   UNL A   1      39.011  34.123  38.139  1.00  0.00     0.135 A 
ATOM     87  F   UNL A   1      41.245  35.825  35.822  1.00  0.00    -0.206 F 
ATOM     88  C   UNL A   1      40.323  36.565  37.850  1.00  0.00     0.059 A 
ATOM     89  C   UNL A   1      38.840  35.109  39.107  1.00  0.00     0.059 A 
ATOM     90  F   UNL A   1      38.368  32.956  38.305  1.00  0.00    -0.206 F 
ATOM     91  C   UNL A   1      39.510  36.321  38.959  1.00  0.00     0.060 A 
BRANCH  91  92
ATOM     92  S   UNL A   1      39.320  37.624  40.194  1.00  0.00     0.124 S 
ATOM     93  O   UNL A   1      40.656  38.209  40.213  1.00  0.00    -0.237 OA
ATOM     94  O   UNL A   1      38.271  38.456  39.611  1.00  0.00    -0.237 OA
ATOM     95  O   UNL A   1      38.935  36.896  41.399  1.00  0.00    -0.744 OA
ENDBRANCH  91  92
ENDBRANCH  59  84
ENDBRANCH  33  34
ENDBRANCH  25  28
ENDBRANCH  23  24
ENDBRANCH   1  23
TORSDOF 15
ENDMDL
MODEL 2
REMARK VINA RESULT:     -12.3      5.054     10.551
REMARK SMILES Cc1oc(-c2ccc(Cl)cc2[N+](=O)[O-])cc1C(=O)NCCCNC(=O)c1ccc(-c2c3nc(c(-c4c(F)cc(S(=O)(=O)[O-])cc4F)c4ccc([nH]4)c(-c4c(F)cc(S(=O)(=O)[O-])cc4F)c4nc(c(-c5c(F)cc(S(=O)(=O)[O-])cc5F)c5ccc2[nH]5)C=C4)C=C3)cc1
REMARK SMILES IDX 21 1 20 2 19 3 17 4 18 5 16 7 1 8 2 9 3 10 4 11 15 12 5 13
REMARK SMILES IDX 6 14 11 15 7 16 10 17 8 18 9 19 12 20 13 21 14 22 22 23
REMARK SMILES IDX 23 24 24 25 25 27 26 28 27 29 91 30 28 31 90 32 29 33 30 34
REMARK SMILES IDX 31 35 84 36 32 37 89 38 83 39 85 40 33 41 88 42 82 43 81 44
REMARK SMILES IDX 34 46 68 47 47 48 67 49 48 50 51 51 66 52 86 53 49 54 50 55
REMARK SMILES IDX 65 57 87 58 52 59 35 60 36 61 45 62 37 63 38 64 44 65 46 66
REMARK SMILES IDX 39 67 40 68 41 69 42 70 43 71 69 72 70 73 79 74 71 75 72 76
REMARK SMILES IDX 78 77 80 78 73 79 74 80 75 81 76 82 77 83 53 84 54 85 63 86
REMARK SMILES IDX 55 87 56 88 62 89 64 90 57 91 58 92 59 93 60 94 61 95
REMARK H PARENT 19 6 23 26 85 45 51 56
REMARK Flexibility Score: inf
ROOT
ATOM      1  C   UNL A   1      34.042  27.982  25.466  1.00  0.00     0.042 C 
ENDROOT
BRANCH   1   2
ATOM      2  C   UNL A   1      32.844  27.459  24.679  1.00  0.00     0.118 C 
BRANCH   2   3
ATOM      3  N   UNL A   1      33.251  27.025  23.365  1.00  0.00    -0.352 N 
ATOM      4  C   UNL A   1      33.257  25.816  22.739  1.00  0.00     0.254 C 
ATOM      5  O   UNL A   1      33.681  25.842  21.574  1.00  0.00    -0.269 OA
ATOM      6  H   UNL A   1      33.598  27.756  22.805  1.00  0.00     0.163 HD
BRANCH   4   7
ATOM      7  C   UNL A   1      32.757  24.560  23.292  1.00  0.00     0.081 A 
ATOM      8  C   UNL A   1      30.604  24.795  24.886  1.00  0.00     0.088 C 
ATOM      9  C   UNL A   1      31.706  24.175  24.123  1.00  0.00     0.114 A 
ATOM     10  O   UNL A   1      31.718  22.817  24.299  1.00  0.00    -0.460 OA
ATOM     11  C   UNL A   1      32.785  22.316  23.643  1.00  0.00     0.142 A 
ATOM     12  C   UNL A   1      33.466  23.332  23.031  1.00  0.00     0.065 A 
BRANCH  11  13
ATOM     13  C   UNL A   1      32.987  20.890  23.764  1.00  0.00     0.095 A 
ATOM     14  C   UNL A   1      32.210  20.042  22.957  1.00  0.00     0.021 A 
ATOM     15  C   UNL A   1      33.932  20.307  24.622  1.00  0.00     0.281 A 
ATOM     16  C   UNL A   1      32.377  18.656  23.006  1.00  0.00     0.022 A 
ATOM     17  C   UNL A   1      34.106  18.914  24.677  1.00  0.00     0.107 A 
ATOM     18  C   UNL A   1      33.322  18.100  23.865  1.00  0.00     0.047 A 
ATOM     19  Cl  UNL A   1      33.514  16.393  23.932  1.00  0.00    -0.084 Cl
BRANCH  15  20
ATOM     20  N   UNL A   1      34.741  21.118  25.526  1.00  0.00     0.063 N 
ATOM     21  O   UNL A   1      35.868  21.447  25.126  1.00  0.00    -0.258 OA
ATOM     22  O   UNL A   1      34.296  21.348  26.658  1.00  0.00    -0.258 OA
ENDBRANCH  15  20
ENDBRANCH  11  13
ENDBRANCH   4   7
ENDBRANCH   2   3
ENDBRANCH   1   2
BRANCH   1  23
ATOM     23  C   UNL A   1      33.766  28.160  26.954  1.00  0.00     0.118 C 
BRANCH  23  24
ATOM     24  N   UNL A   1      33.604  29.563  27.306  1.00  0.00    -0.352 N 
ATOM     25  C   UNL A   1      34.431  30.391  28.017  1.00  0.00     0.251 C 
ATOM     26  H   UNL A   1      32.772  29.980  26.984  1.00  0.00     0.163 HD
ATOM     27  O   UNL A   1      33.988  31.465  28.432  1.00  0.00    -0.269 OA
BRANCH  25  28
ATOM     28  C   UNL A   1      35.834  30.015  28.293  1.00  0.00     0.039 A 
ATOM     29  C   UNL A   1      36.768  30.079  27.254  1.00  0.00     0.014 A 
ATOM     30  C   UNL A   1      36.224  29.551  29.553  1.00  0.00     0.014 A 
ATOM     31  C   UNL A   1      38.096  29.721  27.490  1.00  0.00     0.010 A 
ATOM     32  C   UNL A   1      37.564  29.270  29.808  1.00  0.00     0.010 A 
ATOM     33  C   UNL A   1      38.511  29.339  28.776  1.00  0.00    -0.014 A 
BRANCH  33  34
ATOM     34  C   UNL A   1      39.929  28.998  29.058  1.00  0.00     0.031 A 
ATOM     35  C   UNL A   1      40.852  30.031  29.647  1.00  0.00     0.074 A 
ATOM     36  C   UNL A   1      40.396  27.778  28.727  1.00  0.00     0.049 A 
ATOM     37  N   UNL A   1      42.133  29.946  29.899  1.00  0.00    -0.248 NA
ATOM     38  C   UNL A   1      40.265  31.342  29.969  1.00  0.00     0.031 C 
ATOM     39  C   UNL A   1      39.607  26.711  28.106  1.00  0.00     0.029 A 
ATOM     40  N   UNL A   1      41.647  27.232  28.856  1.00  0.00    -0.354 N 
ATOM     41  C   UNL A   1      42.506  31.192  30.391  1.00  0.00     0.074 A 
ATOM     42  C   UNL A   1      41.329  32.031  30.353  1.00  0.00     0.031 C 
ATOM     43  C   UNL A   1      40.388  25.633  27.928  1.00  0.00     0.029 A 
ATOM     44  C   UNL A   1      41.738  25.943  28.385  1.00  0.00     0.049 A 
ATOM     45  H   UNL A   1      42.409  27.717  29.249  1.00  0.00     0.167 HD
ATOM     46  C   UNL A   1      43.715  31.592  30.855  1.00  0.00     0.037 A 
ATOM     47  C   UNL A   1      42.793  25.108  28.321  1.00  0.00     0.037 A 
ATOM     48  C   UNL A   1      44.874  30.738  30.914  1.00  0.00     0.049 A 
ATOM     49  C   UNL A   1      44.123  25.571  28.849  1.00  0.00     0.074 A 
ATOM     50  C   UNL A   1      46.130  31.026  31.421  1.00  0.00     0.029 A 
ATOM     51  N   UNL A   1      44.920  29.430  30.452  1.00  0.00    -0.354 N 
ATOM     52  N   UNL A   1      44.444  26.733  29.369  1.00  0.00    -0.248 NA
ATOM     53  C   UNL A   1      45.233  24.610  28.791  1.00  0.00     0.031 C 
ATOM     54  C   UNL A   1      46.947  29.907  31.225  1.00  0.00     0.029 A 
ATOM     55  C   UNL A   1      46.186  28.904  30.644  1.00  0.00     0.049 A 
ATOM     56  H   UNL A   1      44.163  28.948  30.048  1.00  0.00     0.167 HD
ATOM     57  C   UNL A   1      45.784  26.633  29.724  1.00  0.00     0.074 A 
ATOM     58  C   UNL A   1      46.210  25.294  29.372  1.00  0.00     0.031 C 
ATOM     59  C   UNL A   1      46.590  27.565  30.291  1.00  0.00     0.037 A 
BRANCH  46  60
ATOM     60  C   UNL A   1      43.844  33.010  31.340  1.00  0.00     0.058 A 
ATOM     61  C   UNL A   1      43.706  33.342  32.698  1.00  0.00     0.135 A 
ATOM     62  C   UNL A   1      44.142  34.049  30.443  1.00  0.00     0.135 A 
ATOM     63  F   UNL A   1      43.406  32.392  33.599  1.00  0.00    -0.206 F 
ATOM     64  C   UNL A   1      43.825  34.654  33.144  1.00  0.00     0.059 A 
ATOM     65  C   UNL A   1      44.295  35.364  30.871  1.00  0.00     0.059 A 
ATOM     66  F   UNL A   1      44.285  33.791  29.133  1.00  0.00    -0.206 F 
ATOM     67  C   UNL A   1      44.120  35.659  32.222  1.00  0.00     0.060 A 
BRANCH  67  68
ATOM     68  S   UNL A   1      44.276  37.357  32.818  1.00  0.00     0.124 S 
ATOM     69  O   UNL A   1      44.326  38.101  31.565  1.00  0.00    -0.237 OA
ATOM     70  O   UNL A   1      43.058  37.523  33.605  1.00  0.00    -0.237 OA
ATOM     71  O   UNL A   1      45.516  37.335  33.587  1.00  0.00    -0.744 OA
ENDBRANCH  67  68
ENDBRANCH  46  60
BRANCH  47  72
ATOM     72  C   UNL A   1      42.626  23.742  27.755  1.00  0.00     0.058 A 
ATOM     73  C   UNL A   1      42.446  22.632  28.593  1.00  0.00     0.135 A 
ATOM     74  C   UNL A   1      42.619  23.523  26.369  1.00  0.00     0.135 A 
ATOM     75  F   UNL A   1      42.449  22.790  29.925  1.00  0.00    -0.206 F 
ATOM     76  C   UNL A   1      42.283  21.349  28.079  1.00  0.00     0.059 A 
ATOM     77  C   UNL A   1      42.432  22.255  25.830  1.00  0.00     0.059 A 
ATOM     78  F   UNL A   1      42.767  24.556  25.524  1.00  0.00    -0.206 F 
ATOM     79  C   UNL A   1      42.275  21.172  26.694  1.00  0.00     0.060 A 
BRANCH  79  80
ATOM     80  S   UNL A   1      42.013  19.511  26.036  1.00  0.00     0.124 S 
ATOM     81  O   UNL A   1      42.467  18.680  27.146  1.00  0.00    -0.237 OA
ATOM     82  O   UNL A   1      40.576  19.506  25.779  1.00  0.00    -0.237 OA
ATOM     83  O   UNL A   1      42.855  19.486  24.843  1.00  0.00    -0.744 OA
ENDBRANCH  79  80
ENDBRANCH  47  72
BRANCH  59  84
ATOM     84  C   UNL A   1      48.005  27.160  30.598  1.00  0.00     0.058 A 
ATOM     85  C   UNL A   1      49.046  27.360  29.679  1.00  0.00     0.135 A 
ATOM     86  C   UNL A   1      48.329  26.610  31.849  1.00  0.00     0.135 A 
ATOM     87  F   UNL A   1      48.788  27.876  28.467  1.00  0.00    -0.206 F 
ATOM     88  C   UNL A   1      50.357  27.005  29.979  1.00  0.00     0.059 A 
ATOM     89  C   UNL A   1      49.638  26.274  32.181  1.00  0.00     0.059 A 
ATOM     90  F   UNL A   1      47.372  26.407  32.768  1.00  0.00    -0.206 F 
ATOM     91  C   UNL A   1      50.643  26.464  31.234  1.00  0.00     0.060 A 
BRANCH  91  92
ATOM     92  S   UNL A   1      52.353  26.036  31.623  1.00  0.00     0.124 S 
ATOM     93  O   UNL A   1      52.663  26.994  32.679  1.00  0.00    -0.237 OA
ATOM     94  O   UNL A   1      52.238  24.642  32.044  1.00  0.00    -0.237 OA
ATOM     95  O   UNL A   1      53.051  26.246  30.358  1.00  0.00    -0.744 OA
ENDBRANCH  91  92
ENDBRANCH  59  84
ENDBRANCH  33  34
ENDBRANCH  25  28
ENDBRANCH  23  24
ENDBRANCH   1  23
TORSDOF 15
ENDMDL
MODEL 3
REMARK VINA RESULT:     -12.2      6.782     12.155
REMARK SMILES Cc1oc(-c2ccc(Cl)cc2[N+](=O)[O-])cc1C(=O)NCCCNC(=O)c1ccc(-c2c3nc(c(-c4c(F)cc(S(=O)(=O)[O-])cc4F)c4ccc([nH]4)c(-c4c(F)cc(S(=O)(=O)[O-])cc4F)c4nc(c(-c5c(F)cc(S(=O)(=O)[O-])cc5F)c5ccc2[nH]5)C=C4)C=C3)cc1
REMARK SMILES IDX 21 1 20 2 19 3 17 4 18 5 16 7 1 8 2 9 3 10 4 11 15 12 5 13
REMARK SMILES IDX 6 14 11 15 7 16 10 17 8 18 9 19 12 20 13 21 14 22 22 23
REMARK SMILES IDX 23 24 24 25 25 27 26 28 27 29 91 30 28 31 90 32 29 33 30 34
REMARK SMILES IDX 31 35 84 36 32 37 89 38 83 39 85 40 33 41 88 42 82 43 81 44
REMARK SMILES IDX 34 46 68 47 47 48 67 49 48 50 51 51 66 52 86 53 49 54 50 55
REMARK SMILES IDX 65 57 87 58 52 59 35 60 36 61 45 62 37 63 38 64 44 65 46 66
REMARK SMILES IDX 39 67 40 68 41 69 42 70 43 71 69 72 70 73 79 74 71 75 72 76
REMARK SMILES IDX 78 77 80 78 73 79 74 80 75 81 76 82 77 83 53 84 54 85 63 86
REMARK SMILES IDX 55 87 56 88 62 89 64 90 57 91 58 92 59 93 60 94 61 95
REMARK H PARENT 19 6 23 26 85 45 51 56
REMARK Flexibility Score: inf
ROOT
ATOM      1  C   UNL A   1      34.730  29.750  27.524  1.00  0.00     0.042 C 
ENDROOT
BRANCH   1   2
ATOM      2  C   UNL A   1      33.459  30.088  26.750  1.00  0.00     0.118 C 
BRANCH   2   3
ATOM      3  N   UNL A   1      32.413  29.144  27.056  1.00  0.00    -0.352 N 
ATOM      4  C   UNL A   1      32.172  27.859  26.676  1.00  0.00     0.254 C 
ATOM      5  O   UNL A   1      31.150  27.359  27.169  1.00  0.00    -0.269 OA
ATOM      6  H   UNL A   1      31.730  29.505  27.666  1.00  0.00     0.163 HD
BRANCH   4   7
ATOM      7  C   UNL A   1      33.029  27.040  25.823  1.00  0.00     0.081 A 
ATOM      8  C   UNL A   1      33.568  28.090  23.406  1.00  0.00     0.088 C 
ATOM      9  C   UNL A   1      33.579  27.152  24.547  1.00  0.00     0.114 A 
ATOM     10  O   UNL A   1      34.336  26.046  24.262  1.00  0.00    -0.460 OA
ATOM     11  C   UNL A   1      34.248  25.195  25.305  1.00  0.00     0.142 A 
ATOM     12  C   UNL A   1      33.449  25.737  26.273  1.00  0.00     0.065 A 
BRANCH  11  13
ATOM     13  C   UNL A   1      34.950  23.939  25.154  1.00  0.00     0.095 A 
ATOM     14  C   UNL A   1      36.277  23.867  25.607  1.00  0.00     0.021 A 
ATOM     15  C   UNL A   1      34.371  22.785  24.606  1.00  0.00     0.281 A 
ATOM     16  C   UNL A   1      37.000  22.674  25.516  1.00  0.00     0.022 A 
ATOM     17  C   UNL A   1      35.091  21.583  24.511  1.00  0.00     0.107 A 
ATOM     18  C   UNL A   1      36.404  21.540  24.968  1.00  0.00     0.047 A 
ATOM     19  Cl  UNL A   1      37.303  20.080  24.846  1.00  0.00    -0.084 Cl
BRANCH  15  20
ATOM     20  N   UNL A   1      33.013  22.795  24.070  1.00  0.00     0.063 N 
ATOM     21  O   UNL A   1      32.091  22.596  24.875  1.00  0.00    -0.258 OA
ATOM     22  O   UNL A   1      32.872  22.909  22.845  1.00  0.00    -0.258 OA
ENDBRANCH  15  20
ENDBRANCH  11  13
ENDBRANCH   4   7
ENDBRANCH   2   3
ENDBRANCH   1   2
BRANCH   1  23
ATOM     23  C   UNL A   1      35.443  30.970  28.094  1.00  0.00     0.118 C 
BRANCH  23  24
ATOM     24  N   UNL A   1      35.407  30.983  29.549  1.00  0.00    -0.352 N 
ATOM     25  C   UNL A   1      36.314  30.499  30.453  1.00  0.00     0.251 C 
ATOM     26  H   UNL A   1      34.608  31.402  29.943  1.00  0.00     0.163 HD
ATOM     27  O   UNL A   1      35.971  30.369  31.632  1.00  0.00    -0.269 OA
BRANCH  25  28
ATOM     28  C   UNL A   1      37.684  30.132  30.038  1.00  0.00     0.039 A 
ATOM     29  C   UNL A   1      38.610  29.758  31.017  1.00  0.00     0.014 A 
ATOM     30  C   UNL A   1      38.078  30.203  28.698  1.00  0.00     0.014 A 
ATOM     31  C   UNL A   1      39.912  29.416  30.648  1.00  0.00     0.010 A 
ATOM     32  C   UNL A   1      39.352  29.786  28.323  1.00  0.00     0.010 A 
ATOM     33  C   UNL A   1      40.287  29.401  29.295  1.00  0.00    -0.014 A 
BRANCH  33  34
ATOM     34  C   UNL A   1      41.654  28.996  28.879  1.00  0.00     0.031 A 
ATOM     35  C   UNL A   1      42.760  30.016  28.824  1.00  0.00     0.074 A 
ATOM     36  C   UNL A   1      41.881  27.724  28.494  1.00  0.00     0.049 A 
ATOM     37  N   UNL A   1      43.997  29.872  28.421  1.00  0.00    -0.248 NA
ATOM     38  C   UNL A   1      42.425  31.384  29.250  1.00  0.00     0.031 C 
ATOM     39  C   UNL A   1      40.875  26.660  28.459  1.00  0.00     0.029 A 
ATOM     40  N   UNL A   1      43.025  27.113  28.050  1.00  0.00    -0.354 N 
ATOM     41  C   UNL A   1      44.580  31.129  28.530  1.00  0.00     0.074 A 
ATOM     42  C   UNL A   1      43.548  32.035  28.986  1.00  0.00     0.031 C 
ATOM     43  C   UNL A   1      41.452  25.523  28.037  1.00  0.00     0.029 A 
ATOM     44  C   UNL A   1      42.855  25.785  27.735  1.00  0.00     0.049 A 
ATOM     45  H   UNL A   1      43.887  27.581  27.963  1.00  0.00     0.167 HD
ATOM     46  C   UNL A   1      45.864  31.490  28.295  1.00  0.00     0.037 A 
ATOM     47  C   UNL A   1      43.730  24.882  27.252  1.00  0.00     0.037 A 
ATOM     48  C   UNL A   1      46.890  30.573  27.868  1.00  0.00     0.049 A 
ATOM     49  C   UNL A   1      45.152  25.304  27.005  1.00  0.00     0.074 A 
ATOM     50  C   UNL A   1      48.235  30.824  27.658  1.00  0.00     0.029 A 
ATOM     51  N   UNL A   1      46.685  29.230  27.586  1.00  0.00    -0.354 N 
ATOM     52  N   UNL A   1      45.702  26.484  27.172  1.00  0.00    -0.248 NA
ATOM     53  C   UNL A   1      46.076  24.274  26.513  1.00  0.00     0.031 C 
ATOM     54  C   UNL A   1      48.834  29.642  27.207  1.00  0.00     0.029 A 
ATOM     55  C   UNL A   1      47.874  28.643  27.186  1.00  0.00     0.049 A 
ATOM     56  H   UNL A   1      45.822  28.763  27.660  1.00  0.00     0.167 HD
ATOM     57  C   UNL A   1      47.042  26.331  26.832  1.00  0.00     0.074 A 
ATOM     58  C   UNL A   1      47.220  24.941  26.461  1.00  0.00     0.031 C 
ATOM     59  C   UNL A   1      48.033  27.256  26.826  1.00  0.00     0.037 A 
BRANCH  46  60
ATOM     60  C   UNL A   1      46.233  32.935  28.499  1.00  0.00     0.058 A 
ATOM     61  C   UNL A   1      46.649  33.422  29.749  1.00  0.00     0.135 A 
ATOM     62  C   UNL A   1      46.205  33.839  27.425  1.00  0.00     0.135 A 
ATOM     63  F   UNL A   1      46.682  32.606  30.815  1.00  0.00    -0.206 F 
ATOM     64  C   UNL A   1      46.990  34.757  29.936  1.00  0.00     0.059 A 
ATOM     65  C   UNL A   1      46.571  35.173  27.581  1.00  0.00     0.059 A 
ATOM     66  F   UNL A   1      45.816  33.430  26.206  1.00  0.00    -0.206 F 
ATOM     67  C   UNL A   1      46.947  35.626  28.845  1.00  0.00     0.060 A 
BRANCH  67  68
ATOM     68  S   UNL A   1      47.396  37.356  29.103  1.00  0.00     0.124 S 
ATOM     69  O   UNL A   1      46.108  38.019  28.931  1.00  0.00    -0.237 OA
ATOM     70  O   UNL A   1      47.924  37.341  30.464  1.00  0.00    -0.237 OA
ATOM     71  O   UNL A   1      48.380  37.611  28.055  1.00  0.00    -0.744 OA
ENDBRANCH  67  68
ENDBRANCH  46  60
BRANCH  47  72
ATOM     72  C   UNL A   1      43.287  23.486  26.991  1.00  0.00     0.058 A 
ATOM     73  C   UNL A   1      42.995  23.054  25.688  1.00  0.00     0.135 A 
ATOM     74  C   UNL A   1      43.170  22.552  28.031  1.00  0.00     0.135 A 
ATOM     75  F   UNL A   1      43.089  23.912  24.661  1.00  0.00    -0.206 F 
ATOM     76  C   UNL A   1      42.585  21.751  25.427  1.00  0.00     0.059 A 
ATOM     77  C   UNL A   1      42.786  21.236  27.792  1.00  0.00     0.059 A 
ATOM     78  F   UNL A   1      43.457  22.910  29.292  1.00  0.00    -0.206 F 
ATOM     79  C   UNL A   1      42.486  20.848  26.487  1.00  0.00     0.060 A 
BRANCH  79  80
ATOM     80  S   UNL A   1      42.001  19.145  26.131  1.00  0.00     0.124 S 
ATOM     81  O   UNL A   1      42.848  18.832  24.986  1.00  0.00    -0.237 OA
ATOM     82  O   UNL A   1      42.334  18.465  27.379  1.00  0.00    -0.237 OA
ATOM     83  O   UNL A   1      40.573  19.255  25.848  1.00  0.00    -0.744 OA
ENDBRANCH  79  80
ENDBRANCH  47  72
BRANCH  59  84
ATOM     84  C   UNL A   1      49.409  26.789  26.440  1.00  0.00     0.058 A 
ATOM     85  C   UNL A   1      50.281  26.207  27.373  1.00  0.00     0.135 A 
ATOM     86  C   UNL A   1      49.841  26.880  25.107  1.00  0.00     0.135 A 
ATOM     87  F   UNL A   1      49.919  26.103  28.662  1.00  0.00    -0.206 F 
ATOM     88  C   UNL A   1      51.543  25.754  27.004  1.00  0.00     0.059 A 
ATOM     89  C   UNL A   1      51.088  26.408  24.710  1.00  0.00     0.059 A 
ATOM     90  F   UNL A   1      49.042  27.418  24.172  1.00  0.00    -0.206 F 
ATOM     91  C   UNL A   1      51.937  25.858  25.668  1.00  0.00     0.060 A 
BRANCH  91  92
ATOM     92  S   UNL A   1      53.565  25.239  25.196  1.00  0.00     0.124 S 
ATOM     93  O   UNL A   1      54.418  25.851  26.210  1.00  0.00    -0.237 OA
ATOM     94  O   UNL A   1      53.392  23.793  25.301  1.00  0.00    -0.237 OA
ATOM     95  O   UNL A   1      53.740  25.745  23.838  1.00  0.00    -0.744 OA
ENDBRANCH  91  92
ENDBRANCH  59  84
ENDBRANCH  33  34
ENDBRANCH  25  28
ENDBRANCH  23  24
ENDBRANCH   1  23
TORSDOF 15
ENDMDL
