MODEL 1
REMARK VINA RESULT:     -11.5      0.000      0.000
REMARK SMILES C[C@H](Cc1ccco1)[NH2+]Cc1cc(C(=O)NCCCNC(=O)c2ccc(-c3c4nc(c(-c5c(F)cc(S(=O)(=O)[O-])cc5F)c5ccc([nH]5)c(-c5c(F)cc(S(=O)(=O)[O-])cc5F)c5nc(c(-c6c(F)cc(S(=O)(=O)[O-])cc6F)c6ccc3[nH]6)C=C5)C=C4)cc2)cs1
REMARK SMILES IDX 17 1 16 2 14 3 15 4 13 6 11 7 12 8 90 9 89 10 10 11 9 12
REMARK SMILES IDX 2 15 1 16 3 17 4 18 5 19 8 20 6 21 7 22 18 23 19 24 20 25
REMARK SMILES IDX 21 26 22 28 23 29 24 30 88 31 25 32 87 33 26 34 27 35 28 36
REMARK SMILES IDX 81 37 29 38 86 39 80 40 82 41 30 42 85 43 79 44 78 45 31 47
REMARK SMILES IDX 65 48 44 49 64 50 45 51 48 52 63 53 83 54 46 55 47 56 62 58
REMARK SMILES IDX 84 59 49 60 32 61 33 62 42 63 34 64 35 65 41 66 43 67 36 68
REMARK SMILES IDX 37 69 38 70 39 71 40 72 66 73 67 74 76 75 68 76 69 77 75 78
REMARK SMILES IDX 77 79 70 80 71 81 72 82 73 83 74 84 50 85 51 86 60 87 52 88
REMARK SMILES IDX 53 89 59 90 61 91 54 92 55 93 56 94 57 95 58 96
REMARK H PARENT 16 5 9 13 9 14 20 27 82 46 48 57
REMARK Flexibility Score: inf
ROOT
ATOM      1  C   UNL A   1      36.030  23.465  25.773  1.00  0.00     0.118 C 
ENDROOT
BRANCH   1   2
ATOM      2  N   UNL A   1      35.429  22.514  26.682  1.00  0.00    -0.352 N 
ATOM      3  C   UNL A   1      34.130  22.225  27.005  1.00  0.00     0.252 C 
ATOM      4  O   UNL A   1      33.968  21.303  27.805  1.00  0.00    -0.269 OA
ATOM      5  H   UNL A   1      36.087  21.963  27.165  1.00  0.00     0.163 HD
BRANCH   3   6
ATOM      6  C   UNL A   1      32.981  22.919  26.408  1.00  0.00     0.051 A 
ATOM      7  C   UNL A   1      31.350  24.533  25.860  1.00  0.00     0.059 A 
ATOM      8  C   UNL A   1      32.217  24.061  26.831  1.00  0.00     0.035 A 
ATOM      9  S   UNL A   1      31.173  23.390  24.600  1.00  0.00    -0.142 S 
ATOM     10  C   UNL A   1      32.458  22.453  25.209  1.00  0.00     0.079 A 
BRANCH   7  11
ATOM     11  C   UNL A   1      30.599  25.833  25.809  1.00  0.00     0.308 C 
BRANCH  11  12
ATOM     12  N   UNL A   1      30.281  26.266  24.447  1.00  0.00    -0.339 N 
ATOM     13  H   UNL A   1      30.311  25.437  23.852  1.00  0.00     0.346 HD
ATOM     14  H   UNL A   1      29.375  26.722  24.532  1.00  0.00     0.346 HD
BRANCH  12  15
ATOM     15  C   UNL A   1      31.143  27.281  23.821  1.00  0.00     0.187 C 
ATOM     16  C   UNL A   1      31.467  28.530  24.651  1.00  0.00     0.075 C 
BRANCH  15  17
ATOM     17  C   UNL A   1      30.587  27.709  22.436  1.00  0.00     0.140 C 
BRANCH  17  18
ATOM     18  C   UNL A   1      29.483  28.719  22.415  1.00  0.00     0.109 A 
ATOM     19  C   UNL A   1      28.273  28.890  23.061  1.00  0.00     0.046 A 
ATOM     20  O   UNL A   1      29.660  29.740  21.521  1.00  0.00    -0.469 OA
ATOM     21  C   UNL A   1      27.664  30.037  22.500  1.00  0.00     0.042 A 
ATOM     22  C   UNL A   1      28.555  30.525  21.577  1.00  0.00     0.195 A 
ENDBRANCH  17  18
ENDBRANCH  15  17
ENDBRANCH  12  15
ENDBRANCH  11  12
ENDBRANCH   7  11
ENDBRANCH   3   6
ENDBRANCH   1   2
BRANCH   1  23
ATOM     23  C   UNL A   1      37.526  23.220  25.604  1.00  0.00     0.042 C 
BRANCH  23  24
ATOM     24  C   UNL A   1      38.384  24.178  26.430  1.00  0.00     0.118 C 
BRANCH  24  25
ATOM     25  N   UNL A   1      39.807  24.001  26.163  1.00  0.00    -0.352 N 
ATOM     26  C   UNL A   1      40.883  24.768  26.534  1.00  0.00     0.251 C 
ATOM     27  H   UNL A   1      40.032  23.204  25.632  1.00  0.00     0.163 HD
ATOM     28  O   UNL A   1      41.967  24.578  25.988  1.00  0.00    -0.269 OA
BRANCH  26  29
ATOM     29  C   UNL A   1      40.746  25.812  27.572  1.00  0.00     0.039 A 
ATOM     30  C   UNL A   1      39.713  25.703  28.507  1.00  0.00     0.014 A 
ATOM     31  C   UNL A   1      41.601  26.916  27.600  1.00  0.00     0.014 A 
ATOM     32  C   UNL A   1      39.574  26.673  29.502  1.00  0.00     0.010 A 
ATOM     33  C   UNL A   1      41.512  27.838  28.639  1.00  0.00     0.010 A 
ATOM     34  C   UNL A   1      40.493  27.731  29.598  1.00  0.00    -0.014 A 
BRANCH  34  35
ATOM     35  C   UNL A   1      40.412  28.726  30.698  1.00  0.00     0.031 A 
ATOM     36  C   UNL A   1      41.297  28.593  31.908  1.00  0.00     0.074 A 
ATOM     37  C   UNL A   1      39.493  29.710  30.634  1.00  0.00     0.049 A 
ATOM     38  N   UNL A   1      41.321  29.320  32.996  1.00  0.00    -0.248 NA
ATOM     39  C   UNL A   1      42.261  27.481  31.910  1.00  0.00     0.031 C 
ATOM     40  C   UNL A   1      38.548  29.911  29.534  1.00  0.00     0.029 A 
ATOM     41  N   UNL A   1      39.194  30.718  31.515  1.00  0.00    -0.354 N 
ATOM     42  C   UNL A   1      42.287  28.747  33.815  1.00  0.00     0.074 A 
ATOM     43  C   UNL A   1      42.790  27.581  33.122  1.00  0.00     0.031 C 
ATOM     44  C   UNL A   1      37.793  30.990  29.793  1.00  0.00     0.029 A 
ATOM     45  C   UNL A   1      38.166  31.530  31.096  1.00  0.00     0.049 A 
ATOM     46  H   UNL A   1      39.670  30.847  32.367  1.00  0.00     0.167 HD
ATOM     47  C   UNL A   1      42.727  29.166  35.026  1.00  0.00     0.037 A 
ATOM     48  C   UNL A   1      37.582  32.585  31.698  1.00  0.00     0.037 A 
ATOM     49  C   UNL A   1      42.235  30.342  35.696  1.00  0.00     0.049 A 
ATOM     50  C   UNL A   1      38.087  33.029  33.043  1.00  0.00     0.074 A 
ATOM     51  C   UNL A   1      42.660  30.889  36.893  1.00  0.00     0.029 A 
ATOM     52  N   UNL A   1      41.205  31.148  35.233  1.00  0.00    -0.354 N 
ATOM     53  N   UNL A   1      39.047  32.515  33.774  1.00  0.00    -0.248 NA
ATOM     54  C   UNL A   1      37.435  34.200  33.644  1.00  0.00     0.031 C 
ATOM     55  C   UNL A   1      41.851  31.992  37.183  1.00  0.00     0.029 A 
ATOM     56  C   UNL A   1      40.962  32.172  36.135  1.00  0.00     0.049 A 
ATOM     57  H   UNL A   1      40.717  31.013  34.388  1.00  0.00     0.167 HD
ATOM     58  C   UNL A   1      39.135  33.317  34.907  1.00  0.00     0.074 A 
ATOM     59  C   UNL A   1      38.136  34.357  34.758  1.00  0.00     0.031 C 
ATOM     60  C   UNL A   1      39.967  33.203  35.972  1.00  0.00     0.037 A 
BRANCH  47  61
ATOM     61  C   UNL A   1      43.793  28.350  35.708  1.00  0.00     0.058 A 
ATOM     62  C   UNL A   1      43.475  27.300  36.585  1.00  0.00     0.135 A 
ATOM     63  C   UNL A   1      45.152  28.591  35.446  1.00  0.00     0.135 A 
ATOM     64  F   UNL A   1      42.194  27.033  36.885  1.00  0.00    -0.206 F 
ATOM     65  C   UNL A   1      44.465  26.539  37.199  1.00  0.00     0.059 A 
ATOM     66  C   UNL A   1      46.157  27.820  36.023  1.00  0.00     0.059 A 
ATOM     67  F   UNL A   1      45.515  29.581  34.616  1.00  0.00    -0.206 F 
ATOM     68  C   UNL A   1      45.804  26.805  36.909  1.00  0.00     0.060 A 
BRANCH  68  69
ATOM     69  S   UNL A   1      47.073  25.798  37.705  1.00  0.00     0.124 S 
ATOM     70  O   UNL A   1      47.386  24.838  36.651  1.00  0.00    -0.237 OA
ATOM     71  O   UNL A   1      48.113  26.779  37.996  1.00  0.00    -0.237 OA
ATOM     72  O   UNL A   1      46.390  25.247  38.871  1.00  0.00    -0.744 OA
ENDBRANCH  68  69
ENDBRANCH  47  61
BRANCH  48  73
ATOM     73  C   UNL A   1      36.471  33.303  31.018  1.00  0.00     0.058 A 
ATOM     74  C   UNL A   1      35.150  33.184  31.473  1.00  0.00     0.135 A 
ATOM     75  C   UNL A   1      36.709  34.145  29.920  1.00  0.00     0.135 A 
ATOM     76  F   UNL A   1      34.869  32.388  32.516  1.00  0.00    -0.206 F 
ATOM     77  C   UNL A   1      34.102  33.862  30.858  1.00  0.00     0.059 A 
ATOM     78  C   UNL A   1      35.682  34.855  29.306  1.00  0.00     0.059 A 
ATOM     79  F   UNL A   1      37.958  34.308  29.456  1.00  0.00    -0.206 F 
ATOM     80  C   UNL A   1      34.380  34.700  29.777  1.00  0.00     0.060 A 
BRANCH  80  81
ATOM     81  S   UNL A   1      33.020  35.621  29.025  1.00  0.00     0.124 S 
ATOM     82  O   UNL A   1      33.736  36.662  28.299  1.00  0.00    -0.237 OA
ATOM     83  O   UNL A   1      32.376  34.597  28.208  1.00  0.00    -0.237 OA
ATOM     84  O   UNL A   1      32.244  36.073  30.176  1.00  0.00    -0.744 OA
ENDBRANCH  80  81
ENDBRANCH  48  73
BRANCH  60  85
ATOM     85  C   UNL A   1      39.863  34.248  37.049  1.00  0.00     0.058 A 
ATOM     86  C   UNL A   1      40.406  35.533  36.891  1.00  0.00     0.135 A 
ATOM     87  C   UNL A   1      39.161  33.976  38.234  1.00  0.00     0.135 A 
ATOM     88  F   UNL A   1      41.092  35.845  35.780  1.00  0.00    -0.206 F 
ATOM     89  C   UNL A   1      40.277  36.503  37.880  1.00  0.00     0.059 A 
ATOM     90  C   UNL A   1      38.992  34.939  39.223  1.00  0.00     0.059 A 
ATOM     91  F   UNL A   1      38.611  32.766  38.434  1.00  0.00    -0.206 F 
ATOM     92  C   UNL A   1      39.565  36.197  39.042  1.00  0.00     0.060 A 
BRANCH  92  93
ATOM     93  S   UNL A   1      39.377  37.476  40.301  1.00  0.00     0.124 S 
ATOM     94  O   UNL A   1      40.766  37.767  40.635  1.00  0.00    -0.237 OA
ATOM     95  O   UNL A   1      38.665  38.525  39.576  1.00  0.00    -0.237 OA
ATOM     96  O   UNL A   1      38.605  36.813  41.348  1.00  0.00    -0.744 OA
ENDBRANCH  92  93
ENDBRANCH  60  85
ENDBRANCH  34  35
ENDBRANCH  26  29
ENDBRANCH  24  25
ENDBRANCH  23  24
ENDBRANCH   1  23
TORSDOF 18
ENDMDL
MODEL 2
REMARK VINA RESULT:     -11.4      1.760      2.728
REMARK SMILES C[C@H](Cc1ccco1)[NH2+]Cc1cc(C(=O)NCCCNC(=O)c2ccc(-c3c4nc(c(-c5c(F)cc(S(=O)(=O)[O-])cc5F)c5ccc([nH]5)c(-c5c(F)cc(S(=O)(=O)[O-])cc5F)c5nc(c(-c6c(F)cc(S(=O)(=O)[O-])cc6F)c6ccc3[nH]6)C=C5)C=C4)cc2)cs1
REMARK SMILES IDX 17 1 16 2 14 3 15 4 13 6 11 7 12 8 90 9 89 10 10 11 9 12
REMARK SMILES IDX 2 15 1 16 3 17 4 18 5 19 8 20 6 21 7 22 18 23 19 24 20 25
REMARK SMILES IDX 21 26 22 28 23 29 24 30 88 31 25 32 87 33 26 34 27 35 28 36
REMARK SMILES IDX 81 37 29 38 86 39 80 40 82 41 30 42 85 43 79 44 78 45 31 47
REMARK SMILES IDX 65 48 44 49 64 50 45 51 48 52 63 53 83 54 46 55 47 56 62 58
REMARK SMILES IDX 84 59 49 60 32 61 33 62 42 63 34 64 35 65 41 66 43 67 36 68
REMARK SMILES IDX 37 69 38 70 39 71 40 72 66 73 67 74 76 75 68 76 69 77 75 78
REMARK SMILES IDX 77 79 70 80 71 81 72 82 73 83 74 84 50 85 51 86 60 87 52 88
REMARK SMILES IDX 53 89 59 90 61 91 54 92 55 93 56 94 57 95 58 96
REMARK H PARENT 16 5 9 13 9 14 20 27 82 46 48 57
REMARK Flexibility Score: inf
ROOT
ATOM      1  C   UNL A   1      39.485  22.370  26.421  1.00  0.00     0.118 C 
ENDROOT
BRANCH   1   2
ATOM      2  N   UNL A   1      38.833  21.286  25.719  1.00  0.00    -0.352 N 
ATOM      3  C   UNL A   1      37.532  21.057  25.358  1.00  0.00     0.252 C 
ATOM      4  O   UNL A   1      37.326  20.027  24.714  1.00  0.00    -0.269 OA
ATOM      5  H   UNL A   1      39.450  20.568  25.448  1.00  0.00     0.163 HD
BRANCH   3   6
ATOM      6  C   UNL A   1      36.439  21.993  25.657  1.00  0.00     0.051 A 
ATOM      7  C   UNL A   1      35.062  23.905  25.745  1.00  0.00     0.059 A 
ATOM      8  C   UNL A   1      36.352  23.426  25.592  1.00  0.00     0.035 A 
ATOM      9  S   UNL A   1      34.028  22.681  26.343  1.00  0.00    -0.142 S 
ATOM     10  C   UNL A   1      35.222  21.491  26.099  1.00  0.00     0.079 A 
BRANCH   7  11
ATOM     11  C   UNL A   1      34.523  25.281  25.475  1.00  0.00     0.308 C 
BRANCH  11  12
ATOM     12  N   UNL A   1      33.214  25.520  26.085  1.00  0.00    -0.339 N 
ATOM     13  H   UNL A   1      32.537  24.946  25.581  1.00  0.00     0.346 HD
ATOM     14  H   UNL A   1      33.348  25.293  27.069  1.00  0.00     0.346 HD
BRANCH  12  15
ATOM     15  C   UNL A   1      32.692  26.897  26.097  1.00  0.00     0.187 C 
ATOM     16  C   UNL A   1      31.355  27.143  25.387  1.00  0.00     0.075 C 
BRANCH  15  17
ATOM     17  C   UNL A   1      33.753  27.900  25.568  1.00  0.00     0.140 C 
BRANCH  17  18
ATOM     18  C   UNL A   1      34.171  29.011  26.480  1.00  0.00     0.109 A 
ATOM     19  C   UNL A   1      35.225  29.254  27.339  1.00  0.00     0.046 A 
ATOM     20  O   UNL A   1      33.301  30.066  26.530  1.00  0.00    -0.469 OA
ATOM     21  C   UNL A   1      34.962  30.488  27.978  1.00  0.00     0.042 A 
ATOM     22  C   UNL A   1      33.785  30.948  27.440  1.00  0.00     0.195 A 
ENDBRANCH  17  18
ENDBRANCH  15  17
ENDBRANCH  12  15
ENDBRANCH  11  12
ENDBRANCH   7  11
ENDBRANCH   3   6
ENDBRANCH   1   2
BRANCH   1  23
ATOM     23  C   UNL A   1      40.657  21.876  27.262  1.00  0.00     0.042 C 
BRANCH  23  24
ATOM     24  C   UNL A   1      41.765  22.919  27.411  1.00  0.00     0.118 C 
BRANCH  24  25
ATOM     25  N   UNL A   1      41.874  23.770  26.231  1.00  0.00    -0.352 N 
ATOM     26  C   UNL A   1      41.630  25.111  26.077  1.00  0.00     0.251 C 
ATOM     27  H   UNL A   1      42.171  23.308  25.415  1.00  0.00     0.163 HD
ATOM     28  O   UNL A   1      41.538  25.574  24.942  1.00  0.00    -0.269 OA
BRANCH  26  29
ATOM     29  C   UNL A   1      41.476  25.993  27.254  1.00  0.00     0.039 A 
ATOM     30  C   UNL A   1      42.463  26.946  27.518  1.00  0.00     0.014 A 
ATOM     31  C   UNL A   1      40.390  25.853  28.121  1.00  0.00     0.014 A 
ATOM     32  C   UNL A   1      42.330  27.795  28.619  1.00  0.00     0.010 A 
ATOM     33  C   UNL A   1      40.218  26.751  29.171  1.00  0.00     0.010 A 
ATOM     34  C   UNL A   1      41.189  27.728  29.435  1.00  0.00    -0.014 A 
BRANCH  34  35
ATOM     35  C   UNL A   1      40.989  28.676  30.561  1.00  0.00     0.031 A 
ATOM     36  C   UNL A   1      41.820  28.557  31.810  1.00  0.00     0.074 A 
ATOM     37  C   UNL A   1      40.012  29.601  30.482  1.00  0.00     0.049 A 
ATOM     38  N   UNL A   1      41.743  29.245  32.920  1.00  0.00    -0.248 NA
ATOM     39  C   UNL A   1      42.853  27.509  31.826  1.00  0.00     0.031 C 
ATOM     40  C   UNL A   1      39.111  29.782  29.340  1.00  0.00     0.029 A 
ATOM     41  N   UNL A   1      39.605  30.557  31.378  1.00  0.00    -0.354 N 
ATOM     42  C   UNL A   1      42.703  28.706  33.770  1.00  0.00     0.074 A 
ATOM     43  C   UNL A   1      43.313  27.600  33.066  1.00  0.00     0.031 C 
ATOM     44  C   UNL A   1      38.276  30.800  29.595  1.00  0.00     0.029 A 
ATOM     45  C   UNL A   1      38.549  31.317  30.932  1.00  0.00     0.049 A 
ATOM     46  H   UNL A   1      40.029  30.686  32.256  1.00  0.00     0.167 HD
ATOM     47  C   UNL A   1      43.054  29.109  35.014  1.00  0.00     0.037 A 
ATOM     48  C   UNL A   1      37.869  32.311  31.537  1.00  0.00     0.037 A 
ATOM     49  C   UNL A   1      42.454  30.227  35.695  1.00  0.00     0.049 A 
ATOM     50  C   UNL A   1      38.276  32.739  32.920  1.00  0.00     0.074 A 
ATOM     51  C   UNL A   1      42.783  30.758  36.930  1.00  0.00     0.029 A 
ATOM     52  N   UNL A   1      41.398  30.982  35.205  1.00  0.00    -0.354 N 
ATOM     53  N   UNL A   1      39.231  32.261  33.682  1.00  0.00    -0.248 NA
ATOM     54  C   UNL A   1      37.521  33.844  33.523  1.00  0.00     0.031 C 
ATOM     55  C   UNL A   1      41.891  31.797  37.213  1.00  0.00     0.029 A 
ATOM     56  C   UNL A   1      41.045  31.956  36.126  1.00  0.00     0.049 A 
ATOM     57  H   UNL A   1      40.963  30.847  34.333  1.00  0.00     0.167 HD
ATOM     58  C   UNL A   1      39.210  33.026  34.843  1.00  0.00     0.074 A 
ATOM     59  C   UNL A   1      38.155  34.005  34.676  1.00  0.00     0.031 C 
ATOM     60  C   UNL A   1      39.994  32.928  35.945  1.00  0.00     0.037 A 
BRANCH  47  61
ATOM     61  C   UNL A   1      44.136  28.339  35.724  1.00  0.00     0.058 A 
ATOM     62  C   UNL A   1      43.844  27.240  36.548  1.00  0.00     0.135 A 
ATOM     63  C   UNL A   1      45.487  28.676  35.541  1.00  0.00     0.135 A 
ATOM     64  F   UNL A   1      42.570  26.881  36.772  1.00  0.00    -0.206 F 
ATOM     65  C   UNL A   1      44.850  26.522  37.188  1.00  0.00     0.059 A 
ATOM     66  C   UNL A   1      46.511  27.950  36.145  1.00  0.00     0.059 A 
ATOM     67  F   UNL A   1      45.826  29.716  34.764  1.00  0.00    -0.206 F 
ATOM     68  C   UNL A   1      46.181  26.883  36.977  1.00  0.00     0.060 A 
BRANCH  68  69
ATOM     69  S   UNL A   1      47.473  25.931  37.805  1.00  0.00     0.124 S 
ATOM     70  O   UNL A   1      46.762  24.697  38.128  1.00  0.00    -0.237 OA
ATOM     71  O   UNL A   1      48.492  25.820  36.766  1.00  0.00    -0.237 OA
ATOM     72  O   UNL A   1      47.832  26.765  38.947  1.00  0.00    -0.744 OA
ENDBRANCH  68  69
ENDBRANCH  47  61
BRANCH  48  73
ATOM     73  C   UNL A   1      36.748  32.981  30.824  1.00  0.00     0.058 A 
ATOM     74  C   UNL A   1      35.415  32.750  31.196  1.00  0.00     0.135 A 
ATOM     75  C   UNL A   1      36.986  33.886  29.777  1.00  0.00     0.135 A 
ATOM     76  F   UNL A   1      35.136  31.889  32.186  1.00  0.00    -0.206 F 
ATOM     77  C   UNL A   1      34.357  33.381  30.549  1.00  0.00     0.059 A 
ATOM     78  C   UNL A   1      35.946  34.551  29.134  1.00  0.00     0.059 A 
ATOM     79  F   UNL A   1      38.243  34.157  29.394  1.00  0.00    -0.206 F 
ATOM     80  C   UNL A   1      34.634  34.285  29.522  1.00  0.00     0.060 A 
BRANCH  80  81
ATOM     81  S   UNL A   1      33.255  35.143  28.731  1.00  0.00     0.124 S 
ATOM     82  O   UNL A   1      32.660  34.074  27.938  1.00  0.00    -0.237 OA
ATOM     83  O   UNL A   1      32.479  35.596  29.881  1.00  0.00    -0.237 OA
ATOM     84  O   UNL A   1      33.912  36.203  27.971  1.00  0.00    -0.744 OA
ENDBRANCH  80  81
ENDBRANCH  48  73
BRANCH  60  85
ATOM     85  C   UNL A   1      39.770  33.926  37.048  1.00  0.00     0.058 A 
ATOM     86  C   UNL A   1      38.976  33.630  38.167  1.00  0.00     0.135 A 
ATOM     87  C   UNL A   1      40.404  35.179  37.009  1.00  0.00     0.135 A 
ATOM     88  F   UNL A   1      38.342  32.449  38.253  1.00  0.00    -0.206 F 
ATOM     89  C   UNL A   1      38.801  34.548  39.197  1.00  0.00     0.059 A 
ATOM     90  C   UNL A   1      40.268  36.101  38.041  1.00  0.00     0.059 A 
ATOM     91  F   UNL A   1      41.183  35.512  35.966  1.00  0.00    -0.206 F 
ATOM     92  C   UNL A   1      39.454  35.780  39.126  1.00  0.00     0.060 A 
BRANCH  92  93
ATOM     93  S   UNL A   1      39.244  36.949  40.486  1.00  0.00     0.124 S 
ATOM     94  O   UNL A   1      38.461  38.003  39.851  1.00  0.00    -0.237 OA
ATOM     95  O   UNL A   1      38.537  36.146  41.480  1.00  0.00    -0.237 OA
ATOM     96  O   UNL A   1      40.613  37.310  40.840  1.00  0.00    -0.744 OA
ENDBRANCH  92  93
ENDBRANCH  60  85
ENDBRANCH  34  35
ENDBRANCH  26  29
ENDBRANCH  24  25
ENDBRANCH  23  24
ENDBRANCH   1  23
TORSDOF 18
ENDMDL
MODEL 3
REMARK VINA RESULT:     -11.2      2.593      9.096
REMARK SMILES C[C@H](Cc1ccco1)[NH2+]Cc1cc(C(=O)NCCCNC(=O)c2ccc(-c3c4nc(c(-c5c(F)cc(S(=O)(=O)[O-])cc5F)c5ccc([nH]5)c(-c5c(F)cc(S(=O)(=O)[O-])cc5F)c5nc(c(-c6c(F)cc(S(=O)(=O)[O-])cc6F)c6ccc3[nH]6)C=C5)C=C4)cc2)cs1
REMARK SMILES IDX 17 1 16 2 14 3 15 4 13 6 11 7 12 8 90 9 89 10 10 11 9 12
REMARK SMILES IDX 2 15 1 16 3 17 4 18 5 19 8 20 6 21 7 22 18 23 19 24 20 25
REMARK SMILES IDX 21 26 22 28 23 29 24 30 88 31 25 32 87 33 26 34 27 35 28 36
REMARK SMILES IDX 81 37 29 38 86 39 80 40 82 41 30 42 85 43 79 44 78 45 31 47
REMARK SMILES IDX 65 48 44 49 64 50 45 51 48 52 63 53 83 54 46 55 47 56 62 58
REMARK SMILES IDX 84 59 49 60 32 61 33 62 42 63 34 64 35 65 41 66 43 67 36 68
REMARK SMILES IDX 37 69 38 70 39 71 40 72 66 73 67 74 76 75 68 76 69 77 75 78
REMARK SMILES IDX 77 79 70 80 71 81 72 82 73 83 74 84 50 85 51 86 60 87 52 88
REMARK SMILES IDX 53 89 59 90 61 91 54 92 55 93 56 94 57 95 58 96
REMARK H PARENT 16 5 9 13 9 14 20 27 82 46 48 57
REMARK Flexibility Score: inf
ROOT
ATOM      1  C   UNL A   1      31.733  30.752  26.504  1.00  0.00     0.118 C 
ENDROOT
BRANCH   1   2
ATOM      2  N   UNL A   1      32.994  30.262  27.017  1.00  0.00    -0.352 N 
ATOM      3  C   UNL A   1      33.643  29.061  26.905  1.00  0.00     0.252 C 
ATOM      4  O   UNL A   1      34.748  28.995  27.444  1.00  0.00    -0.269 OA
ATOM      5  H   UNL A   1      33.483  30.925  27.556  1.00  0.00     0.163 HD
BRANCH   3   6
ATOM      6  C   UNL A   1      33.102  27.924  26.146  1.00  0.00     0.051 A 
ATOM      7  C   UNL A   1      31.757  26.131  25.413  1.00  0.00     0.059 A 
ATOM      8  C   UNL A   1      32.175  26.884  26.498  1.00  0.00     0.035 A 
ATOM      9  S   UNL A   1      32.757  26.418  24.055  1.00  0.00    -0.142 S 
ATOM     10  C   UNL A   1      33.512  27.732  24.833  1.00  0.00     0.079 A 
BRANCH   7  11
ATOM     11  C   UNL A   1      30.618  25.157  25.317  1.00  0.00     0.308 C 
BRANCH  11  12
ATOM     12  N   UNL A   1      30.446  24.346  26.524  1.00  0.00    -0.339 N 
ATOM     13  H   UNL A   1      30.805  24.892  27.307  1.00  0.00     0.346 HD
ATOM     14  H   UNL A   1      29.450  24.135  26.546  1.00  0.00     0.346 HD
BRANCH  12  15
ATOM     15  C   UNL A   1      31.100  23.029  26.575  1.00  0.00     0.187 C 
ATOM     16  C   UNL A   1      32.346  22.902  27.461  1.00  0.00     0.075 C 
BRANCH  15  17
ATOM     17  C   UNL A   1      31.424  22.509  25.148  1.00  0.00     0.140 C 
BRANCH  17  18
ATOM     18  C   UNL A   1      32.396  21.378  25.027  1.00  0.00     0.109 A 
ATOM     19  C   UNL A   1      33.745  21.245  24.762  1.00  0.00     0.046 A 
ATOM     20  O   UNL A   1      31.848  20.134  25.185  1.00  0.00    -0.469 OA
ATOM     21  C   UNL A   1      34.022  19.859  24.705  1.00  0.00     0.042 A 
ATOM     22  C   UNL A   1      32.836  19.226  24.983  1.00  0.00     0.195 A 
ENDBRANCH  17  18
ENDBRANCH  15  17
ENDBRANCH  12  15
ENDBRANCH  11  12
ENDBRANCH   7  11
ENDBRANCH   3   6
ENDBRANCH   1   2
BRANCH   1  23
ATOM     23  C   UNL A   1      31.553  32.242  26.775  1.00  0.00     0.042 C 
BRANCH  23  24
ATOM     24  C   UNL A   1      32.858  32.941  27.157  1.00  0.00     0.118 C 
BRANCH  24  25
ATOM     25  N   UNL A   1      32.625  34.284  27.676  1.00  0.00    -0.352 N 
ATOM     26  C   UNL A   1      33.103  34.895  28.807  1.00  0.00     0.251 C 
ATOM     27  H   UNL A   1      32.029  34.841  27.126  1.00  0.00     0.163 HD
ATOM     28  O   UNL A   1      32.580  35.939  29.188  1.00  0.00    -0.269 OA
BRANCH  26  29
ATOM     29  C   UNL A   1      34.231  34.310  29.565  1.00  0.00     0.039 A 
ATOM     30  C   UNL A   1      33.962  33.619  30.750  1.00  0.00     0.014 A 
ATOM     31  C   UNL A   1      35.550  34.478  29.137  1.00  0.00     0.014 A 
ATOM     32  C   UNL A   1      35.013  33.051  31.474  1.00  0.00     0.010 A 
ATOM     33  C   UNL A   1      36.587  33.843  29.815  1.00  0.00     0.010 A 
ATOM     34  C   UNL A   1      36.331  33.128  30.994  1.00  0.00    -0.014 A 
BRANCH  34  35
ATOM     35  C   UNL A   1      37.450  32.459  31.705  1.00  0.00     0.031 A 
ATOM     36  C   UNL A   1      37.935  32.990  33.027  1.00  0.00     0.074 A 
ATOM     37  C   UNL A   1      38.073  31.414  31.124  1.00  0.00     0.049 A 
ATOM     38  N   UNL A   1      38.939  32.584  33.761  1.00  0.00    -0.248 NA
ATOM     39  C   UNL A   1      37.215  34.146  33.586  1.00  0.00     0.031 C 
ATOM     40  C   UNL A   1      37.724  30.840  29.823  1.00  0.00     0.029 A 
ATOM     41  N   UNL A   1      39.135  30.654  31.546  1.00  0.00    -0.354 N 
ATOM     42  C   UNL A   1      38.982  33.441  34.855  1.00  0.00     0.074 A 
ATOM     43  C   UNL A   1      37.936  34.420  34.664  1.00  0.00     0.031 C 
ATOM     44  C   UNL A   1      38.538  29.806  29.564  1.00  0.00     0.029 A 
ATOM     45  C   UNL A   1      39.495  29.668  30.656  1.00  0.00     0.049 A 
ATOM     46  H   UNL A   1      39.595  30.800  32.403  1.00  0.00     0.167 HD
ATOM     47  C   UNL A   1      39.807  33.401  35.929  1.00  0.00     0.037 A 
ATOM     48  C   UNL A   1      40.492  28.763  30.709  1.00  0.00     0.037 A 
ATOM     49  C   UNL A   1      40.831  32.406  36.120  1.00  0.00     0.049 A 
ATOM     50  C   UNL A   1      41.396  28.742  31.911  1.00  0.00     0.074 A 
ATOM     51  C   UNL A   1      41.675  32.239  37.203  1.00  0.00     0.029 A 
ATOM     52  N   UNL A   1      41.156  31.415  35.204  1.00  0.00    -0.354 N 
ATOM     53  N   UNL A   1      41.379  29.517  32.968  1.00  0.00    -0.248 NA
ATOM     54  C   UNL A   1      42.449  27.718  31.931  1.00  0.00     0.031 C 
ATOM     55  C   UNL A   1      42.547  31.184  36.920  1.00  0.00     0.029 A 
ATOM     56  C   UNL A   1      42.206  30.651  35.686  1.00  0.00     0.049 A 
ATOM     57  H   UNL A   1      40.706  31.275  34.339  1.00  0.00     0.167 HD
ATOM     58  C   UNL A   1      42.400  29.058  33.793  1.00  0.00     0.074 A 
ATOM     59  C   UNL A   1      43.006  27.929  33.116  1.00  0.00     0.031 C 
ATOM     60  C   UNL A   1      42.797  29.527  35.002  1.00  0.00     0.037 A 
BRANCH  47  61
ATOM     61  C   UNL A   1      39.640  34.463  36.983  1.00  0.00     0.058 A 
ATOM     62  C   UNL A   1      38.925  34.226  38.169  1.00  0.00     0.135 A 
ATOM     63  C   UNL A   1      40.243  35.722  36.827  1.00  0.00     0.135 A 
ATOM     64  F   UNL A   1      38.315  33.047  38.367  1.00  0.00    -0.206 F 
ATOM     65  C   UNL A   1      38.790  35.207  39.147  1.00  0.00     0.059 A 
ATOM     66  C   UNL A   1      40.148  36.707  37.807  1.00  0.00     0.059 A 
ATOM     67  F   UNL A   1      40.939  36.006  35.715  1.00  0.00    -0.206 F 
ATOM     68  C   UNL A   1      39.408  36.444  38.957  1.00  0.00     0.060 A 
BRANCH  68  69
ATOM     69  S   UNL A   1      39.232  37.699  40.244  1.00  0.00     0.124 S 
ATOM     70  O   UNL A   1      38.778  36.895  41.375  1.00  0.00    -0.237 OA
ATOM     71  O   UNL A   1      40.588  38.229  40.348  1.00  0.00    -0.237 OA
ATOM     72  O   UNL A   1      38.242  38.617  39.691  1.00  0.00    -0.744 OA
ENDBRANCH  68  69
ENDBRANCH  47  61
BRANCH  48  73
ATOM     73  C   UNL A   1      40.669  27.792  29.596  1.00  0.00     0.058 A 
ATOM     74  C   UNL A   1      41.701  27.946  28.660  1.00  0.00     0.135 A 
ATOM     75  C   UNL A   1      39.829  26.674  29.463  1.00  0.00     0.135 A 
ATOM     76  F   UNL A   1      42.527  29.000  28.741  1.00  0.00    -0.206 F 
ATOM     77  C   UNL A   1      41.889  27.037  27.624  1.00  0.00     0.059 A 
ATOM     78  C   UNL A   1      40.014  25.736  28.452  1.00  0.00     0.059 A 
ATOM     79  F   UNL A   1      38.837  26.469  30.343  1.00  0.00    -0.206 F 
ATOM     80  C   UNL A   1      41.042  25.931  27.532  1.00  0.00     0.060 A 
BRANCH  80  81
ATOM     81  S   UNL A   1      41.333  24.727  26.218  1.00  0.00     0.124 S 
ATOM     82  O   UNL A   1      40.072  23.996  26.204  1.00  0.00    -0.237 OA
ATOM     83  O   UNL A   1      41.588  25.588  25.067  1.00  0.00    -0.237 OA
ATOM     84  O   UNL A   1      42.491  23.978  26.699  1.00  0.00    -0.744 OA
ENDBRANCH  80  81
ENDBRANCH  48  73
BRANCH  60  85
ATOM     85  C   UNL A   1      43.919  28.801  35.694  1.00  0.00     0.058 A 
ATOM     86  C   UNL A   1      43.681  27.748  36.590  1.00  0.00     0.135 A 
ATOM     87  C   UNL A   1      45.255  29.130  35.412  1.00  0.00     0.135 A 
ATOM     88  F   UNL A   1      42.423  27.396  36.901  1.00  0.00    -0.206 F 
ATOM     89  C   UNL A   1      44.726  27.062  37.201  1.00  0.00     0.059 A 
ATOM     90  C   UNL A   1      46.316  28.438  35.985  1.00  0.00     0.059 A 
ATOM     91  F   UNL A   1      45.542  30.123  34.553  1.00  0.00    -0.206 F 
ATOM     92  C   UNL A   1      46.041  27.413  36.889  1.00  0.00     0.060 A 
BRANCH  92  93
ATOM     93  S   UNL A   1      47.387  26.492  37.662  1.00  0.00     0.124 S 
ATOM     94  O   UNL A   1      48.492  27.437  37.552  1.00  0.00    -0.237 OA
ATOM     95  O   UNL A   1      46.876  26.267  39.011  1.00  0.00    -0.237 OA
ATOM     96  O   UNL A   1      47.501  25.295  36.834  1.00  0.00    -0.744 OA
ENDBRANCH  92  93
ENDBRANCH  60  85
ENDBRANCH  34  35
ENDBRANCH  26  29
ENDBRANCH  24  25
ENDBRANCH  23  24
ENDBRANCH   1  23
TORSDOF 18
ENDMDL
