MODEL 1
REMARK VINA RESULT:     -11.2      0.000      0.000
REMARK SMILES [NH3+]CCOCC(=O)Nc1cc(C(=O)NCCCNC(=O)c2ccc(-c3c4nc(c(-c5c(F)cc(S(=O)(=O)[O-])cc5F)c5ccc([nH]5)c(-c5c(F)cc(S(=O)(=O)[O-])cc5F)c5nc(c(-c6c(F)cc(S(=O)(=O)[O-])cc6F)c6ccc3[nH]6)C=C5)C=C4)cc2)ccc1Cl
REMARK SMILES IDX 12 1 13 2 14 3 11 5 9 6 10 7 89 8 88 9 90 10 87 11 8 12 6 13
REMARK SMILES IDX 7 14 5 16 4 17 3 18 2 19 1 20 15 24 16 25 17 26 18 27 19 28
REMARK SMILES IDX 20 30 21 31 22 32 86 33 23 34 85 35 24 36 25 37 26 38 79 39
REMARK SMILES IDX 27 40 84 41 78 42 80 43 28 44 83 45 77 46 76 47 29 49 63 50
REMARK SMILES IDX 42 51 62 52 43 53 46 54 61 55 81 56 44 57 45 58 60 60 82 61
REMARK SMILES IDX 47 62 30 63 31 64 40 65 32 66 33 67 39 68 41 69 34 70 35 71
REMARK SMILES IDX 36 72 37 73 38 74 64 75 65 76 74 77 66 78 67 79 73 80 75 81
REMARK SMILES IDX 68 82 69 83 70 84 71 85 72 86 48 87 49 88 58 89 50 90 51 91
REMARK SMILES IDX 57 92 59 93 52 94 53 95 54 96 55 97 56 98
REMARK H PARENT 14 4 8 15 1 21 1 22 1 23 18 29 80 48 46 59
REMARK Flexibility Score: inf
ROOT
ATOM      1  C   UNL A   1      41.856  20.669  27.216  1.00  0.00     0.251 C 
ATOM      2  O   UNL A   1      42.223  19.619  27.747  1.00  0.00    -0.269 OA
ATOM      3  N   UNL A   1      40.774  20.594  26.381  1.00  0.00    -0.352 N 
ATOM      4  H   UNL A   1      40.483  19.671  26.197  1.00  0.00     0.163 HD
ENDROOT
BRANCH   1   5
ATOM      5  C   UNL A   1      42.622  21.918  27.512  1.00  0.00     0.041 A 
ATOM      6  C   UNL A   1      44.170  23.597  26.631  1.00  0.00     0.060 A 
ATOM      7  C   UNL A   1      43.468  22.395  26.491  1.00  0.00     0.041 A 
ATOM      8  C   UNL A   1      43.925  24.398  27.753  1.00  0.00     0.064 A 
ATOM      9  C   UNL A   1      43.141  23.917  28.795  1.00  0.00     0.023 A 
ATOM     10  Cl  UNL A   1      44.301  26.082  27.784  1.00  0.00    -0.082 Cl
ATOM     11  C   UNL A   1      42.501  22.681  28.676  1.00  0.00     0.015 A 
BRANCH   6  12
ATOM     12  N   UNL A   1      45.036  23.968  25.589  1.00  0.00    -0.323 N 
ATOM     13  C   UNL A   1      45.855  23.140  24.860  1.00  0.00     0.250 C 
ATOM     14  O   UNL A   1      46.676  23.629  24.078  1.00  0.00    -0.272 OA
ATOM     15  H   UNL A   1      45.058  24.925  25.355  1.00  0.00     0.170 HD
BRANCH  13  16
ATOM     16  C   UNL A   1      45.633  21.610  24.912  1.00  0.00     0.260 C 
BRANCH  16  17
ATOM     17  O   UNL A   1      46.705  20.697  24.834  1.00  0.00    -0.366 OA
BRANCH  17  18
ATOM     18  C   UNL A   1      46.353  19.320  24.966  1.00  0.00     0.222 C 
BRANCH  18  19
ATOM     19  C   UNL A   1      44.867  19.075  25.243  1.00  0.00     0.287 C 
BRANCH  19  20
ATOM     20  N   UNL A   1      44.602  18.172  26.364  1.00  0.00    -0.356 N 
ATOM     21  H   UNL A   1      45.398  17.547  26.493  1.00  0.00     0.344 HD
ATOM     22  H   UNL A   1      43.766  17.622  26.168  1.00  0.00     0.344 HD
ATOM     23  H   UNL A   1      44.458  18.718  27.214  1.00  0.00     0.344 HD
ENDBRANCH  19  20
ENDBRANCH  18  19
ENDBRANCH  17  18
ENDBRANCH  16  17
ENDBRANCH  13  16
ENDBRANCH   6  12
ENDBRANCH   1   5
BRANCH   3  24
ATOM     24  C   UNL A   1      39.969  21.598  25.713  1.00  0.00     0.118 C 
BRANCH  24  25
ATOM     25  C   UNL A   1      39.060  22.361  26.679  1.00  0.00     0.042 C 
BRANCH  25  26
ATOM     26  C   UNL A   1      39.065  23.875  26.482  1.00  0.00     0.118 C 
BRANCH  26  27
ATOM     27  N   UNL A   1      40.302  24.339  25.874  1.00  0.00    -0.352 N 
ATOM     28  C   UNL A   1      41.025  25.486  26.067  1.00  0.00     0.251 C 
ATOM     29  H   UNL A   1      40.686  23.721  25.211  1.00  0.00     0.163 HD
ATOM     30  O   UNL A   1      41.883  25.779  25.237  1.00  0.00    -0.269 OA
BRANCH  28  31
ATOM     31  C   UNL A   1      40.809  26.360  27.243  1.00  0.00     0.039 A 
ATOM     32  C   UNL A   1      41.436  27.610  27.262  1.00  0.00     0.014 A 
ATOM     33  C   UNL A   1      40.085  25.933  28.360  1.00  0.00     0.014 A 
ATOM     34  C   UNL A   1      41.316  28.437  28.381  1.00  0.00     0.010 A 
ATOM     35  C   UNL A   1      39.908  26.787  29.449  1.00  0.00     0.010 A 
ATOM     36  C   UNL A   1      40.535  28.040  29.478  1.00  0.00    -0.014 A 
BRANCH  36  37
ATOM     37  C   UNL A   1      40.369  28.940  30.648  1.00  0.00     0.031 A 
ATOM     38  C   UNL A   1      41.219  28.772  31.878  1.00  0.00     0.074 A 
ATOM     39  C   UNL A   1      39.414  29.888  30.612  1.00  0.00     0.049 A 
ATOM     40  N   UNL A   1      41.227  29.481  32.978  1.00  0.00    -0.248 NA
ATOM     41  C   UNL A   1      42.164  27.645  31.887  1.00  0.00     0.031 C 
ATOM     42  C   UNL A   1      38.475  30.097  29.507  1.00  0.00     0.029 A 
ATOM     43  N   UNL A   1      39.071  30.852  31.525  1.00  0.00    -0.354 N 
ATOM     44  C   UNL A   1      42.160  28.878  33.814  1.00  0.00     0.074 A 
ATOM     45  C   UNL A   1      42.662  27.717  33.113  1.00  0.00     0.031 C 
ATOM     46  C   UNL A   1      37.682  31.140  29.795  1.00  0.00     0.029 A 
ATOM     47  C   UNL A   1      38.041  31.661  31.111  1.00  0.00     0.049 A 
ATOM     48  H   UNL A   1      39.520  30.955  32.396  1.00  0.00     0.167 HD
ATOM     49  C   UNL A   1      42.573  29.267  35.046  1.00  0.00     0.037 A 
ATOM     50  C   UNL A   1      37.455  32.713  31.715  1.00  0.00     0.037 A 
ATOM     51  C   UNL A   1      42.084  30.441  35.725  1.00  0.00     0.049 A 
ATOM     52  C   UNL A   1      37.977  33.172  33.046  1.00  0.00     0.074 A 
ATOM     53  C   UNL A   1      42.490  30.968  36.939  1.00  0.00     0.029 A 
ATOM     54  N   UNL A   1      41.076  31.269  35.249  1.00  0.00    -0.354 N 
ATOM     55  N   UNL A   1      38.923  32.643  33.786  1.00  0.00    -0.248 NA
ATOM     56  C   UNL A   1      37.370  34.382  33.616  1.00  0.00     0.031 C 
ATOM     57  C   UNL A   1      41.703  32.094  37.213  1.00  0.00     0.029 A 
ATOM     58  C   UNL A   1      40.836  32.293  36.150  1.00  0.00     0.049 A 
ATOM     59  H   UNL A   1      40.602  31.145  34.395  1.00  0.00     0.167 HD
ATOM     60  C   UNL A   1      39.037  33.465  34.901  1.00  0.00     0.074 A 
ATOM     61  C   UNL A   1      38.075  34.535  34.728  1.00  0.00     0.031 C 
ATOM     62  C   UNL A   1      39.867  33.346  35.968  1.00  0.00     0.037 A 
BRANCH  49  63
ATOM     63  C   UNL A   1      43.602  28.411  35.735  1.00  0.00     0.058 A 
ATOM     64  C   UNL A   1      43.236  27.379  36.616  1.00  0.00     0.135 A 
ATOM     65  C   UNL A   1      44.972  28.622  35.513  1.00  0.00     0.135 A 
ATOM     66  F   UNL A   1      41.940  27.140  36.876  1.00  0.00    -0.206 F 
ATOM     67  C   UNL A   1      44.190  26.620  37.287  1.00  0.00     0.059 A 
ATOM     68  C   UNL A   1      45.944  27.856  36.152  1.00  0.00     0.059 A 
ATOM     69  F   UNL A   1      45.380  29.590  34.678  1.00  0.00    -0.206 F 
ATOM     70  C   UNL A   1      45.543  26.873  37.055  1.00  0.00     0.060 A 
BRANCH  70  71
ATOM     71  S   UNL A   1      46.771  25.902  37.955  1.00  0.00     0.124 S 
ATOM     72  O   UNL A   1      47.028  26.760  39.108  1.00  0.00    -0.237 OA
ATOM     73  O   UNL A   1      46.052  24.664  38.235  1.00  0.00    -0.237 OA
ATOM     74  O   UNL A   1      47.872  25.783  37.003  1.00  0.00    -0.744 OA
ENDBRANCH  70  71
ENDBRANCH  49  63
BRANCH  50  75
ATOM     75  C   UNL A   1      36.351  33.425  31.023  1.00  0.00     0.058 A 
ATOM     76  C   UNL A   1      35.044  33.390  31.527  1.00  0.00     0.135 A 
ATOM     77  C   UNL A   1      36.597  34.217  29.891  1.00  0.00     0.135 A 
ATOM     78  F   UNL A   1      34.761  32.645  32.607  1.00  0.00    -0.206 F 
ATOM     79  C   UNL A   1      34.016  34.118  30.937  1.00  0.00     0.059 A 
ATOM     80  C   UNL A   1      35.591  34.970  29.295  1.00  0.00     0.059 A 
ATOM     81  F   UNL A   1      37.837  34.300  29.385  1.00  0.00    -0.206 F 
ATOM     82  C   UNL A   1      34.302  34.913  29.825  1.00  0.00     0.060 A 
BRANCH  82  83
ATOM     83  S   UNL A   1      32.985  35.932  29.126  1.00  0.00     0.124 S 
ATOM     84  O   UNL A   1      33.746  36.967  28.437  1.00  0.00    -0.237 OA
ATOM     85  O   UNL A   1      32.281  34.980  28.271  1.00  0.00    -0.237 OA
ATOM     86  O   UNL A   1      32.241  36.370  30.303  1.00  0.00    -0.744 OA
ENDBRANCH  82  83
ENDBRANCH  50  75
BRANCH  62  87
ATOM     87  C   UNL A   1      39.778  34.413  37.023  1.00  0.00     0.058 A 
ATOM     88  C   UNL A   1      39.033  34.229  38.197  1.00  0.00     0.135 A 
ATOM     89  C   UNL A   1      40.466  35.627  36.864  1.00  0.00     0.135 A 
ATOM     90  F   UNL A   1      38.354  33.088  38.394  1.00  0.00    -0.206 F 
ATOM     91  C   UNL A   1      38.942  35.226  39.164  1.00  0.00     0.059 A 
ATOM     92  C   UNL A   1      40.410  36.627  37.829  1.00  0.00     0.059 A 
ATOM     93  F   UNL A   1      41.204  35.848  35.764  1.00  0.00    -0.206 F 
ATOM     94  C   UNL A   1      39.631  36.425  38.967  1.00  0.00     0.060 A 
BRANCH  94  95
ATOM     95  S   UNL A   1      39.512  37.711  40.227  1.00  0.00     0.124 S 
ATOM     96  O   UNL A   1      38.580  38.646  39.604  1.00  0.00    -0.237 OA
ATOM     97  O   UNL A   1      38.998  36.977  41.380  1.00  0.00    -0.237 OA
ATOM     98  O   UNL A   1      40.886  38.186  40.357  1.00  0.00    -0.744 OA
ENDBRANCH  94  95
ENDBRANCH  62  87
ENDBRANCH  36  37
ENDBRANCH  28  31
ENDBRANCH  26  27
ENDBRANCH  25  26
ENDBRANCH  24  25
ENDBRANCH   3  24
TORSDOF 19
ENDMDL
MODEL 2
REMARK VINA RESULT:     -11.2      3.339      5.504
REMARK SMILES [NH3+]CCOCC(=O)Nc1cc(C(=O)NCCCNC(=O)c2ccc(-c3c4nc(c(-c5c(F)cc(S(=O)(=O)[O-])cc5F)c5ccc([nH]5)c(-c5c(F)cc(S(=O)(=O)[O-])cc5F)c5nc(c(-c6c(F)cc(S(=O)(=O)[O-])cc6F)c6ccc3[nH]6)C=C5)C=C4)cc2)ccc1Cl
REMARK SMILES IDX 12 1 13 2 14 3 11 5 9 6 10 7 89 8 88 9 90 10 87 11 8 12 6 13
REMARK SMILES IDX 7 14 5 16 4 17 3 18 2 19 1 20 15 24 16 25 17 26 18 27 19 28
REMARK SMILES IDX 20 30 21 31 22 32 86 33 23 34 85 35 24 36 25 37 26 38 79 39
REMARK SMILES IDX 27 40 84 41 78 42 80 43 28 44 83 45 77 46 76 47 29 49 63 50
REMARK SMILES IDX 42 51 62 52 43 53 46 54 61 55 81 56 44 57 45 58 60 60 82 61
REMARK SMILES IDX 47 62 30 63 31 64 40 65 32 66 33 67 39 68 41 69 34 70 35 71
REMARK SMILES IDX 36 72 37 73 38 74 64 75 65 76 74 77 66 78 67 79 73 80 75 81
REMARK SMILES IDX 68 82 69 83 70 84 71 85 72 86 48 87 49 88 58 89 50 90 51 91
REMARK SMILES IDX 57 92 59 93 52 94 53 95 54 96 55 97 56 98
REMARK H PARENT 14 4 8 15 1 21 1 22 1 23 18 29 80 48 46 59
REMARK Flexibility Score: inf
ROOT
ATOM      1  C   UNL A   1      36.324  22.751  23.753  1.00  0.00     0.251 C 
ATOM      2  O   UNL A   1      36.338  23.123  22.577  1.00  0.00    -0.269 OA
ATOM      3  N   UNL A   1      37.530  22.431  24.314  1.00  0.00    -0.352 N 
ATOM      4  H   UNL A   1      38.272  22.411  23.666  1.00  0.00     0.163 HD
ENDROOT
BRANCH   1   5
ATOM      5  C   UNL A   1      35.006  22.670  24.454  1.00  0.00     0.041 A 
ATOM      6  C   UNL A   1      33.306  23.906  25.709  1.00  0.00     0.060 A 
ATOM      7  C   UNL A   1      34.560  23.845  25.091  1.00  0.00     0.041 A 
ATOM      8  C   UNL A   1      32.434  22.817  25.580  1.00  0.00     0.064 A 
ATOM      9  C   UNL A   1      32.879  21.632  25.007  1.00  0.00     0.023 A 
ATOM     10  Cl  UNL A   1      30.731  22.967  25.822  1.00  0.00    -0.082 Cl
ATOM     11  C   UNL A   1      34.160  21.559  24.456  1.00  0.00     0.015 A 
BRANCH   6  12
ATOM     12  N   UNL A   1      32.965  25.097  26.371  1.00  0.00    -0.323 N 
ATOM     13  C   UNL A   1      32.741  26.325  25.798  1.00  0.00     0.250 C 
ATOM     14  O   UNL A   1      32.601  27.318  26.519  1.00  0.00    -0.272 OA
ATOM     15  H   UNL A   1      32.876  25.046  27.350  1.00  0.00     0.170 HD
BRANCH  13  16
ATOM     16  C   UNL A   1      32.514  26.424  24.271  1.00  0.00     0.260 C 
BRANCH  16  17
ATOM     17  O   UNL A   1      33.582  26.593  23.366  1.00  0.00    -0.366 OA
BRANCH  17  18
ATOM     18  C   UNL A   1      33.212  26.744  21.995  1.00  0.00     0.222 C 
BRANCH  18  19
ATOM     19  C   UNL A   1      32.788  25.440  21.313  1.00  0.00     0.287 C 
BRANCH  19  20
ATOM     20  N   UNL A   1      32.064  25.626  20.055  1.00  0.00    -0.356 N 
ATOM     21  H   UNL A   1      32.096  26.610  19.786  1.00  0.00     0.344 HD
ATOM     22  H   UNL A   1      31.093  25.338  20.174  1.00  0.00     0.344 HD
ATOM     23  H   UNL A   1      32.500  25.061  19.325  1.00  0.00     0.344 HD
ENDBRANCH  19  20
ENDBRANCH  18  19
ENDBRANCH  17  18
ENDBRANCH  16  17
ENDBRANCH  13  16
ENDBRANCH   6  12
ENDBRANCH   1   5
BRANCH   3  24
ATOM     24  C   UNL A   1      37.938  22.113  25.668  1.00  0.00     0.118 C 
BRANCH  24  25
ATOM     25  C   UNL A   1      38.408  23.345  26.445  1.00  0.00     0.042 C 
BRANCH  25  26
ATOM     26  C   UNL A   1      39.852  23.266  26.935  1.00  0.00     0.118 C 
BRANCH  26  27
ATOM     27  N   UNL A   1      40.761  23.992  26.062  1.00  0.00    -0.352 N 
ATOM     28  C   UNL A   1      41.147  25.305  26.056  1.00  0.00     0.251 C 
ATOM     29  H   UNL A   1      41.169  23.443  25.354  1.00  0.00     0.163 HD
ATOM     30  O   UNL A   1      41.706  25.744  25.053  1.00  0.00    -0.269 OA
BRANCH  28  31
ATOM     31  C   UNL A   1      40.921  26.193  27.220  1.00  0.00     0.039 A 
ATOM     32  C   UNL A   1      41.782  27.281  27.399  1.00  0.00     0.014 A 
ATOM     33  C   UNL A   1      39.946  25.918  28.184  1.00  0.00     0.014 A 
ATOM     34  C   UNL A   1      41.648  28.102  28.521  1.00  0.00     0.010 A 
ATOM     35  C   UNL A   1      39.768  26.779  29.268  1.00  0.00     0.010 A 
ATOM     36  C   UNL A   1      40.628  27.869  29.456  1.00  0.00    -0.014 A 
BRANCH  36  37
ATOM     37  C   UNL A   1      40.457  28.771  30.624  1.00  0.00     0.031 A 
ATOM     38  C   UNL A   1      41.305  28.610  31.856  1.00  0.00     0.074 A 
ATOM     39  C   UNL A   1      39.499  29.716  30.585  1.00  0.00     0.049 A 
ATOM     40  N   UNL A   1      41.310  29.321  32.954  1.00  0.00    -0.248 NA
ATOM     41  C   UNL A   1      42.254  27.486  31.869  1.00  0.00     0.031 C 
ATOM     42  C   UNL A   1      38.561  29.918  29.477  1.00  0.00     0.029 A 
ATOM     43  N   UNL A   1      39.151  30.681  31.494  1.00  0.00    -0.354 N 
ATOM     44  C   UNL A   1      42.243  28.724  33.793  1.00  0.00     0.074 A 
ATOM     45  C   UNL A   1      42.750  27.563  33.095  1.00  0.00     0.031 C 
ATOM     46  C   UNL A   1      37.764  30.960  29.762  1.00  0.00     0.029 A 
ATOM     47  C   UNL A   1      38.118  31.485  31.076  1.00  0.00     0.049 A 
ATOM     48  H   UNL A   1      39.598  30.787  32.366  1.00  0.00     0.167 HD
ATOM     49  C   UNL A   1      42.653  29.117  35.025  1.00  0.00     0.037 A 
ATOM     50  C   UNL A   1      37.528  32.536  31.677  1.00  0.00     0.037 A 
ATOM     51  C   UNL A   1      42.159  30.291  35.700  1.00  0.00     0.049 A 
ATOM     52  C   UNL A   1      38.046  33.000  33.008  1.00  0.00     0.074 A 
ATOM     53  C   UNL A   1      42.561  30.822  36.913  1.00  0.00     0.029 A 
ATOM     54  N   UNL A   1      41.148  31.114  35.221  1.00  0.00    -0.354 N 
ATOM     55  N   UNL A   1      38.993  32.477  33.751  1.00  0.00    -0.248 NA
ATOM     56  C   UNL A   1      37.433  34.209  33.574  1.00  0.00     0.031 C 
ATOM     57  C   UNL A   1      41.769  31.946  37.184  1.00  0.00     0.029 A 
ATOM     58  C   UNL A   1      40.903  32.139  36.119  1.00  0.00     0.049 A 
ATOM     59  H   UNL A   1      40.676  30.986  34.366  1.00  0.00     0.167 HD
ATOM     60  C   UNL A   1      39.102  33.302  34.863  1.00  0.00     0.074 A 
ATOM     61  C   UNL A   1      38.136  34.368  34.687  1.00  0.00     0.031 C 
ATOM     62  C   UNL A   1      39.931  33.188  35.932  1.00  0.00     0.037 A 
BRANCH  49  63
ATOM     63  C   UNL A   1      43.684  28.266  35.717  1.00  0.00     0.058 A 
ATOM     64  C   UNL A   1      45.061  28.466  35.522  1.00  0.00     0.135 A 
ATOM     65  C   UNL A   1      43.293  27.237  36.588  1.00  0.00     0.135 A 
ATOM     66  F   UNL A   1      45.493  29.429  34.691  1.00  0.00    -0.206 F 
ATOM     67  C   UNL A   1      46.010  27.648  36.127  1.00  0.00     0.059 A 
ATOM     68  C   UNL A   1      44.225  26.424  37.226  1.00  0.00     0.059 A 
ATOM     69  F   UNL A   1      41.990  27.003  36.816  1.00  0.00    -0.206 F 
ATOM     70  C   UNL A   1      45.582  26.622  36.971  1.00  0.00     0.060 A 
BRANCH  70  71
ATOM     71  S   UNL A   1      46.821  25.547  37.725  1.00  0.00     0.124 S 
ATOM     72  O   UNL A   1      48.059  26.209  37.326  1.00  0.00    -0.237 OA
ATOM     73  O   UNL A   1      46.488  25.629  39.143  1.00  0.00    -0.237 OA
ATOM     74  O   UNL A   1      46.571  24.252  37.100  1.00  0.00    -0.744 OA
ENDBRANCH  70  71
ENDBRANCH  49  63
BRANCH  50  75
ATOM     75  C   UNL A   1      36.422  33.243  30.982  1.00  0.00     0.058 A 
ATOM     76  C   UNL A   1      35.104  33.152  31.449  1.00  0.00     0.135 A 
ATOM     77  C   UNL A   1      36.675  34.083  29.887  1.00  0.00     0.135 A 
ATOM     78  F   UNL A   1      34.814  32.360  32.493  1.00  0.00    -0.206 F 
ATOM     79  C   UNL A   1      34.071  33.873  30.857  1.00  0.00     0.059 A 
ATOM     80  C   UNL A   1      35.663  34.829  29.291  1.00  0.00     0.059 A 
ATOM     81  F   UNL A   1      37.925  34.219  29.419  1.00  0.00    -0.206 F 
ATOM     82  C   UNL A   1      34.364  34.716  29.784  1.00  0.00     0.060 A 
BRANCH  82  83
ATOM     83  S   UNL A   1      33.036  35.724  29.086  1.00  0.00     0.124 S 
ATOM     84  O   UNL A   1      32.345  34.758  28.242  1.00  0.00    -0.237 OA
ATOM     85  O   UNL A   1      32.318  36.157  30.282  1.00  0.00    -0.237 OA
ATOM     86  O   UNL A   1      33.755  36.782  28.382  1.00  0.00    -0.744 OA
ENDBRANCH  82  83
ENDBRANCH  50  75
BRANCH  62  87
ATOM     87  C   UNL A   1      39.836  34.258  36.984  1.00  0.00     0.058 A 
ATOM     88  C   UNL A   1      39.161  34.043  38.195  1.00  0.00     0.135 A 
ATOM     89  C   UNL A   1      40.449  35.505  36.785  1.00  0.00     0.135 A 
ATOM     90  F   UNL A   1      38.555  32.870  38.432  1.00  0.00    -0.206 F 
ATOM     91  C   UNL A   1      39.064  35.042  39.159  1.00  0.00     0.059 A 
ATOM     92  C   UNL A   1      40.387  36.509  37.746  1.00  0.00     0.059 A 
ATOM     93  F   UNL A   1      41.119  35.757  35.649  1.00  0.00    -0.206 F 
ATOM     94  C   UNL A   1      39.677  36.274  38.923  1.00  0.00     0.060 A 
BRANCH  94  95
ATOM     95  S   UNL A   1      39.550  37.562  40.180  1.00  0.00     0.124 S 
ATOM     96  O   UNL A   1      38.644  36.943  41.143  1.00  0.00    -0.237 OA
ATOM     97  O   UNL A   1      40.934  37.714  40.619  1.00  0.00    -0.237 OA
ATOM     98  O   UNL A   1      39.005  38.700  39.445  1.00  0.00    -0.744 OA
ENDBRANCH  94  95
ENDBRANCH  62  87
ENDBRANCH  36  37
ENDBRANCH  28  31
ENDBRANCH  26  27
ENDBRANCH  25  26
ENDBRANCH  24  25
ENDBRANCH   3  24
TORSDOF 19
ENDMDL
MODEL 3
REMARK VINA RESULT:     -10.9      3.448      5.105
REMARK SMILES [NH3+]CCOCC(=O)Nc1cc(C(=O)NCCCNC(=O)c2ccc(-c3c4nc(c(-c5c(F)cc(S(=O)(=O)[O-])cc5F)c5ccc([nH]5)c(-c5c(F)cc(S(=O)(=O)[O-])cc5F)c5nc(c(-c6c(F)cc(S(=O)(=O)[O-])cc6F)c6ccc3[nH]6)C=C5)C=C4)cc2)ccc1Cl
REMARK SMILES IDX 12 1 13 2 14 3 11 5 9 6 10 7 89 8 88 9 90 10 87 11 8 12 6 13
REMARK SMILES IDX 7 14 5 16 4 17 3 18 2 19 1 20 15 24 16 25 17 26 18 27 19 28
REMARK SMILES IDX 20 30 21 31 22 32 86 33 23 34 85 35 24 36 25 37 26 38 79 39
REMARK SMILES IDX 27 40 84 41 78 42 80 43 28 44 83 45 77 46 76 47 29 49 63 50
REMARK SMILES IDX 42 51 62 52 43 53 46 54 61 55 81 56 44 57 45 58 60 60 82 61
REMARK SMILES IDX 47 62 30 63 31 64 40 65 32 66 33 67 39 68 41 69 34 70 35 71
REMARK SMILES IDX 36 72 37 73 38 74 64 75 65 76 74 77 66 78 67 79 73 80 75 81
REMARK SMILES IDX 68 82 69 83 70 84 71 85 72 86 48 87 49 88 58 89 50 90 51 91
REMARK SMILES IDX 57 92 59 93 52 94 53 95 54 96 55 97 56 98
REMARK H PARENT 14 4 8 15 1 21 1 22 1 23 18 29 80 48 46 59
REMARK Flexibility Score: inf
ROOT
ATOM      1  C   UNL A   1      44.760  23.376  27.644  1.00  0.00     0.251 C 
ATOM      2  O   UNL A   1      44.989  23.556  28.842  1.00  0.00    -0.269 OA
ATOM      3  N   UNL A   1      44.068  22.243  27.311  1.00  0.00    -0.352 N 
ATOM      4  H   UNL A   1      43.941  21.625  28.068  1.00  0.00     0.163 HD
ENDROOT
BRANCH   1   5
ATOM      5  C   UNL A   1      45.260  24.390  26.666  1.00  0.00     0.041 A 
ATOM      6  C   UNL A   1      44.689  26.352  25.319  1.00  0.00     0.060 A 
ATOM      7  C   UNL A   1      44.314  25.312  26.176  1.00  0.00     0.041 A 
ATOM      8  C   UNL A   1      46.048  26.550  25.047  1.00  0.00     0.064 A 
ATOM      9  C   UNL A   1      46.987  25.617  25.473  1.00  0.00     0.023 A 
ATOM     10  Cl  UNL A   1      46.663  28.055  24.467  1.00  0.00    -0.082 Cl
ATOM     11  C   UNL A   1      46.592  24.541  26.270  1.00  0.00     0.015 A 
BRANCH   6  12
ATOM     12  N   UNL A   1      43.672  27.191  24.832  1.00  0.00    -0.323 N 
ATOM     13  C   UNL A   1      43.117  28.273  25.470  1.00  0.00     0.250 C 
ATOM     14  O   UNL A   1      42.124  28.823  24.986  1.00  0.00    -0.272 OA
ATOM     15  H   UNL A   1      43.319  26.980  23.937  1.00  0.00     0.170 HD
BRANCH  13  16
ATOM     16  C   UNL A   1      43.832  28.882  26.699  1.00  0.00     0.260 C 
BRANCH  16  17
ATOM     17  O   UNL A   1      43.475  30.142  27.224  1.00  0.00    -0.366 OA
BRANCH  17  18
ATOM     18  C   UNL A   1      44.413  30.722  28.129  1.00  0.00     0.222 C 
BRANCH  18  19
ATOM     19  C   UNL A   1      44.119  32.181  28.488  1.00  0.00     0.287 C 
BRANCH  19  20
ATOM     20  N   UNL A   1      44.262  33.118  27.373  1.00  0.00    -0.356 N 
ATOM     21  H   UNL A   1      44.003  32.653  26.502  1.00  0.00     0.344 HD
ATOM     22  H   UNL A   1      45.231  33.432  27.314  1.00  0.00     0.344 HD
ATOM     23  H   UNL A   1      43.653  33.922  27.523  1.00  0.00     0.344 HD
ENDBRANCH  19  20
ENDBRANCH  18  19
ENDBRANCH  17  18
ENDBRANCH  16  17
ENDBRANCH  13  16
ENDBRANCH   6  12
ENDBRANCH   1   5
BRANCH   3  24
ATOM     24  C   UNL A   1      43.486  21.767  26.072  1.00  0.00     0.118 C 
BRANCH  24  25
ATOM     25  C   UNL A   1      42.158  22.454  25.744  1.00  0.00     0.042 C 
BRANCH  25  26
ATOM     26  C   UNL A   1      40.947  21.848  26.448  1.00  0.00     0.118 C 
BRANCH  26  27
ATOM     27  N   UNL A   1      39.700  22.214  25.795  1.00  0.00    -0.352 N 
ATOM     28  C   UNL A   1      38.834  23.250  26.024  1.00  0.00     0.251 C 
ATOM     29  H   UNL A   1      39.435  21.614  25.061  1.00  0.00     0.163 HD
ATOM     30  O   UNL A   1      37.710  23.189  25.528  1.00  0.00    -0.269 OA
BRANCH  28  31
ATOM     31  C   UNL A   1      39.220  24.429  26.832  1.00  0.00     0.039 A 
ATOM     32  C   UNL A   1      40.028  25.403  26.236  1.00  0.00     0.014 A 
ATOM     33  C   UNL A   1      38.884  24.543  28.184  1.00  0.00     0.014 A 
ATOM     34  C   UNL A   1      40.473  26.496  26.984  1.00  0.00     0.010 A 
ATOM     35  C   UNL A   1      39.271  25.669  28.911  1.00  0.00     0.010 A 
ATOM     36  C   UNL A   1      40.083  26.649  28.323  1.00  0.00    -0.014 A 
BRANCH  36  37
ATOM     37  C   UNL A   1      40.518  27.835  29.103  1.00  0.00     0.031 A 
ATOM     38  C   UNL A   1      41.880  27.884  29.741  1.00  0.00     0.074 A 
ATOM     39  C   UNL A   1      39.659  28.858  29.269  1.00  0.00     0.049 A 
ATOM     40  N   UNL A   1      42.433  28.847  30.433  1.00  0.00    -0.248 NA
ATOM     41  C   UNL A   1      42.720  26.685  29.610  1.00  0.00     0.031 C 
ATOM     42  C   UNL A   1      38.283  28.893  28.766  1.00  0.00     0.029 A 
ATOM     43  N   UNL A   1      39.808  30.063  29.907  1.00  0.00    -0.354 N 
ATOM     44  C   UNL A   1      43.674  28.366  30.834  1.00  0.00     0.074 A 
ATOM     45  C   UNL A   1      43.772  27.007  30.348  1.00  0.00     0.031 C 
ATOM     46  C   UNL A   1      37.726  30.070  29.090  1.00  0.00     0.029 A 
ATOM     47  C   UNL A   1      38.694  30.863  29.841  1.00  0.00     0.049 A 
ATOM     48  H   UNL A   1      40.636  30.329  30.370  1.00  0.00     0.167 HD
ATOM     49  C   UNL A   1      44.649  29.005  31.527  1.00  0.00     0.037 A 
ATOM     50  C   UNL A   1      38.476  32.104  30.319  1.00  0.00     0.037 A 
ATOM     51  C   UNL A   1      44.550  30.369  31.984  1.00  0.00     0.049 A 
ATOM     52  C   UNL A   1      39.594  32.821  31.020  1.00  0.00     0.074 A 
ATOM     53  C   UNL A   1      45.506  31.135  32.626  1.00  0.00     0.029 A 
ATOM     54  N   UNL A   1      43.423  31.168  31.851  1.00  0.00    -0.354 N 
ATOM     55  N   UNL A   1      40.796  32.384  31.314  1.00  0.00    -0.248 NA
ATOM     56  C   UNL A   1      39.336  34.206  31.435  1.00  0.00     0.031 C 
ATOM     57  C   UNL A   1      44.946  32.387  32.912  1.00  0.00     0.029 A 
ATOM     58  C   UNL A   1      43.654  32.414  32.411  1.00  0.00     0.049 A 
ATOM     59  H   UNL A   1      42.582  30.890  31.421  1.00  0.00     0.167 HD
ATOM     60  C   UNL A   1      41.445  33.445  31.933  1.00  0.00     0.074 A 
ATOM     61  C   UNL A   1      40.507  34.550  31.955  1.00  0.00     0.031 C 
ATOM     62  C   UNL A   1      42.705  33.500  32.433  1.00  0.00     0.037 A 
BRANCH  49  63
ATOM     63  C   UNL A   1      45.903  28.230  31.833  1.00  0.00     0.058 A 
ATOM     64  C   UNL A   1      46.977  28.173  30.929  1.00  0.00     0.135 A 
ATOM     65  C   UNL A   1      46.036  27.536  33.046  1.00  0.00     0.135 A 
ATOM     66  F   UNL A   1      46.901  28.808  29.748  1.00  0.00    -0.206 F 
ATOM     67  C   UNL A   1      48.115  27.418  31.194  1.00  0.00     0.059 A 
ATOM     68  C   UNL A   1      47.177  26.797  33.346  1.00  0.00     0.059 A 
ATOM     69  F   UNL A   1      45.044  27.559  33.950  1.00  0.00    -0.206 F 
ATOM     70  C   UNL A   1      48.202  26.725  32.403  1.00  0.00     0.060 A 
BRANCH  70  71
ATOM     71  S   UNL A   1      49.670  25.724  32.723  1.00  0.00     0.124 S 
ATOM     72  O   UNL A   1      50.587  26.721  33.266  1.00  0.00    -0.237 OA
ATOM     73  O   UNL A   1      49.176  24.734  33.673  1.00  0.00    -0.237 OA
ATOM     74  O   UNL A   1      50.018  25.202  31.404  1.00  0.00    -0.744 OA
ENDBRANCH  70  71
ENDBRANCH  49  63
BRANCH  50  75
ATOM     75  C   UNL A   1      37.159  32.749  30.090  1.00  0.00     0.058 A 
ATOM     76  C   UNL A   1      36.135  32.655  31.042  1.00  0.00     0.135 A 
ATOM     77  C   UNL A   1      36.927  33.536  28.952  1.00  0.00     0.135 A 
ATOM     78  F   UNL A   1      36.311  31.912  32.146  1.00  0.00    -0.206 F 
ATOM     79  C   UNL A   1      34.925  33.322  30.878  1.00  0.00     0.059 A 
ATOM     80  C   UNL A   1      35.733  34.229  28.775  1.00  0.00     0.059 A 
ATOM     81  F   UNL A   1      37.885  33.675  28.023  1.00  0.00    -0.206 F 
ATOM     82  C   UNL A   1      34.738  34.114  29.745  1.00  0.00     0.060 A 
BRANCH  82  83
ATOM     83  S   UNL A   1      33.203  35.056  29.589  1.00  0.00     0.124 S 
ATOM     84  O   UNL A   1      32.500  34.305  28.557  1.00  0.00    -0.237 OA
ATOM     85  O   UNL A   1      32.649  34.964  30.937  1.00  0.00    -0.237 OA
ATOM     86  O   UNL A   1      33.666  36.385  29.201  1.00  0.00    -0.744 OA
ENDBRANCH  82  83
ENDBRANCH  50  75
BRANCH  62  87
ATOM     87  C   UNL A   1      43.144  34.808  33.032  1.00  0.00     0.058 A 
ATOM     88  C   UNL A   1      43.819  35.776  32.273  1.00  0.00     0.135 A 
ATOM     89  C   UNL A   1      42.865  35.102  34.376  1.00  0.00     0.135 A 
ATOM     90  F   UNL A   1      44.114  35.541  30.985  1.00  0.00    -0.206 F 
ATOM     91  C   UNL A   1      44.236  36.978  32.836  1.00  0.00     0.059 A 
ATOM     92  C   UNL A   1      43.250  36.308  34.952  1.00  0.00     0.059 A 
ATOM     93  F   UNL A   1      42.210  34.215  35.141  1.00  0.00    -0.206 F 
ATOM     94  C   UNL A   1      43.951  37.233  34.179  1.00  0.00     0.060 A 
BRANCH  94  95
ATOM     95  S   UNL A   1      44.491  38.796  34.900  1.00  0.00     0.124 S 
ATOM     96  O   UNL A   1      43.587  39.744  34.255  1.00  0.00    -0.237 OA
ATOM     97  O   UNL A   1      44.271  38.580  36.327  1.00  0.00    -0.237 OA
ATOM     98  O   UNL A   1      45.892  38.888  34.497  1.00  0.00    -0.744 OA
ENDBRANCH  94  95
ENDBRANCH  62  87
ENDBRANCH  36  37
ENDBRANCH  28  31
ENDBRANCH  26  27
ENDBRANCH  25  26
ENDBRANCH  24  25
ENDBRANCH   3  24
TORSDOF 19
ENDMDL
