MODEL 1
REMARK VINA RESULT:     -12.3      0.000      0.000
REMARK SMILES COc1c(N)cc(-c2ccccc2)cc1C(=O)NCCCNC(=O)c1ccc(-c2c3nc(c(-c4c(F)cc(S(=O)(=O)[O-])cc4F)c4ccc([nH]4)c(-c4c(F)cc(S(=O)(=O)[O-])cc4F)c4nc(c(-c5c(F)cc(S(=O)(=O)[O-])cc5F)c5ccc2[nH]5)C=C4)C=C3)cc1
REMARK SMILES IDX 21 1 20 2 19 3 18 4 16 5 17 6 15 8 3 9 4 10 6 11 14 12 7 13
REMARK SMILES IDX 2 14 1 15 5 16 8 19 9 20 13 21 10 22 12 23 11 24 22 25 23 26
REMARK SMILES IDX 24 28 25 29 26 30 90 31 27 32 89 33 28 34 29 35 30 36 83 37
REMARK SMILES IDX 31 38 88 39 82 40 84 41 32 42 87 43 81 44 80 45 33 47 67 48
REMARK SMILES IDX 46 49 66 50 47 51 50 52 65 53 85 54 48 55 49 56 64 58 86 59
REMARK SMILES IDX 51 60 34 61 35 62 44 63 36 64 37 65 43 66 45 67 38 68 39 69
REMARK SMILES IDX 40 70 41 71 42 72 68 73 69 74 78 75 70 76 71 77 77 78 79 79
REMARK SMILES IDX 72 80 73 81 74 82 75 83 76 84 52 85 53 86 62 87 54 88 55 89
REMARK SMILES IDX 61 90 63 91 56 92 57 93 58 94 59 95 60 96
REMARK H PARENT 18 7 5 17 5 18 22 27 84 46 50 57
REMARK Flexibility Score: inf
ROOT
ATOM      1  C   UNL A   1      38.256  24.205  26.451  1.00  0.00     0.118 C 
ENDROOT
BRANCH   1   2
ATOM      2  C   UNL A   1      37.342  23.310  25.621  1.00  0.00     0.042 C 
BRANCH   2   3
ATOM      3  C   UNL A   1      35.861  23.677  25.713  1.00  0.00     0.118 C 
BRANCH   3   4
ATOM      4  N   UNL A   1      35.376  24.119  24.421  1.00  0.00    -0.352 N 
ATOM      5  C   UNL A   1      34.231  24.745  24.008  1.00  0.00     0.255 C 
ATOM      6  O   UNL A   1      34.105  24.865  22.784  1.00  0.00    -0.269 OA
ATOM      7  H   UNL A   1      36.002  23.928  23.685  1.00  0.00     0.163 HD
BRANCH   5   8
ATOM      8  C   UNL A   1      33.196  25.370  24.886  1.00  0.00     0.084 A 
ATOM      9  C   UNL A   1      31.878  24.957  25.125  1.00  0.00     0.154 A 
ATOM     10  C   UNL A   1      31.073  25.630  26.076  1.00  0.00     0.076 A 
ATOM     11  C   UNL A   1      31.511  26.845  26.603  1.00  0.00     0.038 A 
ATOM     12  C   UNL A   1      33.613  26.585  25.476  1.00  0.00     0.026 A 
ATOM     13  C   UNL A   1      32.775  27.358  26.294  1.00  0.00    -0.015 A 
BRANCH   9  14
ATOM     14  O   UNL A   1      31.312  23.894  24.467  1.00  0.00    -0.494 OA
ATOM     15  C   UNL A   1      30.679  24.329  23.256  1.00  0.00     0.278 C 
ENDBRANCH   9  14
BRANCH  10  16
ATOM     16  N   UNL A   1      29.785  25.184  26.375  1.00  0.00    -0.396 N 
ATOM     17  H   UNL A   1      29.312  24.587  25.750  1.00  0.00     0.156 HD
ATOM     18  H   UNL A   1      29.348  25.466  27.211  1.00  0.00     0.156 HD
ENDBRANCH  10  16
BRANCH  13  19
ATOM     19  C   UNL A   1      33.193  28.685  26.773  1.00  0.00    -0.018 A 
ATOM     20  C   UNL A   1      32.298  29.765  26.809  1.00  0.00     0.009 A 
ATOM     21  C   UNL A   1      34.520  28.912  27.179  1.00  0.00     0.009 A 
ATOM     22  C   UNL A   1      32.717  31.030  27.229  1.00  0.00     0.001 A 
ATOM     23  C   UNL A   1      34.940  30.176  27.597  1.00  0.00     0.001 A 
ATOM     24  C   UNL A   1      34.038  31.236  27.620  1.00  0.00     0.000 A 
ENDBRANCH  13  19
ENDBRANCH   5   8
ENDBRANCH   3   4
ENDBRANCH   2   3
ENDBRANCH   1   2
BRANCH   1  25
ATOM     25  N   UNL A   1      39.658  23.995  26.127  1.00  0.00    -0.352 N 
ATOM     26  C   UNL A   1      40.764  24.712  26.506  1.00  0.00     0.251 C 
ATOM     27  H   UNL A   1      39.840  23.221  25.547  1.00  0.00     0.163 HD
ATOM     28  O   UNL A   1      41.828  24.517  25.917  1.00  0.00    -0.269 OA
BRANCH  26  29
ATOM     29  C   UNL A   1      40.703  25.713  27.601  1.00  0.00     0.039 A 
ATOM     30  C   UNL A   1      39.686  25.600  28.556  1.00  0.00     0.014 A 
ATOM     31  C   UNL A   1      41.580  26.801  27.656  1.00  0.00     0.014 A 
ATOM     32  C   UNL A   1      39.568  26.551  29.575  1.00  0.00     0.010 A 
ATOM     33  C   UNL A   1      41.504  27.712  28.710  1.00  0.00     0.010 A 
ATOM     34  C   UNL A   1      40.487  27.607  29.671  1.00  0.00    -0.014 A 
BRANCH  34  35
ATOM     35  C   UNL A   1      40.377  28.628  30.748  1.00  0.00     0.031 A 
ATOM     36  C   UNL A   1      41.247  28.531  31.974  1.00  0.00     0.074 A 
ATOM     37  C   UNL A   1      39.462  29.613  30.648  1.00  0.00     0.049 A 
ATOM     38  N   UNL A   1      41.249  29.279  33.048  1.00  0.00    -0.248 NA
ATOM     39  C   UNL A   1      42.228  27.435  32.006  1.00  0.00     0.031 C 
ATOM     40  C   UNL A   1      38.532  29.794  29.532  1.00  0.00     0.029 A 
ATOM     41  N   UNL A   1      39.156  30.641  31.504  1.00  0.00    -0.354 N 
ATOM     42  C   UNL A   1      42.210  28.732  33.890  1.00  0.00     0.074 A 
ATOM     43  C   UNL A   1      42.744  27.567  33.220  1.00  0.00     0.031 C 
ATOM     44  C   UNL A   1      37.771  30.876  29.764  1.00  0.00     0.029 A 
ATOM     45  C   UNL A   1      38.136  31.447  31.057  1.00  0.00     0.049 A 
ATOM     46  H   UNL A   1      39.624  30.788  32.358  1.00  0.00     0.167 HD
ATOM     47  C   UNL A   1      42.625  29.171  35.105  1.00  0.00     0.037 A 
ATOM     48  C   UNL A   1      37.555  32.522  31.626  1.00  0.00     0.037 A 
ATOM     49  C   UNL A   1      42.119  30.353  35.753  1.00  0.00     0.049 A 
ATOM     50  C   UNL A   1      38.050  33.006  32.961  1.00  0.00     0.074 A 
ATOM     51  C   UNL A   1      42.515  30.912  36.956  1.00  0.00     0.029 A 
ATOM     52  N   UNL A   1      41.110  31.161  35.251  1.00  0.00    -0.354 N 
ATOM     53  N   UNL A   1      38.993  32.504  33.721  1.00  0.00    -0.248 NA
ATOM     54  C   UNL A   1      37.407  34.207  33.513  1.00  0.00     0.031 C 
ATOM     55  C   UNL A   1      41.727  32.044  37.193  1.00  0.00     0.029 A 
ATOM     56  C   UNL A   1      40.863  32.209  36.122  1.00  0.00     0.049 A 
ATOM     57  H   UNL A   1      40.639  31.013  34.399  1.00  0.00     0.167 HD
ATOM     58  C   UNL A   1      39.071  33.338  34.831  1.00  0.00     0.074 A 
ATOM     59  C   UNL A   1      38.088  34.384  34.637  1.00  0.00     0.031 C 
ATOM     60  C   UNL A   1      39.885  33.246  35.911  1.00  0.00     0.037 A 
BRANCH  47  61
ATOM     61  C   UNL A   1      43.684  28.369  35.809  1.00  0.00     0.058 A 
ATOM     62  C   UNL A   1      45.051  28.624  35.613  1.00  0.00     0.135 A 
ATOM     63  C   UNL A   1      43.331  27.353  36.710  1.00  0.00     0.135 A 
ATOM     64  F   UNL A   1      45.444  29.576  34.751  1.00  0.00    -0.206 F 
ATOM     65  C   UNL A   1      46.030  27.878  36.260  1.00  0.00     0.059 A 
ATOM     66  C   UNL A   1      44.294  26.609  37.388  1.00  0.00     0.059 A 
ATOM     67  F   UNL A   1      42.039  27.068  36.936  1.00  0.00    -0.206 F 
ATOM     68  C   UNL A   1      45.642  26.870  37.143  1.00  0.00     0.060 A 
BRANCH  68  69
ATOM     69  S   UNL A   1      46.921  25.905  37.976  1.00  0.00     0.124 S 
ATOM     70  O   UNL A   1      47.141  24.826  37.014  1.00  0.00    -0.237 OA
ATOM     71  O   UNL A   1      48.011  26.870  38.100  1.00  0.00    -0.237 OA
ATOM     72  O   UNL A   1      46.291  25.512  39.227  1.00  0.00    -0.744 OA
ENDBRANCH  68  69
ENDBRANCH  47  61
BRANCH  48  73
ATOM     73  C   UNL A   1      36.456  33.229  30.919  1.00  0.00     0.058 A 
ATOM     74  C   UNL A   1      35.133  33.143  31.377  1.00  0.00     0.135 A 
ATOM     75  C   UNL A   1      36.709  34.021  29.788  1.00  0.00     0.135 A 
ATOM     76  F   UNL A   1      34.843  32.393  32.451  1.00  0.00    -0.206 F 
ATOM     77  C   UNL A   1      34.095  33.810  30.734  1.00  0.00     0.059 A 
ATOM     78  C   UNL A   1      35.690  34.713  29.141  1.00  0.00     0.059 A 
ATOM     79  F   UNL A   1      37.960  34.147  29.321  1.00  0.00    -0.206 F 
ATOM     80  C   UNL A   1      34.385  34.596  29.617  1.00  0.00     0.060 A 
BRANCH  80  81
ATOM     81  S   UNL A   1      33.042  35.508  28.825  1.00  0.00     0.124 S 
ATOM     82  O   UNL A   1      33.776  36.526  28.083  1.00  0.00    -0.237 OA
ATOM     83  O   UNL A   1      32.395  34.473  28.023  1.00  0.00    -0.237 OA
ATOM     84  O   UNL A   1      32.257  35.992  29.957  1.00  0.00    -0.744 OA
ENDBRANCH  80  81
ENDBRANCH  48  73
BRANCH  60  85
ATOM     85  C   UNL A   1      39.768  34.319  36.955  1.00  0.00     0.058 A 
ATOM     86  C   UNL A   1      39.001  34.134  38.115  1.00  0.00     0.135 A 
ATOM     87  C   UNL A   1      40.468  35.528  36.815  1.00  0.00     0.135 A 
ATOM     88  F   UNL A   1      38.308  32.998  38.293  1.00  0.00    -0.206 F 
ATOM     89  C   UNL A   1      38.915  35.120  39.093  1.00  0.00     0.059 A 
ATOM     90  C   UNL A   1      40.414  36.518  37.790  1.00  0.00     0.059 A 
ATOM     91  F   UNL A   1      41.223  35.750  35.727  1.00  0.00    -0.206 F 
ATOM     92  C   UNL A   1      39.626  36.310  38.921  1.00  0.00     0.060 A 
BRANCH  92  93
ATOM     93  S   UNL A   1      39.536  37.571  40.210  1.00  0.00     0.124 S 
ATOM     94  O   UNL A   1      38.948  36.819  41.314  1.00  0.00    -0.237 OA
ATOM     95  O   UNL A   1      40.936  37.952  40.377  1.00  0.00    -0.237 OA
ATOM     96  O   UNL A   1      38.680  38.596  39.621  1.00  0.00    -0.744 OA
ENDBRANCH  92  93
ENDBRANCH  60  85
ENDBRANCH  34  35
ENDBRANCH  26  29
ENDBRANCH   1  25
TORSDOF 16
ENDMDL
MODEL 2
REMARK VINA RESULT:     -12.1      1.165      2.157
REMARK SMILES COc1c(N)cc(-c2ccccc2)cc1C(=O)NCCCNC(=O)c1ccc(-c2c3nc(c(-c4c(F)cc(S(=O)(=O)[O-])cc4F)c4ccc([nH]4)c(-c4c(F)cc(S(=O)(=O)[O-])cc4F)c4nc(c(-c5c(F)cc(S(=O)(=O)[O-])cc5F)c5ccc2[nH]5)C=C4)C=C3)cc1
REMARK SMILES IDX 21 1 20 2 19 3 18 4 16 5 17 6 15 8 3 9 4 10 6 11 14 12 7 13
REMARK SMILES IDX 2 14 1 15 5 16 8 19 9 20 13 21 10 22 12 23 11 24 22 25 23 26
REMARK SMILES IDX 24 28 25 29 26 30 90 31 27 32 89 33 28 34 29 35 30 36 83 37
REMARK SMILES IDX 31 38 88 39 82 40 84 41 32 42 87 43 81 44 80 45 33 47 67 48
REMARK SMILES IDX 46 49 66 50 47 51 50 52 65 53 85 54 48 55 49 56 64 58 86 59
REMARK SMILES IDX 51 60 34 61 35 62 44 63 36 64 37 65 43 66 45 67 38 68 39 69
REMARK SMILES IDX 40 70 41 71 42 72 68 73 69 74 78 75 70 76 71 77 77 78 79 79
REMARK SMILES IDX 72 80 73 81 74 82 75 83 76 84 52 85 53 86 62 87 54 88 55 89
REMARK SMILES IDX 61 90 63 91 56 92 57 93 58 94 59 95 60 96
REMARK H PARENT 18 7 5 17 5 18 22 27 84 46 50 57
REMARK Flexibility Score: inf
ROOT
ATOM      1  C   UNL A   1      38.239  23.951  26.527  1.00  0.00     0.118 C 
ENDROOT
BRANCH   1   2
ATOM      2  C   UNL A   1      37.294  23.703  25.357  1.00  0.00     0.042 C 
BRANCH   2   3
ATOM      3  C   UNL A   1      36.989  22.226  25.106  1.00  0.00     0.118 C 
BRANCH   3   4
ATOM      4  N   UNL A   1      36.089  21.723  26.125  1.00  0.00    -0.352 N 
ATOM      5  C   UNL A   1      34.802  22.026  26.479  1.00  0.00     0.255 C 
ATOM      6  O   UNL A   1      34.386  21.463  27.497  1.00  0.00    -0.269 OA
ATOM      7  H   UNL A   1      36.488  21.015  26.680  1.00  0.00     0.163 HD
BRANCH   5   8
ATOM      8  C   UNL A   1      33.847  22.878  25.706  1.00  0.00     0.084 A 
ATOM      9  C   UNL A   1      33.181  22.589  24.508  1.00  0.00     0.154 A 
ATOM     10  C   UNL A   1      32.230  23.493  23.976  1.00  0.00     0.076 A 
ATOM     11  C   UNL A   1      32.128  24.774  24.519  1.00  0.00     0.038 A 
ATOM     12  C   UNL A   1      33.680  24.174  26.246  1.00  0.00     0.026 A 
ATOM     13  C   UNL A   1      32.868  25.147  25.646  1.00  0.00    -0.015 A 
BRANCH   9  14
ATOM     14  O   UNL A   1      33.406  21.433  23.803  1.00  0.00    -0.494 OA
ATOM     15  C   UNL A   1      32.619  20.358  24.334  1.00  0.00     0.278 C 
ENDBRANCH   9  14
BRANCH  10  16
ATOM     16  N   UNL A   1      31.507  23.184  22.822  1.00  0.00    -0.396 N 
ATOM     17  H   UNL A   1      31.757  22.402  22.279  1.00  0.00     0.156 HD
ATOM     18  H   UNL A   1      30.747  23.749  22.552  1.00  0.00     0.156 HD
ENDBRANCH  10  16
BRANCH  13  19
ATOM     19  C   UNL A   1      32.830  26.526  26.155  1.00  0.00    -0.018 A 
ATOM     20  C   UNL A   1      33.969  27.347  26.129  1.00  0.00     0.009 A 
ATOM     21  C   UNL A   1      31.651  27.049  26.716  1.00  0.00     0.009 A 
ATOM     22  C   UNL A   1      33.931  28.643  26.651  1.00  0.00     0.001 A 
ATOM     23  C   UNL A   1      31.614  28.343  27.240  1.00  0.00     0.001 A 
ATOM     24  C   UNL A   1      32.755  29.139  27.209  1.00  0.00     0.000 A 
ENDBRANCH  13  19
ENDBRANCH   5   8
ENDBRANCH   3   4
ENDBRANCH   2   3
ENDBRANCH   1   2
BRANCH   1  25
ATOM     25  N   UNL A   1      39.631  23.934  26.110  1.00  0.00    -0.352 N 
ATOM     26  C   UNL A   1      40.647  24.810  26.402  1.00  0.00     0.251 C 
ATOM     27  H   UNL A   1      39.884  23.180  25.531  1.00  0.00     0.163 HD
ATOM     28  O   UNL A   1      41.686  24.753  25.744  1.00  0.00    -0.269 OA
BRANCH  26  29
ATOM     29  C   UNL A   1      40.516  25.819  27.482  1.00  0.00     0.039 A 
ATOM     30  C   UNL A   1      41.373  26.926  27.473  1.00  0.00     0.014 A 
ATOM     31  C   UNL A   1      39.620  25.652  28.543  1.00  0.00     0.014 A 
ATOM     32  C   UNL A   1      41.310  27.873  28.500  1.00  0.00     0.010 A 
ATOM     33  C   UNL A   1      39.512  26.632  29.532  1.00  0.00     0.010 A 
ATOM     34  C   UNL A   1      40.367  27.743  29.530  1.00  0.00    -0.014 A 
BRANCH  34  35
ATOM     35  C   UNL A   1      40.287  28.742  30.631  1.00  0.00     0.031 A 
ATOM     36  C   UNL A   1      41.179  28.611  31.838  1.00  0.00     0.074 A 
ATOM     37  C   UNL A   1      39.380  29.737  30.570  1.00  0.00     0.049 A 
ATOM     38  N   UNL A   1      41.209  29.335  32.928  1.00  0.00    -0.248 NA
ATOM     39  C   UNL A   1      42.151  27.505  31.828  1.00  0.00     0.031 C 
ATOM     40  C   UNL A   1      38.431  29.950  29.476  1.00  0.00     0.029 A 
ATOM     41  N   UNL A   1      39.100  30.749  31.454  1.00  0.00    -0.354 N 
ATOM     42  C   UNL A   1      42.180  28.761  33.740  1.00  0.00     0.074 A 
ATOM     43  C   UNL A   1      42.690  27.606  33.034  1.00  0.00     0.031 C 
ATOM     44  C   UNL A   1      37.684  31.034  29.746  1.00  0.00     0.029 A 
ATOM     45  C   UNL A   1      38.078  31.573  31.044  1.00  0.00     0.049 A 
ATOM     46  H   UNL A   1      39.585  30.873  32.302  1.00  0.00     0.167 HD
ATOM     47  C   UNL A   1      42.622  29.170  34.955  1.00  0.00     0.037 A 
ATOM     48  C   UNL A   1      37.519  32.640  31.647  1.00  0.00     0.037 A 
ATOM     49  C   UNL A   1      42.139  30.342  35.638  1.00  0.00     0.049 A 
ATOM     50  C   UNL A   1      38.043  33.091  32.983  1.00  0.00     0.074 A 
ATOM     51  C   UNL A   1      42.564  30.871  36.845  1.00  0.00     0.029 A 
ATOM     52  N   UNL A   1      41.129  31.169  35.173  1.00  0.00    -0.354 N 
ATOM     53  N   UNL A   1      38.996  32.564  33.713  1.00  0.00    -0.248 NA
ATOM     54  C   UNL A   1      37.422  34.285  33.573  1.00  0.00     0.031 C 
ATOM     55  C   UNL A   1      41.790  32.005  37.122  1.00  0.00     0.029 A 
ATOM     56  C   UNL A   1      40.908  32.200  36.071  1.00  0.00     0.049 A 
ATOM     57  H   UNL A   1      40.640  31.044  34.328  1.00  0.00     0.167 HD
ATOM     58  C   UNL A   1      39.103  33.373  34.839  1.00  0.00     0.074 A 
ATOM     59  C   UNL A   1      38.126  34.432  34.687  1.00  0.00     0.031 C 
ATOM     60  C   UNL A   1      39.936  33.250  35.901  1.00  0.00     0.037 A 
BRANCH  47  61
ATOM     61  C   UNL A   1      43.687  28.343  35.621  1.00  0.00     0.058 A 
ATOM     62  C   UNL A   1      43.364  27.318  36.524  1.00  0.00     0.135 A 
ATOM     63  C   UNL A   1      45.044  28.560  35.335  1.00  0.00     0.135 A 
ATOM     64  F   UNL A   1      42.083  27.078  36.845  1.00  0.00    -0.206 F 
ATOM     65  C   UNL A   1      44.350  26.557  37.144  1.00  0.00     0.059 A 
ATOM     66  C   UNL A   1      46.047  27.795  35.925  1.00  0.00     0.059 A 
ATOM     67  F   UNL A   1      45.409  29.527  34.478  1.00  0.00    -0.206 F 
ATOM     68  C   UNL A   1      45.689  26.806  36.841  1.00  0.00     0.060 A 
BRANCH  68  69
ATOM     69  S   UNL A   1      46.962  25.816  37.654  1.00  0.00     0.124 S 
ATOM     70  O   UNL A   1      47.066  26.486  38.949  1.00  0.00    -0.237 OA
ATOM     71  O   UNL A   1      46.356  24.486  37.680  1.00  0.00    -0.237 OA
ATOM     72  O   UNL A   1      48.116  25.958  36.778  1.00  0.00    -0.744 OA
ENDBRANCH  68  69
ENDBRANCH  47  61
BRANCH  48  73
ATOM     73  C   UNL A   1      36.413  33.372  30.976  1.00  0.00     0.058 A 
ATOM     74  C   UNL A   1      35.097  33.279  31.450  1.00  0.00     0.135 A 
ATOM     75  C   UNL A   1      36.653  34.197  29.866  1.00  0.00     0.135 A 
ATOM     76  F   UNL A   1      34.818  32.498  32.506  1.00  0.00    -0.206 F 
ATOM     77  C   UNL A   1      34.052  33.968  30.842  1.00  0.00     0.059 A 
ATOM     78  C   UNL A   1      35.629  34.912  29.254  1.00  0.00     0.059 A 
ATOM     79  F   UNL A   1      37.898  34.332  29.386  1.00  0.00    -0.206 F 
ATOM     80  C   UNL A   1      34.330  34.785  29.744  1.00  0.00     0.060 A 
BRANCH  80  81
ATOM     81  S   UNL A   1      32.980  35.726  28.999  1.00  0.00     0.124 S 
ATOM     82  O   UNL A   1      33.706  36.798  28.326  1.00  0.00    -0.237 OA
ATOM     83  O   UNL A   1      32.355  34.734  28.129  1.00  0.00    -0.237 OA
ATOM     84  O   UNL A   1      32.179  36.129  30.151  1.00  0.00    -0.744 OA
ENDBRANCH  80  81
ENDBRANCH  48  73
BRANCH  60  85
ATOM     85  C   UNL A   1      39.848  34.301  36.971  1.00  0.00     0.058 A 
ATOM     86  C   UNL A   1      40.488  35.542  36.835  1.00  0.00     0.135 A 
ATOM     87  C   UNL A   1      39.076  34.081  38.122  1.00  0.00     0.135 A 
ATOM     88  F   UNL A   1      41.245  35.798  35.755  1.00  0.00    -0.206 F 
ATOM     89  C   UNL A   1      40.383  36.524  37.816  1.00  0.00     0.059 A 
ATOM     90  C   UNL A   1      38.938  35.057  39.104  1.00  0.00     0.059 A 
ATOM     91  F   UNL A   1      38.435  32.914  38.294  1.00  0.00    -0.206 F 
ATOM     92  C   UNL A   1      39.605  36.271  38.948  1.00  0.00     0.060 A 
BRANCH  92  93
ATOM     93  S   UNL A   1      39.447  37.562  40.200  1.00  0.00     0.124 S 
ATOM     94  O   UNL A   1      40.826  38.024  40.320  1.00  0.00    -0.237 OA
ATOM     95  O   UNL A   1      38.518  38.498  39.572  1.00  0.00    -0.237 OA
ATOM     96  O   UNL A   1      38.919  36.848  41.358  1.00  0.00    -0.744 OA
ENDBRANCH  92  93
ENDBRANCH  60  85
ENDBRANCH  34  35
ENDBRANCH  26  29
ENDBRANCH   1  25
TORSDOF 16
ENDMDL
MODEL 3
REMARK VINA RESULT:     -11.9      6.641     12.103
REMARK SMILES COc1c(N)cc(-c2ccccc2)cc1C(=O)NCCCNC(=O)c1ccc(-c2c3nc(c(-c4c(F)cc(S(=O)(=O)[O-])cc4F)c4ccc([nH]4)c(-c4c(F)cc(S(=O)(=O)[O-])cc4F)c4nc(c(-c5c(F)cc(S(=O)(=O)[O-])cc5F)c5ccc2[nH]5)C=C4)C=C3)cc1
REMARK SMILES IDX 21 1 20 2 19 3 18 4 16 5 17 6 15 8 3 9 4 10 6 11 14 12 7 13
REMARK SMILES IDX 2 14 1 15 5 16 8 19 9 20 13 21 10 22 12 23 11 24 22 25 23 26
REMARK SMILES IDX 24 28 25 29 26 30 90 31 27 32 89 33 28 34 29 35 30 36 83 37
REMARK SMILES IDX 31 38 88 39 82 40 84 41 32 42 87 43 81 44 80 45 33 47 67 48
REMARK SMILES IDX 46 49 66 50 47 51 50 52 65 53 85 54 48 55 49 56 64 58 86 59
REMARK SMILES IDX 51 60 34 61 35 62 44 63 36 64 37 65 43 66 45 67 38 68 39 69
REMARK SMILES IDX 40 70 41 71 42 72 68 73 69 74 78 75 70 76 71 77 77 78 79 79
REMARK SMILES IDX 72 80 73 81 74 82 75 83 76 84 52 85 53 86 62 87 54 88 55 89
REMARK SMILES IDX 61 90 63 91 56 92 57 93 58 94 59 95 60 96
REMARK H PARENT 18 7 5 17 5 18 22 27 84 46 50 57
REMARK Flexibility Score: inf
ROOT
ATOM      1  C   UNL A   1      35.484  31.451  28.289  1.00  0.00     0.118 C 
ENDROOT
BRANCH   1   2
ATOM      2  C   UNL A   1      34.275  30.838  27.591  1.00  0.00     0.042 C 
BRANCH   2   3
ATOM      3  C   UNL A   1      34.437  29.356  27.252  1.00  0.00     0.118 C 
BRANCH   3   4
ATOM      4  N   UNL A   1      33.251  28.622  27.648  1.00  0.00    -0.352 N 
ATOM      5  C   UNL A   1      32.412  27.762  26.994  1.00  0.00     0.255 C 
ATOM      6  O   UNL A   1      31.412  27.410  27.629  1.00  0.00    -0.269 OA
ATOM      7  H   UNL A   1      32.995  28.776  28.587  1.00  0.00     0.163 HD
BRANCH   5   8
ATOM      8  C   UNL A   1      32.644  27.147  25.651  1.00  0.00     0.084 A 
ATOM      9  C   UNL A   1      31.913  27.314  24.468  1.00  0.00     0.154 A 
ATOM     10  C   UNL A   1      32.350  26.719  23.259  1.00  0.00     0.076 A 
ATOM     11  C   UNL A   1      33.378  25.776  23.296  1.00  0.00     0.038 A 
ATOM     12  C   UNL A   1      33.707  26.215  25.632  1.00  0.00     0.026 A 
ATOM     13  C   UNL A   1      34.058  25.488  24.484  1.00  0.00    -0.015 A 
BRANCH   9  14
ATOM     14  O   UNL A   1      30.759  28.055  24.417  1.00  0.00    -0.494 OA
ATOM     15  C   UNL A   1      31.061  29.457  24.379  1.00  0.00     0.278 C 
ENDBRANCH   9  14
BRANCH  10  16
ATOM     16  N   UNL A   1      31.670  26.937  22.060  1.00  0.00    -0.396 N 
ATOM     17  H   UNL A   1      31.393  27.848  21.810  1.00  0.00     0.156 HD
ATOM     18  H   UNL A   1      31.468  26.179  21.465  1.00  0.00     0.156 HD
ENDBRANCH  10  16
BRANCH  13  19
ATOM     19  C   UNL A   1      35.073  24.424  24.538  1.00  0.00    -0.018 A 
ATOM     20  C   UNL A   1      35.390  23.658  23.406  1.00  0.00     0.009 A 
ATOM     21  C   UNL A   1      35.731  24.126  25.744  1.00  0.00     0.009 A 
ATOM     22  C   UNL A   1      36.328  22.624  23.479  1.00  0.00     0.001 A 
ATOM     23  C   UNL A   1      36.667  23.091  25.819  1.00  0.00     0.001 A 
ATOM     24  C   UNL A   1      36.963  22.340  24.686  1.00  0.00     0.000 A 
ENDBRANCH  13  19
ENDBRANCH   5   8
ENDBRANCH   3   4
ENDBRANCH   2   3
ENDBRANCH   1   2
BRANCH   1  25
ATOM     25  N   UNL A   1      35.427  31.267  29.730  1.00  0.00    -0.352 N 
ATOM     26  C   UNL A   1      36.279  30.590  30.565  1.00  0.00     0.251 C 
ATOM     27  H   UNL A   1      34.659  31.695  30.174  1.00  0.00     0.163 HD
ATOM     28  O   UNL A   1      35.913  30.343  31.714  1.00  0.00    -0.269 OA
BRANCH  26  29
ATOM     29  C   UNL A   1      37.622  30.147  30.111  1.00  0.00     0.039 A 
ATOM     30  C   UNL A   1      38.566  29.777  31.075  1.00  0.00     0.014 A 
ATOM     31  C   UNL A   1      37.988  30.168  28.761  1.00  0.00     0.014 A 
ATOM     32  C   UNL A   1      39.856  29.399  30.688  1.00  0.00     0.010 A 
ATOM     33  C   UNL A   1      39.253  29.727  28.371  1.00  0.00     0.010 A 
ATOM     34  C   UNL A   1      40.207  29.355  29.330  1.00  0.00    -0.014 A 
BRANCH  34  35
ATOM     35  C   UNL A   1      41.574  28.956  28.900  1.00  0.00     0.031 A 
ATOM     36  C   UNL A   1      42.680  29.977  28.851  1.00  0.00     0.074 A 
ATOM     37  C   UNL A   1      41.811  27.688  28.508  1.00  0.00     0.049 A 
ATOM     38  N   UNL A   1      43.915  29.841  28.437  1.00  0.00    -0.248 NA
ATOM     39  C   UNL A   1      42.348  31.338  29.305  1.00  0.00     0.031 C 
ATOM     40  C   UNL A   1      40.817  26.614  28.470  1.00  0.00     0.029 A 
ATOM     41  N   UNL A   1      42.961  27.092  28.054  1.00  0.00    -0.354 N 
ATOM     42  C   UNL A   1      44.497  31.098  28.559  1.00  0.00     0.074 A 
ATOM     43  C   UNL A   1      43.471  31.993  29.047  1.00  0.00     0.031 C 
ATOM     44  C   UNL A   1      41.403  25.487  28.033  1.00  0.00     0.029 A 
ATOM     45  C   UNL A   1      42.803  25.765  27.729  1.00  0.00     0.049 A 
ATOM     46  H   UNL A   1      43.818  27.569  27.968  1.00  0.00     0.167 HD
ATOM     47  C   UNL A   1      45.776  31.470  28.304  1.00  0.00     0.037 A 
ATOM     48  C   UNL A   1      43.686  24.873  27.238  1.00  0.00     0.037 A 
ATOM     49  C   UNL A   1      46.805  30.569  27.854  1.00  0.00     0.049 A 
ATOM     50  C   UNL A   1      45.106  25.302  26.989  1.00  0.00     0.074 A 
ATOM     51  C   UNL A   1      48.144  30.837  27.624  1.00  0.00     0.029 A 
ATOM     52  N   UNL A   1      46.613  29.226  27.571  1.00  0.00    -0.354 N 
ATOM     53  N   UNL A   1      45.650  26.482  27.155  1.00  0.00    -0.248 NA
ATOM     54  C   UNL A   1      46.034  24.275  26.492  1.00  0.00     0.031 C 
ATOM     55  C   UNL A   1      48.755  29.661  27.175  1.00  0.00     0.029 A 
ATOM     56  C   UNL A   1      47.804  28.653  27.159  1.00  0.00     0.049 A 
ATOM     57  H   UNL A   1      45.756  28.749  27.651  1.00  0.00     0.167 HD
ATOM     58  C   UNL A   1      46.988  26.337  26.803  1.00  0.00     0.074 A 
ATOM     59  C   UNL A   1      47.173  24.951  26.427  1.00  0.00     0.031 C 
ATOM     60  C   UNL A   1      47.973  27.269  26.795  1.00  0.00     0.037 A 
BRANCH  47  61
ATOM     61  C   UNL A   1      46.134  32.916  28.513  1.00  0.00     0.058 A 
ATOM     62  C   UNL A   1      46.594  33.387  29.752  1.00  0.00     0.135 A 
ATOM     63  C   UNL A   1      46.041  33.835  27.457  1.00  0.00     0.135 A 
ATOM     64  F   UNL A   1      46.688  32.553  30.801  1.00  0.00    -0.206 F 
ATOM     65  C   UNL A   1      46.920  34.726  29.946  1.00  0.00     0.059 A 
ATOM     66  C   UNL A   1      46.385  35.175  27.621  1.00  0.00     0.059 A 
ATOM     67  F   UNL A   1      45.608  33.438  26.249  1.00  0.00    -0.206 F 
ATOM     68  C   UNL A   1      46.807  35.613  28.875  1.00  0.00     0.060 A 
BRANCH  68  69
ATOM     69  S   UNL A   1      47.229  37.349  29.138  1.00  0.00     0.124 S 
ATOM     70  O   UNL A   1      48.183  37.581  28.055  1.00  0.00    -0.237 OA
ATOM     71  O   UNL A   1      45.935  38.012  28.991  1.00  0.00    -0.237 OA
ATOM     72  O   UNL A   1      47.788  37.365  30.481  1.00  0.00    -0.744 OA
ENDBRANCH  68  69
ENDBRANCH  47  61
BRANCH  48  73
ATOM     73  C   UNL A   1      43.255  23.475  26.975  1.00  0.00     0.058 A 
ATOM     74  C   UNL A   1      43.056  23.018  25.664  1.00  0.00     0.135 A 
ATOM     75  C   UNL A   1      43.058  22.564  28.024  1.00  0.00     0.135 A 
ATOM     76  F   UNL A   1      43.228  23.855  24.629  1.00  0.00    -0.206 F 
ATOM     77  C   UNL A   1      42.666  21.709  25.400  1.00  0.00     0.059 A 
ATOM     78  C   UNL A   1      42.687  21.245  27.784  1.00  0.00     0.059 A 
ATOM     79  F   UNL A   1      43.251  22.949  29.294  1.00  0.00    -0.206 F 
ATOM     80  C   UNL A   1      42.486  20.828  26.469  1.00  0.00     0.060 A 
BRANCH  80  81
ATOM     81  S   UNL A   1      42.040  19.114  26.115  1.00  0.00     0.124 S 
ATOM     82  O   UNL A   1      42.356  18.461  27.381  1.00  0.00    -0.237 OA
ATOM     83  O   UNL A   1      40.621  19.224  25.790  1.00  0.00    -0.237 OA
ATOM     84  O   UNL A   1      42.907  18.770  24.992  1.00  0.00    -0.744 OA
ENDBRANCH  80  81
ENDBRANCH  48  73
BRANCH  60  85
ATOM     85  C   UNL A   1      49.347  26.814  26.392  1.00  0.00     0.058 A 
ATOM     86  C   UNL A   1      50.210  26.188  27.303  1.00  0.00     0.135 A 
ATOM     87  C   UNL A   1      49.785  26.964  25.066  1.00  0.00     0.135 A 
ATOM     88  F   UNL A   1      49.840  26.027  28.584  1.00  0.00    -0.206 F 
ATOM     89  C   UNL A   1      51.472  25.744  26.920  1.00  0.00     0.059 A 
ATOM     90  C   UNL A   1      51.033  26.508  24.656  1.00  0.00     0.059 A 
ATOM     91  F   UNL A   1      48.992  27.548  24.154  1.00  0.00    -0.206 F 
ATOM     92  C   UNL A   1      51.874  25.909  25.593  1.00  0.00     0.060 A 
BRANCH  92  93
ATOM     93  S   UNL A   1      53.500  25.301  25.096  1.00  0.00     0.124 S 
ATOM     94  O   UNL A   1      54.382  26.084  25.955  1.00  0.00    -0.237 OA
ATOM     95  O   UNL A   1      53.413  23.876  25.407  1.00  0.00    -0.237 OA
ATOM     96  O   UNL A   1      53.561  25.621  23.673  1.00  0.00    -0.744 OA
ENDBRANCH  92  93
ENDBRANCH  60  85
ENDBRANCH  34  35
ENDBRANCH  26  29
ENDBRANCH   1  25
TORSDOF 16
ENDMDL
