MODEL 1
REMARK VINA RESULT:     -11.5      0.000      0.000
REMARK SMILES CCC(C)(C)n1c(SCC(=O)NCCCNC(=O)c2ccc(-c3c4nc(c(-c5c(F)cc(S(=O)(=O)[O-])cc5F)c5ccc([nH]5)c(-c5c(F)cc(S(=O)(=O)[O-])cc5F)c5nc(c(-c6c(F)cc(S(=O)(=O)[O-])cc6F)c6ccc3[nH]6)C=C5)C=C4)cc2)nc2cccnc21
REMARK SMILES IDX 13 1 12 2 10 3 11 4 9 6 8 7 7 8 6 9 91 10 85 11 86 12 90 13
REMARK SMILES IDX 87 14 89 15 88 16 3 17 4 18 5 19 2 20 1 21 14 22 15 23 16 24
REMARK SMILES IDX 17 25 18 27 19 28 20 29 84 30 21 31 83 32 22 33 23 34 24 35
REMARK SMILES IDX 77 36 25 37 82 38 76 39 78 40 26 41 81 42 75 43 74 44 27 46
REMARK SMILES IDX 61 47 40 48 60 49 41 50 44 51 59 52 79 53 42 54 43 55 58 57
REMARK SMILES IDX 80 58 45 59 28 60 29 61 38 62 30 63 31 64 37 65 39 66 32 67
REMARK SMILES IDX 33 68 34 69 35 70 36 71 62 72 63 73 72 74 64 75 65 76 71 77
REMARK SMILES IDX 73 78 66 79 67 80 68 81 69 82 70 83 46 84 47 85 56 86 48 87
REMARK SMILES IDX 49 88 55 89 57 90 50 91 51 92 52 93 53 94 54 95
REMARK H PARENT 12 5 16 26 78 45 44 56
REMARK Flexibility Score: inf
ROOT
ATOM      1  C   UNL A   1      37.953  23.425  25.981  1.00  0.00     0.117 C 
ENDROOT
BRANCH   1   2
ATOM      2  N   UNL A   1      36.610  23.310  26.508  1.00  0.00    -0.355 N 
ATOM      3  C   UNL A   1      35.436  23.405  25.832  1.00  0.00     0.230 C 
ATOM      4  O   UNL A   1      34.462  22.828  26.328  1.00  0.00    -0.274 OA
ATOM      5  H   UNL A   1      36.539  23.144  27.476  1.00  0.00     0.163 HD
BRANCH   3   6
ATOM      6  C   UNL A   1      35.337  24.077  24.475  1.00  0.00     0.178 C 
BRANCH   6   7
ATOM      7  S   UNL A   1      33.813  24.874  24.040  1.00  0.00    -0.078 SA
BRANCH   7   8
ATOM      8  C   UNL A   1      33.292  26.418  24.624  1.00  0.00     0.171 A 
ATOM      9  N   UNL A   1      32.341  27.383  24.295  1.00  0.00    -0.298 N 
ATOM     10  C   UNL A   1      32.502  28.408  25.237  1.00  0.00     0.161 A 
ATOM     11  N   UNL A   1      34.029  26.826  25.652  1.00  0.00    -0.221 NA
ATOM     12  C   UNL A   1      33.552  28.031  26.045  1.00  0.00     0.109 A 
ATOM     13  N   UNL A   1      31.770  29.536  25.358  1.00  0.00    -0.237 NA
ATOM     14  C   UNL A   1      33.934  28.887  27.088  1.00  0.00     0.034 A 
ATOM     15  C   UNL A   1      32.156  30.329  26.380  1.00  0.00     0.113 A 
ATOM     16  C   UNL A   1      33.205  30.066  27.248  1.00  0.00     0.022 A 
BRANCH   9  17
ATOM     17  C   UNL A   1      31.235  27.486  23.321  1.00  0.00     0.043 C 
ATOM     18  C   UNL A   1      29.875  27.098  23.872  1.00  0.00     0.035 C 
ATOM     19  C   UNL A   1      31.420  26.477  22.148  1.00  0.00     0.035 C 
BRANCH  17  20
ATOM     20  C   UNL A   1      31.142  28.940  22.747  1.00  0.00     0.025 C 
ATOM     21  C   UNL A   1      29.735  29.414  22.375  1.00  0.00     0.006 C 
ENDBRANCH  17  20
ENDBRANCH   9  17
ENDBRANCH   7   8
ENDBRANCH   6   7
ENDBRANCH   3   6
ENDBRANCH   1   2
BRANCH   1  22
ATOM     22  C   UNL A   1      38.638  22.084  25.751  1.00  0.00     0.042 C 
BRANCH  22  23
ATOM     23  C   UNL A   1      39.800  21.854  26.697  1.00  0.00     0.118 C 
BRANCH  23  24
ATOM     24  N   UNL A   1      41.081  21.722  26.010  1.00  0.00    -0.352 N 
ATOM     25  C   UNL A   1      42.035  22.686  25.764  1.00  0.00     0.251 C 
ATOM     26  H   UNL A   1      41.294  20.819  25.678  1.00  0.00     0.163 HD
ATOM     27  O   UNL A   1      42.929  22.471  24.965  1.00  0.00    -0.269 OA
BRANCH  25  28
ATOM     28  C   UNL A   1      41.957  23.966  26.491  1.00  0.00     0.039 A 
ATOM     29  C   UNL A   1      42.504  24.088  27.773  1.00  0.00     0.014 A 
ATOM     30  C   UNL A   1      41.295  25.040  25.895  1.00  0.00     0.014 A 
ATOM     31  C   UNL A   1      42.398  25.307  28.431  1.00  0.00     0.010 A 
ATOM     32  C   UNL A   1      41.318  26.276  26.475  1.00  0.00     0.010 A 
ATOM     33  C   UNL A   1      41.797  26.388  27.769  1.00  0.00    -0.014 A 
BRANCH  33  34
ATOM     34  C   UNL A   1      41.705  27.694  28.389  1.00  0.00     0.031 A 
ATOM     35  C   UNL A   1      42.834  28.597  28.069  1.00  0.00     0.074 A 
ATOM     36  C   UNL A   1      40.586  28.109  29.015  1.00  0.00     0.049 A 
ATOM     37  N   UNL A   1      43.803  28.937  28.851  1.00  0.00    -0.248 NA
ATOM     38  C   UNL A   1      43.017  29.028  26.674  1.00  0.00     0.031 C 
ATOM     39  C   UNL A   1      39.289  27.430  29.135  1.00  0.00     0.029 A 
ATOM     40  N   UNL A   1      40.355  29.300  29.621  1.00  0.00    -0.354 N 
ATOM     41  C   UNL A   1      44.585  29.825  28.123  1.00  0.00     0.074 A 
ATOM     42  C   UNL A   1      44.187  29.668  26.750  1.00  0.00     0.031 C 
ATOM     43  C   UNL A   1      38.362  28.304  29.589  1.00  0.00     0.029 A 
ATOM     44  C   UNL A   1      39.026  29.545  29.943  1.00  0.00     0.049 A 
ATOM     45  H   UNL A   1      41.074  29.943  29.817  1.00  0.00     0.167 HD
ATOM     46  C   UNL A   1      45.315  30.789  28.754  1.00  0.00     0.037 A 
ATOM     47  C   UNL A   1      38.522  30.699  30.450  1.00  0.00     0.037 A 
ATOM     48  C   UNL A   1      45.390  30.521  30.173  1.00  0.00     0.049 A 
ATOM     49  C   UNL A   1      39.667  31.417  31.078  1.00  0.00     0.074 A 
ATOM     50  C   UNL A   1      45.880  29.477  30.935  1.00  0.00     0.029 A 
ATOM     51  N   UNL A   1      44.533  31.216  30.997  1.00  0.00    -0.354 N 
ATOM     52  N   UNL A   1      40.302  30.972  32.129  1.00  0.00    -0.248 NA
ATOM     53  C   UNL A   1      40.418  32.352  30.252  1.00  0.00     0.031 C 
ATOM     54  C   UNL A   1      44.937  29.318  31.992  1.00  0.00     0.029 A 
ATOM     55  C   UNL A   1      43.970  30.318  31.868  1.00  0.00     0.049 A 
ATOM     56  H   UNL A   1      44.357  32.185  30.966  1.00  0.00     0.167 HD
ATOM     57  C   UNL A   1      41.645  31.222  31.872  1.00  0.00     0.074 A 
ATOM     58  C   UNL A   1      41.644  32.150  30.741  1.00  0.00     0.031 C 
ATOM     59  C   UNL A   1      42.628  30.434  32.402  1.00  0.00     0.037 A 
BRANCH  46  60
ATOM     60  C   UNL A   1      45.635  32.152  28.185  1.00  0.00     0.058 A 
ATOM     61  C   UNL A   1      46.983  32.565  28.134  1.00  0.00     0.135 A 
ATOM     62  C   UNL A   1      44.681  33.168  27.960  1.00  0.00     0.135 A 
ATOM     63  F   UNL A   1      47.979  31.681  28.312  1.00  0.00    -0.206 F 
ATOM     64  C   UNL A   1      47.352  33.902  27.984  1.00  0.00     0.059 A 
ATOM     65  C   UNL A   1      45.028  34.499  27.756  1.00  0.00     0.059 A 
ATOM     66  F   UNL A   1      43.364  32.950  28.025  1.00  0.00    -0.206 F 
ATOM     67  C   UNL A   1      46.362  34.865  27.820  1.00  0.00     0.060 A 
BRANCH  67  68
ATOM     68  S   UNL A   1      46.821  36.605  27.774  1.00  0.00     0.124 S 
ATOM     69  O   UNL A   1      45.588  37.241  28.222  1.00  0.00    -0.237 OA
ATOM     70  O   UNL A   1      47.941  36.644  28.709  1.00  0.00    -0.237 OA
ATOM     71  O   UNL A   1      47.172  36.822  26.373  1.00  0.00    -0.744 OA
ENDBRANCH  67  68
ENDBRANCH  46  60
BRANCH  47  72
ATOM     72  C   UNL A   1      37.209  31.337  30.167  1.00  0.00     0.058 A 
ATOM     73  C   UNL A   1      36.508  32.047  31.160  1.00  0.00     0.135 A 
ATOM     74  C   UNL A   1      36.744  31.502  28.846  1.00  0.00     0.135 A 
ATOM     75  F   UNL A   1      36.891  31.967  32.443  1.00  0.00    -0.206 F 
ATOM     76  C   UNL A   1      35.444  32.907  30.855  1.00  0.00     0.059 A 
ATOM     77  C   UNL A   1      35.684  32.348  28.520  1.00  0.00     0.059 A 
ATOM     78  F   UNL A   1      37.370  30.913  27.816  1.00  0.00    -0.206 F 
ATOM     79  C   UNL A   1      35.054  33.068  29.526  1.00  0.00     0.060 A 
BRANCH  79  80
ATOM     80  S   UNL A   1      33.800  34.305  29.109  1.00  0.00     0.124 S 
ATOM     81  O   UNL A   1      32.966  33.583  28.156  1.00  0.00    -0.237 OA
ATOM     82  O   UNL A   1      33.194  34.579  30.407  1.00  0.00    -0.237 OA
ATOM     83  O   UNL A   1      34.581  35.404  28.546  1.00  0.00    -0.744 OA
ENDBRANCH  79  80
ENDBRANCH  47  72
BRANCH  59  84
ATOM     84  C   UNL A   1      42.249  29.444  33.478  1.00  0.00     0.058 A 
ATOM     85  C   UNL A   1      41.826  28.126  33.228  1.00  0.00     0.135 A 
ATOM     86  C   UNL A   1      42.493  29.789  34.815  1.00  0.00     0.135 A 
ATOM     87  F   UNL A   1      41.670  27.678  31.976  1.00  0.00    -0.206 F 
ATOM     88  C   UNL A   1      41.621  27.206  34.259  1.00  0.00     0.059 A 
ATOM     89  C   UNL A   1      42.324  28.881  35.857  1.00  0.00     0.059 A 
ATOM     90  F   UNL A   1      42.961  31.011  35.117  1.00  0.00    -0.206 F 
ATOM     91  C   UNL A   1      41.877  27.592  35.573  1.00  0.00     0.060 A 
BRANCH  91  92
ATOM     92  S   UNL A   1      41.686  26.381  36.899  1.00  0.00     0.124 S 
ATOM     93  O   UNL A   1      40.404  26.762  37.481  1.00  0.00    -0.237 OA
ATOM     94  O   UNL A   1      41.701  25.112  36.175  1.00  0.00    -0.237 OA
ATOM     95  O   UNL A   1      42.852  26.617  37.747  1.00  0.00    -0.744 OA
ENDBRANCH  91  92
ENDBRANCH  59  84
ENDBRANCH  33  34
ENDBRANCH  25  28
ENDBRANCH  23  24
ENDBRANCH  22  23
ENDBRANCH   1  22
TORSDOF 17
ENDMDL
MODEL 2
REMARK VINA RESULT:     -11.4      3.681     10.798
REMARK SMILES CCC(C)(C)n1c(SCC(=O)NCCCNC(=O)c2ccc(-c3c4nc(c(-c5c(F)cc(S(=O)(=O)[O-])cc5F)c5ccc([nH]5)c(-c5c(F)cc(S(=O)(=O)[O-])cc5F)c5nc(c(-c6c(F)cc(S(=O)(=O)[O-])cc6F)c6ccc3[nH]6)C=C5)C=C4)cc2)nc2cccnc21
REMARK SMILES IDX 13 1 12 2 10 3 11 4 9 6 8 7 7 8 6 9 91 10 85 11 86 12 90 13
REMARK SMILES IDX 87 14 89 15 88 16 3 17 4 18 5 19 2 20 1 21 14 22 15 23 16 24
REMARK SMILES IDX 17 25 18 27 19 28 20 29 84 30 21 31 83 32 22 33 23 34 24 35
REMARK SMILES IDX 77 36 25 37 82 38 76 39 78 40 26 41 81 42 75 43 74 44 27 46
REMARK SMILES IDX 61 47 40 48 60 49 41 50 44 51 59 52 79 53 42 54 43 55 58 57
REMARK SMILES IDX 80 58 45 59 28 60 29 61 38 62 30 63 31 64 37 65 39 66 32 67
REMARK SMILES IDX 33 68 34 69 35 70 36 71 62 72 63 73 72 74 64 75 65 76 71 77
REMARK SMILES IDX 73 78 66 79 67 80 68 81 69 82 70 83 46 84 47 85 56 86 48 87
REMARK SMILES IDX 49 88 55 89 57 90 50 91 51 92 52 93 53 94 54 95
REMARK H PARENT 12 5 16 26 78 45 44 56
REMARK Flexibility Score: inf
ROOT
ATOM      1  C   UNL A   1      34.064  34.348  30.069  1.00  0.00     0.117 C 
ENDROOT
BRANCH   1   2
ATOM      2  N   UNL A   1      33.108  35.292  30.605  1.00  0.00    -0.355 N 
ATOM      3  C   UNL A   1      33.281  36.166  31.630  1.00  0.00     0.230 C 
ATOM      4  O   UNL A   1      32.563  37.173  31.627  1.00  0.00    -0.274 OA
ATOM      5  H   UNL A   1      32.222  35.301  30.175  1.00  0.00     0.163 HD
BRANCH   3   6
ATOM      6  C   UNL A   1      34.379  35.993  32.663  1.00  0.00     0.178 C 
BRANCH   6   7
ATOM      7  S   UNL A   1      34.549  34.412  33.450  1.00  0.00    -0.078 SA
BRANCH   7   8
ATOM      8  C   UNL A   1      35.976  33.843  34.248  1.00  0.00     0.171 A 
ATOM      9  N   UNL A   1      37.203  33.280  33.899  1.00  0.00    -0.298 N 
ATOM     10  C   UNL A   1      37.878  33.066  35.109  1.00  0.00     0.161 A 
ATOM     11  N   UNL A   1      35.863  33.924  35.569  1.00  0.00    -0.221 NA
ATOM     12  C   UNL A   1      37.018  33.466  36.109  1.00  0.00     0.109 A 
ATOM     13  N   UNL A   1      39.127  32.585  35.280  1.00  0.00    -0.237 NA
ATOM     14  C   UNL A   1      37.444  33.358  37.439  1.00  0.00     0.034 A 
ATOM     15  C   UNL A   1      39.510  32.507  36.572  1.00  0.00     0.113 A 
ATOM     16  C   UNL A   1      38.730  32.863  37.662  1.00  0.00     0.022 A 
BRANCH   9  17
ATOM     17  C   UNL A   1      37.912  32.994  32.635  1.00  0.00     0.043 C 
ATOM     18  C   UNL A   1      39.420  33.150  32.711  1.00  0.00     0.035 C 
ATOM     19  C   UNL A   1      37.526  34.019  31.527  1.00  0.00     0.035 C 
BRANCH  17  20
ATOM     20  C   UNL A   1      37.587  31.545  32.139  1.00  0.00     0.025 C 
ATOM     21  C   UNL A   1      36.106  31.159  32.152  1.00  0.00     0.006 C 
ENDBRANCH  17  20
ENDBRANCH   9  17
ENDBRANCH   7   8
ENDBRANCH   6   7
ENDBRANCH   3   6
ENDBRANCH   1   2
BRANCH   1  22
ATOM     22  C   UNL A   1      34.890  34.899  28.914  1.00  0.00     0.042 C 
BRANCH  22  23
ATOM     23  C   UNL A   1      35.367  33.815  27.968  1.00  0.00     0.118 C 
BRANCH  23  24
ATOM     24  N   UNL A   1      34.423  32.708  27.843  1.00  0.00    -0.352 N 
ATOM     25  C   UNL A   1      34.683  31.359  27.731  1.00  0.00     0.251 C 
ATOM     26  H   UNL A   1      33.471  32.960  27.841  1.00  0.00     0.163 HD
ATOM     27  O   UNL A   1      33.800  30.594  27.386  1.00  0.00    -0.269 OA
BRANCH  25  28
ATOM     28  C   UNL A   1      36.036  30.864  28.047  1.00  0.00     0.039 A 
ATOM     29  C   UNL A   1      37.019  31.740  28.516  1.00  0.00     0.014 A 
ATOM     30  C   UNL A   1      36.326  29.517  27.832  1.00  0.00     0.014 A 
ATOM     31  C   UNL A   1      38.286  31.238  28.789  1.00  0.00     0.010 A 
ATOM     32  C   UNL A   1      37.521  28.993  28.237  1.00  0.00     0.010 A 
ATOM     33  C   UNL A   1      38.520  29.864  28.638  1.00  0.00    -0.014 A 
BRANCH  33  34
ATOM     34  C   UNL A   1      39.806  29.279  28.956  1.00  0.00     0.031 A 
ATOM     35  C   UNL A   1      40.078  29.166  30.407  1.00  0.00     0.074 A 
ATOM     36  C   UNL A   1      40.578  28.698  28.015  1.00  0.00     0.049 A 
ATOM     37  N   UNL A   1      40.887  29.889  31.105  1.00  0.00    -0.248 NA
ATOM     38  C   UNL A   1      39.227  28.277  31.214  1.00  0.00     0.031 C 
ATOM     39  C   UNL A   1      40.287  28.470  26.594  1.00  0.00     0.029 A 
ATOM     40  N   UNL A   1      41.786  28.103  28.170  1.00  0.00    -0.354 N 
ATOM     41  C   UNL A   1      40.832  29.382  32.398  1.00  0.00     0.074 A 
ATOM     42  C   UNL A   1      39.652  28.559  32.449  1.00  0.00     0.031 C 
ATOM     43  C   UNL A   1      41.196  27.611  26.079  1.00  0.00     0.029 A 
ATOM     44  C   UNL A   1      42.217  27.359  27.079  1.00  0.00     0.049 A 
ATOM     45  H   UNL A   1      42.318  28.191  28.994  1.00  0.00     0.167 HD
ATOM     46  C   UNL A   1      41.904  29.488  33.234  1.00  0.00     0.037 A 
ATOM     47  C   UNL A   1      43.330  26.585  27.024  1.00  0.00     0.037 A 
ATOM     48  C   UNL A   1      42.867  30.428  32.706  1.00  0.00     0.049 A 
ATOM     49  C   UNL A   1      44.242  27.083  28.092  1.00  0.00     0.074 A 
ATOM     50  C   UNL A   1      42.829  31.771  32.382  1.00  0.00     0.029 A 
ATOM     51  N   UNL A   1      43.961  29.914  32.046  1.00  0.00    -0.354 N 
ATOM     52  N   UNL A   1      44.795  28.267  28.067  1.00  0.00    -0.248 NA
ATOM     53  C   UNL A   1      44.139  26.477  29.412  1.00  0.00     0.031 C 
ATOM     54  C   UNL A   1      43.592  31.883  31.183  1.00  0.00     0.029 A 
ATOM     55  C   UNL A   1      44.119  30.625  30.883  1.00  0.00     0.049 A 
ATOM     56  H   UNL A   1      44.527  29.169  32.354  1.00  0.00     0.167 HD
ATOM     57  C   UNL A   1      44.716  28.730  29.375  1.00  0.00     0.074 A 
ATOM     58  C   UNL A   1      44.381  27.549  30.172  1.00  0.00     0.031 C 
ATOM     59  C   UNL A   1      44.641  30.066  29.652  1.00  0.00     0.037 A 
BRANCH  46  60
ATOM     60  C   UNL A   1      42.272  28.493  34.310  1.00  0.00     0.058 A 
ATOM     61  C   UNL A   1      42.333  28.933  35.649  1.00  0.00     0.135 A 
ATOM     62  C   UNL A   1      42.839  27.224  34.063  1.00  0.00     0.135 A 
ATOM     63  F   UNL A   1      41.807  30.117  36.006  1.00  0.00    -0.206 F 
ATOM     64  C   UNL A   1      43.005  28.221  36.642  1.00  0.00     0.059 A 
ATOM     65  C   UNL A   1      43.467  26.471  35.050  1.00  0.00     0.059 A 
ATOM     66  F   UNL A   1      42.907  26.686  32.841  1.00  0.00    -0.206 F 
ATOM     67  C   UNL A   1      43.590  27.000  36.324  1.00  0.00     0.060 A 
BRANCH  67  68
ATOM     68  S   UNL A   1      44.581  26.147  37.560  1.00  0.00     0.124 S 
ATOM     69  O   UNL A   1      44.800  24.857  36.916  1.00  0.00    -0.237 OA
ATOM     70  O   UNL A   1      45.747  27.019  37.663  1.00  0.00    -0.237 OA
ATOM     71  O   UNL A   1      43.712  26.129  38.734  1.00  0.00    -0.744 OA
ENDBRANCH  67  68
ENDBRANCH  46  60
BRANCH  47  72
ATOM     72  C   UNL A   1      43.519  25.286  26.325  1.00  0.00     0.058 A 
ATOM     73  C   UNL A   1      44.512  25.116  25.342  1.00  0.00     0.135 A 
ATOM     74  C   UNL A   1      42.915  24.103  26.801  1.00  0.00     0.135 A 
ATOM     75  F   UNL A   1      45.156  26.183  24.845  1.00  0.00    -0.206 F 
ATOM     76  C   UNL A   1      44.916  23.851  24.896  1.00  0.00     0.059 A 
ATOM     77  C   UNL A   1      43.296  22.834  26.367  1.00  0.00     0.059 A 
ATOM     78  F   UNL A   1      41.993  24.143  27.775  1.00  0.00    -0.206 F 
ATOM     79  C   UNL A   1      44.316  22.713  25.432  1.00  0.00     0.060 A 
BRANCH  79  80
ATOM     80  S   UNL A   1      44.953  21.077  24.990  1.00  0.00     0.124 S 
ATOM     81  O   UNL A   1      46.344  21.166  25.418  1.00  0.00    -0.237 OA
ATOM     82  O   UNL A   1      44.100  20.192  25.776  1.00  0.00    -0.237 OA
ATOM     83  O   UNL A   1      44.748  21.012  23.545  1.00  0.00    -0.744 OA
ENDBRANCH  79  80
ENDBRANCH  47  72
BRANCH  59  84
ATOM     84  C   UNL A   1      44.902  31.044  28.531  1.00  0.00     0.058 A 
ATOM     85  C   UNL A   1      43.919  31.504  27.636  1.00  0.00     0.135 A 
ATOM     86  C   UNL A   1      46.154  31.672  28.476  1.00  0.00     0.135 A 
ATOM     87  F   UNL A   1      42.666  31.036  27.688  1.00  0.00    -0.206 F 
ATOM     88  C   UNL A   1      44.180  32.513  26.706  1.00  0.00     0.059 A 
ATOM     89  C   UNL A   1      46.428  32.700  27.578  1.00  0.00     0.059 A 
ATOM     90  F   UNL A   1      47.117  31.326  29.347  1.00  0.00    -0.206 F 
ATOM     91  C   UNL A   1      45.439  33.109  26.687  1.00  0.00     0.060 A 
BRANCH  91  92
ATOM     92  S   UNL A   1      45.752  34.467  25.537  1.00  0.00     0.124 S 
ATOM     93  O   UNL A   1      45.358  35.631  26.324  1.00  0.00    -0.237 OA
ATOM     94  O   UNL A   1      47.182  34.336  25.272  1.00  0.00    -0.237 OA
ATOM     95  O   UNL A   1      44.887  34.159  24.402  1.00  0.00    -0.744 OA
ENDBRANCH  91  92
ENDBRANCH  59  84
ENDBRANCH  33  34
ENDBRANCH  25  28
ENDBRANCH  23  24
ENDBRANCH  22  23
ENDBRANCH   1  22
TORSDOF 17
ENDMDL
MODEL 3
REMARK VINA RESULT:     -11.4      1.180      2.188
REMARK SMILES CCC(C)(C)n1c(SCC(=O)NCCCNC(=O)c2ccc(-c3c4nc(c(-c5c(F)cc(S(=O)(=O)[O-])cc5F)c5ccc([nH]5)c(-c5c(F)cc(S(=O)(=O)[O-])cc5F)c5nc(c(-c6c(F)cc(S(=O)(=O)[O-])cc6F)c6ccc3[nH]6)C=C5)C=C4)cc2)nc2cccnc21
REMARK SMILES IDX 13 1 12 2 10 3 11 4 9 6 8 7 7 8 6 9 91 10 85 11 86 12 90 13
REMARK SMILES IDX 87 14 89 15 88 16 3 17 4 18 5 19 2 20 1 21 14 22 15 23 16 24
REMARK SMILES IDX 17 25 18 27 19 28 20 29 84 30 21 31 83 32 22 33 23 34 24 35
REMARK SMILES IDX 77 36 25 37 82 38 76 39 78 40 26 41 81 42 75 43 74 44 27 46
REMARK SMILES IDX 61 47 40 48 60 49 41 50 44 51 59 52 79 53 42 54 43 55 58 57
REMARK SMILES IDX 80 58 45 59 28 60 29 61 38 62 30 63 31 64 37 65 39 66 32 67
REMARK SMILES IDX 33 68 34 69 35 70 36 71 62 72 63 73 72 74 64 75 65 76 71 77
REMARK SMILES IDX 73 78 66 79 67 80 68 81 69 82 70 83 46 84 47 85 56 86 48 87
REMARK SMILES IDX 49 88 55 89 57 90 50 91 51 92 52 93 53 94 54 95
REMARK H PARENT 12 5 16 26 78 45 44 56
REMARK Flexibility Score: inf
ROOT
ATOM      1  C   UNL A   1      36.052  21.618  25.337  1.00  0.00     0.117 C 
ENDROOT
BRANCH   1   2
ATOM      2  N   UNL A   1      35.526  22.001  26.630  1.00  0.00    -0.355 N 
ATOM      3  C   UNL A   1      34.401  22.713  26.897  1.00  0.00     0.230 C 
ATOM      4  O   UNL A   1      33.881  22.532  28.004  1.00  0.00    -0.274 OA
ATOM      5  H   UNL A   1      36.049  21.710  27.412  1.00  0.00     0.163 HD
BRANCH   3   6
ATOM      6  C   UNL A   1      33.735  23.593  25.855  1.00  0.00     0.178 C 
BRANCH   6   7
ATOM      7  S   UNL A   1      32.208  24.389  26.280  1.00  0.00    -0.078 SA
BRANCH   7   8
ATOM      8  C   UNL A   1      31.470  25.674  25.386  1.00  0.00     0.171 A 
ATOM      9  N   UNL A   1      31.823  26.930  24.894  1.00  0.00    -0.298 N 
ATOM     10  C   UNL A   1      30.678  27.419  24.251  1.00  0.00     0.161 A 
ATOM     11  N   UNL A   1      30.192  25.418  25.127  1.00  0.00    -0.221 NA
ATOM     12  C   UNL A   1      29.698  26.466  24.425  1.00  0.00     0.109 A 
ATOM     13  N   UNL A   1      30.547  28.580  23.574  1.00  0.00    -0.237 NA
ATOM     14  C   UNL A   1      28.431  26.702  23.876  1.00  0.00     0.034 A 
ATOM     15  C   UNL A   1      29.318  28.769  23.048  1.00  0.00     0.113 A 
ATOM     16  C   UNL A   1      28.250  27.892  23.169  1.00  0.00     0.022 A 
BRANCH   9  17
ATOM     17  C   UNL A   1      33.067  27.723  24.821  1.00  0.00     0.043 C 
ATOM     18  C   UNL A   1      32.852  29.211  24.614  1.00  0.00     0.035 C 
ATOM     19  C   UNL A   1      33.914  27.332  23.572  1.00  0.00     0.035 C 
BRANCH  17  20
ATOM     20  C   UNL A   1      33.924  27.520  26.115  1.00  0.00     0.025 C 
ATOM     21  C   UNL A   1      33.728  28.574  27.208  1.00  0.00     0.006 C 
ENDBRANCH  17  20
ENDBRANCH   9  17
ENDBRANCH   7   8
ENDBRANCH   6   7
ENDBRANCH   3   6
ENDBRANCH   1   2
BRANCH   1  22
ATOM     22  C   UNL A   1      37.295  22.396  24.926  1.00  0.00     0.042 C 
BRANCH  22  23
ATOM     23  C   UNL A   1      38.145  22.806  26.112  1.00  0.00     0.118 C 
BRANCH  23  24
ATOM     24  N   UNL A   1      39.471  22.195  26.105  1.00  0.00    -0.352 N 
ATOM     25  C   UNL A   1      40.699  22.788  26.305  1.00  0.00     0.251 C 
ATOM     26  H   UNL A   1      39.490  21.225  25.934  1.00  0.00     0.163 HD
ATOM     27  O   UNL A   1      41.721  22.190  26.022  1.00  0.00    -0.269 OA
BRANCH  25  28
ATOM     28  C   UNL A   1      40.748  24.146  26.879  1.00  0.00     0.039 A 
ATOM     29  C   UNL A   1      40.073  25.203  26.260  1.00  0.00     0.014 A 
ATOM     30  C   UNL A   1      41.512  24.363  28.026  1.00  0.00     0.014 A 
ATOM     31  C   UNL A   1      40.157  26.470  26.824  1.00  0.00     0.010 A 
ATOM     32  C   UNL A   1      41.476  25.572  28.663  1.00  0.00     0.010 A 
ATOM     33  C   UNL A   1      40.867  26.637  28.022  1.00  0.00    -0.014 A 
BRANCH  33  34
ATOM     34  C   UNL A   1      40.944  27.925  28.679  1.00  0.00     0.031 A 
ATOM     35  C   UNL A   1      42.083  28.763  28.239  1.00  0.00     0.074 A 
ATOM     36  C   UNL A   1      39.944  28.391  29.454  1.00  0.00     0.049 A 
ATOM     37  N   UNL A   1      43.163  29.013  28.897  1.00  0.00    -0.248 NA
ATOM     38  C   UNL A   1      42.116  29.226  26.843  1.00  0.00     0.031 C 
ATOM     39  C   UNL A   1      38.630  27.794  29.724  1.00  0.00     0.029 A 
ATOM     40  N   UNL A   1      39.874  29.574  30.113  1.00  0.00    -0.354 N 
ATOM     41  C   UNL A   1      43.906  29.872  28.097  1.00  0.00     0.074 A 
ATOM     42  C   UNL A   1      43.327  29.786  26.782  1.00  0.00     0.031 C 
ATOM     43  C   UNL A   1      37.830  28.711  30.314  1.00  0.00     0.029 A 
ATOM     44  C   UNL A   1      38.616  29.894  30.609  1.00  0.00     0.049 A 
ATOM     45  H   UNL A   1      40.655  30.162  30.231  1.00  0.00     0.167 HD
ATOM     46  C   UNL A   1      44.774  30.765  28.651  1.00  0.00     0.037 A 
ATOM     47  C   UNL A   1      38.262  31.061  31.206  1.00  0.00     0.037 A 
ATOM     48  C   UNL A   1      45.010  30.447  30.042  1.00  0.00     0.049 A 
ATOM     49  C   UNL A   1      39.523  31.683  31.698  1.00  0.00     0.074 A 
ATOM     50  C   UNL A   1      45.520  29.349  30.708  1.00  0.00     0.029 A 
ATOM     51  N   UNL A   1      44.315  31.169  30.986  1.00  0.00    -0.354 N 
ATOM     52  N   UNL A   1      40.255  31.162  32.647  1.00  0.00    -0.248 NA
ATOM     53  C   UNL A   1      40.226  32.593  30.805  1.00  0.00     0.031 C 
ATOM     54  C   UNL A   1      44.711  29.217  31.875  1.00  0.00     0.029 A 
ATOM     55  C   UNL A   1      43.807  30.281  31.900  1.00  0.00     0.049 A 
ATOM     56  H   UNL A   1      44.203  32.147  31.001  1.00  0.00     0.167 HD
ATOM     57  C   UNL A   1      41.568  31.333  32.226  1.00  0.00     0.074 A 
ATOM     58  C   UNL A   1      41.488  32.296  31.127  1.00  0.00     0.031 C 
ATOM     59  C   UNL A   1      42.554  30.467  32.606  1.00  0.00     0.037 A 
BRANCH  46  60
ATOM     60  C   UNL A   1      45.113  32.122  28.079  1.00  0.00     0.058 A 
ATOM     61  C   UNL A   1      46.438  32.372  27.664  1.00  0.00     0.135 A 
ATOM     62  C   UNL A   1      44.286  33.262  28.184  1.00  0.00     0.135 A 
ATOM     63  F   UNL A   1      47.310  31.362  27.509  1.00  0.00    -0.206 F 
ATOM     64  C   UNL A   1      46.935  33.662  27.479  1.00  0.00     0.059 A 
ATOM     65  C   UNL A   1      44.746  34.554  27.951  1.00  0.00     0.059 A 
ATOM     66  F   UNL A   1      43.021  33.202  28.612  1.00  0.00    -0.206 F 
ATOM     67  C   UNL A   1      46.083  34.748  27.649  1.00  0.00     0.060 A 
BRANCH  67  68
ATOM     68  S   UNL A   1      46.751  36.417  27.555  1.00  0.00     0.124 S 
ATOM     69  O   UNL A   1      46.443  36.928  28.886  1.00  0.00    -0.237 OA
ATOM     70  O   UNL A   1      48.160  36.161  27.276  1.00  0.00    -0.237 OA
ATOM     71  O   UNL A   1      45.999  37.018  26.457  1.00  0.00    -0.744 OA
ENDBRANCH  67  68
ENDBRANCH  46  60
BRANCH  47  72
ATOM     72  C   UNL A   1      36.971  31.792  31.110  1.00  0.00     0.058 A 
ATOM     73  C   UNL A   1      36.081  31.860  32.198  1.00  0.00     0.135 A 
ATOM     74  C   UNL A   1      36.705  32.674  30.042  1.00  0.00     0.135 A 
ATOM     75  F   UNL A   1      36.266  31.072  33.269  1.00  0.00    -0.206 F 
ATOM     76  C   UNL A   1      35.025  32.779  32.247  1.00  0.00     0.059 A 
ATOM     77  C   UNL A   1      35.657  33.593  30.064  1.00  0.00     0.059 A 
ATOM     78  F   UNL A   1      37.519  32.731  28.976  1.00  0.00    -0.206 F 
ATOM     79  C   UNL A   1      34.835  33.659  31.182  1.00  0.00     0.060 A 
BRANCH  79  80
ATOM     80  S   UNL A   1      33.585  34.962  31.314  1.00  0.00     0.124 S 
ATOM     81  O   UNL A   1      34.406  36.155  31.483  1.00  0.00    -0.237 OA
ATOM     82  O   UNL A   1      32.884  34.845  30.040  1.00  0.00    -0.237 OA
ATOM     83  O   UNL A   1      32.807  34.570  32.487  1.00  0.00    -0.744 OA
ENDBRANCH  79  80
ENDBRANCH  47  72
BRANCH  59  84
ATOM     84  C   UNL A   1      42.248  29.468  33.697  1.00  0.00     0.058 A 
ATOM     85  C   UNL A   1      41.667  28.206  33.476  1.00  0.00     0.135 A 
ATOM     86  C   UNL A   1      42.722  29.731  34.990  1.00  0.00     0.135 A 
ATOM     87  F   UNL A   1      41.283  27.829  32.250  1.00  0.00    -0.206 F 
ATOM     88  C   UNL A   1      41.532  27.264  34.498  1.00  0.00     0.059 A 
ATOM     89  C   UNL A   1      42.625  28.796  36.018  1.00  0.00     0.059 A 
ATOM     90  F   UNL A   1      43.345  30.891  35.253  1.00  0.00    -0.206 F 
ATOM     91  C   UNL A   1      42.018  27.567  35.768  1.00  0.00     0.060 A 
BRANCH  91  92
ATOM     92  S   UNL A   1      41.914  26.320  37.071  1.00  0.00     0.124 S 
ATOM     93  O   UNL A   1      42.105  25.081  36.325  1.00  0.00    -0.237 OA
ATOM     94  O   UNL A   1      43.007  26.700  37.962  1.00  0.00    -0.237 OA
ATOM     95  O   UNL A   1      40.576  26.516  37.623  1.00  0.00    -0.744 OA
ENDBRANCH  91  92
ENDBRANCH  59  84
ENDBRANCH  33  34
ENDBRANCH  25  28
ENDBRANCH  23  24
ENDBRANCH  22  23
ENDBRANCH   1  22
TORSDOF 17
ENDMDL
