MODEL 1
REMARK VINA RESULT:     -11.7      0.000      0.000
REMARK SMILES Cn1cccc1C[NH2+]Cc1ccc(C(=O)NCCCNC(=O)c2ccc(-c3c4nc(c(-c5c(F)cc(S(=O)(=O)[O-])cc5F)c5ccc([nH]5)c(-c5c(F)cc(S(=O)(=O)[O-])cc5F)c5nc(c(-c6c(F)cc(S(=O)(=O)[O-])cc6F)c6ccc3[nH]6)C=C5)C=C4)cc2)cc1
REMARK SMILES IDX 17 1 16 2 14 3 15 4 13 6 10 7 11 8 90 9 12 10 89 11 9 12
REMARK SMILES IDX 8 13 7 16 6 17 1 18 2 19 3 20 4 21 5 22 18 23 19 24 20 25
REMARK SMILES IDX 21 26 22 28 23 29 24 30 88 31 25 32 87 33 26 34 27 35 28 36
REMARK SMILES IDX 81 37 29 38 86 39 80 40 82 41 30 42 85 43 79 44 78 45 31 47
REMARK SMILES IDX 65 48 44 49 64 50 45 51 48 52 63 53 83 54 46 55 47 56 62 58
REMARK SMILES IDX 84 59 49 60 32 61 33 62 42 63 34 64 35 65 41 66 43 67 36 68
REMARK SMILES IDX 37 69 38 70 39 71 40 72 66 73 67 74 76 75 68 76 69 77 75 78
REMARK SMILES IDX 77 79 70 80 71 81 72 82 73 83 74 84 50 85 51 86 60 87 52 88
REMARK SMILES IDX 53 89 59 90 61 91 54 92 55 93 56 94 57 95 58 96
REMARK H PARENT 16 5 8 14 8 15 20 27 82 46 48 57
REMARK Flexibility Score: inf
ROOT
ATOM      1  C   UNL A   1      37.757  22.167  25.906  1.00  0.00     0.118 C 
ENDROOT
BRANCH   1   2
ATOM      2  N   UNL A   1      37.577  22.341  24.473  1.00  0.00    -0.352 N 
ATOM      3  C   UNL A   1      36.492  22.782  23.755  1.00  0.00     0.251 C 
ATOM      4  O   UNL A   1      36.617  22.992  22.551  1.00  0.00    -0.269 OA
ATOM      5  H   UNL A   1      38.362  22.103  23.928  1.00  0.00     0.163 HD
BRANCH   3   6
ATOM      6  C   UNL A   1      35.197  23.074  24.414  1.00  0.00     0.039 A 
ATOM      7  C   UNL A   1      32.821  23.613  25.830  1.00  0.00     0.006 A 
ATOM      8  C   UNL A   1      33.992  24.341  26.093  1.00  0.00     0.010 A 
ATOM      9  C   UNL A   1      32.834  22.689  24.774  1.00  0.00     0.010 A 
ATOM     10  C   UNL A   1      35.171  24.074  25.392  1.00  0.00     0.014 A 
ATOM     11  C   UNL A   1      34.012  22.426  24.070  1.00  0.00     0.014 A 
BRANCH   7  12
ATOM     12  C   UNL A   1      31.578  23.887  26.651  1.00  0.00     0.297 C 
BRANCH  12  13
ATOM     13  N   UNL A   1      31.148  25.282  26.696  1.00  0.00    -0.338 N 
ATOM     14  H   UNL A   1      30.486  25.390  27.466  1.00  0.00     0.346 HD
ATOM     15  H   UNL A   1      31.987  25.848  26.819  1.00  0.00     0.346 HD
BRANCH  13  16
ATOM     16  C   UNL A   1      30.504  25.741  25.470  1.00  0.00     0.316 C 
BRANCH  16  17
ATOM     17  C   UNL A   1      31.123  27.044  25.067  1.00  0.00     0.072 A 
ATOM     18  C   UNL A   1      29.513  27.693  23.202  1.00  0.00     0.149 C 
ATOM     19  N   UNL A   1      30.662  27.873  24.064  1.00  0.00    -0.350 N 
ATOM     20  C   UNL A   1      31.483  28.971  23.964  1.00  0.00     0.085 A 
ATOM     21  C   UNL A   1      32.483  28.852  24.898  1.00  0.00     0.020 A 
ATOM     22  C   UNL A   1      32.256  27.646  25.593  1.00  0.00     0.029 A 
ENDBRANCH  16  17
ENDBRANCH  13  16
ENDBRANCH  12  13
ENDBRANCH   7  12
ENDBRANCH   3   6
ENDBRANCH   1   2
BRANCH   1  23
ATOM     23  C   UNL A   1      39.233  22.074  26.287  1.00  0.00     0.042 C 
BRANCH  23  24
ATOM     24  C   UNL A   1      39.790  23.347  26.919  1.00  0.00     0.118 C 
BRANCH  24  25
ATOM     25  N   UNL A   1      40.805  23.971  26.087  1.00  0.00    -0.352 N 
ATOM     26  C   UNL A   1      41.328  25.239  26.129  1.00  0.00     0.251 C 
ATOM     27  H   UNL A   1      41.176  23.393  25.383  1.00  0.00     0.163 HD
ATOM     28  O   UNL A   1      42.023  25.617  25.190  1.00  0.00    -0.269 OA
BRANCH  26  29
ATOM     29  C   UNL A   1      41.065  26.151  27.269  1.00  0.00     0.039 A 
ATOM     30  C   UNL A   1      41.872  27.285  27.411  1.00  0.00     0.014 A 
ATOM     31  C   UNL A   1      40.096  25.869  28.238  1.00  0.00     0.014 A 
ATOM     32  C   UNL A   1      41.692  28.142  28.500  1.00  0.00     0.010 A 
ATOM     33  C   UNL A   1      39.869  26.764  29.285  1.00  0.00     0.010 A 
ATOM     34  C   UNL A   1      40.680  27.897  29.441  1.00  0.00    -0.014 A 
BRANCH  34  35
ATOM     35  C   UNL A   1      40.495  28.800  30.608  1.00  0.00     0.031 A 
ATOM     36  C   UNL A   1      41.354  28.643  31.835  1.00  0.00     0.074 A 
ATOM     37  C   UNL A   1      39.536  29.747  30.573  1.00  0.00     0.049 A 
ATOM     38  N   UNL A   1      41.340  29.332  32.948  1.00  0.00    -0.248 NA
ATOM     39  C   UNL A   1      42.342  27.553  31.821  1.00  0.00     0.031 C 
ATOM     40  C   UNL A   1      38.603  29.964  29.465  1.00  0.00     0.029 A 
ATOM     41  N   UNL A   1      39.188  30.704  31.492  1.00  0.00    -0.354 N 
ATOM     42  C   UNL A   1      42.304  28.754  33.767  1.00  0.00     0.074 A 
ATOM     43  C   UNL A   1      42.846  27.625  33.044  1.00  0.00     0.031 C 
ATOM     44  C   UNL A   1      37.808  31.006  29.758  1.00  0.00     0.029 A 
ATOM     45  C   UNL A   1      38.158  31.515  31.081  1.00  0.00     0.049 A 
ATOM     46  H   UNL A   1      39.634  30.799  32.365  1.00  0.00     0.167 HD
ATOM     47  C   UNL A   1      42.717  29.142  34.998  1.00  0.00     0.037 A 
ATOM     48  C   UNL A   1      37.569  32.558  31.696  1.00  0.00     0.037 A 
ATOM     49  C   UNL A   1      42.196  30.285  35.703  1.00  0.00     0.049 A 
ATOM     50  C   UNL A   1      38.073  32.998  33.042  1.00  0.00     0.074 A 
ATOM     51  C   UNL A   1      42.579  30.790  36.933  1.00  0.00     0.029 A 
ATOM     52  N   UNL A   1      41.181  31.107  35.233  1.00  0.00    -0.354 N 
ATOM     53  N   UNL A   1      39.024  32.471  33.778  1.00  0.00    -0.248 NA
ATOM     54  C   UNL A   1      37.440  34.184  33.633  1.00  0.00     0.031 C 
ATOM     55  C   UNL A   1      41.777  31.901  37.221  1.00  0.00     0.029 A 
ATOM     56  C   UNL A   1      40.922  32.112  36.151  1.00  0.00     0.049 A 
ATOM     57  H   UNL A   1      40.714  30.994  34.374  1.00  0.00     0.167 HD
ATOM     58  C   UNL A   1      39.122  33.280  34.906  1.00  0.00     0.074 A 
ATOM     59  C   UNL A   1      38.143  34.335  34.748  1.00  0.00     0.031 C 
ATOM     60  C   UNL A   1      39.947  33.159  35.975  1.00  0.00     0.037 A 
BRANCH  47  61
ATOM     61  C   UNL A   1      43.795  28.325  35.657  1.00  0.00     0.058 A 
ATOM     62  C   UNL A   1      45.157  28.578  35.424  1.00  0.00     0.135 A 
ATOM     63  C   UNL A   1      43.466  27.292  36.549  1.00  0.00     0.135 A 
ATOM     64  F   UNL A   1      45.528  29.543  34.568  1.00  0.00    -0.206 F 
ATOM     65  C   UNL A   1      46.153  27.814  36.024  1.00  0.00     0.059 A 
ATOM     66  C   UNL A   1      44.447  26.531  37.182  1.00  0.00     0.059 A 
ATOM     67  F   UNL A   1      42.181  27.007  36.811  1.00  0.00    -0.206 F 
ATOM     68  C   UNL A   1      45.788  26.790  36.899  1.00  0.00     0.060 A 
BRANCH  68  69
ATOM     69  S   UNL A   1      47.091  25.804  37.667  1.00  0.00     0.124 S 
ATOM     70  O   UNL A   1      48.111  26.818  37.920  1.00  0.00    -0.237 OA
ATOM     71  O   UNL A   1      46.425  25.268  38.849  1.00  0.00    -0.237 OA
ATOM     72  O   UNL A   1      47.424  24.823  36.639  1.00  0.00    -0.744 OA
ENDBRANCH  68  69
ENDBRANCH  47  61
BRANCH  48  73
ATOM     73  C   UNL A   1      36.465  33.290  31.019  1.00  0.00     0.058 A 
ATOM     74  C   UNL A   1      36.720  34.127  29.923  1.00  0.00     0.135 A 
ATOM     75  C   UNL A   1      35.135  33.156  31.444  1.00  0.00     0.135 A 
ATOM     76  F   UNL A   1      37.978  34.289  29.482  1.00  0.00    -0.206 F 
ATOM     77  C   UNL A   1      35.700  34.819  29.280  1.00  0.00     0.059 A 
ATOM     78  C   UNL A   1      34.093  33.820  30.803  1.00  0.00     0.059 A 
ATOM     79  F   UNL A   1      34.836  32.352  32.477  1.00  0.00    -0.206 F 
ATOM     80  C   UNL A   1      34.388  34.658  29.728  1.00  0.00     0.060 A 
BRANCH  80  81
ATOM     81  S   UNL A   1      33.061  35.518  28.856  1.00  0.00     0.124 S 
ATOM     82  O   UNL A   1      33.810  36.493  28.071  1.00  0.00    -0.237 OA
ATOM     83  O   UNL A   1      32.436  34.435  28.102  1.00  0.00    -0.237 OA
ATOM     84  O   UNL A   1      32.249  36.066  29.939  1.00  0.00    -0.744 OA
ENDBRANCH  80  81
ENDBRANCH  48  73
BRANCH  60  85
ATOM     85  C   UNL A   1      39.852  34.221  37.034  1.00  0.00     0.058 A 
ATOM     86  C   UNL A   1      39.112  34.028  38.211  1.00  0.00     0.135 A 
ATOM     87  C   UNL A   1      40.520  35.445  36.872  1.00  0.00     0.135 A 
ATOM     88  F   UNL A   1      38.453  32.875  38.413  1.00  0.00    -0.206 F 
ATOM     89  C   UNL A   1      39.003  35.027  39.173  1.00  0.00     0.059 A 
ATOM     90  C   UNL A   1      40.446  36.449  37.832  1.00  0.00     0.059 A 
ATOM     91  F   UNL A   1      41.253  35.676  35.771  1.00  0.00    -0.206 F 
ATOM     92  C   UNL A   1      39.668  36.238  38.970  1.00  0.00     0.060 A 
BRANCH  92  93
ATOM     93  S   UNL A   1      39.516  37.534  40.218  1.00  0.00     0.124 S 
ATOM     94  O   UNL A   1      40.904  37.958  40.369  1.00  0.00    -0.237 OA
ATOM     95  O   UNL A   1      38.628  38.493  39.570  1.00  0.00    -0.237 OA
ATOM     96  O   UNL A   1      38.943  36.834  41.364  1.00  0.00    -0.744 OA
ENDBRANCH  92  93
ENDBRANCH  60  85
ENDBRANCH  34  35
ENDBRANCH  26  29
ENDBRANCH  24  25
ENDBRANCH  23  24
ENDBRANCH   1  23
TORSDOF 17
ENDMDL
MODEL 2
REMARK VINA RESULT:     -11.4      1.109      1.968
REMARK SMILES Cn1cccc1C[NH2+]Cc1ccc(C(=O)NCCCNC(=O)c2ccc(-c3c4nc(c(-c5c(F)cc(S(=O)(=O)[O-])cc5F)c5ccc([nH]5)c(-c5c(F)cc(S(=O)(=O)[O-])cc5F)c5nc(c(-c6c(F)cc(S(=O)(=O)[O-])cc6F)c6ccc3[nH]6)C=C5)C=C4)cc2)cc1
REMARK SMILES IDX 17 1 16 2 14 3 15 4 13 6 10 7 11 8 90 9 12 10 89 11 9 12
REMARK SMILES IDX 8 13 7 16 6 17 1 18 2 19 3 20 4 21 5 22 18 23 19 24 20 25
REMARK SMILES IDX 21 26 22 28 23 29 24 30 88 31 25 32 87 33 26 34 27 35 28 36
REMARK SMILES IDX 81 37 29 38 86 39 80 40 82 41 30 42 85 43 79 44 78 45 31 47
REMARK SMILES IDX 65 48 44 49 64 50 45 51 48 52 63 53 83 54 46 55 47 56 62 58
REMARK SMILES IDX 84 59 49 60 32 61 33 62 42 63 34 64 35 65 41 66 43 67 36 68
REMARK SMILES IDX 37 69 38 70 39 71 40 72 66 73 67 74 76 75 68 76 69 77 75 78
REMARK SMILES IDX 77 79 70 80 71 81 72 82 73 83 74 84 50 85 51 86 60 87 52 88
REMARK SMILES IDX 53 89 59 90 61 91 54 92 55 93 56 94 57 95 58 96
REMARK H PARENT 16 5 8 14 8 15 20 27 82 46 48 57
REMARK Flexibility Score: inf
ROOT
ATOM      1  C   UNL A   1      39.083  22.080  26.134  1.00  0.00     0.118 C 
ENDROOT
BRANCH   1   2
ATOM      2  N   UNL A   1      38.521  20.812  25.694  1.00  0.00    -0.352 N 
ATOM      3  C   UNL A   1      37.327  20.529  25.079  1.00  0.00     0.251 C 
ATOM      4  O   UNL A   1      37.125  19.391  24.660  1.00  0.00    -0.269 OA
ATOM      5  H   UNL A   1      39.092  20.028  25.866  1.00  0.00     0.163 HD
BRANCH   3   6
ATOM      6  C   UNL A   1      36.307  21.580  24.849  1.00  0.00     0.039 A 
ATOM      7  C   UNL A   1      34.507  23.702  24.407  1.00  0.00     0.006 A 
ATOM      8  C   UNL A   1      35.601  23.501  23.551  1.00  0.00     0.010 A 
ATOM      9  C   UNL A   1      34.272  22.761  25.420  1.00  0.00     0.010 A 
ATOM     10  C   UNL A   1      36.495  22.449  23.770  1.00  0.00     0.014 A 
ATOM     11  C   UNL A   1      35.163  21.706  25.635  1.00  0.00     0.014 A 
BRANCH   7  12
ATOM     12  C   UNL A   1      33.594  24.889  24.176  1.00  0.00     0.297 C 
BRANCH  12  13
ATOM     13  N   UNL A   1      33.133  25.573  25.381  1.00  0.00    -0.338 N 
ATOM     14  H   UNL A   1      32.204  25.955  25.198  1.00  0.00     0.346 HD
ATOM     15  H   UNL A   1      33.132  24.883  26.132  1.00  0.00     0.346 HD
BRANCH  13  16
ATOM     16  C   UNL A   1      34.002  26.664  25.808  1.00  0.00     0.316 C 
BRANCH  16  17
ATOM     17  C   UNL A   1      33.153  27.864  26.098  1.00  0.00     0.072 A 
ATOM     18  C   UNL A   1      33.247  28.985  23.814  1.00  0.00     0.149 C 
ATOM     19  N   UNL A   1      32.845  28.864  25.199  1.00  0.00    -0.350 N 
ATOM     20  C   UNL A   1      32.059  29.809  25.815  1.00  0.00     0.085 A 
ATOM     21  C   UNL A   1      31.861  29.424  27.120  1.00  0.00     0.020 A 
ATOM     22  C   UNL A   1      32.543  28.203  27.297  1.00  0.00     0.029 A 
ENDBRANCH  16  17
ENDBRANCH  13  16
ENDBRANCH  12  13
ENDBRANCH   7  12
ENDBRANCH   3   6
ENDBRANCH   1   2
BRANCH   1  23
ATOM     23  C   UNL A   1      40.449  21.900  26.793  1.00  0.00     0.042 C 
BRANCH  23  24
ATOM     24  C   UNL A   1      41.077  23.202  27.278  1.00  0.00     0.118 C 
BRANCH  24  25
ATOM     25  N   UNL A   1      41.529  24.035  26.177  1.00  0.00    -0.352 N 
ATOM     26  C   UNL A   1      41.611  25.401  26.074  1.00  0.00     0.251 C 
ATOM     27  H   UNL A   1      41.822  23.541  25.378  1.00  0.00     0.163 HD
ATOM     28  O   UNL A   1      41.819  25.895  24.969  1.00  0.00    -0.269 OA
BRANCH  26  29
ATOM     29  C   UNL A   1      41.447  26.280  27.258  1.00  0.00     0.039 A 
ATOM     30  C   UNL A   1      40.364  26.046  28.112  1.00  0.00     0.014 A 
ATOM     31  C   UNL A   1      42.289  27.371  27.496  1.00  0.00     0.014 A 
ATOM     32  C   UNL A   1      40.141  26.883  29.209  1.00  0.00     0.010 A 
ATOM     33  C   UNL A   1      42.109  28.162  28.632  1.00  0.00     0.010 A 
ATOM     34  C   UNL A   1      41.020  27.942  29.487  1.00  0.00    -0.014 A 
BRANCH  34  35
ATOM     35  C   UNL A   1      40.779  28.842  30.646  1.00  0.00     0.031 A 
ATOM     36  C   UNL A   1      41.613  28.714  31.894  1.00  0.00     0.074 A 
ATOM     37  C   UNL A   1      39.795  29.760  30.585  1.00  0.00     0.049 A 
ATOM     38  N   UNL A   1      41.553  29.406  33.004  1.00  0.00    -0.248 NA
ATOM     39  C   UNL A   1      42.634  27.653  31.907  1.00  0.00     0.031 C 
ATOM     40  C   UNL A   1      38.882  29.946  29.454  1.00  0.00     0.029 A 
ATOM     41  N   UNL A   1      39.396  30.708  31.493  1.00  0.00    -0.354 N 
ATOM     42  C   UNL A   1      42.513  28.858  33.848  1.00  0.00     0.074 A 
ATOM     43  C   UNL A   1      43.106  27.744  33.142  1.00  0.00     0.031 C 
ATOM     44  C   UNL A   1      38.049  30.965  29.726  1.00  0.00     0.029 A 
ATOM     45  C   UNL A   1      38.352  31.488  31.055  1.00  0.00     0.049 A 
ATOM     46  H   UNL A   1      39.818  30.819  32.375  1.00  0.00     0.167 HD
ATOM     47  C   UNL A   1      42.885  29.261  35.087  1.00  0.00     0.037 A 
ATOM     48  C   UNL A   1      37.718  32.514  31.652  1.00  0.00     0.037 A 
ATOM     49  C   UNL A   1      42.313  30.390  35.775  1.00  0.00     0.049 A 
ATOM     50  C   UNL A   1      38.177  32.972  33.008  1.00  0.00     0.074 A 
ATOM     51  C   UNL A   1      42.652  30.909  37.013  1.00  0.00     0.029 A 
ATOM     52  N   UNL A   1      41.286  31.181  35.279  1.00  0.00    -0.354 N 
ATOM     53  N   UNL A   1      39.125  32.476  33.768  1.00  0.00    -0.248 NA
ATOM     54  C   UNL A   1      37.494  34.140  33.581  1.00  0.00     0.031 C 
ATOM     55  C   UNL A   1      41.811  31.996  37.278  1.00  0.00     0.029 A 
ATOM     56  C   UNL A   1      40.975  32.180  36.187  1.00  0.00     0.049 A 
ATOM     57  H   UNL A   1      40.843  31.051  34.409  1.00  0.00     0.167 HD
ATOM     58  C   UNL A   1      39.172  33.290  34.896  1.00  0.00     0.074 A 
ATOM     59  C   UNL A   1      38.165  34.315  34.711  1.00  0.00     0.031 C 
ATOM     60  C   UNL A   1      39.974  33.196  35.985  1.00  0.00     0.037 A 
BRANCH  47  61
ATOM     61  C   UNL A   1      43.971  28.479  35.774  1.00  0.00     0.058 A 
ATOM     62  C   UNL A   1      43.677  27.388  36.610  1.00  0.00     0.135 A 
ATOM     63  C   UNL A   1      45.322  28.807  35.580  1.00  0.00     0.135 A 
ATOM     64  F   UNL A   1      42.402  27.041  36.843  1.00  0.00    -0.206 F 
ATOM     65  C   UNL A   1      44.681  26.674  37.254  1.00  0.00     0.059 A 
ATOM     66  C   UNL A   1      46.345  28.089  36.194  1.00  0.00     0.059 A 
ATOM     67  F   UNL A   1      45.662  29.839  34.791  1.00  0.00    -0.206 F 
ATOM     68  C   UNL A   1      46.013  27.033  37.043  1.00  0.00     0.060 A 
BRANCH  68  69
ATOM     69  S   UNL A   1      47.306  26.099  37.890  1.00  0.00     0.124 S 
ATOM     70  O   UNL A   1      46.614  24.846  38.181  1.00  0.00    -0.237 OA
ATOM     71  O   UNL A   1      48.353  26.023  36.878  1.00  0.00    -0.237 OA
ATOM     72  O   UNL A   1      47.617  26.927  39.051  1.00  0.00    -0.744 OA
ENDBRANCH  68  69
ENDBRANCH  47  61
BRANCH  48  73
ATOM     73  C   UNL A   1      36.609  33.211  30.946  1.00  0.00     0.058 A 
ATOM     74  C   UNL A   1      35.275  33.022  31.335  1.00  0.00     0.135 A 
ATOM     75  C   UNL A   1      36.863  34.088  29.882  1.00  0.00     0.135 A 
ATOM     76  F   UNL A   1      34.984  32.189  32.347  1.00  0.00    -0.206 F 
ATOM     77  C   UNL A   1      34.228  33.664  30.685  1.00  0.00     0.059 A 
ATOM     78  C   UNL A   1      35.834  34.761  29.230  1.00  0.00     0.059 A 
ATOM     79  F   UNL A   1      38.124  34.318  29.484  1.00  0.00    -0.206 F 
ATOM     80  C   UNL A   1      34.518  34.534  29.632  1.00  0.00     0.060 A 
BRANCH  80  81
ATOM     81  S   UNL A   1      33.158  35.406  28.827  1.00  0.00     0.124 S 
ATOM     82  O   UNL A   1      33.875  36.378  28.010  1.00  0.00    -0.237 OA
ATOM     83  O   UNL A   1      32.489  34.331  28.101  1.00  0.00    -0.237 OA
ATOM     84  O   UNL A   1      32.402  35.957  29.949  1.00  0.00    -0.744 OA
ENDBRANCH  80  81
ENDBRANCH  48  73
BRANCH  60  85
ATOM     85  C   UNL A   1      39.823  34.258  37.038  1.00  0.00     0.058 A 
ATOM     86  C   UNL A   1      39.020  34.064  38.173  1.00  0.00     0.135 A 
ATOM     87  C   UNL A   1      40.498  35.482  36.913  1.00  0.00     0.135 A 
ATOM     88  F   UNL A   1      38.350  32.912  38.338  1.00  0.00    -0.206 F 
ATOM     89  C   UNL A   1      38.859  35.063  39.128  1.00  0.00     0.059 A 
ATOM     90  C   UNL A   1      40.373  36.485  37.868  1.00  0.00     0.059 A 
ATOM     91  F   UNL A   1      41.290  35.713  35.854  1.00  0.00    -0.206 F 
ATOM     92  C   UNL A   1      39.534  36.274  38.962  1.00  0.00     0.060 A 
BRANCH  92  93
ATOM     93  S   UNL A   1      39.315  37.569  40.201  1.00  0.00     0.124 S 
ATOM     94  O   UNL A   1      38.268  38.382  39.592  1.00  0.00    -0.237 OA
ATOM     95  O   UNL A   1      38.920  36.810  41.384  1.00  0.00    -0.237 OA
ATOM     96  O   UNL A   1      40.633  38.191  40.276  1.00  0.00    -0.744 OA
ENDBRANCH  92  93
ENDBRANCH  60  85
ENDBRANCH  34  35
ENDBRANCH  26  29
ENDBRANCH  24  25
ENDBRANCH  23  24
ENDBRANCH   1  23
TORSDOF 17
ENDMDL
MODEL 3
REMARK VINA RESULT:     -11.4      6.795     12.391
REMARK SMILES Cn1cccc1C[NH2+]Cc1ccc(C(=O)NCCCNC(=O)c2ccc(-c3c4nc(c(-c5c(F)cc(S(=O)(=O)[O-])cc5F)c5ccc([nH]5)c(-c5c(F)cc(S(=O)(=O)[O-])cc5F)c5nc(c(-c6c(F)cc(S(=O)(=O)[O-])cc6F)c6ccc3[nH]6)C=C5)C=C4)cc2)cc1
REMARK SMILES IDX 17 1 16 2 14 3 15 4 13 6 10 7 11 8 90 9 12 10 89 11 9 12
REMARK SMILES IDX 8 13 7 16 6 17 1 18 2 19 3 20 4 21 5 22 18 23 19 24 20 25
REMARK SMILES IDX 21 26 22 28 23 29 24 30 88 31 25 32 87 33 26 34 27 35 28 36
REMARK SMILES IDX 81 37 29 38 86 39 80 40 82 41 30 42 85 43 79 44 78 45 31 47
REMARK SMILES IDX 65 48 44 49 64 50 45 51 48 52 63 53 83 54 46 55 47 56 62 58
REMARK SMILES IDX 84 59 49 60 32 61 33 62 42 63 34 64 35 65 41 66 43 67 36 68
REMARK SMILES IDX 37 69 38 70 39 71 40 72 66 73 67 74 76 75 68 76 69 77 75 78
REMARK SMILES IDX 77 79 70 80 71 81 72 82 73 83 74 84 50 85 51 86 60 87 52 88
REMARK SMILES IDX 53 89 59 90 61 91 54 92 55 93 56 94 57 95 58 96
REMARK H PARENT 16 5 8 14 8 15 20 27 82 46 48 57
REMARK Flexibility Score: inf
ROOT
ATOM      1  C   UNL A   1      33.744  28.930  25.762  1.00  0.00     0.118 C 
ENDROOT
BRANCH   1   2
ATOM      2  N   UNL A   1      32.606  29.687  25.266  1.00  0.00    -0.352 N 
ATOM      3  C   UNL A   1      31.453  29.267  24.650  1.00  0.00     0.251 C 
ATOM      4  O   UNL A   1      30.552  30.078  24.448  1.00  0.00    -0.269 OA
ATOM      5  H   UNL A   1      32.673  30.661  25.393  1.00  0.00     0.163 HD
BRANCH   3   6
ATOM      6  C   UNL A   1      31.246  27.844  24.286  1.00  0.00     0.039 A 
ATOM      7  C   UNL A   1      30.940  25.095  23.750  1.00  0.00     0.006 A 
ATOM      8  C   UNL A   1      30.532  25.635  24.980  1.00  0.00     0.010 A 
ATOM      9  C   UNL A   1      31.401  25.973  22.758  1.00  0.00     0.010 A 
ATOM     10  C   UNL A   1      30.684  26.999  25.247  1.00  0.00     0.014 A 
ATOM     11  C   UNL A   1      31.548  27.336  23.023  1.00  0.00     0.014 A 
BRANCH   7  12
ATOM     12  C   UNL A   1      30.816  23.603  23.518  1.00  0.00     0.297 C 
BRANCH  12  13
ATOM     13  N   UNL A   1      31.824  23.016  22.639  1.00  0.00    -0.338 N 
ATOM     14  H   UNL A   1      31.456  23.011  21.688  1.00  0.00     0.346 HD
ATOM     15  H   UNL A   1      32.665  23.586  22.731  1.00  0.00     0.346 HD
BRANCH  13  16
ATOM     16  C   UNL A   1      32.196  21.652  22.996  1.00  0.00     0.316 C 
BRANCH  16  17
ATOM     17  C   UNL A   1      33.493  21.692  23.745  1.00  0.00     0.072 A 
ATOM     18  C   UNL A   1      33.302  19.482  24.997  1.00  0.00     0.149 C 
ATOM     19  N   UNL A   1      33.944  20.723  24.618  1.00  0.00    -0.350 N 
ATOM     20  C   UNL A   1      35.162  21.100  25.131  1.00  0.00     0.085 A 
ATOM     21  C   UNL A   1      35.500  22.320  24.596  1.00  0.00     0.020 A 
ATOM     22  C   UNL A   1      34.456  22.690  23.724  1.00  0.00     0.029 A 
ENDBRANCH  16  17
ENDBRANCH  13  16
ENDBRANCH  12  13
ENDBRANCH   7  12
ENDBRANCH   3   6
ENDBRANCH   1   2
BRANCH   1  23
ATOM     23  C   UNL A   1      33.918  29.085  27.271  1.00  0.00     0.042 C 
BRANCH  23  24
ATOM     24  C   UNL A   1      35.316  29.528  27.691  1.00  0.00     0.118 C 
BRANCH  24  25
ATOM     25  N   UNL A   1      35.339  30.056  29.045  1.00  0.00    -0.352 N 
ATOM     26  C   UNL A   1      36.357  30.091  29.965  1.00  0.00     0.251 C 
ATOM     27  H   UNL A   1      34.491  30.451  29.350  1.00  0.00     0.163 HD
ATOM     28  O   UNL A   1      36.088  30.392  31.125  1.00  0.00    -0.269 OA
BRANCH  26  29
ATOM     29  C   UNL A   1      37.755  29.768  29.590  1.00  0.00     0.039 A 
ATOM     30  C   UNL A   1      38.114  29.845  28.239  1.00  0.00     0.014 A 
ATOM     31  C   UNL A   1      38.691  29.318  30.526  1.00  0.00     0.014 A 
ATOM     32  C   UNL A   1      39.406  29.498  27.836  1.00  0.00     0.010 A 
ATOM     33  C   UNL A   1      40.002  29.041  30.133  1.00  0.00     0.010 A 
ATOM     34  C   UNL A   1      40.366  29.105  28.781  1.00  0.00    -0.014 A 
BRANCH  34  35
ATOM     35  C   UNL A   1      41.739  28.723  28.353  1.00  0.00     0.031 A 
ATOM     36  C   UNL A   1      42.832  29.757  28.295  1.00  0.00     0.074 A 
ATOM     37  C   UNL A   1      41.995  27.450  27.994  1.00  0.00     0.049 A 
ATOM     38  N   UNL A   1      44.087  29.616  27.949  1.00  0.00    -0.248 NA
ATOM     39  C   UNL A   1      42.463  31.137  28.651  1.00  0.00     0.031 C 
ATOM     40  C   UNL A   1      41.009  26.368  27.955  1.00  0.00     0.029 A 
ATOM     41  N   UNL A   1      43.162  26.849  27.595  1.00  0.00    -0.354 N 
ATOM     42  C   UNL A   1      44.651  30.884  28.032  1.00  0.00     0.074 A 
ATOM     43  C   UNL A   1      43.590  31.792  28.410  1.00  0.00     0.031 C 
ATOM     44  C   UNL A   1      41.619  25.231  27.580  1.00  0.00     0.029 A 
ATOM     45  C   UNL A   1      43.031  25.507  27.331  1.00  0.00     0.049 A 
ATOM     46  H   UNL A   1      44.014  27.335  27.505  1.00  0.00     0.167 HD
ATOM     47  C   UNL A   1      45.939  31.256  27.834  1.00  0.00     0.037 A 
ATOM     48  C   UNL A   1      43.946  24.599  26.943  1.00  0.00     0.037 A 
ATOM     49  C   UNL A   1      46.999  30.345  27.487  1.00  0.00     0.049 A 
ATOM     50  C   UNL A   1      45.378  25.026  26.773  1.00  0.00     0.074 A 
ATOM     51  C   UNL A   1      48.345  30.613  27.310  1.00  0.00     0.029 A 
ATOM     52  N   UNL A   1      46.833  28.984  27.270  1.00  0.00    -0.354 N 
ATOM     53  N   UNL A   1      45.903  26.221  26.909  1.00  0.00    -0.248 NA
ATOM     54  C   UNL A   1      46.345  23.979  26.417  1.00  0.00     0.031 C 
ATOM     55  C   UNL A   1      48.989  29.420  26.960  1.00  0.00     0.029 A 
ATOM     56  C   UNL A   1      48.050  28.401  26.957  1.00  0.00     0.049 A 
ATOM     57  H   UNL A   1      45.975  28.504  27.329  1.00  0.00     0.167 HD
ATOM     58  C   UNL A   1      47.267  26.063  26.683  1.00  0.00     0.074 A 
ATOM     59  C   UNL A   1      47.484  24.656  26.414  1.00  0.00     0.031 C 
ATOM     60  C   UNL A   1      48.249  26.998  26.697  1.00  0.00     0.037 A 
BRANCH  47  61
ATOM     61  C   UNL A   1      46.273  32.714  28.001  1.00  0.00     0.058 A 
ATOM     62  C   UNL A   1      46.789  33.219  29.206  1.00  0.00     0.135 A 
ATOM     63  C   UNL A   1      46.097  33.615  26.938  1.00  0.00     0.135 A 
ATOM     64  F   UNL A   1      46.963  32.404  30.259  1.00  0.00    -0.206 F 
ATOM     65  C   UNL A   1      47.086  34.568  29.363  1.00  0.00     0.059 A 
ATOM     66  C   UNL A   1      46.413  34.965  27.064  1.00  0.00     0.059 A 
ATOM     67  F   UNL A   1      45.609  33.188  25.762  1.00  0.00    -0.206 F 
ATOM     68  C   UNL A   1      46.892  35.435  28.287  1.00  0.00     0.060 A 
BRANCH  68  69
ATOM     69  S   UNL A   1      47.277  37.186  28.507  1.00  0.00     0.124 S 
ATOM     70  O   UNL A   1      46.331  37.561  29.555  1.00  0.00    -0.237 OA
ATOM     71  O   UNL A   1      48.680  37.151  28.904  1.00  0.00    -0.237 OA
ATOM     72  O   UNL A   1      47.014  37.758  27.191  1.00  0.00    -0.744 OA
ENDBRANCH  68  69
ENDBRANCH  47  61
BRANCH  48  73
ATOM     73  C   UNL A   1      43.543  23.183  26.735  1.00  0.00     0.058 A 
ATOM     74  C   UNL A   1      43.486  22.631  25.447  1.00  0.00     0.135 A 
ATOM     75  C   UNL A   1      43.221  22.352  27.818  1.00  0.00     0.135 A 
ATOM     76  F   UNL A   1      43.781  23.389  24.379  1.00  0.00    -0.206 F 
ATOM     77  C   UNL A   1      43.109  21.309  25.236  1.00  0.00     0.059 A 
ATOM     78  C   UNL A   1      42.863  21.020  27.635  1.00  0.00     0.059 A 
ATOM     79  F   UNL A   1      43.279  22.828  29.072  1.00  0.00    -0.206 F 
ATOM     80  C   UNL A   1      42.800  20.510  26.339  1.00  0.00     0.060 A 
BRANCH  80  81
ATOM     81  S   UNL A   1      42.362  18.780  26.062  1.00  0.00     0.124 S 
ATOM     82  O   UNL A   1      40.962  18.891  25.669  1.00  0.00    -0.237 OA
ATOM     83  O   UNL A   1      43.294  18.392  25.006  1.00  0.00    -0.237 OA
ATOM     84  O   UNL A   1      42.609  18.161  27.361  1.00  0.00    -0.744 OA
ENDBRANCH  80  81
ENDBRANCH  48  73
BRANCH  60  85
ATOM     85  C   UNL A   1      49.653  26.517  26.456  1.00  0.00     0.058 A 
ATOM     86  C   UNL A   1      50.224  26.517  25.173  1.00  0.00     0.135 A 
ATOM     87  C   UNL A   1      50.439  26.060  27.524  1.00  0.00     0.135 A 
ATOM     88  F   UNL A   1      49.512  26.942  24.116  1.00  0.00    -0.206 F 
ATOM     89  C   UNL A   1      51.512  26.041  24.952  1.00  0.00     0.059 A 
ATOM     90  C   UNL A   1      51.739  25.603  27.330  1.00  0.00     0.059 A 
ATOM     91  F   UNL A   1      49.947  26.052  28.773  1.00  0.00    -0.206 F 
ATOM     92  C   UNL A   1      52.259  25.579  26.037  1.00  0.00     0.060 A 
BRANCH  92  93
ATOM     93  S   UNL A   1      53.928  24.955  25.742  1.00  0.00     0.124 S 
ATOM     94  O   UNL A   1      54.577  25.243  27.017  1.00  0.00    -0.237 OA
ATOM     95  O   UNL A   1      53.691  23.544  25.456  1.00  0.00    -0.237 OA
ATOM     96  O   UNL A   1      54.390  25.749  24.608  1.00  0.00    -0.744 OA
ENDBRANCH  92  93
ENDBRANCH  60  85
ENDBRANCH  34  35
ENDBRANCH  26  29
ENDBRANCH  24  25
ENDBRANCH  23  24
ENDBRANCH   1  23
TORSDOF 17
ENDMDL
