MODEL 1
REMARK VINA RESULT:     -11.6      0.000      0.000
REMARK SMILES C[NH2+][C@@](C)(CC[N@@H+](C)C1CCC(C)(C)CC1)C(=O)NCCCNC(=O)c1ccc(-c2c3nc(c(-c4c(F)cc(S(=O)(=O)[O-])cc4F)c4ccc([nH]4)c(-c4c(F)cc(S(=O)(=O)[O-])cc4F)c4nc(c(-c5c(F)cc(S(=O)(=O)[O-])cc5F)c5ccc2[nH]5)C=C4)C=C3)cc1
REMARK SMILES IDX 20 1 19 2 17 3 18 4 3 6 4 7 2 8 1 9 5 12 6 13 7 14 8 15 9 17
REMARK SMILES IDX 10 18 16 19 11 20 15 21 12 22 13 23 14 24 21 25 22 26 23 27
REMARK SMILES IDX 24 28 25 30 26 31 27 32 91 33 28 34 90 35 29 36 30 37 31 38
REMARK SMILES IDX 84 39 32 40 89 41 83 42 85 43 33 44 88 45 82 46 81 47 34 49
REMARK SMILES IDX 68 50 47 51 67 52 48 53 51 54 66 55 86 56 49 57 50 58 65 60
REMARK SMILES IDX 87 61 52 62 35 63 36 64 45 65 37 66 38 67 44 68 46 69 39 70
REMARK SMILES IDX 40 71 41 72 42 73 43 74 69 75 70 76 79 77 71 78 72 79 78 80
REMARK SMILES IDX 80 81 73 82 74 83 75 84 76 85 77 86 53 87 54 88 63 89 55 90
REMARK SMILES IDX 56 91 62 92 64 93 57 94 58 95 59 96 60 97 61 98
REMARK H PARENT 19 5 2 10 2 11 7 16 23 29 85 48 51 59
REMARK Flexibility Score: inf
ROOT
ATOM      1  C   UNL A   1      36.859  22.247  25.687  1.00  0.00     0.118 C 
ENDROOT
BRANCH   1   2
ATOM      2  N   UNL A   1      35.780  22.285  26.657  1.00  0.00    -0.351 N 
ATOM      3  C   UNL A   1      34.522  21.771  26.695  1.00  0.00     0.281 C 
ATOM      4  O   UNL A   1      33.874  22.101  27.693  1.00  0.00    -0.268 OA
ATOM      5  H   UNL A   1      36.010  22.796  27.467  1.00  0.00     0.163 HD
BRANCH   3   6
ATOM      6  C   UNL A   1      34.015  20.791  25.600  1.00  0.00     0.177 C 
ATOM      7  C   UNL A   1      35.220  20.004  25.009  1.00  0.00     0.090 C 
BRANCH   6   8
ATOM      8  N   UNL A   1      33.148  19.689  26.098  1.00  0.00    -0.336 N 
ATOM      9  C   UNL A   1      32.880  18.542  25.245  1.00  0.00     0.331 C 
ATOM     10  H   UNL A   1      33.584  19.330  26.948  1.00  0.00     0.346 HD
ATOM     11  H   UNL A   1      32.234  20.130  26.198  1.00  0.00     0.346 HD
ENDBRANCH   6   8
BRANCH   6  12
ATOM     12  C   UNL A   1      33.268  21.566  24.457  1.00  0.00     0.140 C 
BRANCH  12  13
ATOM     13  C   UNL A   1      32.945  23.113  24.349  1.00  0.00     0.269 C 
BRANCH  13  14
ATOM     14  N   UNL A   1      31.904  23.882  25.053  1.00  0.00    -0.335 N 
ATOM     15  C   UNL A   1      31.031  22.957  25.810  1.00  0.00     0.332 C 
ATOM     16  H   UNL A   1      31.449  24.360  24.277  1.00  0.00     0.348 HD
BRANCH  14  17
ATOM     17  C   UNL A   1      32.288  25.015  25.955  1.00  0.00     0.183 C 
ATOM     18  C   UNL A   1      33.641  25.759  25.787  1.00  0.00     0.065 C 
ATOM     19  C   UNL A   1      31.252  26.113  26.139  1.00  0.00     0.065 C 
ATOM     20  C   UNL A   1      33.681  26.751  24.627  1.00  0.00     0.012 C 
ATOM     21  C   UNL A   1      31.162  27.069  24.948  1.00  0.00     0.012 C 
ATOM     22  C   UNL A   1      32.487  27.735  24.558  1.00  0.00    -0.035 C 
ATOM     23  C   UNL A   1      32.372  28.247  23.105  1.00  0.00     0.011 C 
ATOM     24  C   UNL A   1      32.676  28.949  25.484  1.00  0.00     0.011 C 
ENDBRANCH  14  17
ENDBRANCH  13  14
ENDBRANCH  12  13
ENDBRANCH   6  12
ENDBRANCH   3   6
ENDBRANCH   1   2
BRANCH   1  25
ATOM     25  C   UNL A   1      37.327  23.641  25.308  1.00  0.00     0.042 C 
BRANCH  25  26
ATOM     26  C   UNL A   1      38.195  24.277  26.386  1.00  0.00     0.118 C 
BRANCH  26  27
ATOM     27  N   UNL A   1      39.615  24.110  26.102  1.00  0.00    -0.352 N 
ATOM     28  C   UNL A   1      40.664  24.936  26.413  1.00  0.00     0.251 C 
ATOM     29  H   UNL A   1      39.856  23.287  25.618  1.00  0.00     0.163 HD
ATOM     30  O   UNL A   1      41.722  24.860  25.775  1.00  0.00    -0.269 OA
BRANCH  28  31
ATOM     31  C   UNL A   1      40.513  25.907  27.505  1.00  0.00     0.039 A 
ATOM     32  C   UNL A   1      39.661  25.634  28.574  1.00  0.00     0.014 A 
ATOM     33  C   UNL A   1      41.221  27.107  27.449  1.00  0.00     0.014 A 
ATOM     34  C   UNL A   1      39.559  26.554  29.616  1.00  0.00     0.010 A 
ATOM     35  C   UNL A   1      41.214  27.959  28.536  1.00  0.00     0.010 A 
ATOM     36  C   UNL A   1      40.355  27.712  29.614  1.00  0.00    -0.014 A 
BRANCH  36  37
ATOM     37  C   UNL A   1      40.269  28.727  30.686  1.00  0.00     0.031 A 
ATOM     38  C   UNL A   1      41.164  28.596  31.891  1.00  0.00     0.074 A 
ATOM     39  C   UNL A   1      39.335  29.692  30.617  1.00  0.00     0.049 A 
ATOM     40  N   UNL A   1      41.172  29.296  32.994  1.00  0.00    -0.248 NA
ATOM     41  C   UNL A   1      42.146  27.498  31.872  1.00  0.00     0.031 C 
ATOM     42  C   UNL A   1      38.375  29.870  29.524  1.00  0.00     0.029 A 
ATOM     43  N   UNL A   1      39.031  30.702  31.493  1.00  0.00    -0.354 N 
ATOM     44  C   UNL A   1      42.130  28.702  33.808  1.00  0.00     0.074 A 
ATOM     45  C   UNL A   1      42.632  27.545  33.102  1.00  0.00     0.031 C 
ATOM     46  C   UNL A   1      37.612  30.944  29.781  1.00  0.00     0.029 A 
ATOM     47  C   UNL A   1      38.002  31.507  31.069  1.00  0.00     0.049 A 
ATOM     48  H   UNL A   1      39.505  30.836  32.346  1.00  0.00     0.167 HD
ATOM     49  C   UNL A   1      42.575  29.104  35.021  1.00  0.00     0.037 A 
ATOM     50  C   UNL A   1      37.441  32.580  31.659  1.00  0.00     0.037 A 
ATOM     51  C   UNL A   1      42.100  30.288  35.683  1.00  0.00     0.049 A 
ATOM     52  C   UNL A   1      37.979  33.035  32.987  1.00  0.00     0.074 A 
ATOM     53  C   UNL A   1      42.529  30.840  36.875  1.00  0.00     0.029 A 
ATOM     54  N   UNL A   1      41.090  31.108  35.199  1.00  0.00    -0.354 N 
ATOM     55  N   UNL A   1      38.932  32.503  33.717  1.00  0.00    -0.248 NA
ATOM     56  C   UNL A   1      37.374  34.241  33.568  1.00  0.00     0.031 C 
ATOM     57  C   UNL A   1      41.752  31.975  37.132  1.00  0.00     0.029 A 
ATOM     58  C   UNL A   1      40.871  32.156  36.076  1.00  0.00     0.049 A 
ATOM     59  H   UNL A   1      40.601  30.965  34.357  1.00  0.00     0.167 HD
ATOM     60  C   UNL A   1      39.062  33.326  34.830  1.00  0.00     0.074 A 
ATOM     61  C   UNL A   1      38.095  34.393  34.671  1.00  0.00     0.031 C 
ATOM     62  C   UNL A   1      39.907  33.211  35.886  1.00  0.00     0.037 A 
BRANCH  49  63
ATOM     63  C   UNL A   1      43.625  28.260  35.690  1.00  0.00     0.058 A 
ATOM     64  C   UNL A   1      43.288  27.229  36.584  1.00  0.00     0.135 A 
ATOM     65  C   UNL A   1      44.988  28.486  35.442  1.00  0.00     0.135 A 
ATOM     66  F   UNL A   1      42.001  26.978  36.873  1.00  0.00    -0.206 F 
ATOM     67  C   UNL A   1      44.262  26.487  37.244  1.00  0.00     0.059 A 
ATOM     68  C   UNL A   1      45.981  27.734  36.066  1.00  0.00     0.059 A 
ATOM     69  F   UNL A   1      45.370  29.457  34.598  1.00  0.00    -0.206 F 
ATOM     70  C   UNL A   1      45.607  26.750  36.981  1.00  0.00     0.060 A 
BRANCH  70  71
ATOM     71  S   UNL A   1      46.861  25.790  37.856  1.00  0.00     0.124 S 
ATOM     72  O   UNL A   1      46.419  24.425  37.589  1.00  0.00    -0.237 OA
ATOM     73  O   UNL A   1      48.091  26.200  37.188  1.00  0.00    -0.237 OA
ATOM     74  O   UNL A   1      46.724  26.234  39.239  1.00  0.00    -0.744 OA
ENDBRANCH  70  71
ENDBRANCH  49  63
BRANCH  50  75
ATOM     75  C   UNL A   1      36.353  33.318  30.967  1.00  0.00     0.058 A 
ATOM     76  C   UNL A   1      35.036  33.266  31.447  1.00  0.00     0.135 A 
ATOM     77  C   UNL A   1      36.608  34.123  29.845  1.00  0.00     0.135 A 
ATOM     78  F   UNL A   1      34.742  32.511  32.516  1.00  0.00    -0.206 F 
ATOM     79  C   UNL A   1      34.008  33.977  30.836  1.00  0.00     0.059 A 
ATOM     80  C   UNL A   1      35.601  34.861  29.231  1.00  0.00     0.059 A 
ATOM     81  F   UNL A   1      37.857  34.224  29.361  1.00  0.00    -0.206 F 
ATOM     82  C   UNL A   1      34.302  34.775  29.730  1.00  0.00     0.060 A 
BRANCH  82  83
ATOM     83  S   UNL A   1      32.972  35.744  28.985  1.00  0.00     0.124 S 
ATOM     84  O   UNL A   1      32.184  36.109  30.156  1.00  0.00    -0.237 OA
ATOM     85  O   UNL A   1      33.707  36.831  28.345  1.00  0.00    -0.237 OA
ATOM     86  O   UNL A   1      32.342  34.799  28.068  1.00  0.00    -0.744 OA
ENDBRANCH  82  83
ENDBRANCH  50  75
BRANCH  62  87
ATOM     87  C   UNL A   1      39.849  34.288  36.931  1.00  0.00     0.058 A 
ATOM     88  C   UNL A   1      40.493  35.522  36.756  1.00  0.00     0.135 A 
ATOM     89  C   UNL A   1      39.089  34.100  38.096  1.00  0.00     0.135 A 
ATOM     90  F   UNL A   1      41.236  35.747  35.661  1.00  0.00    -0.206 F 
ATOM     91  C   UNL A   1      40.404  36.527  37.712  1.00  0.00     0.059 A 
ATOM     92  C   UNL A   1      38.963  35.101  39.052  1.00  0.00     0.059 A 
ATOM     93  F   UNL A   1      38.444  32.941  38.305  1.00  0.00    -0.206 F 
ATOM     94  C   UNL A   1      39.634  36.307  38.856  1.00  0.00     0.060 A 
BRANCH  94  95
ATOM     95  S   UNL A   1      39.496  37.633  40.074  1.00  0.00     0.124 S 
ATOM     96  O   UNL A   1      38.410  38.430  39.517  1.00  0.00    -0.237 OA
ATOM     97  O   UNL A   1      39.184  36.901  41.298  1.00  0.00    -0.237 OA
ATOM     98  O   UNL A   1      40.815  38.259  40.045  1.00  0.00    -0.744 OA
ENDBRANCH  94  95
ENDBRANCH  62  87
ENDBRANCH  36  37
ENDBRANCH  28  31
ENDBRANCH  26  27
ENDBRANCH  25  26
ENDBRANCH   1  25
TORSDOF 18
ENDMDL
MODEL 2
REMARK VINA RESULT:     -11.5      4.831     10.487
REMARK SMILES C[NH2+][C@@](C)(CC[N@@H+](C)C1CCC(C)(C)CC1)C(=O)NCCCNC(=O)c1ccc(-c2c3nc(c(-c4c(F)cc(S(=O)(=O)[O-])cc4F)c4ccc([nH]4)c(-c4c(F)cc(S(=O)(=O)[O-])cc4F)c4nc(c(-c5c(F)cc(S(=O)(=O)[O-])cc5F)c5ccc2[nH]5)C=C4)C=C3)cc1
REMARK SMILES IDX 20 1 19 2 17 3 18 4 3 6 4 7 2 8 1 9 5 12 6 13 7 14 8 15 9 17
REMARK SMILES IDX 10 18 16 19 11 20 15 21 12 22 13 23 14 24 21 25 22 26 23 27
REMARK SMILES IDX 24 28 25 30 26 31 27 32 91 33 28 34 90 35 29 36 30 37 31 38
REMARK SMILES IDX 84 39 32 40 89 41 83 42 85 43 33 44 88 45 82 46 81 47 34 49
REMARK SMILES IDX 68 50 47 51 67 52 48 53 51 54 66 55 86 56 49 57 50 58 65 60
REMARK SMILES IDX 87 61 52 62 35 63 36 64 45 65 37 66 38 67 44 68 46 69 39 70
REMARK SMILES IDX 40 71 41 72 42 73 43 74 69 75 70 76 79 77 71 78 72 79 78 80
REMARK SMILES IDX 80 81 73 82 74 83 75 84 76 85 77 86 53 87 54 88 63 89 55 90
REMARK SMILES IDX 56 91 62 92 64 93 57 94 58 95 59 96 60 97 61 98
REMARK H PARENT 19 5 2 10 2 11 7 16 23 29 85 48 51 59
REMARK Flexibility Score: inf
ROOT
ATOM      1  C   UNL A   1      32.763  26.671  25.108  1.00  0.00     0.118 C 
ENDROOT
BRANCH   1   2
ATOM      2  N   UNL A   1      32.744  25.710  26.196  1.00  0.00    -0.351 N 
ATOM      3  C   UNL A   1      31.868  24.751  26.597  1.00  0.00     0.281 C 
ATOM      4  O   UNL A   1      32.191  24.182  27.645  1.00  0.00    -0.268 OA
ATOM      5  H   UNL A   1      33.542  25.765  26.771  1.00  0.00     0.163 HD
BRANCH   3   6
ATOM      6  C   UNL A   1      30.627  24.379  25.739  1.00  0.00     0.177 C 
ATOM      7  C   UNL A   1      29.663  23.489  26.576  1.00  0.00     0.090 C 
BRANCH   6   8
ATOM      8  N   UNL A   1      29.747  25.524  25.380  1.00  0.00    -0.336 N 
ATOM      9  C   UNL A   1      29.514  25.843  23.980  1.00  0.00     0.331 C 
ATOM     10  H   UNL A   1      28.835  25.339  25.797  1.00  0.00     0.346 HD
ATOM     11  H   UNL A   1      30.258  26.336  25.727  1.00  0.00     0.346 HD
ENDBRANCH   6   8
BRANCH   6  12
ATOM     12  C   UNL A   1      31.056  23.622  24.431  1.00  0.00     0.140 C 
BRANCH  12  13
ATOM     13  C   UNL A   1      32.161  22.502  24.247  1.00  0.00     0.269 C 
BRANCH  13  14
ATOM     14  N   UNL A   1      33.528  22.645  23.715  1.00  0.00    -0.335 N 
ATOM     15  C   UNL A   1      33.482  23.343  22.411  1.00  0.00     0.332 C 
ATOM     16  H   UNL A   1      33.826  21.671  23.668  1.00  0.00     0.348 HD
BRANCH  14  17
ATOM     17  C   UNL A   1      34.598  23.274  24.553  1.00  0.00     0.183 C 
ATOM     18  C   UNL A   1      34.931  22.743  25.973  1.00  0.00     0.065 C 
ATOM     19  C   UNL A   1      35.946  23.483  23.882  1.00  0.00     0.065 C 
ATOM     20  C   UNL A   1      35.758  21.459  25.994  1.00  0.00     0.012 C 
ATOM     21  C   UNL A   1      36.771  22.199  23.764  1.00  0.00     0.012 C 
ATOM     22  C   UNL A   1      37.015  21.469  25.090  1.00  0.00    -0.035 C 
ATOM     23  C   UNL A   1      37.396  20.004  24.783  1.00  0.00     0.011 C 
ATOM     24  C   UNL A   1      38.218  22.148  25.769  1.00  0.00     0.011 C 
ENDBRANCH  14  17
ENDBRANCH  13  14
ENDBRANCH  12  13
ENDBRANCH   6  12
ENDBRANCH   3   6
ENDBRANCH   1   2
BRANCH   1  25
ATOM     25  C   UNL A   1      33.746  27.799  25.369  1.00  0.00     0.042 C 
BRANCH  25  26
ATOM     26  C   UNL A   1      33.860  28.142  26.848  1.00  0.00     0.118 C 
BRANCH  26  27
ATOM     27  N   UNL A   1      33.678  29.569  27.086  1.00  0.00    -0.352 N 
ATOM     28  C   UNL A   1      34.418  30.418  27.866  1.00  0.00     0.251 C 
ATOM     29  H   UNL A   1      32.914  29.981  26.621  1.00  0.00     0.163 HD
ATOM     30  O   UNL A   1      33.921  31.476  28.274  1.00  0.00    -0.269 OA
BRANCH  28  31
ATOM     31  C   UNL A   1      35.800  30.056  28.209  1.00  0.00     0.039 A 
ATOM     32  C   UNL A   1      36.105  29.580  29.484  1.00  0.00     0.014 A 
ATOM     33  C   UNL A   1      36.800  30.209  27.250  1.00  0.00     0.014 A 
ATOM     34  C   UNL A   1      37.417  29.211  29.777  1.00  0.00     0.010 A 
ATOM     35  C   UNL A   1      38.071  29.728  27.500  1.00  0.00     0.010 A 
ATOM     36  C   UNL A   1      38.403  29.260  28.778  1.00  0.00    -0.014 A 
BRANCH  36  37
ATOM     37  C   UNL A   1      39.811  28.897  29.044  1.00  0.00     0.031 A 
ATOM     38  C   UNL A   1      40.736  29.932  29.630  1.00  0.00     0.074 A 
ATOM     39  C   UNL A   1      40.269  27.687  28.676  1.00  0.00     0.049 A 
ATOM     40  N   UNL A   1      42.025  29.869  29.830  1.00  0.00    -0.248 NA
ATOM     41  C   UNL A   1      40.137  31.229  29.990  1.00  0.00     0.031 C 
ATOM     42  C   UNL A   1      39.471  26.634  28.041  1.00  0.00     0.029 A 
ATOM     43  N   UNL A   1      41.522  27.141  28.771  1.00  0.00    -0.354 N 
ATOM     44  C   UNL A   1      42.392  31.124  30.304  1.00  0.00     0.074 A 
ATOM     45  C   UNL A   1      41.206  31.948  30.295  1.00  0.00     0.031 C 
ATOM     46  C   UNL A   1      40.248  25.559  27.835  1.00  0.00     0.029 A 
ATOM     47  C   UNL A   1      41.603  25.859  28.286  1.00  0.00     0.049 A 
ATOM     48  H   UNL A   1      42.292  27.625  29.150  1.00  0.00     0.167 HD
ATOM     49  C   UNL A   1      43.604  31.541  30.739  1.00  0.00     0.037 A 
ATOM     50  C   UNL A   1      42.656  25.022  28.218  1.00  0.00     0.037 A 
ATOM     51  C   UNL A   1      44.761  30.689  30.789  1.00  0.00     0.049 A 
ATOM     52  C   UNL A   1      43.984  25.491  28.746  1.00  0.00     0.074 A 
ATOM     53  C   UNL A   1      46.021  30.974  31.281  1.00  0.00     0.029 A 
ATOM     54  N   UNL A   1      44.793  29.377  30.335  1.00  0.00    -0.354 N 
ATOM     55  N   UNL A   1      44.303  26.659  29.253  1.00  0.00    -0.248 NA
ATOM     56  C   UNL A   1      45.092  24.528  28.701  1.00  0.00     0.031 C 
ATOM     57  C   UNL A   1      46.826  29.846  31.090  1.00  0.00     0.029 A 
ATOM     58  C   UNL A   1      46.055  28.843  30.522  1.00  0.00     0.049 A 
ATOM     59  H   UNL A   1      44.030  28.899  29.938  1.00  0.00     0.167 HD
ATOM     60  C   UNL A   1      45.642  26.562  29.617  1.00  0.00     0.074 A 
ATOM     61  C   UNL A   1      46.067  25.219  29.277  1.00  0.00     0.031 C 
ATOM     62  C   UNL A   1      46.446  27.497  30.183  1.00  0.00     0.037 A 
BRANCH  49  63
ATOM     63  C   UNL A   1      43.724  32.970  31.195  1.00  0.00     0.058 A 
ATOM     64  C   UNL A   1      44.015  34.011  30.298  1.00  0.00     0.135 A 
ATOM     65  C   UNL A   1      43.553  33.304  32.547  1.00  0.00     0.135 A 
ATOM     66  F   UNL A   1      44.206  33.750  28.994  1.00  0.00    -0.206 F 
ATOM     67  C   UNL A   1      44.179  35.323  30.731  1.00  0.00     0.059 A 
ATOM     68  C   UNL A   1      43.681  34.615  33.000  1.00  0.00     0.059 A 
ATOM     69  F   UNL A   1      43.274  32.351  33.450  1.00  0.00    -0.206 F 
ATOM     70  C   UNL A   1      44.015  35.614  32.085  1.00  0.00     0.060 A 
BRANCH  70  71
ATOM     71  S   UNL A   1      44.248  37.318  32.636  1.00  0.00     0.124 S 
ATOM     72  O   UNL A   1      44.126  38.048  31.378  1.00  0.00    -0.237 OA
ATOM     73  O   UNL A   1      43.149  37.494  33.580  1.00  0.00    -0.237 OA
ATOM     74  O   UNL A   1      45.582  37.304  33.227  1.00  0.00    -0.744 OA
ENDBRANCH  70  71
ENDBRANCH  49  63
BRANCH  50  75
ATOM     75  C   UNL A   1      42.474  23.648  27.683  1.00  0.00     0.058 A 
ATOM     76  C   UNL A   1      42.472  23.415  26.300  1.00  0.00     0.135 A 
ATOM     77  C   UNL A   1      42.345  22.539  28.533  1.00  0.00     0.135 A 
ATOM     78  F   UNL A   1      42.592  24.443  25.446  1.00  0.00    -0.206 F 
ATOM     79  C   UNL A   1      42.338  22.133  25.777  1.00  0.00     0.059 A 
ATOM     80  C   UNL A   1      42.232  21.245  28.034  1.00  0.00     0.059 A 
ATOM     81  F   UNL A   1      42.364  22.707  29.865  1.00  0.00    -0.206 F 
ATOM     82  C   UNL A   1      42.223  21.053  26.653  1.00  0.00     0.060 A 
BRANCH  82  83
ATOM     83  S   UNL A   1      42.116  19.387  25.963  1.00  0.00     0.124 S 
ATOM     84  O   UNL A   1      42.974  19.499  24.789  1.00  0.00    -0.237 OA
ATOM     85  O   UNL A   1      42.632  18.570  27.056  1.00  0.00    -0.237 OA
ATOM     86  O   UNL A   1      40.691  19.228  25.691  1.00  0.00    -0.744 OA
ENDBRANCH  82  83
ENDBRANCH  50  75
BRANCH  62  87
ATOM     87  C   UNL A   1      47.854  27.087  30.506  1.00  0.00     0.058 A 
ATOM     88  C   UNL A   1      48.902  27.261  29.589  1.00  0.00     0.135 A 
ATOM     89  C   UNL A   1      48.165  26.566  31.772  1.00  0.00     0.135 A 
ATOM     90  F   UNL A   1      48.654  27.749  28.363  1.00  0.00    -0.206 F 
ATOM     91  C   UNL A   1      50.209  26.913  29.909  1.00  0.00     0.059 A 
ATOM     92  C   UNL A   1      49.469  26.238  32.123  1.00  0.00     0.059 A 
ATOM     93  F   UNL A   1      47.199  26.392  32.688  1.00  0.00    -0.206 F 
ATOM     94  C   UNL A   1      50.482  26.404  31.180  1.00  0.00     0.060 A 
BRANCH  94  95
ATOM     95  S   UNL A   1      52.189  25.989  31.597  1.00  0.00     0.124 S 
ATOM     96  O   UNL A   1      52.050  24.613  32.063  1.00  0.00    -0.237 OA
ATOM     97  O   UNL A   1      52.873  26.160  30.319  1.00  0.00    -0.237 OA
ATOM     98  O   UNL A   1      52.536  26.968  32.623  1.00  0.00    -0.744 OA
ENDBRANCH  94  95
ENDBRANCH  62  87
ENDBRANCH  36  37
ENDBRANCH  28  31
ENDBRANCH  26  27
ENDBRANCH  25  26
ENDBRANCH   1  25
TORSDOF 18
ENDMDL
MODEL 3
REMARK VINA RESULT:     -11.4      1.177      1.965
REMARK SMILES C[NH2+][C@@](C)(CC[N@@H+](C)C1CCC(C)(C)CC1)C(=O)NCCCNC(=O)c1ccc(-c2c3nc(c(-c4c(F)cc(S(=O)(=O)[O-])cc4F)c4ccc([nH]4)c(-c4c(F)cc(S(=O)(=O)[O-])cc4F)c4nc(c(-c5c(F)cc(S(=O)(=O)[O-])cc5F)c5ccc2[nH]5)C=C4)C=C3)cc1
REMARK SMILES IDX 20 1 19 2 17 3 18 4 3 6 4 7 2 8 1 9 5 12 6 13 7 14 8 15 9 17
REMARK SMILES IDX 10 18 16 19 11 20 15 21 12 22 13 23 14 24 21 25 22 26 23 27
REMARK SMILES IDX 24 28 25 30 26 31 27 32 91 33 28 34 90 35 29 36 30 37 31 38
REMARK SMILES IDX 84 39 32 40 89 41 83 42 85 43 33 44 88 45 82 46 81 47 34 49
REMARK SMILES IDX 68 50 47 51 67 52 48 53 51 54 66 55 86 56 49 57 50 58 65 60
REMARK SMILES IDX 87 61 52 62 35 63 36 64 45 65 37 66 38 67 44 68 46 69 39 70
REMARK SMILES IDX 40 71 41 72 42 73 43 74 69 75 70 76 79 77 71 78 72 79 78 80
REMARK SMILES IDX 80 81 73 82 74 83 75 84 76 85 77 86 53 87 54 88 63 89 55 90
REMARK SMILES IDX 56 91 62 92 64 93 57 94 58 95 59 96 60 97 61 98
REMARK H PARENT 19 5 2 10 2 11 7 16 23 29 85 48 51 59
REMARK Flexibility Score: inf
ROOT
ATOM      1  C   UNL A   1      37.896  23.484  25.945  1.00  0.00     0.118 C 
ENDROOT
BRANCH   1   2
ATOM      2  N   UNL A   1      37.416  23.379  24.579  1.00  0.00    -0.351 N 
ATOM      3  C   UNL A   1      36.223  23.048  24.017  1.00  0.00     0.281 C 
ATOM      4  O   UNL A   1      36.244  23.002  22.783  1.00  0.00    -0.268 OA
ATOM      5  H   UNL A   1      38.107  23.595  23.912  1.00  0.00     0.163 HD
BRANCH   3   6
ATOM      6  C   UNL A   1      34.951  22.836  24.885  1.00  0.00     0.177 C 
ATOM      7  C   UNL A   1      33.735  22.538  23.961  1.00  0.00     0.090 C 
BRANCH   6   8
ATOM      8  N   UNL A   1      34.977  21.626  25.751  1.00  0.00    -0.336 N 
ATOM      9  C   UNL A   1      34.403  21.683  27.086  1.00  0.00     0.331 C 
ATOM     10  H   UNL A   1      34.482  20.890  25.247  1.00  0.00     0.346 HD
ATOM     11  H   UNL A   1      35.971  21.478  25.925  1.00  0.00     0.346 HD
ENDBRANCH   6   8
BRANCH   6  12
ATOM     12  C   UNL A   1      34.657  24.102  25.767  1.00  0.00     0.140 C 
BRANCH  12  13
ATOM     13  C   UNL A   1      33.440  25.112  25.683  1.00  0.00     0.269 C 
BRANCH  13  14
ATOM     14  N   UNL A   1      33.391  26.434  25.033  1.00  0.00    -0.335 N 
ATOM     15  C   UNL A   1      33.642  26.284  23.583  1.00  0.00     0.332 C 
ATOM     16  H   UNL A   1      34.119  26.934  25.542  1.00  0.00     0.348 HD
BRANCH  14  17
ATOM     17  C   UNL A   1      32.196  27.318  25.218  1.00  0.00     0.183 C 
ATOM     18  C   UNL A   1      31.637  27.636  26.631  1.00  0.00     0.065 C 
ATOM     19  C   UNL A   1      32.225  28.654  24.493  1.00  0.00     0.065 C 
ATOM     20  C   UNL A   1      32.443  28.668  27.416  1.00  0.00     0.012 C 
ATOM     21  C   UNL A   1      33.120  29.694  25.171  1.00  0.00     0.012 C 
ATOM     22  C   UNL A   1      32.786  29.966  26.643  1.00  0.00    -0.035 C 
ATOM     23  C   UNL A   1      34.016  30.614  27.316  1.00  0.00     0.011 C 
ATOM     24  C   UNL A   1      31.631  30.983  26.668  1.00  0.00     0.011 C 
ENDBRANCH  14  17
ENDBRANCH  13  14
ENDBRANCH  12  13
ENDBRANCH   6  12
ENDBRANCH   3   6
ENDBRANCH   1   2
BRANCH   1  25
ATOM     25  C   UNL A   1      39.085  22.574  26.197  1.00  0.00     0.042 C 
BRANCH  25  26
ATOM     26  C   UNL A   1      40.167  23.247  27.032  1.00  0.00     0.118 C 
BRANCH  26  27
ATOM     27  N   UNL A   1      41.223  23.805  26.196  1.00  0.00    -0.352 N 
ATOM     28  C   UNL A   1      41.660  25.101  26.103  1.00  0.00     0.251 C 
ATOM     29  H   UNL A   1      41.688  23.160  25.616  1.00  0.00     0.163 HD
ATOM     30  O   UNL A   1      42.267  25.479  25.092  1.00  0.00    -0.269 OA
BRANCH  28  31
ATOM     31  C   UNL A   1      41.397  26.028  27.211  1.00  0.00     0.039 A 
ATOM     32  C   UNL A   1      40.352  25.781  28.100  1.00  0.00     0.014 A 
ATOM     33  C   UNL A   1      42.196  27.162  27.351  1.00  0.00     0.014 A 
ATOM     34  C   UNL A   1      40.141  26.657  29.164  1.00  0.00     0.010 A 
ATOM     35  C   UNL A   1      42.066  27.960  28.472  1.00  0.00     0.010 A 
ATOM     36  C   UNL A   1      41.014  27.738  29.370  1.00  0.00    -0.014 A 
BRANCH  36  37
ATOM     37  C   UNL A   1      40.822  28.705  30.473  1.00  0.00     0.031 A 
ATOM     38  C   UNL A   1      41.675  28.585  31.707  1.00  0.00     0.074 A 
ATOM     39  C   UNL A   1      39.830  29.612  30.399  1.00  0.00     0.049 A 
ATOM     40  N   UNL A   1      41.596  29.243  32.834  1.00  0.00    -0.248 NA
ATOM     41  C   UNL A   1      42.727  27.553  31.690  1.00  0.00     0.031 C 
ATOM     42  C   UNL A   1      38.904  29.769  29.275  1.00  0.00     0.029 A 
ATOM     43  N   UNL A   1      39.428  30.566  31.297  1.00  0.00    -0.354 N 
ATOM     44  C   UNL A   1      42.558  28.680  33.665  1.00  0.00     0.074 A 
ATOM     45  C   UNL A   1      43.160  27.584  32.940  1.00  0.00     0.031 C 
ATOM     46  C   UNL A   1      38.064  30.783  29.537  1.00  0.00     0.029 A 
ATOM     47  C   UNL A   1      38.367  31.320  30.859  1.00  0.00     0.049 A 
ATOM     48  H   UNL A   1      39.860  30.698  32.172  1.00  0.00     0.167 HD
ATOM     49  C   UNL A   1      42.929  29.063  34.908  1.00  0.00     0.037 A 
ATOM     50  C   UNL A   1      37.716  32.333  31.463  1.00  0.00     0.037 A 
ATOM     51  C   UNL A   1      42.353  30.190  35.592  1.00  0.00     0.049 A 
ATOM     52  C   UNL A   1      38.171  32.771  32.827  1.00  0.00     0.074 A 
ATOM     53  C   UNL A   1      42.700  30.722  36.819  1.00  0.00     0.029 A 
ATOM     54  N   UNL A   1      41.312  30.962  35.096  1.00  0.00    -0.354 N 
ATOM     55  N   UNL A   1      39.127  32.273  33.576  1.00  0.00    -0.248 NA
ATOM     56  C   UNL A   1      37.468  33.914  33.425  1.00  0.00     0.031 C 
ATOM     57  C   UNL A   1      41.842  31.796  37.084  1.00  0.00     0.029 A 
ATOM     58  C   UNL A   1      40.992  31.960  35.999  1.00  0.00     0.049 A 
ATOM     59  H   UNL A   1      40.866  30.820  34.230  1.00  0.00     0.167 HD
ATOM     60  C   UNL A   1      39.162  33.060  34.722  1.00  0.00     0.074 A 
ATOM     61  C   UNL A   1      38.135  34.070  34.561  1.00  0.00     0.031 C 
ATOM     62  C   UNL A   1      39.970  32.959  35.806  1.00  0.00     0.037 A 
BRANCH  49  63
ATOM     63  C   UNL A   1      44.005  28.262  35.590  1.00  0.00     0.058 A 
ATOM     64  C   UNL A   1      43.699  27.194  36.451  1.00  0.00     0.135 A 
ATOM     65  C   UNL A   1      45.360  28.568  35.388  1.00  0.00     0.135 A 
ATOM     66  F   UNL A   1      42.420  26.867  36.697  1.00  0.00    -0.206 F 
ATOM     67  C   UNL A   1      44.694  26.491  37.123  1.00  0.00     0.059 A 
ATOM     68  C   UNL A   1      46.374  27.857  36.024  1.00  0.00     0.059 A 
ATOM     69  F   UNL A   1      45.711  29.578  34.577  1.00  0.00    -0.206 F 
ATOM     70  C   UNL A   1      46.029  26.834  36.907  1.00  0.00     0.060 A 
BRANCH  70  71
ATOM     71  S   UNL A   1      47.309  25.923  37.798  1.00  0.00     0.124 S 
ATOM     72  O   UNL A   1      47.377  26.670  39.050  1.00  0.00    -0.237 OA
ATOM     73  O   UNL A   1      46.733  24.585  37.890  1.00  0.00    -0.237 OA
ATOM     74  O   UNL A   1      48.476  26.043  36.931  1.00  0.00    -0.744 OA
ENDBRANCH  70  71
ENDBRANCH  49  63
BRANCH  50  75
ATOM     75  C   UNL A   1      36.610  33.027  30.753  1.00  0.00     0.058 A 
ATOM     76  C   UNL A   1      35.275  32.813  31.127  1.00  0.00     0.135 A 
ATOM     77  C   UNL A   1      36.861  33.947  29.723  1.00  0.00     0.135 A 
ATOM     78  F   UNL A   1      34.985  31.942  32.106  1.00  0.00    -0.206 F 
ATOM     79  C   UNL A   1      34.227  33.478  30.500  1.00  0.00     0.059 A 
ATOM     80  C   UNL A   1      35.830  34.641  29.096  1.00  0.00     0.059 A 
ATOM     81  F   UNL A   1      38.123  34.204  29.344  1.00  0.00    -0.206 F 
ATOM     82  C   UNL A   1      34.515  34.394  29.488  1.00  0.00     0.060 A 
BRANCH  82  83
ATOM     83  S   UNL A   1      33.150  35.299  28.726  1.00  0.00     0.124 S 
ATOM     84  O   UNL A   1      32.383  35.712  29.895  1.00  0.00    -0.237 OA
ATOM     85  O   UNL A   1      33.849  36.363  28.012  1.00  0.00    -0.237 OA
ATOM     86  O   UNL A   1      32.516  34.296  27.876  1.00  0.00    -0.744 OA
ENDBRANCH  82  83
ENDBRANCH  50  75
BRANCH  62  87
ATOM     87  C   UNL A   1      39.803  33.990  36.886  1.00  0.00     0.058 A 
ATOM     88  C   UNL A   1      38.968  33.771  37.992  1.00  0.00     0.135 A 
ATOM     89  C   UNL A   1      40.534  35.187  36.838  1.00  0.00     0.135 A 
ATOM     90  F   UNL A   1      38.243  32.645  38.080  1.00  0.00    -0.206 F 
ATOM     91  C   UNL A   1      38.847  34.715  39.005  1.00  0.00     0.059 A 
ATOM     92  C   UNL A   1      40.450  36.133  37.854  1.00  0.00     0.059 A 
ATOM     93  F   UNL A   1      41.356  35.438  35.806  1.00  0.00    -0.206 F 
ATOM     94  C   UNL A   1      39.594  35.892  38.927  1.00  0.00     0.060 A 
BRANCH  94  95
ATOM     95  S   UNL A   1      39.456  37.095  40.267  1.00  0.00     0.124 S 
ATOM     96  O   UNL A   1      38.839  38.226  39.582  1.00  0.00    -0.237 OA
ATOM     97  O   UNL A   1      38.608  36.395  41.228  1.00  0.00    -0.237 OA
ATOM     98  O   UNL A   1      40.839  37.293  40.689  1.00  0.00    -0.744 OA
ENDBRANCH  94  95
ENDBRANCH  62  87
ENDBRANCH  36  37
ENDBRANCH  28  31
ENDBRANCH  26  27
ENDBRANCH  25  26
ENDBRANCH   1  25
TORSDOF 18
ENDMDL
