MODEL 1
REMARK VINA RESULT:     -10.8      0.000      0.000
REMARK SMILES COc1cc(Br)ccc1[C@H]([NH3+])C(=O)NCCCNC(=O)c1ccc(-c2c3nc(c(-c4c(F)cc(S(=O)(=O)[O-])cc4F)c4ccc([nH]4)c(-c4c(F)cc(S(=O)(=O)[O-])cc4F)c4nc(c(-c5c(F)cc(S(=O)(=O)[O-])cc5F)c5ccc2[nH]5)C=C4)C=C3)cc1
REMARK SMILES IDX 16 1 15 2 14 3 12 4 13 5 10 7 9 8 3 9 4 10 5 11 8 12 6 13
REMARK SMILES IDX 7 14 2 15 1 16 11 17 17 21 18 22 19 23 20 25 21 26 22 27
REMARK SMILES IDX 86 28 23 29 85 30 24 31 25 32 26 33 79 34 27 35 84 36 78 37
REMARK SMILES IDX 80 38 28 39 83 40 77 41 76 42 29 44 63 45 42 46 62 47 43 48
REMARK SMILES IDX 46 49 61 50 81 51 44 52 45 53 60 55 82 56 47 57 30 58 31 59
REMARK SMILES IDX 40 60 32 61 33 62 39 63 41 64 34 65 35 66 36 67 37 68 38 69
REMARK SMILES IDX 64 70 65 71 74 72 66 73 67 74 73 75 75 76 68 77 69 78 70 79
REMARK SMILES IDX 71 80 72 81 48 82 49 83 58 84 50 85 51 86 57 87 59 88 52 89
REMARK SMILES IDX 53 90 54 91 55 92 56 93
REMARK H PARENT 14 6 11 18 11 19 11 20 18 24 80 43 46 54
REMARK Flexibility Score: inf
ROOT
ATOM      1  C   UNL A   1      38.456  23.122  26.264  1.00  0.00     0.042 C 
ENDROOT
BRANCH   1   2
ATOM      2  C   UNL A   1      39.513  22.206  26.855  1.00  0.00     0.118 C 
BRANCH   2   3
ATOM      3  N   UNL A   1      39.693  20.961  26.140  1.00  0.00    -0.351 N 
ATOM      4  C   UNL A   1      40.632  19.983  26.348  1.00  0.00     0.283 C 
ATOM      5  O   UNL A   1      40.503  18.924  25.721  1.00  0.00    -0.268 OA
ATOM      6  H   UNL A   1      39.057  20.793  25.407  1.00  0.00     0.163 HD
BRANCH   4   7
ATOM      7  C   UNL A   1      41.837  20.191  27.314  1.00  0.00     0.306 C 
BRANCH   7   8
ATOM      8  C   UNL A   1      42.867  21.202  26.796  1.00  0.00     0.061 A 
ATOM      9  C   UNL A   1      43.615  21.069  25.601  1.00  0.00     0.129 A 
ATOM     10  C   UNL A   1      44.413  22.125  25.149  1.00  0.00     0.062 A 
ATOM     11  C   UNL A   1      44.502  23.301  25.892  1.00  0.00     0.021 A 
ATOM     12  C   UNL A   1      43.020  22.387  27.550  1.00  0.00     0.015 A 
ATOM     13  Br  UNL A   1      45.538  24.745  25.243  1.00  0.00    -0.051 Br
ATOM     14  C   UNL A   1      43.832  23.429  27.103  1.00  0.00     0.016 A 
BRANCH   9  15
ATOM     15  O   UNL A   1      43.512  19.878  24.933  1.00  0.00    -0.496 OA
ATOM     16  C   UNL A   1      44.619  18.982  24.961  1.00  0.00     0.278 C 
ENDBRANCH   9  15
ENDBRANCH   7   8
BRANCH   7  17
ATOM     17  N   UNL A   1      42.334  18.866  27.720  1.00  0.00    -0.343 N 
ATOM     18  H   UNL A   1      43.304  18.945  28.026  1.00  0.00     0.345 HD
ATOM     19  H   UNL A   1      42.279  18.224  26.929  1.00  0.00     0.345 HD
ATOM     20  H   UNL A   1      41.764  18.509  28.487  1.00  0.00     0.345 HD
ENDBRANCH   7  17
ENDBRANCH   4   7
ENDBRANCH   2   3
ENDBRANCH   1   2
BRANCH   1  21
ATOM     21  C   UNL A   1      38.883  24.580  26.209  1.00  0.00     0.118 C 
BRANCH  21  22
ATOM     22  N   UNL A   1      40.176  24.765  25.554  1.00  0.00    -0.352 N 
ATOM     23  C   UNL A   1      41.188  25.662  25.796  1.00  0.00     0.251 C 
ATOM     24  H   UNL A   1      40.351  24.140  24.813  1.00  0.00     0.163 HD
ATOM     25  O   UNL A   1      42.107  25.764  24.991  1.00  0.00    -0.269 OA
BRANCH  23  26
ATOM     26  C   UNL A   1      41.163  26.512  27.006  1.00  0.00     0.039 A 
ATOM     27  C   UNL A   1      41.765  27.772  26.964  1.00  0.00     0.014 A 
ATOM     28  C   UNL A   1      40.563  26.066  28.185  1.00  0.00     0.014 A 
ATOM     29  C   UNL A   1      41.697  28.611  28.079  1.00  0.00     0.010 A 
ATOM     30  C   UNL A   1      40.404  26.938  29.254  1.00  0.00     0.010 A 
ATOM     31  C   UNL A   1      40.976  28.217  29.218  1.00  0.00    -0.014 A 
BRANCH  31  32
ATOM     32  C   UNL A   1      40.814  29.117  30.389  1.00  0.00     0.031 A 
ATOM     33  C   UNL A   1      41.685  28.932  31.603  1.00  0.00     0.074 A 
ATOM     34  C   UNL A   1      39.835  30.043  30.389  1.00  0.00     0.049 A 
ATOM     35  N   UNL A   1      41.635  29.546  32.757  1.00  0.00    -0.248 NA
ATOM     36  C   UNL A   1      42.730  27.898  31.522  1.00  0.00     0.031 C 
ATOM     37  C   UNL A   1      38.893  30.281  29.292  1.00  0.00     0.029 A 
ATOM     38  N   UNL A   1      39.457  30.948  31.348  1.00  0.00    -0.354 N 
ATOM     39  C   UNL A   1      42.623  28.962  33.541  1.00  0.00     0.074 A 
ATOM     40  C   UNL A   1      43.216  27.905  32.754  1.00  0.00     0.031 C 
ATOM     41  C   UNL A   1      38.065  31.282  29.629  1.00  0.00     0.029 A 
ATOM     42  C   UNL A   1      38.383  31.726  30.982  1.00  0.00     0.049 A 
ATOM     43  H   UNL A   1      39.911  31.033  32.217  1.00  0.00     0.167 HD
ATOM     44  C   UNL A   1      43.018  29.295  34.793  1.00  0.00     0.037 A 
ATOM     45  C   UNL A   1      37.720  32.680  31.665  1.00  0.00     0.037 A 
ATOM     46  C   UNL A   1      42.437  30.368  35.556  1.00  0.00     0.049 A 
ATOM     47  C   UNL A   1      38.173  33.029  33.057  1.00  0.00     0.074 A 
ATOM     48  C   UNL A   1      42.804  30.825  36.810  1.00  0.00     0.029 A 
ATOM     49  N   UNL A   1      41.368  31.148  35.142  1.00  0.00    -0.354 N 
ATOM     50  N   UNL A   1      39.155  32.510  33.759  1.00  0.00    -0.248 NA
ATOM     51  C   UNL A   1      37.437  34.095  33.750  1.00  0.00     0.031 C 
ATOM     52  C   UNL A   1      41.922  31.849  37.175  1.00  0.00     0.029 A 
ATOM     53  C   UNL A   1      41.046  32.070  36.125  1.00  0.00     0.049 A 
ATOM     54  H   UNL A   1      40.906  31.060  34.277  1.00  0.00     0.167 HD
ATOM     55  C   UNL A   1      39.172  33.209  34.962  1.00  0.00     0.074 A 
ATOM     56  C   UNL A   1      38.112  34.192  34.887  1.00  0.00     0.031 C 
ATOM     57  C   UNL A   1      39.993  33.051  36.029  1.00  0.00     0.037 A 
BRANCH  44  58
ATOM     58  C   UNL A   1      44.133  28.494  35.411  1.00  0.00     0.058 A 
ATOM     59  C   UNL A   1      43.880  27.359  36.198  1.00  0.00     0.135 A 
ATOM     60  C   UNL A   1      45.474  28.844  35.184  1.00  0.00     0.135 A 
ATOM     61  F   UNL A   1      42.618  26.986  36.464  1.00  0.00    -0.206 F 
ATOM     62  C   UNL A   1      44.914  26.619  36.763  1.00  0.00     0.059 A 
ATOM     63  C   UNL A   1      46.525  28.100  35.711  1.00  0.00     0.059 A 
ATOM     64  F   UNL A   1      45.776  29.921  34.439  1.00  0.00    -0.206 F 
ATOM     65  C   UNL A   1      46.234  26.996  36.512  1.00  0.00     0.060 A 
BRANCH  65  66
ATOM     66  S   UNL A   1      47.562  26.018  37.244  1.00  0.00     0.124 S 
ATOM     67  O   UNL A   1      46.831  24.852  37.730  1.00  0.00    -0.237 OA
ATOM     68  O   UNL A   1      48.441  25.783  36.102  1.00  0.00    -0.237 OA
ATOM     69  O   UNL A   1      48.103  26.895  38.277  1.00  0.00    -0.744 OA
ENDBRANCH  65  66
ENDBRANCH  44  58
BRANCH  45  70
ATOM     70  C   UNL A   1      36.573  33.387  31.034  1.00  0.00     0.058 A 
ATOM     71  C   UNL A   1      35.260  33.181  31.486  1.00  0.00     0.135 A 
ATOM     72  C   UNL A   1      36.763  34.290  29.976  1.00  0.00     0.135 A 
ATOM     73  F   UNL A   1      35.025  32.322  32.490  1.00  0.00    -0.206 F 
ATOM     74  C   UNL A   1      34.177  33.828  30.902  1.00  0.00     0.059 A 
ATOM     75  C   UNL A   1      35.698  34.972  29.395  1.00  0.00     0.059 A 
ATOM     76  F   UNL A   1      38.000  34.539  29.517  1.00  0.00    -0.206 F 
ATOM     77  C   UNL A   1      34.407  34.726  29.858  1.00  0.00     0.060 A 
BRANCH  77  78
ATOM     78  S   UNL A   1      32.997  35.595  29.138  1.00  0.00     0.124 S 
ATOM     79  O   UNL A   1      33.654  36.688  28.432  1.00  0.00    -0.237 OA
ATOM     80  O   UNL A   1      32.397  34.561  28.300  1.00  0.00    -0.237 OA
ATOM     81  O   UNL A   1      32.207  35.979  30.305  1.00  0.00    -0.744 OA
ENDBRANCH  77  78
ENDBRANCH  45  70
BRANCH  57  82
ATOM     82  C   UNL A   1      39.812  33.990  37.191  1.00  0.00     0.058 A 
ATOM     83  C   UNL A   1      40.393  35.266  37.210  1.00  0.00     0.135 A 
ATOM     84  C   UNL A   1      38.992  33.626  38.273  1.00  0.00     0.135 A 
ATOM     85  F   UNL A   1      41.191  35.662  36.205  1.00  0.00    -0.206 F 
ATOM     86  C   UNL A   1      40.188  36.142  38.270  1.00  0.00     0.059 A 
ATOM     87  C   UNL A   1      38.747  34.497  39.329  1.00  0.00     0.059 A 
ATOM     88  F   UNL A   1      38.403  32.420  38.300  1.00  0.00    -0.206 F 
ATOM     89  C   UNL A   1      39.358  35.750  39.323  1.00  0.00     0.060 A 
BRANCH  89  90
ATOM     90  S   UNL A   1      39.066  36.913  40.673  1.00  0.00     0.124 S 
ATOM     91  O   UNL A   1      38.275  37.942  40.007  1.00  0.00    -0.237 OA
ATOM     92  O   UNL A   1      38.350  36.091  41.644  1.00  0.00    -0.237 OA
ATOM     93  O   UNL A   1      40.411  37.316  41.072  1.00  0.00    -0.744 OA
ENDBRANCH  89  90
ENDBRANCH  57  82
ENDBRANCH  31  32
ENDBRANCH  23  26
ENDBRANCH  21  22
ENDBRANCH   1  21
TORSDOF 16
ENDMDL
MODEL 2
REMARK VINA RESULT:     -10.7      6.208     11.756
REMARK SMILES COc1cc(Br)ccc1[C@H]([NH3+])C(=O)NCCCNC(=O)c1ccc(-c2c3nc(c(-c4c(F)cc(S(=O)(=O)[O-])cc4F)c4ccc([nH]4)c(-c4c(F)cc(S(=O)(=O)[O-])cc4F)c4nc(c(-c5c(F)cc(S(=O)(=O)[O-])cc5F)c5ccc2[nH]5)C=C4)C=C3)cc1
REMARK SMILES IDX 16 1 15 2 14 3 12 4 13 5 10 7 9 8 3 9 4 10 5 11 8 12 6 13
REMARK SMILES IDX 7 14 2 15 1 16 11 17 17 21 18 22 19 23 20 25 21 26 22 27
REMARK SMILES IDX 86 28 23 29 85 30 24 31 25 32 26 33 79 34 27 35 84 36 78 37
REMARK SMILES IDX 80 38 28 39 83 40 77 41 76 42 29 44 63 45 42 46 62 47 43 48
REMARK SMILES IDX 46 49 61 50 81 51 44 52 45 53 60 55 82 56 47 57 30 58 31 59
REMARK SMILES IDX 40 60 32 61 33 62 39 63 41 64 34 65 35 66 36 67 37 68 38 69
REMARK SMILES IDX 64 70 65 71 74 72 66 73 67 74 73 75 75 76 68 77 69 78 70 79
REMARK SMILES IDX 71 80 72 81 48 82 49 83 58 84 50 85 51 86 57 87 59 88 52 89
REMARK SMILES IDX 53 90 54 91 55 92 56 93
REMARK H PARENT 14 6 11 18 11 19 11 20 18 24 80 43 46 54
REMARK Flexibility Score: inf
ROOT
ATOM      1  C   UNL A   1      33.957  27.885  25.996  1.00  0.00     0.042 C 
ENDROOT
BRANCH   1   2
ATOM      2  C   UNL A   1      33.679  26.441  25.618  1.00  0.00     0.118 C 
BRANCH   2   3
ATOM      3  N   UNL A   1      32.563  25.844  26.319  1.00  0.00    -0.351 N 
ATOM      4  C   UNL A   1      31.484  25.177  25.799  1.00  0.00     0.283 C 
ATOM      5  O   UNL A   1      30.725  24.608  26.594  1.00  0.00    -0.268 OA
ATOM      6  H   UNL A   1      32.581  25.927  27.301  1.00  0.00     0.163 HD
BRANCH   4   7
ATOM      7  C   UNL A   1      31.192  25.150  24.268  1.00  0.00     0.306 C 
BRANCH   7   8
ATOM      8  C   UNL A   1      30.568  26.449  23.743  1.00  0.00     0.061 A 
ATOM      9  C   UNL A   1      31.223  27.397  22.921  1.00  0.00     0.129 A 
ATOM     10  C   UNL A   1      30.509  28.471  22.377  1.00  0.00     0.062 A 
ATOM     11  C   UNL A   1      29.155  28.629  22.671  1.00  0.00     0.021 A 
ATOM     12  C   UNL A   1      29.210  26.669  24.062  1.00  0.00     0.015 A 
ATOM     13  Br  UNL A   1      28.185  30.049  21.885  1.00  0.00    -0.051 Br
ATOM     14  C   UNL A   1      28.508  27.751  23.531  1.00  0.00     0.016 A 
BRANCH   9  15
ATOM     15  O   UNL A   1      32.561  27.207  22.696  1.00  0.00    -0.496 OA
ATOM     16  C   UNL A   1      32.959  26.346  21.634  1.00  0.00     0.278 C 
ENDBRANCH   9  15
ENDBRANCH   7   8
BRANCH   7  17
ATOM     17  N   UNL A   1      30.499  23.890  23.954  1.00  0.00    -0.343 N 
ATOM     18  H   UNL A   1      31.154  23.113  24.029  1.00  0.00     0.345 HD
ATOM     19  H   UNL A   1      30.129  23.932  23.004  1.00  0.00     0.345 HD
ATOM     20  H   UNL A   1      29.731  23.752  24.611  1.00  0.00     0.345 HD
ENDBRANCH   7  17
ENDBRANCH   4   7
ENDBRANCH   2   3
ENDBRANCH   1   2
BRANCH   1  21
ATOM     21  C   UNL A   1      33.417  28.266  27.365  1.00  0.00     0.118 C 
BRANCH  21  22
ATOM     22  N   UNL A   1      33.398  29.711  27.583  1.00  0.00    -0.352 N 
ATOM     23  C   UNL A   1      34.352  30.557  28.093  1.00  0.00     0.251 C 
ATOM     24  H   UNL A   1      32.558  30.152  27.319  1.00  0.00     0.163 HD
ATOM     25  O   UNL A   1      34.046  31.713  28.368  1.00  0.00    -0.269 OA
BRANCH  23  26
ATOM     26  C   UNL A   1      35.732  30.079  28.327  1.00  0.00     0.039 A 
ATOM     27  C   UNL A   1      36.653  30.120  27.277  1.00  0.00     0.014 A 
ATOM     28  C   UNL A   1      36.116  29.579  29.571  1.00  0.00     0.014 A 
ATOM     29  C   UNL A   1      37.976  29.729  27.499  1.00  0.00     0.010 A 
ATOM     30  C   UNL A   1      37.452  29.291  29.820  1.00  0.00     0.010 A 
ATOM     31  C   UNL A   1      38.396  29.354  28.786  1.00  0.00    -0.014 A 
BRANCH  31  32
ATOM     32  C   UNL A   1      39.812  29.012  29.075  1.00  0.00     0.031 A 
ATOM     33  C   UNL A   1      40.731  30.053  29.657  1.00  0.00     0.074 A 
ATOM     34  C   UNL A   1      40.287  27.795  28.741  1.00  0.00     0.049 A 
ATOM     35  N   UNL A   1      42.017  29.983  29.890  1.00  0.00    -0.248 NA
ATOM     36  C   UNL A   1      40.134  31.356  29.993  1.00  0.00     0.031 C 
ATOM     37  C   UNL A   1      39.506  26.721  28.122  1.00  0.00     0.029 A 
ATOM     38  N   UNL A   1      41.545  27.260  28.860  1.00  0.00    -0.354 N 
ATOM     39  C   UNL A   1      42.382  31.231  30.378  1.00  0.00     0.074 A 
ATOM     40  C   UNL A   1      41.197  32.059  30.352  1.00  0.00     0.031 C 
ATOM     41  C   UNL A   1      40.294  25.650  27.941  1.00  0.00     0.029 A 
ATOM     42  C   UNL A   1      41.646  25.974  28.384  1.00  0.00     0.049 A 
ATOM     43  H   UNL A   1      42.304  27.751  29.250  1.00  0.00     0.167 HD
ATOM     44  C   UNL A   1      43.590  31.643  30.832  1.00  0.00     0.037 A 
ATOM     45  C   UNL A   1      42.710  25.152  28.302  1.00  0.00     0.037 A 
ATOM     46  C   UNL A   1      44.757  30.801  30.878  1.00  0.00     0.049 A 
ATOM     47  C   UNL A   1      44.044  25.633  28.807  1.00  0.00     0.074 A 
ATOM     48  C   UNL A   1      46.013  31.102  31.375  1.00  0.00     0.029 A 
ATOM     49  N   UNL A   1      44.813  29.497  30.410  1.00  0.00    -0.354 N 
ATOM     50  N   UNL A   1      44.357  26.797  29.328  1.00  0.00    -0.248 NA
ATOM     51  C   UNL A   1      45.168  24.692  28.721  1.00  0.00     0.031 C 
ATOM     52  C   UNL A   1      46.843  29.996  31.159  1.00  0.00     0.029 A 
ATOM     53  C   UNL A   1      46.089  28.986  30.584  1.00  0.00     0.049 A 
ATOM     54  H   UNL A   1      44.058  29.006  30.011  1.00  0.00     0.167 HD
ATOM     55  C   UNL A   1      45.706  26.715  29.660  1.00  0.00     0.074 A 
ATOM     56  C   UNL A   1      46.143  25.384  29.291  1.00  0.00     0.031 C 
ATOM     57  C   UNL A   1      46.506  27.654  30.221  1.00  0.00     0.037 A 
BRANCH  44  58
ATOM     58  C   UNL A   1      43.708  33.062  31.320  1.00  0.00     0.058 A 
ATOM     59  C   UNL A   1      43.564  33.392  32.677  1.00  0.00     0.135 A 
ATOM     60  C   UNL A   1      44.006  34.102  30.424  1.00  0.00     0.135 A 
ATOM     61  F   UNL A   1      43.263  32.442  33.577  1.00  0.00    -0.206 F 
ATOM     62  C   UNL A   1      43.680  34.705  33.125  1.00  0.00     0.059 A 
ATOM     63  C   UNL A   1      44.159  35.417  30.854  1.00  0.00     0.059 A 
ATOM     64  F   UNL A   1      44.154  33.846  29.114  1.00  0.00    -0.206 F 
ATOM     65  C   UNL A   1      43.980  35.711  32.205  1.00  0.00     0.060 A 
BRANCH  65  66
ATOM     66  S   UNL A   1      44.138  37.405  32.805  1.00  0.00     0.124 S 
ATOM     67  O   UNL A   1      45.450  37.368  33.443  1.00  0.00    -0.237 OA
ATOM     68  O   UNL A   1      44.054  38.181  31.572  1.00  0.00    -0.237 OA
ATOM     69  O   UNL A   1      43.004  37.552  33.713  1.00  0.00    -0.744 OA
ENDBRANCH  65  66
ENDBRANCH  44  58
BRANCH  45  70
ATOM     70  C   UNL A   1      42.554  23.784  27.737  1.00  0.00     0.058 A 
ATOM     71  C   UNL A   1      42.445  22.664  28.574  1.00  0.00     0.135 A 
ATOM     72  C   UNL A   1      42.499  23.569  26.350  1.00  0.00     0.135 A 
ATOM     73  F   UNL A   1      42.497  22.816  29.906  1.00  0.00    -0.206 F 
ATOM     74  C   UNL A   1      42.305  21.379  28.060  1.00  0.00     0.059 A 
ATOM     75  C   UNL A   1      42.331  22.296  25.813  1.00  0.00     0.059 A 
ATOM     76  F   UNL A   1      42.581  24.608  25.503  1.00  0.00    -0.206 F 
ATOM     77  C   UNL A   1      42.246  21.206  26.677  1.00  0.00     0.060 A 
BRANCH  77  78
ATOM     78  S   UNL A   1      42.019  19.538  26.023  1.00  0.00     0.124 S 
ATOM     79  O   UNL A   1      40.576  19.494  25.819  1.00  0.00    -0.237 OA
ATOM     80  O   UNL A   1      42.836  19.571  24.813  1.00  0.00    -0.237 OA
ATOM     81  O   UNL A   1      42.533  18.685  27.091  1.00  0.00    -0.744 OA
ENDBRANCH  77  78
ENDBRANCH  45  70
BRANCH  57  82
ATOM     82  C   UNL A   1      47.931  27.268  30.515  1.00  0.00     0.058 A 
ATOM     83  C   UNL A   1      48.982  27.599  29.648  1.00  0.00     0.135 A 
ATOM     84  C   UNL A   1      48.251  26.612  31.715  1.00  0.00     0.135 A 
ATOM     85  F   UNL A   1      48.730  28.221  28.484  1.00  0.00    -0.206 F 
ATOM     86  C   UNL A   1      50.300  27.273  29.948  1.00  0.00     0.059 A 
ATOM     87  C   UNL A   1      49.565  26.305  32.051  1.00  0.00     0.059 A 
ATOM     88  F   UNL A   1      47.284  26.282  32.586  1.00  0.00    -0.206 F 
ATOM     89  C   UNL A   1      50.582  26.630  31.155  1.00  0.00     0.060 A 
BRANCH  89  90
ATOM     90  S   UNL A   1      52.302  26.250  31.551  1.00  0.00     0.124 S 
ATOM     91  O   UNL A   1      52.897  26.160  30.221  1.00  0.00    -0.237 OA
ATOM     92  O   UNL A   1      52.702  27.407  32.346  1.00  0.00    -0.237 OA
ATOM     93  O   UNL A   1      52.214  24.993  32.285  1.00  0.00    -0.744 OA
ENDBRANCH  89  90
ENDBRANCH  57  82
ENDBRANCH  31  32
ENDBRANCH  23  26
ENDBRANCH  21  22
ENDBRANCH   1  21
TORSDOF 16
ENDMDL
MODEL 3
REMARK VINA RESULT:     -10.7      5.507     11.179
REMARK SMILES COc1cc(Br)ccc1[C@H]([NH3+])C(=O)NCCCNC(=O)c1ccc(-c2c3nc(c(-c4c(F)cc(S(=O)(=O)[O-])cc4F)c4ccc([nH]4)c(-c4c(F)cc(S(=O)(=O)[O-])cc4F)c4nc(c(-c5c(F)cc(S(=O)(=O)[O-])cc5F)c5ccc2[nH]5)C=C4)C=C3)cc1
REMARK SMILES IDX 16 1 15 2 14 3 12 4 13 5 10 7 9 8 3 9 4 10 5 11 8 12 6 13
REMARK SMILES IDX 7 14 2 15 1 16 11 17 17 21 18 22 19 23 20 25 21 26 22 27
REMARK SMILES IDX 86 28 23 29 85 30 24 31 25 32 26 33 79 34 27 35 84 36 78 37
REMARK SMILES IDX 80 38 28 39 83 40 77 41 76 42 29 44 63 45 42 46 62 47 43 48
REMARK SMILES IDX 46 49 61 50 81 51 44 52 45 53 60 55 82 56 47 57 30 58 31 59
REMARK SMILES IDX 40 60 32 61 33 62 39 63 41 64 34 65 35 66 36 67 37 68 38 69
REMARK SMILES IDX 64 70 65 71 74 72 66 73 67 74 73 75 75 76 68 77 69 78 70 79
REMARK SMILES IDX 71 80 72 81 48 82 49 83 58 84 50 85 51 86 57 87 59 88 52 89
REMARK SMILES IDX 53 90 54 91 55 92 56 93
REMARK H PARENT 14 6 11 18 11 19 11 20 18 24 80 43 46 54
REMARK Flexibility Score: inf
ROOT
ATOM      1  C   UNL A   1      31.991  27.811  26.942  1.00  0.00     0.042 C 
ENDROOT
BRANCH   1   2
ATOM      2  C   UNL A   1      32.011  26.432  26.307  1.00  0.00     0.118 C 
BRANCH   2   3
ATOM      3  N   UNL A   1      31.059  25.500  26.872  1.00  0.00    -0.351 N 
ATOM      4  C   UNL A   1      30.818  24.199  26.512  1.00  0.00     0.283 C 
ATOM      5  O   UNL A   1      30.067  23.534  27.237  1.00  0.00    -0.268 OA
ATOM      6  H   UNL A   1      30.511  25.846  27.614  1.00  0.00     0.163 HD
BRANCH   4   7
ATOM      7  C   UNL A   1      31.436  23.573  25.225  1.00  0.00     0.306 C 
BRANCH   7   8
ATOM      8  C   UNL A   1      32.969  23.524  25.247  1.00  0.00     0.061 A 
ATOM      9  C   UNL A   1      33.817  23.985  24.212  1.00  0.00     0.129 A 
ATOM     10  C   UNL A   1      35.202  24.031  24.404  1.00  0.00     0.062 A 
ATOM     11  C   UNL A   1      35.755  23.591  25.605  1.00  0.00     0.021 A 
ATOM     12  C   UNL A   1      33.567  23.039  26.432  1.00  0.00     0.015 A 
ATOM     13  Br  UNL A   1      37.623  23.712  25.877  1.00  0.00    -0.051 Br
ATOM     14  C   UNL A   1      34.949  23.071  26.610  1.00  0.00     0.016 A 
BRANCH   9  15
ATOM     15  O   UNL A   1      33.217  24.371  23.042  1.00  0.00    -0.496 OA
ATOM     16  C   UNL A   1      33.499  25.668  22.526  1.00  0.00     0.278 C 
ENDBRANCH   9  15
ENDBRANCH   7   8
BRANCH   7  17
ATOM     17  N   UNL A   1      30.794  24.196  24.056  1.00  0.00    -0.343 N 
ATOM     18  H   UNL A   1      29.838  23.853  23.970  1.00  0.00     0.345 HD
ATOM     19  H   UNL A   1      31.318  23.959  23.213  1.00  0.00     0.345 HD
ATOM     20  H   UNL A   1      30.783  25.209  24.174  1.00  0.00     0.345 HD
ENDBRANCH   7  17
ENDBRANCH   4   7
ENDBRANCH   2   3
ENDBRANCH   1   2
BRANCH   1  21
ATOM     21  C   UNL A   1      33.378  28.383  27.185  1.00  0.00     0.118 C 
BRANCH  21  22
ATOM     22  N   UNL A   1      33.354  29.813  27.486  1.00  0.00    -0.352 N 
ATOM     23  C   UNL A   1      34.293  30.627  28.071  1.00  0.00     0.251 C 
ATOM     24  H   UNL A   1      32.521  30.270  27.226  1.00  0.00     0.163 HD
ATOM     25  O   UNL A   1      33.980  31.765  28.404  1.00  0.00    -0.269 OA
BRANCH  23  26
ATOM     26  C   UNL A   1      35.666  30.134  28.314  1.00  0.00     0.039 A 
ATOM     27  C   UNL A   1      36.589  30.146  27.265  1.00  0.00     0.014 A 
ATOM     28  C   UNL A   1      36.042  29.646  29.566  1.00  0.00     0.014 A 
ATOM     29  C   UNL A   1      37.906  29.741  27.495  1.00  0.00     0.010 A 
ATOM     30  C   UNL A   1      37.373  29.343  29.821  1.00  0.00     0.010 A 
ATOM     31  C   UNL A   1      38.319  29.379  28.787  1.00  0.00    -0.014 A 
BRANCH  31  32
ATOM     32  C   UNL A   1      39.730  29.022  29.084  1.00  0.00     0.031 A 
ATOM     33  C   UNL A   1      40.661  30.056  29.661  1.00  0.00     0.074 A 
ATOM     34  C   UNL A   1      40.191  27.796  28.761  1.00  0.00     0.049 A 
ATOM     35  N   UNL A   1      41.944  29.971  29.897  1.00  0.00    -0.248 NA
ATOM     36  C   UNL A   1      40.078  31.369  29.984  1.00  0.00     0.031 C 
ATOM     37  C   UNL A   1      39.399  26.727  28.148  1.00  0.00     0.029 A 
ATOM     38  N   UNL A   1      41.442  27.247  28.888  1.00  0.00    -0.354 N 
ATOM     39  C   UNL A   1      42.324  31.220  30.377  1.00  0.00     0.074 A 
ATOM     40  C   UNL A   1      41.149  32.061  30.340  1.00  0.00     0.031 C 
ATOM     41  C   UNL A   1      40.174  25.645  27.978  1.00  0.00     0.029 A 
ATOM     42  C   UNL A   1      41.528  25.955  28.423  1.00  0.00     0.049 A 
ATOM     43  H   UNL A   1      42.206  27.731  29.277  1.00  0.00     0.167 HD
ATOM     44  C   UNL A   1      43.535  31.620  30.831  1.00  0.00     0.037 A 
ATOM     45  C   UNL A   1      42.583  25.120  28.351  1.00  0.00     0.037 A 
ATOM     46  C   UNL A   1      44.691  30.764  30.888  1.00  0.00     0.049 A 
ATOM     47  C   UNL A   1      43.921  25.589  28.856  1.00  0.00     0.074 A 
ATOM     48  C   UNL A   1      45.949  31.053  31.387  1.00  0.00     0.029 A 
ATOM     49  N   UNL A   1      44.733  29.456  30.430  1.00  0.00    -0.354 N 
ATOM     50  N   UNL A   1      44.247  26.753  29.369  1.00  0.00    -0.248 NA
ATOM     51  C   UNL A   1      45.034  24.633  28.781  1.00  0.00     0.031 C 
ATOM     52  C   UNL A   1      46.766  29.936  31.182  1.00  0.00     0.029 A 
ATOM     53  C   UNL A   1      46.002  28.931  30.612  1.00  0.00     0.049 A 
ATOM     54  H   UNL A   1      43.972  28.971  30.033  1.00  0.00     0.167 HD
ATOM     55  C   UNL A   1      45.593  26.657  29.706  1.00  0.00     0.074 A 
ATOM     56  C   UNL A   1      46.016  25.318  29.349  1.00  0.00     0.031 C 
ATOM     57  C   UNL A   1      46.403  27.591  30.261  1.00  0.00     0.037 A 
BRANCH  44  58
ATOM     58  C   UNL A   1      43.669  33.042  31.308  1.00  0.00     0.058 A 
ATOM     59  C   UNL A   1      43.474  33.392  32.654  1.00  0.00     0.135 A 
ATOM     60  C   UNL A   1      44.035  34.062  30.415  1.00  0.00     0.135 A 
ATOM     61  F   UNL A   1      43.107  32.461  33.550  1.00  0.00    -0.206 F 
ATOM     62  C   UNL A   1      43.604  34.706  33.092  1.00  0.00     0.059 A 
ATOM     63  C   UNL A   1      44.204  35.378  30.837  1.00  0.00     0.059 A 
ATOM     64  F   UNL A   1      44.235  33.786  29.116  1.00  0.00    -0.206 F 
ATOM     65  C   UNL A   1      43.973  35.692  32.175  1.00  0.00     0.060 A 
BRANCH  65  66
ATOM     66  S   UNL A   1      44.148  37.389  32.763  1.00  0.00     0.124 S 
ATOM     67  O   UNL A   1      45.494  37.365  33.326  1.00  0.00    -0.237 OA
ATOM     68  O   UNL A   1      43.989  38.162  31.535  1.00  0.00    -0.237 OA
ATOM     69  O   UNL A   1      43.065  37.528  33.732  1.00  0.00    -0.744 OA
ENDBRANCH  65  66
ENDBRANCH  44  58
BRANCH  45  70
ATOM     70  C   UNL A   1      42.412  23.750  27.796  1.00  0.00     0.058 A 
ATOM     71  C   UNL A   1      42.359  23.532  26.411  1.00  0.00     0.135 A 
ATOM     72  C   UNL A   1      42.309  22.629  28.636  1.00  0.00     0.135 A 
ATOM     73  F   UNL A   1      42.447  24.570  25.566  1.00  0.00    -0.206 F 
ATOM     74  C   UNL A   1      42.192  22.258  25.878  1.00  0.00     0.059 A 
ATOM     75  C   UNL A   1      42.171  21.342  28.126  1.00  0.00     0.059 A 
ATOM     76  F   UNL A   1      42.371  22.779  29.969  1.00  0.00    -0.206 F 
ATOM     77  C   UNL A   1      42.103  21.168  26.745  1.00  0.00     0.060 A 
BRANCH  77  78
ATOM     78  S   UNL A   1      41.932  19.514  26.040  1.00  0.00     0.124 S 
ATOM     79  O   UNL A   1      42.814  19.594  24.882  1.00  0.00    -0.237 OA
ATOM     80  O   UNL A   1      42.391  18.666  27.137  1.00  0.00    -0.237 OA
ATOM     81  O   UNL A   1      40.506  19.421  25.743  1.00  0.00    -0.744 OA
ENDBRANCH  77  78
ENDBRANCH  45  70
BRANCH  57  82
ATOM     82  C   UNL A   1      47.822  27.190  30.564  1.00  0.00     0.058 A 
ATOM     83  C   UNL A   1      48.842  27.295  29.606  1.00  0.00     0.135 A 
ATOM     84  C   UNL A   1      48.174  26.752  31.851  1.00  0.00     0.135 A 
ATOM     85  F   UNL A   1      48.559  27.702  28.358  1.00  0.00    -0.206 F 
ATOM     86  C   UNL A   1      50.157  26.960  29.906  1.00  0.00     0.059 A 
ATOM     87  C   UNL A   1      49.488  26.441  32.183  1.00  0.00     0.059 A 
ATOM     88  F   UNL A   1      47.239  26.642  32.808  1.00  0.00    -0.206 F 
ATOM     89  C   UNL A   1      50.472  26.539  31.200  1.00  0.00     0.060 A 
BRANCH  89  90
ATOM     90  S   UNL A   1      52.191  26.147  31.588  1.00  0.00     0.124 S 
ATOM     91  O   UNL A   1      52.868  26.551  30.361  1.00  0.00    -0.237 OA
ATOM     92  O   UNL A   1      52.445  26.983  32.758  1.00  0.00    -0.237 OA
ATOM     93  O   UNL A   1      52.163  24.711  31.846  1.00  0.00    -0.744 OA
ENDBRANCH  89  90
ENDBRANCH  57  82
ENDBRANCH  31  32
ENDBRANCH  23  26
ENDBRANCH  21  22
ENDBRANCH   1  21
TORSDOF 16
ENDMDL
