MODEL 1
REMARK VINA RESULT:     -12.1      0.000      0.000
REMARK SMILES N#Cc1ccc2c(c1)C=C(C(=O)NCCCNC(=O)c1ccc(-c3c4nc(c(-c5c(F)cc(S(=O)(=O)[O-])cc5F)c5ccc([nH]5)c(-c5c(F)cc(S(=O)(=O)[O-])cc5F)c5nc(c(-c6c(F)cc(S(=O)(=O)[O-])cc6F)c6ccc3[nH]6)C=C5)C=C4)cc1)[C@@H](C(F)(F)F)O2
REMARK SMILES IDX 16 1 15 2 14 3 13 4 11 5 12 6 10 8 3 9 4 10 8 11 5 12 7 13
REMARK SMILES IDX 6 14 9 15 91 16 86 17 2 18 1 19 87 20 88 21 89 22 90 23
REMARK SMILES IDX 17 24 18 25 19 27 20 28 21 29 85 30 22 31 84 32 23 33 24 34
REMARK SMILES IDX 25 35 78 36 26 37 83 38 77 39 79 40 27 41 82 42 76 43 75 44
REMARK SMILES IDX 28 46 62 47 41 48 61 49 42 50 45 51 60 52 80 53 43 54 44 55
REMARK SMILES IDX 59 57 81 58 46 59 29 60 30 61 39 62 31 63 32 64 38 65 40 66
REMARK SMILES IDX 33 67 34 68 35 69 36 70 37 71 63 72 64 73 73 74 65 75 66 76
REMARK SMILES IDX 72 77 74 78 67 79 68 80 69 81 70 82 71 83 47 84 48 85 57 86
REMARK SMILES IDX 49 87 50 88 56 89 58 90 51 91 52 92 53 93 54 94 55 95
REMARK H PARENT 13 7 17 26 79 45 45 56
REMARK Flexibility Score: inf
ROOT
ATOM      1  C   UNL A   1      33.349  28.602  27.393  1.00  0.00     0.118 C 
ENDROOT
BRANCH   1   2
ATOM      2  C   UNL A   1      33.720  28.258  25.960  1.00  0.00     0.042 C 
BRANCH   2   3
ATOM      3  C   UNL A   1      33.709  26.760  25.725  1.00  0.00     0.118 C 
BRANCH   3   4
ATOM      4  N   UNL A   1      33.732  26.426  24.308  1.00  0.00    -0.352 N 
ATOM      5  C   UNL A   1      32.903  26.558  23.246  1.00  0.00     0.251 C 
ATOM      6  O   UNL A   1      33.353  26.161  22.167  1.00  0.00    -0.270 OA
ATOM      7  H   UNL A   1      34.576  25.986  24.055  1.00  0.00     0.163 HD
BRANCH   5   8
ATOM      8  C   UNL A   1      31.531  27.140  23.306  1.00  0.00     0.067 C 
ATOM      9  C   UNL A   1      28.658  31.017  22.979  1.00  0.00     0.053 A 
ATOM     10  C   UNL A   1      27.534  30.189  23.079  1.00  0.00     0.023 A 
ATOM     11  C   UNL A   1      29.945  30.459  22.975  1.00  0.00     0.031 A 
ATOM     12  C   UNL A   1      27.696  28.810  23.177  1.00  0.00     0.048 A 
ATOM     13  C   UNL A   1      30.107  29.075  23.079  1.00  0.00     0.018 A 
ATOM     14  C   UNL A   1      28.977  28.263  23.186  1.00  0.00     0.128 A 
ATOM     15  C   UNL A   1      31.427  28.455  23.033  1.00  0.00     0.025 C 
ATOM     16  O   UNL A   1      29.043  26.905  23.259  1.00  0.00    -0.475 OA
ATOM     17  C   UNL A   1      30.313  26.342  23.672  1.00  0.00     0.314 C 
BRANCH   9  18
ATOM     18  C   UNL A   1      28.483  32.435  22.874  1.00  0.00     0.099 C 
ATOM     19  N   UNL A   1      28.352  33.586  22.784  1.00  0.00    -0.192 NA
ENDBRANCH   9  18
BRANCH  17  20
ATOM     20  C   UNL A   1      30.255  26.027  25.181  1.00  0.00     0.429 C 
ATOM     21  F   UNL A   1      28.989  25.715  25.554  1.00  0.00    -0.167 F 
ATOM     22  F   UNL A   1      31.028  24.971  25.529  1.00  0.00    -0.167 F 
ATOM     23  F   UNL A   1      30.659  27.068  25.944  1.00  0.00    -0.167 F 
ENDBRANCH  17  20
ENDBRANCH   5   8
ENDBRANCH   3   4
ENDBRANCH   2   3
ENDBRANCH   1   2
BRANCH   1  24
ATOM     24  N   UNL A   1      33.464  30.036  27.667  1.00  0.00    -0.352 N 
ATOM     25  C   UNL A   1      34.508  30.764  28.188  1.00  0.00     0.251 C 
ATOM     26  H   UNL A   1      32.663  30.565  27.443  1.00  0.00     0.163 HD
ATOM     27  O   UNL A   1      34.328  31.923  28.548  1.00  0.00    -0.269 OA
BRANCH  25  28
ATOM     28  C   UNL A   1      35.828  30.126  28.333  1.00  0.00     0.039 A 
ATOM     29  C   UNL A   1      36.217  29.631  29.575  1.00  0.00     0.014 A 
ATOM     30  C   UNL A   1      36.706  30.079  27.249  1.00  0.00     0.014 A 
ATOM     31  C   UNL A   1      37.552  29.354  29.803  1.00  0.00     0.010 A 
ATOM     32  C   UNL A   1      38.019  29.644  27.449  1.00  0.00     0.010 A 
ATOM     33  C   UNL A   1      38.473  29.350  28.744  1.00  0.00    -0.014 A 
BRANCH  33  34
ATOM     34  C   UNL A   1      39.898  29.044  29.037  1.00  0.00     0.031 A 
ATOM     35  C   UNL A   1      40.495  27.711  28.666  1.00  0.00     0.074 A 
ATOM     36  C   UNL A   1      40.674  30.013  29.567  1.00  0.00     0.049 A 
ATOM     37  N   UNL A   1      41.725  27.292  28.824  1.00  0.00    -0.248 NA
ATOM     38  C   UNL A   1      39.604  26.717  28.046  1.00  0.00     0.031 C 
ATOM     39  C   UNL A   1      40.208  31.350  29.948  1.00  0.00     0.029 A 
ATOM     40  N   UNL A   1      42.016  30.042  29.844  1.00  0.00    -0.354 N 
ATOM     41  C   UNL A   1      41.749  25.987  28.345  1.00  0.00     0.074 A 
ATOM     42  C   UNL A   1      40.402  25.666  27.927  1.00  0.00     0.031 C 
ATOM     43  C   UNL A   1      41.254  32.087  30.341  1.00  0.00     0.029 A 
ATOM     44  C   UNL A   1      42.448  31.252  30.333  1.00  0.00     0.049 A 
ATOM     45  H   UNL A   1      42.611  29.271  29.707  1.00  0.00     0.167 HD
ATOM     46  C   UNL A   1      42.803  25.141  28.246  1.00  0.00     0.037 A 
ATOM     47  C   UNL A   1      43.664  31.646  30.754  1.00  0.00     0.037 A 
ATOM     48  C   UNL A   1      44.145  25.484  28.644  1.00  0.00     0.049 A 
ATOM     49  C   UNL A   1      44.801  30.666  30.696  1.00  0.00     0.074 A 
ATOM     50  C   UNL A   1      45.286  24.704  28.563  1.00  0.00     0.029 A 
ATOM     51  N   UNL A   1      44.527  26.696  29.197  1.00  0.00    -0.354 N 
ATOM     52  N   UNL A   1      44.807  29.443  30.222  1.00  0.00    -0.248 NA
ATOM     53  C   UNL A   1      46.091  31.113  31.236  1.00  0.00     0.031 C 
ATOM     54  C   UNL A   1      46.344  25.421  29.129  1.00  0.00     0.029 A 
ATOM     55  C   UNL A   1      45.880  26.674  29.498  1.00  0.00     0.049 A 
ATOM     56  H   UNL A   1      43.926  27.461  29.354  1.00  0.00     0.167 HD
ATOM     57  C   UNL A   1      46.104  28.977  30.395  1.00  0.00     0.074 A 
ATOM     58  C   UNL A   1      46.860  30.059  30.995  1.00  0.00     0.031 C 
ATOM     59  C   UNL A   1      46.620  27.761  30.089  1.00  0.00     0.037 A 
BRANCH  46  60
ATOM     60  C   UNL A   1      42.560  23.761  27.696  1.00  0.00     0.058 A 
ATOM     61  C   UNL A   1      42.484  23.515  26.316  1.00  0.00     0.135 A 
ATOM     62  C   UNL A   1      42.472  22.656  28.561  1.00  0.00     0.135 A 
ATOM     63  F   UNL A   1      42.546  24.533  25.443  1.00  0.00    -0.206 F 
ATOM     64  C   UNL A   1      42.312  22.229  25.813  1.00  0.00     0.059 A 
ATOM     65  C   UNL A   1      42.332  21.357  28.079  1.00  0.00     0.059 A 
ATOM     66  F   UNL A   1      42.538  22.831  29.890  1.00  0.00    -0.206 F 
ATOM     67  C   UNL A   1      42.244  21.156  26.703  1.00  0.00     0.060 A 
BRANCH  67  68
ATOM     68  S   UNL A   1      42.035  19.495  26.028  1.00  0.00     0.124 S 
ATOM     69  O   UNL A   1      42.415  18.666  27.167  1.00  0.00    -0.237 OA
ATOM     70  O   UNL A   1      40.618  19.480  25.681  1.00  0.00    -0.237 OA
ATOM     71  O   UNL A   1      42.957  19.465  24.897  1.00  0.00    -0.744 OA
ENDBRANCH  67  68
ENDBRANCH  46  60
BRANCH  47  72
ATOM     72  C   UNL A   1      43.850  33.025  31.278  1.00  0.00     0.058 A 
ATOM     73  C   UNL A   1      44.223  34.077  30.430  1.00  0.00     0.135 A 
ATOM     74  C   UNL A   1      43.614  33.329  32.630  1.00  0.00     0.135 A 
ATOM     75  F   UNL A   1      44.464  33.839  29.132  1.00  0.00    -0.206 F 
ATOM     76  C   UNL A   1      44.361  35.377  30.902  1.00  0.00     0.059 A 
ATOM     77  C   UNL A   1      43.711  34.626  33.117  1.00  0.00     0.059 A 
ATOM     78  F   UNL A   1      43.239  32.361  33.481  1.00  0.00    -0.206 F 
ATOM     79  C   UNL A   1      44.094  35.644  32.246  1.00  0.00     0.060 A 
BRANCH  79  80
ATOM     80  S   UNL A   1      44.222  37.347  32.830  1.00  0.00     0.124 S 
ATOM     81  O   UNL A   1      43.182  37.386  33.852  1.00  0.00    -0.237 OA
ATOM     82  O   UNL A   1      45.598  37.396  33.315  1.00  0.00    -0.237 OA
ATOM     83  O   UNL A   1      43.957  38.137  31.631  1.00  0.00    -0.744 OA
ENDBRANCH  79  80
ENDBRANCH  47  72
BRANCH  59  84
ATOM     84  C   UNL A   1      48.076  27.524  30.383  1.00  0.00     0.058 A 
ATOM     85  C   UNL A   1      48.496  26.941  31.588  1.00  0.00     0.135 A 
ATOM     86  C   UNL A   1      49.052  27.791  29.407  1.00  0.00     0.135 A 
ATOM     87  F   UNL A   1      47.606  26.676  32.557  1.00  0.00    -0.206 F 
ATOM     88  C   UNL A   1      49.833  26.636  31.819  1.00  0.00     0.059 A 
ATOM     89  C   UNL A   1      50.389  27.464  29.604  1.00  0.00     0.059 A 
ATOM     90  F   UNL A   1      48.701  28.340  28.233  1.00  0.00    -0.206 F 
ATOM     91  C   UNL A   1      50.769  26.889  30.814  1.00  0.00     0.060 A 
BRANCH  91  92
ATOM     92  S   UNL A   1      52.489  26.425  31.109  1.00  0.00     0.124 S 
ATOM     93  O   UNL A   1      52.336  25.192  31.874  1.00  0.00    -0.237 OA
ATOM     94  O   UNL A   1      53.003  26.272  29.752  1.00  0.00    -0.237 OA
ATOM     95  O   UNL A   1      53.026  27.561  31.853  1.00  0.00    -0.744 OA
ENDBRANCH  91  92
ENDBRANCH  59  84
ENDBRANCH  33  34
ENDBRANCH  25  28
ENDBRANCH   1  24
TORSDOF 15
ENDMDL
MODEL 2
REMARK VINA RESULT:     -12.1      1.907      3.834
REMARK SMILES N#Cc1ccc2c(c1)C=C(C(=O)NCCCNC(=O)c1ccc(-c3c4nc(c(-c5c(F)cc(S(=O)(=O)[O-])cc5F)c5ccc([nH]5)c(-c5c(F)cc(S(=O)(=O)[O-])cc5F)c5nc(c(-c6c(F)cc(S(=O)(=O)[O-])cc6F)c6ccc3[nH]6)C=C5)C=C4)cc1)[C@@H](C(F)(F)F)O2
REMARK SMILES IDX 16 1 15 2 14 3 13 4 11 5 12 6 10 8 3 9 4 10 8 11 5 12 7 13
REMARK SMILES IDX 6 14 9 15 91 16 86 17 2 18 1 19 87 20 88 21 89 22 90 23
REMARK SMILES IDX 17 24 18 25 19 27 20 28 21 29 85 30 22 31 84 32 23 33 24 34
REMARK SMILES IDX 25 35 78 36 26 37 83 38 77 39 79 40 27 41 82 42 76 43 75 44
REMARK SMILES IDX 28 46 62 47 41 48 61 49 42 50 45 51 60 52 80 53 43 54 44 55
REMARK SMILES IDX 59 57 81 58 46 59 29 60 30 61 39 62 31 63 32 64 38 65 40 66
REMARK SMILES IDX 33 67 34 68 35 69 36 70 37 71 63 72 64 73 73 74 65 75 66 76
REMARK SMILES IDX 72 77 74 78 67 79 68 80 69 81 70 82 71 83 47 84 48 85 57 86
REMARK SMILES IDX 49 87 50 88 56 89 58 90 51 91 52 92 53 93 54 94 55 95
REMARK H PARENT 13 7 17 26 79 45 45 56
REMARK Flexibility Score: inf
ROOT
ATOM      1  C   UNL A   1      33.728  28.767  27.287  1.00  0.00     0.118 C 
ENDROOT
BRANCH   1   2
ATOM      2  C   UNL A   1      33.916  28.740  25.780  1.00  0.00     0.042 C 
BRANCH   2   3
ATOM      3  C   UNL A   1      32.592  28.842  25.050  1.00  0.00     0.118 C 
BRANCH   3   4
ATOM      4  N   UNL A   1      31.667  27.788  25.441  1.00  0.00    -0.352 N 
ATOM      5  C   UNL A   1      31.619  26.436  25.373  1.00  0.00     0.251 C 
ATOM      6  O   UNL A   1      30.626  25.912  25.887  1.00  0.00    -0.270 OA
ATOM      7  H   UNL A   1      30.860  28.156  25.869  1.00  0.00     0.163 HD
BRANCH   5   8
ATOM      8  C   UNL A   1      32.664  25.579  24.741  1.00  0.00     0.067 C 
ATOM      9  C   UNL A   1      36.874  23.227  25.112  1.00  0.00     0.053 A 
ATOM     10  C   UNL A   1      36.668  22.667  23.846  1.00  0.00     0.023 A 
ATOM     11  C   UNL A   1      35.905  24.072  25.672  1.00  0.00     0.031 A 
ATOM     12  C   UNL A   1      35.501  22.952  23.142  1.00  0.00     0.048 A 
ATOM     13  C   UNL A   1      34.735  24.362  24.964  1.00  0.00     0.018 A 
ATOM     14  C   UNL A   1      34.549  23.802  23.699  1.00  0.00     0.128 A 
ATOM     15  C   UNL A   1      33.685  25.200  25.532  1.00  0.00     0.025 C 
ATOM     16  O   UNL A   1      33.427  24.006  22.955  1.00  0.00    -0.475 OA
ATOM     17  C   UNL A   1      32.627  25.165  23.299  1.00  0.00     0.314 C 
BRANCH   9  18
ATOM     18  C   UNL A   1      38.075  22.926  25.831  1.00  0.00     0.099 C 
ATOM     19  N   UNL A   1      39.055  22.691  26.411  1.00  0.00    -0.192 NA
ENDBRANCH   9  18
BRANCH  17  20
ATOM     20  C   UNL A   1      32.991  26.325  22.350  1.00  0.00     0.429 C 
ATOM     21  F   UNL A   1      33.267  25.856  21.107  1.00  0.00    -0.167 F 
ATOM     22  F   UNL A   1      31.988  27.224  22.206  1.00  0.00    -0.167 F 
ATOM     23  F   UNL A   1      34.072  27.020  22.771  1.00  0.00    -0.167 F 
ENDBRANCH  17  20
ENDBRANCH   5   8
ENDBRANCH   3   4
ENDBRANCH   2   3
ENDBRANCH   1   2
BRANCH   1  24
ATOM     24  N   UNL A   1      33.841  30.120  27.837  1.00  0.00    -0.352 N 
ATOM     25  C   UNL A   1      34.875  30.726  28.510  1.00  0.00     0.251 C 
ATOM     26  H   UNL A   1      33.047  30.688  27.703  1.00  0.00     0.163 HD
ATOM     27  O   UNL A   1      34.692  31.794  29.084  1.00  0.00    -0.269 OA
BRANCH  25  28
ATOM     28  C   UNL A   1      36.191  30.063  28.555  1.00  0.00     0.039 A 
ATOM     29  C   UNL A   1      36.619  29.471  29.740  1.00  0.00     0.014 A 
ATOM     30  C   UNL A   1      37.026  30.087  27.437  1.00  0.00     0.014 A 
ATOM     31  C   UNL A   1      37.958  29.162  29.895  1.00  0.00     0.010 A 
ATOM     32  C   UNL A   1      38.339  29.623  27.553  1.00  0.00     0.010 A 
ATOM     33  C   UNL A   1      38.837  29.226  28.804  1.00  0.00    -0.014 A 
BRANCH  33  34
ATOM     34  C   UNL A   1      40.268  28.882  29.017  1.00  0.00     0.031 A 
ATOM     35  C   UNL A   1      40.805  27.531  28.621  1.00  0.00     0.074 A 
ATOM     36  C   UNL A   1      41.099  29.830  29.496  1.00  0.00     0.049 A 
ATOM     37  N   UNL A   1      42.030  27.078  28.712  1.00  0.00    -0.248 NA
ATOM     38  C   UNL A   1      39.853  26.559  28.059  1.00  0.00     0.031 C 
ATOM     39  C   UNL A   1      40.692  31.181  29.896  1.00  0.00     0.029 A 
ATOM     40  N   UNL A   1      42.454  29.823  29.697  1.00  0.00    -0.354 N 
ATOM     41  C   UNL A   1      41.991  25.771  28.240  1.00  0.00     0.074 A 
ATOM     42  C   UNL A   1      40.614  25.486  27.901  1.00  0.00     0.031 C 
ATOM     43  C   UNL A   1      41.779  31.891  30.224  1.00  0.00     0.029 A 
ATOM     44  C   UNL A   1      42.947  31.023  30.153  1.00  0.00     0.049 A 
ATOM     45  H   UNL A   1      43.020  29.035  29.532  1.00  0.00     0.167 HD
ATOM     46  C   UNL A   1      43.014  24.896  28.086  1.00  0.00     0.037 A 
ATOM     47  C   UNL A   1      44.196  31.385  30.503  1.00  0.00     0.037 A 
ATOM     48  C   UNL A   1      44.385  25.202  28.406  1.00  0.00     0.049 A 
ATOM     49  C   UNL A   1      45.300  30.373  30.387  1.00  0.00     0.074 A 
ATOM     50  C   UNL A   1      45.498  24.391  28.265  1.00  0.00     0.029 A 
ATOM     51  N   UNL A   1      44.832  26.406  28.929  1.00  0.00    -0.354 N 
ATOM     52  N   UNL A   1      45.246  29.148  29.920  1.00  0.00    -0.248 NA
ATOM     53  C   UNL A   1      46.631  30.785  30.850  1.00  0.00     0.031 C 
ATOM     54  C   UNL A   1      46.605  25.080  28.765  1.00  0.00     0.029 A 
ATOM     55  C   UNL A   1      46.198  26.347  29.153  1.00  0.00     0.049 A 
ATOM     56  H   UNL A   1      44.262  27.188  29.115  1.00  0.00     0.167 HD
ATOM     57  C   UNL A   1      46.537  28.647  30.022  1.00  0.00     0.074 A 
ATOM     58  C   UNL A   1      47.355  29.710  30.572  1.00  0.00     0.031 C 
ATOM     59  C   UNL A   1      47.001  27.416  29.695  1.00  0.00     0.037 A 
BRANCH  46  60
ATOM     60  C   UNL A   1      42.702  23.521  27.559  1.00  0.00     0.058 A 
ATOM     61  C   UNL A   1      42.710  23.233  26.185  1.00  0.00     0.135 A 
ATOM     62  C   UNL A   1      42.460  22.457  28.446  1.00  0.00     0.135 A 
ATOM     63  F   UNL A   1      42.919  24.212  25.290  1.00  0.00    -0.206 F 
ATOM     64  C   UNL A   1      42.473  21.948  25.708  1.00  0.00     0.059 A 
ATOM     65  C   UNL A   1      42.252  21.157  27.992  1.00  0.00     0.059 A 
ATOM     66  F   UNL A   1      42.440  22.672  29.770  1.00  0.00    -0.206 F 
ATOM     67  C   UNL A   1      42.252  20.915  26.620  1.00  0.00     0.060 A 
BRANCH  67  68
ATOM     68  S   UNL A   1      41.960  19.253  25.979  1.00  0.00     0.124 S 
ATOM     69  O   UNL A   1      40.515  19.271  25.768  1.00  0.00    -0.237 OA
ATOM     70  O   UNL A   1      42.775  19.243  24.769  1.00  0.00    -0.237 OA
ATOM     71  O   UNL A   1      42.424  18.383  27.054  1.00  0.00    -0.744 OA
ENDBRANCH  67  68
ENDBRANCH  46  60
BRANCH  47  72
ATOM     72  C   UNL A   1      44.450  32.760  31.008  1.00  0.00     0.058 A 
ATOM     73  C   UNL A   1      44.743  33.810  30.127  1.00  0.00     0.135 A 
ATOM     74  C   UNL A   1      44.358  33.062  32.377  1.00  0.00     0.135 A 
ATOM     75  F   UNL A   1      44.846  33.574  28.811  1.00  0.00    -0.206 F 
ATOM     76  C   UNL A   1      44.943  35.108  30.585  1.00  0.00     0.059 A 
ATOM     77  C   UNL A   1      44.518  34.357  32.854  1.00  0.00     0.059 A 
ATOM     78  F   UNL A   1      44.063  32.096  33.261  1.00  0.00    -0.206 F 
ATOM     79  C   UNL A   1      44.819  35.373  31.949  1.00  0.00     0.060 A 
BRANCH  79  80
ATOM     80  S   UNL A   1      45.025  37.073  32.521  1.00  0.00     0.124 S 
ATOM     81  O   UNL A   1      46.194  37.500  31.759  1.00  0.00    -0.237 OA
ATOM     82  O   UNL A   1      43.753  37.677  32.134  1.00  0.00    -0.237 OA
ATOM     83  O   UNL A   1      45.230  36.924  33.959  1.00  0.00    -0.744 OA
ENDBRANCH  79  80
ENDBRANCH  47  72
BRANCH  59  84
ATOM     84  C   UNL A   1      48.464  27.139  29.907  1.00  0.00     0.058 A 
ATOM     85  C   UNL A   1      49.422  27.476  28.939  1.00  0.00     0.135 A 
ATOM     86  C   UNL A   1      48.921  26.624  31.132  1.00  0.00     0.135 A 
ATOM     87  F   UNL A   1      49.038  27.962  27.748  1.00  0.00    -0.206 F 
ATOM     88  C   UNL A   1      50.781  27.306  29.175  1.00  0.00     0.059 A 
ATOM     89  C   UNL A   1      50.277  26.477  31.401  1.00  0.00     0.059 A 
ATOM     90  F   UNL A   1      48.045  26.293  32.095  1.00  0.00    -0.206 F 
ATOM     91  C   UNL A   1      51.199  26.819  30.415  1.00  0.00     0.060 A 
BRANCH  91  92
ATOM     92  S   UNL A   1      52.971  26.668  30.724  1.00  0.00     0.124 S 
ATOM     93  O   UNL A   1      53.294  27.991  31.248  1.00  0.00    -0.237 OA
ATOM     94  O   UNL A   1      53.024  25.574  31.688  1.00  0.00    -0.237 OA
ATOM     95  O   UNL A   1      53.523  26.365  29.407  1.00  0.00    -0.744 OA
ENDBRANCH  91  92
ENDBRANCH  59  84
ENDBRANCH  33  34
ENDBRANCH  25  28
ENDBRANCH   1  24
TORSDOF 15
ENDMDL
MODEL 3
REMARK VINA RESULT:     -12.1      1.950      9.042
REMARK SMILES N#Cc1ccc2c(c1)C=C(C(=O)NCCCNC(=O)c1ccc(-c3c4nc(c(-c5c(F)cc(S(=O)(=O)[O-])cc5F)c5ccc([nH]5)c(-c5c(F)cc(S(=O)(=O)[O-])cc5F)c5nc(c(-c6c(F)cc(S(=O)(=O)[O-])cc6F)c6ccc3[nH]6)C=C5)C=C4)cc1)[C@@H](C(F)(F)F)O2
REMARK SMILES IDX 16 1 15 2 14 3 13 4 11 5 12 6 10 8 3 9 4 10 8 11 5 12 7 13
REMARK SMILES IDX 6 14 9 15 91 16 86 17 2 18 1 19 87 20 88 21 89 22 90 23
REMARK SMILES IDX 17 24 18 25 19 27 20 28 21 29 85 30 22 31 84 32 23 33 24 34
REMARK SMILES IDX 25 35 78 36 26 37 83 38 77 39 79 40 27 41 82 42 76 43 75 44
REMARK SMILES IDX 28 46 62 47 41 48 61 49 42 50 45 51 60 52 80 53 43 54 44 55
REMARK SMILES IDX 59 57 81 58 46 59 29 60 30 61 39 62 31 63 32 64 38 65 40 66
REMARK SMILES IDX 33 67 34 68 35 69 36 70 37 71 63 72 64 73 73 74 65 75 66 76
REMARK SMILES IDX 72 77 74 78 67 79 68 80 69 81 70 82 71 83 47 84 48 85 57 86
REMARK SMILES IDX 49 87 50 88 56 89 58 90 51 91 52 92 53 93 54 94 55 95
REMARK H PARENT 13 7 17 26 79 45 45 56
REMARK Flexibility Score: inf
ROOT
ATOM      1  C   UNL A   1      33.479  28.697  27.283  1.00  0.00     0.118 C 
ENDROOT
BRANCH   1   2
ATOM      2  C   UNL A   1      32.139  28.062  27.612  1.00  0.00     0.042 C 
BRANCH   2   3
ATOM      3  C   UNL A   1      31.408  27.619  26.360  1.00  0.00     0.118 C 
BRANCH   3   4
ATOM      4  N   UNL A   1      30.763  26.325  26.529  1.00  0.00    -0.352 N 
ATOM      5  C   UNL A   1      31.015  25.041  26.184  1.00  0.00     0.251 C 
ATOM      6  O   UNL A   1      30.192  24.211  26.582  1.00  0.00    -0.270 OA
ATOM      7  H   UNL A   1      29.916  26.406  27.026  1.00  0.00     0.163 HD
BRANCH   5   8
ATOM      8  C   UNL A   1      32.192  24.590  25.386  1.00  0.00     0.067 C 
ATOM      9  C   UNL A   1      36.799  23.122  25.266  1.00  0.00     0.053 A 
ATOM     10  C   UNL A   1      36.673  22.850  23.899  1.00  0.00     0.023 A 
ATOM     11  C   UNL A   1      35.697  23.594  25.994  1.00  0.00     0.031 A 
ATOM     12  C   UNL A   1      35.453  23.052  23.261  1.00  0.00     0.048 A 
ATOM     13  C   UNL A   1      34.472  23.801  25.352  1.00  0.00     0.018 A 
ATOM     14  C   UNL A   1      34.365  23.533  23.986  1.00  0.00     0.128 A 
ATOM     15  C   UNL A   1      33.292  24.248  26.084  1.00  0.00     0.025 C 
ATOM     16  O   UNL A   1      33.204  23.677  23.290  1.00  0.00    -0.475 OA
ATOM     17  C   UNL A   1      32.197  24.533  23.886  1.00  0.00     0.314 C 
BRANCH   9  18
ATOM     18  C   UNL A   1      38.057  22.908  25.917  1.00  0.00     0.099 C 
ATOM     19  N   UNL A   1      39.073  22.732  26.453  1.00  0.00    -0.192 NA
ENDBRANCH   9  18
BRANCH  17  20
ATOM     20  C   UNL A   1      32.290  25.935  23.250  1.00  0.00     0.429 C 
ATOM     21  F   UNL A   1      33.185  26.703  23.920  1.00  0.00    -0.167 F 
ATOM     22  F   UNL A   1      32.702  25.904  21.961  1.00  0.00    -0.167 F 
ATOM     23  F   UNL A   1      31.106  26.589  23.260  1.00  0.00    -0.167 F 
ENDBRANCH  17  20
ENDBRANCH   5   8
ENDBRANCH   3   4
ENDBRANCH   2   3
ENDBRANCH   1   2
BRANCH   1  24
ATOM     24  N   UNL A   1      33.574  30.077  27.765  1.00  0.00    -0.352 N 
ATOM     25  C   UNL A   1      34.611  30.737  28.382  1.00  0.00     0.251 C 
ATOM     26  H   UNL A   1      32.764  30.619  27.627  1.00  0.00     0.163 HD
ATOM     27  O   UNL A   1      34.416  31.827  28.910  1.00  0.00    -0.269 OA
BRANCH  25  28
ATOM     28  C   UNL A   1      35.943  30.107  28.423  1.00  0.00     0.039 A 
ATOM     29  C   UNL A   1      36.393  29.533  29.608  1.00  0.00     0.014 A 
ATOM     30  C   UNL A   1      36.770  30.146  27.299  1.00  0.00     0.014 A 
ATOM     31  C   UNL A   1      37.740  29.258  29.756  1.00  0.00     0.010 A 
ATOM     32  C   UNL A   1      38.095  29.715  27.409  1.00  0.00     0.010 A 
ATOM     33  C   UNL A   1      38.611  29.337  28.659  1.00  0.00    -0.014 A 
BRANCH  33  34
ATOM     34  C   UNL A   1      40.050  29.030  28.865  1.00  0.00     0.031 A 
ATOM     35  C   UNL A   1      40.967  30.030  29.522  1.00  0.00     0.074 A 
ATOM     36  C   UNL A   1      40.508  27.806  28.531  1.00  0.00     0.049 A 
ATOM     37  N   UNL A   1      42.241  29.913  29.803  1.00  0.00    -0.248 NA
ATOM     38  C   UNL A   1      40.392  31.329  29.907  1.00  0.00     0.031 C 
ATOM     39  C   UNL A   1      39.705  26.750  27.906  1.00  0.00     0.029 A 
ATOM     40  N   UNL A   1      41.738  27.227  28.697  1.00  0.00    -0.354 N 
ATOM     41  C   UNL A   1      42.620  31.121  30.375  1.00  0.00     0.074 A 
ATOM     42  C   UNL A   1      41.453  31.977  30.366  1.00  0.00     0.031 C 
ATOM     43  C   UNL A   1      40.440  25.636  27.807  1.00  0.00     0.029 A 
ATOM     44  C   UNL A   1      41.792  25.921  28.269  1.00  0.00     0.049 A 
ATOM     45  H   UNL A   1      42.510  27.701  29.083  1.00  0.00     0.167 HD
ATOM     46  C   UNL A   1      43.826  31.478  30.880  1.00  0.00     0.037 A 
ATOM     47  C   UNL A   1      42.819  25.052  28.227  1.00  0.00     0.037 A 
ATOM     48  C   UNL A   1      44.973  30.606  30.904  1.00  0.00     0.049 A 
ATOM     49  C   UNL A   1      44.162  25.496  28.731  1.00  0.00     0.074 A 
ATOM     50  C   UNL A   1      46.234  30.866  31.414  1.00  0.00     0.029 A 
ATOM     51  N   UNL A   1      45.003  29.315  30.400  1.00  0.00    -0.354 N 
ATOM     52  N   UNL A   1      44.496  26.637  29.286  1.00  0.00    -0.248 NA
ATOM     53  C   UNL A   1      45.271  24.542  28.596  1.00  0.00     0.031 C 
ATOM     54  C   UNL A   1      47.043  29.757  31.157  1.00  0.00     0.029 A 
ATOM     55  C   UNL A   1      46.271  28.778  30.552  1.00  0.00     0.049 A 
ATOM     56  H   UNL A   1      44.237  28.848  29.994  1.00  0.00     0.167 HD
ATOM     57  C   UNL A   1      45.849  26.534  29.579  1.00  0.00     0.074 A 
ATOM     58  C   UNL A   1      46.268  25.210  29.161  1.00  0.00     0.031 C 
ATOM     59  C   UNL A   1      46.672  27.456  30.137  1.00  0.00     0.037 A 
BRANCH  46  60
ATOM     60  C   UNL A   1      43.981  32.866  31.440  1.00  0.00     0.058 A 
ATOM     61  C   UNL A   1      44.364  33.951  30.635  1.00  0.00     0.135 A 
ATOM     62  C   UNL A   1      43.674  33.130  32.786  1.00  0.00     0.135 A 
ATOM     63  F   UNL A   1      44.686  33.758  29.346  1.00  0.00    -0.206 F 
ATOM     64  C   UNL A   1      44.455  35.242  31.147  1.00  0.00     0.059 A 
ATOM     65  C   UNL A   1      43.726  34.419  33.311  1.00  0.00     0.059 A 
ATOM     66  F   UNL A   1      43.302  32.132  33.602  1.00  0.00    -0.206 F 
ATOM     67  C   UNL A   1      44.127  35.466  32.485  1.00  0.00     0.060 A 
BRANCH  67  68
ATOM     68  S   UNL A   1      44.238  37.151  33.124  1.00  0.00     0.124 S 
ATOM     69  O   UNL A   1      44.217  37.933  31.891  1.00  0.00    -0.237 OA
ATOM     70  O   UNL A   1      43.041  37.246  33.953  1.00  0.00    -0.237 OA
ATOM     71  O   UNL A   1      45.504  37.161  33.849  1.00  0.00    -0.744 OA
ENDBRANCH  67  68
ENDBRANCH  46  60
BRANCH  47  72
ATOM     72  C   UNL A   1      42.606  23.688  27.673  1.00  0.00     0.058 A 
ATOM     73  C   UNL A   1      42.671  23.450  26.293  1.00  0.00     0.135 A 
ATOM     74  C   UNL A   1      42.379  22.587  28.516  1.00  0.00     0.135 A 
ATOM     75  F   UNL A   1      42.880  24.468  25.446  1.00  0.00    -0.206 F 
ATOM     76  C   UNL A   1      42.512  22.172  25.769  1.00  0.00     0.059 A 
ATOM     77  C   UNL A   1      42.253  21.296  28.018  1.00  0.00     0.059 A 
ATOM     78  F   UNL A   1      42.325  22.758  29.846  1.00  0.00    -0.206 F 
ATOM     79  C   UNL A   1      42.313  21.100  26.640  1.00  0.00     0.060 A 
BRANCH  79  80
ATOM     80  S   UNL A   1      42.166  19.440  25.946  1.00  0.00     0.124 S 
ATOM     81  O   UNL A   1      40.732  19.351  25.698  1.00  0.00    -0.237 OA
ATOM     82  O   UNL A   1      43.016  19.532  24.762  1.00  0.00    -0.237 OA
ATOM     83  O   UNL A   1      42.676  18.582  27.012  1.00  0.00    -0.744 OA
ENDBRANCH  79  80
ENDBRANCH  47  72
BRANCH  59  84
ATOM     84  C   UNL A   1      48.111  27.074  30.347  1.00  0.00     0.058 A 
ATOM     85  C   UNL A   1      49.108  27.436  29.428  1.00  0.00     0.135 A 
ATOM     86  C   UNL A   1      48.511  26.427  31.529  1.00  0.00     0.135 A 
ATOM     87  F   UNL A   1      48.779  28.046  28.279  1.00  0.00    -0.206 F 
ATOM     88  C   UNL A   1      50.450  27.165  29.670  1.00  0.00     0.059 A 
ATOM     89  C   UNL A   1      49.850  26.176  31.806  1.00  0.00     0.059 A 
ATOM     90  F   UNL A   1      47.598  26.067  32.445  1.00  0.00    -0.206 F 
ATOM     91  C   UNL A   1      50.812  26.546  30.869  1.00  0.00     0.060 A 
BRANCH  91  92
ATOM     92  S   UNL A   1      52.565  26.262  31.192  1.00  0.00     0.124 S 
ATOM     93  O   UNL A   1      53.113  26.227  29.840  1.00  0.00    -0.237 OA
ATOM     94  O   UNL A   1      52.923  27.429  31.992  1.00  0.00    -0.237 OA
ATOM     95  O   UNL A   1      52.579  24.989  31.906  1.00  0.00    -0.744 OA
ENDBRANCH  91  92
ENDBRANCH  59  84
ENDBRANCH  33  34
ENDBRANCH  25  28
ENDBRANCH   1  24
TORSDOF 15
ENDMDL
