MODEL 1
REMARK VINA RESULT:     -11.6      0.000      0.000
REMARK SMILES CC(C)[NH2+][C@]1(C(=O)NCCCNC(=O)c2ccc(-c3c4nc(c(-c5c(F)cc(S(=O)(=O)[O-])cc5F)c5ccc([nH]5)c(-c5c(F)cc(S(=O)(=O)[O-])cc5F)c5nc(c(-c6c(F)cc(S(=O)(=O)[O-])cc6F)c6ccc3[nH]6)C=C5)C=C4)cc2)CC[C@H](Oc2cccc(CO)c2)C1
REMARK SMILES IDX 9 1 8 2 6 3 7 4 5 6 81 7 93 8 82 9 83 10 4 11 2 14 1 15 3 16
REMARK SMILES IDX 84 17 85 18 86 19 92 20 87 21 89 22 88 23 90 24 91 25 10 27
REMARK SMILES IDX 11 28 12 29 13 30 14 32 15 33 16 34 80 35 17 36 79 37 18 38
REMARK SMILES IDX 19 39 20 40 73 41 21 42 78 43 72 44 74 45 22 46 77 47 71 48
REMARK SMILES IDX 70 49 23 51 57 52 36 53 56 54 37 55 40 56 55 57 75 58 38 59
REMARK SMILES IDX 39 60 54 62 76 63 41 64 24 65 25 66 34 67 26 68 27 69 33 70
REMARK SMILES IDX 35 71 28 72 29 73 30 74 31 75 32 76 58 77 59 78 68 79 60 80
REMARK SMILES IDX 61 81 67 82 69 83 62 84 63 85 64 86 65 87 66 88 42 89 43 90
REMARK SMILES IDX 52 91 44 92 45 93 51 94 53 95 46 96 47 97 48 98 49 99 50 100
REMARK H PARENT 8 5 4 12 4 13 91 26 12 31 74 50 40 61
REMARK Flexibility Score: inf
ROOT
ATOM      1  C   UNL A   1      36.660  22.894  25.718  1.00  0.00     0.118 C 
ENDROOT
BRANCH   1   2
ATOM      2  N   UNL A   1      35.722  22.228  26.606  1.00  0.00    -0.351 N 
ATOM      3  C   UNL A   1      34.376  22.240  26.759  1.00  0.00     0.281 C 
ATOM      4  O   UNL A   1      33.941  21.493  27.650  1.00  0.00    -0.268 OA
ATOM      5  H   UNL A   1      36.170  21.629  27.247  1.00  0.00     0.163 HD
BRANCH   3   6
ATOM      6  C   UNL A   1      33.377  23.122  25.960  1.00  0.00     0.179 C 
ATOM      7  C   UNL A   1      31.987  23.410  26.520  1.00  0.00     0.083 C 
ATOM      8  C   UNL A   1      33.970  24.568  25.926  1.00  0.00     0.124 C 
ATOM      9  C   UNL A   1      31.538  24.652  25.777  1.00  0.00     0.052 C 
ATOM     10  C   UNL A   1      32.779  25.547  25.851  1.00  0.00     0.180 C 
BRANCH   6  11
ATOM     11  N   UNL A   1      33.359  22.677  24.538  1.00  0.00    -0.332 N 
ATOM     12  H   UNL A   1      33.039  23.469  23.980  1.00  0.00     0.347 HD
ATOM     13  H   UNL A   1      34.313  22.358  24.368  1.00  0.00     0.347 HD
BRANCH  11  14
ATOM     14  C   UNL A   1      32.533  21.528  24.167  1.00  0.00     0.176 C 
ATOM     15  C   UNL A   1      32.147  21.727  22.694  1.00  0.00     0.075 C 
ATOM     16  C   UNL A   1      33.253  20.188  24.309  1.00  0.00     0.075 C 
ENDBRANCH  11  14
ENDBRANCH   6  11
BRANCH  10  17
ATOM     17  O   UNL A   1      32.934  26.411  24.726  1.00  0.00    -0.490 OA
BRANCH  17  18
ATOM     18  C   UNL A   1      32.379  27.658  24.824  1.00  0.00     0.120 A 
ATOM     19  C   UNL A   1      32.574  28.548  25.879  1.00  0.00     0.046 A 
ATOM     20  C   UNL A   1      31.551  28.017  23.760  1.00  0.00     0.052 A 
ATOM     21  C   UNL A   1      31.885  29.763  25.905  1.00  0.00     0.004 A 
ATOM     22  C   UNL A   1      30.865  29.239  23.767  1.00  0.00    -0.019 A 
ATOM     23  C   UNL A   1      31.028  30.102  24.859  1.00  0.00     0.006 A 
BRANCH  22  24
ATOM     24  C   UNL A   1      29.946  29.609  22.637  1.00  0.00     0.191 C 
BRANCH  24  25
ATOM     25  O   UNL A   1      30.687  29.848  21.448  1.00  0.00    -0.392 OA
ATOM     26  H   UNL A   1      31.166  30.687  21.530  1.00  0.00     0.211 HD
ENDBRANCH  24  25
ENDBRANCH  22  24
ENDBRANCH  17  18
ENDBRANCH  10  17
ENDBRANCH   3   6
ENDBRANCH   1   2
BRANCH   1  27
ATOM     27  C   UNL A   1      38.116  22.698  26.122  1.00  0.00     0.042 C 
BRANCH  27  28
ATOM     28  C   UNL A   1      38.826  24.004  26.467  1.00  0.00     0.118 C 
BRANCH  28  29
ATOM     29  N   UNL A   1      40.233  23.978  26.081  1.00  0.00    -0.352 N 
ATOM     30  C   UNL A   1      41.246  24.862  26.344  1.00  0.00     0.251 C 
ATOM     31  H   UNL A   1      40.497  23.198  25.543  1.00  0.00     0.163 HD
ATOM     32  O   UNL A   1      42.278  24.804  25.670  1.00  0.00    -0.269 OA
BRANCH  30  33
ATOM     33  C   UNL A   1      41.125  25.868  27.420  1.00  0.00     0.039 A 
ATOM     34  C   UNL A   1      41.974  26.980  27.414  1.00  0.00     0.014 A 
ATOM     35  C   UNL A   1      40.230  25.683  28.476  1.00  0.00     0.014 A 
ATOM     36  C   UNL A   1      41.890  27.925  28.439  1.00  0.00     0.010 A 
ATOM     37  C   UNL A   1      40.091  26.665  29.452  1.00  0.00     0.010 A 
ATOM     38  C   UNL A   1      40.930  27.789  29.454  1.00  0.00    -0.014 A 
BRANCH  38  39
ATOM     39  C   UNL A   1      40.801  28.787  30.545  1.00  0.00     0.031 A 
ATOM     40  C   UNL A   1      41.691  28.693  31.757  1.00  0.00     0.074 A 
ATOM     41  C   UNL A   1      39.833  29.722  30.485  1.00  0.00     0.049 A 
ATOM     42  N   UNL A   1      41.657  29.387  32.864  1.00  0.00    -0.248 NA
ATOM     43  C   UNL A   1      42.737  27.658  31.732  1.00  0.00     0.031 C 
ATOM     44  C   UNL A   1      38.879  29.883  29.386  1.00  0.00     0.029 A 
ATOM     45  N   UNL A   1      39.482  30.704  31.375  1.00  0.00    -0.354 N 
ATOM     46  C   UNL A   1      42.652  28.856  33.676  1.00  0.00     0.074 A 
ATOM     47  C   UNL A   1      43.244  27.753  32.952  1.00  0.00     0.031 C 
ATOM     48  C   UNL A   1      38.061  30.913  29.660  1.00  0.00     0.029 A 
ATOM     49  C   UNL A   1      38.408  31.461  30.967  1.00  0.00     0.049 A 
ATOM     50  H   UNL A   1      39.954  30.854  32.226  1.00  0.00     0.167 HD
ATOM     51  C   UNL A   1      43.052  29.266  34.904  1.00  0.00     0.037 A 
ATOM     52  C   UNL A   1      37.770  32.475  31.583  1.00  0.00     0.037 A 
ATOM     53  C   UNL A   1      42.489  30.394  35.599  1.00  0.00     0.049 A 
ATOM     54  C   UNL A   1      38.252  32.931  32.933  1.00  0.00     0.074 A 
ATOM     55  C   UNL A   1      42.864  30.930  36.817  1.00  0.00     0.029 A 
ATOM     56  N   UNL A   1      41.433  31.162  35.131  1.00  0.00    -0.354 N 
ATOM     57  N   UNL A   1      39.228  32.450  33.664  1.00  0.00    -0.248 NA
ATOM     58  C   UNL A   1      37.552  34.073  33.538  1.00  0.00     0.031 C 
ATOM     59  C   UNL A   1      42.016  32.007  37.101  1.00  0.00     0.029 A 
ATOM     60  C   UNL A   1      41.138  32.164  36.040  1.00  0.00     0.049 A 
ATOM     61  H   UNL A   1      40.962  31.018  34.278  1.00  0.00     0.167 HD
ATOM     62  C   UNL A   1      39.276  33.245  34.804  1.00  0.00     0.074 A 
ATOM     63  C   UNL A   1      38.236  34.244  34.660  1.00  0.00     0.031 C 
ATOM     64  C   UNL A   1      40.105  33.157  35.873  1.00  0.00     0.037 A 
BRANCH  51  65
ATOM     65  C   UNL A   1      44.159  28.495  35.569  1.00  0.00     0.058 A 
ATOM     66  C   UNL A   1      45.510  28.808  35.350  1.00  0.00     0.135 A 
ATOM     67  C   UNL A   1      43.867  27.444  36.454  1.00  0.00     0.135 A 
ATOM     68  F   UNL A   1      45.846  29.793  34.501  1.00  0.00    -0.206 F 
ATOM     69  C   UNL A   1      46.533  28.087  35.957  1.00  0.00     0.059 A 
ATOM     70  C   UNL A   1      44.874  26.726  37.094  1.00  0.00     0.059 A 
ATOM     71  F   UNL A   1      42.592  27.101  36.700  1.00  0.00    -0.206 F 
ATOM     72  C   UNL A   1      46.204  27.045  36.826  1.00  0.00     0.060 A 
BRANCH  72  73
ATOM     73  S   UNL A   1      47.542  26.116  37.604  1.00  0.00     0.124 S 
ATOM     74  O   UNL A   1      46.801  25.248  38.514  1.00  0.00    -0.237 OA
ATOM     75  O   UNL A   1      48.166  25.450  36.464  1.00  0.00    -0.237 OA
ATOM     76  O   UNL A   1      48.350  27.151  38.241  1.00  0.00    -0.744 OA
ENDBRANCH  72  73
ENDBRANCH  51  65
BRANCH  52  77
ATOM     77  C   UNL A   1      36.625  33.145  30.912  1.00  0.00     0.058 A 
ATOM     78  C   UNL A   1      35.311  32.932  31.352  1.00  0.00     0.135 A 
ATOM     79  C   UNL A   1      36.823  34.025  29.837  1.00  0.00     0.135 A 
ATOM     80  F   UNL A   1      35.074  32.095  32.373  1.00  0.00    -0.206 F 
ATOM     81  C   UNL A   1      34.229  33.556  30.741  1.00  0.00     0.059 A 
ATOM     82  C   UNL A   1      35.758  34.678  29.224  1.00  0.00     0.059 A 
ATOM     83  F   UNL A   1      38.063  34.277  29.393  1.00  0.00    -0.206 F 
ATOM     84  C   UNL A   1      34.462  34.430  29.678  1.00  0.00     0.060 A 
BRANCH  84  85
ATOM     85  S   UNL A   1      33.056  35.278  28.927  1.00  0.00     0.124 S 
ATOM     86  O   UNL A   1      32.573  34.271  27.989  1.00  0.00    -0.237 OA
ATOM     87  O   UNL A   1      32.201  35.539  30.082  1.00  0.00    -0.237 OA
ATOM     88  O   UNL A   1      33.662  36.463  28.328  1.00  0.00    -0.744 OA
ENDBRANCH  84  85
ENDBRANCH  52  77
BRANCH  64  89
ATOM     89  C   UNL A   1      39.950  34.187  36.954  1.00  0.00     0.058 A 
ATOM     90  C   UNL A   1      40.622  35.418  36.900  1.00  0.00     0.135 A 
ATOM     91  C   UNL A   1      39.076  33.960  38.029  1.00  0.00     0.135 A 
ATOM     92  F   UNL A   1      41.473  35.679  35.895  1.00  0.00    -0.206 F 
ATOM     93  C   UNL A   1      40.448  36.383  37.886  1.00  0.00     0.059 A 
ATOM     94  C   UNL A   1      38.869  34.920  39.015  1.00  0.00     0.059 A 
ATOM     95  F   UNL A   1      38.403  32.803  38.121  1.00  0.00    -0.206 F 
ATOM     96  C   UNL A   1      39.569  36.125  38.940  1.00  0.00     0.060 A 
BRANCH  96  97
ATOM     97  S   UNL A   1      39.321  37.398  40.195  1.00  0.00     0.124 S 
ATOM     98  O   UNL A   1      38.423  38.319  39.504  1.00  0.00    -0.237 OA
ATOM     99  O   UNL A   1      38.729  36.643  41.295  1.00  0.00    -0.237 OA
ATOM    100  O   UNL A   1      40.668  37.900  40.441  1.00  0.00    -0.744 OA
ENDBRANCH  96  97
ENDBRANCH  64  89
ENDBRANCH  38  39
ENDBRANCH  30  33
ENDBRANCH  28  29
ENDBRANCH  27  28
ENDBRANCH   1  27
TORSDOF 19
ENDMDL
MODEL 2
REMARK VINA RESULT:     -11.5      6.584     12.166
REMARK SMILES CC(C)[NH2+][C@]1(C(=O)NCCCNC(=O)c2ccc(-c3c4nc(c(-c5c(F)cc(S(=O)(=O)[O-])cc5F)c5ccc([nH]5)c(-c5c(F)cc(S(=O)(=O)[O-])cc5F)c5nc(c(-c6c(F)cc(S(=O)(=O)[O-])cc6F)c6ccc3[nH]6)C=C5)C=C4)cc2)CC[C@H](Oc2cccc(CO)c2)C1
REMARK SMILES IDX 9 1 8 2 6 3 7 4 5 6 81 7 93 8 82 9 83 10 4 11 2 14 1 15 3 16
REMARK SMILES IDX 84 17 85 18 86 19 92 20 87 21 89 22 88 23 90 24 91 25 10 27
REMARK SMILES IDX 11 28 12 29 13 30 14 32 15 33 16 34 80 35 17 36 79 37 18 38
REMARK SMILES IDX 19 39 20 40 73 41 21 42 78 43 72 44 74 45 22 46 77 47 71 48
REMARK SMILES IDX 70 49 23 51 57 52 36 53 56 54 37 55 40 56 55 57 75 58 38 59
REMARK SMILES IDX 39 60 54 62 76 63 41 64 24 65 25 66 34 67 26 68 27 69 33 70
REMARK SMILES IDX 35 71 28 72 29 73 30 74 31 75 32 76 58 77 59 78 68 79 60 80
REMARK SMILES IDX 61 81 67 82 69 83 62 84 63 85 64 86 65 87 66 88 42 89 43 90
REMARK SMILES IDX 52 91 44 92 45 93 51 94 53 95 46 96 47 97 48 98 49 99 50 100
REMARK H PARENT 8 5 4 12 4 13 91 26 12 31 74 50 40 61
REMARK Flexibility Score: inf
ROOT
ATOM      1  C   UNL A   1      33.621  29.358  26.572  1.00  0.00     0.118 C 
ENDROOT
BRANCH   1   2
ATOM      2  N   UNL A   1      32.457  28.582  26.967  1.00  0.00    -0.351 N 
ATOM      3  C   UNL A   1      31.993  27.341  26.682  1.00  0.00     0.281 C 
ATOM      4  O   UNL A   1      30.935  27.031  27.253  1.00  0.00    -0.268 OA
ATOM      5  H   UNL A   1      31.868  29.073  27.584  1.00  0.00     0.163 HD
BRANCH   3   6
ATOM      6  C   UNL A   1      32.641  26.330  25.695  1.00  0.00     0.179 C 
ATOM      7  C   UNL A   1      34.155  26.138  25.674  1.00  0.00     0.083 C 
ATOM      8  C   UNL A   1      32.184  24.902  26.140  1.00  0.00     0.124 C 
ATOM      9  C   UNL A   1      34.347  24.784  25.022  1.00  0.00     0.052 C 
ATOM     10  C   UNL A   1      33.306  23.921  25.740  1.00  0.00     0.180 C 
BRANCH   6  11
ATOM     11  N   UNL A   1      32.052  26.521  24.341  1.00  0.00    -0.332 N 
ATOM     12  H   UNL A   1      32.037  25.607  23.888  1.00  0.00     0.347 HD
ATOM     13  H   UNL A   1      31.145  26.951  24.525  1.00  0.00     0.347 HD
BRANCH  11  14
ATOM     14  C   UNL A   1      32.699  27.449  23.412  1.00  0.00     0.176 C 
ATOM     15  C   UNL A   1      32.957  26.662  22.119  1.00  0.00     0.075 C 
ATOM     16  C   UNL A   1      31.845  28.673  23.081  1.00  0.00     0.075 C 
ENDBRANCH  11  14
ENDBRANCH   6  11
BRANCH  10  17
ATOM     17  O   UNL A   1      32.768  22.875  24.932  1.00  0.00    -0.490 OA
BRANCH  17  18
ATOM     18  C   UNL A   1      33.467  21.700  24.896  1.00  0.00     0.120 A 
ATOM     19  C   UNL A   1      34.817  21.553  25.214  1.00  0.00     0.046 A 
ATOM     20  C   UNL A   1      32.727  20.588  24.493  1.00  0.00     0.052 A 
ATOM     21  C   UNL A   1      35.441  20.313  25.059  1.00  0.00     0.004 A 
ATOM     22  C   UNL A   1      33.337  19.335  24.347  1.00  0.00    -0.019 A 
ATOM     23  C   UNL A   1      34.707  19.212  24.618  1.00  0.00     0.006 A 
BRANCH  22  24
ATOM     24  C   UNL A   1      32.547  18.146  23.879  1.00  0.00     0.191 C 
BRANCH  24  25
ATOM     25  O   UNL A   1      31.779  17.605  24.946  1.00  0.00    -0.392 OA
ATOM     26  H   UNL A   1      32.350  17.062  25.511  1.00  0.00     0.211 HD
ENDBRANCH  24  25
ENDBRANCH  22  24
ENDBRANCH  17  18
ENDBRANCH  10  17
ENDBRANCH   3   6
ENDBRANCH   1   2
BRANCH   1  27
ATOM     27  C   UNL A   1      34.806  29.189  27.514  1.00  0.00     0.042 C 
BRANCH  27  28
ATOM     28  C   UNL A   1      35.386  30.515  27.996  1.00  0.00     0.118 C 
BRANCH  28  29
ATOM     29  N   UNL A   1      35.402  30.606  29.453  1.00  0.00    -0.352 N 
ATOM     30  C   UNL A   1      36.320  30.156  30.364  1.00  0.00     0.251 C 
ATOM     31  H   UNL A   1      34.626  31.067  29.844  1.00  0.00     0.163 HD
ATOM     32  O   UNL A   1      35.990  30.069  31.550  1.00  0.00    -0.269 OA
BRANCH  30  33
ATOM     33  C   UNL A   1      37.689  29.783  29.952  1.00  0.00     0.039 A 
ATOM     34  C   UNL A   1      38.079  29.976  28.622  1.00  0.00     0.014 A 
ATOM     35  C   UNL A   1      38.567  29.174  30.851  1.00  0.00     0.014 A 
ATOM     36  C   UNL A   1      39.360  29.604  28.211  1.00  0.00     0.010 A 
ATOM     37  C   UNL A   1      39.870  28.878  30.462  1.00  0.00     0.010 A 
ATOM     38  C   UNL A   1      40.276  29.074  29.134  1.00  0.00    -0.014 A 
BRANCH  38  39
ATOM     39  C   UNL A   1      41.652  28.688  28.734  1.00  0.00     0.031 A 
ATOM     40  C   UNL A   1      42.732  29.734  28.653  1.00  0.00     0.074 A 
ATOM     41  C   UNL A   1      41.909  27.418  28.366  1.00  0.00     0.049 A 
ATOM     42  N   UNL A   1      43.959  29.626  28.212  1.00  0.00    -0.248 NA
ATOM     43  C   UNL A   1      42.374  31.092  29.096  1.00  0.00     0.031 C 
ATOM     44  C   UNL A   1      40.935  26.325  28.356  1.00  0.00     0.029 A 
ATOM     45  N   UNL A   1      43.066  26.834  27.913  1.00  0.00    -0.354 N 
ATOM     46  C   UNL A   1      44.507  30.900  28.297  1.00  0.00     0.074 A 
ATOM     47  C   UNL A   1      43.467  31.776  28.789  1.00  0.00     0.031 C 
ATOM     48  C   UNL A   1      41.537  25.201  27.934  1.00  0.00     0.029 A 
ATOM     49  C   UNL A   1      42.928  25.500  27.610  1.00  0.00     0.049 A 
ATOM     50  H   UNL A   1      43.914  27.324  27.815  1.00  0.00     0.167 HD
ATOM     51  C   UNL A   1      45.770  31.300  28.012  1.00  0.00     0.037 A 
ATOM     52  C   UNL A   1      43.821  24.620  27.116  1.00  0.00     0.037 A 
ATOM     53  C   UNL A   1      46.812  30.414  27.565  1.00  0.00     0.049 A 
ATOM     54  C   UNL A   1      45.225  25.080  26.836  1.00  0.00     0.074 A 
ATOM     55  C   UNL A   1      48.140  30.705  27.310  1.00  0.00     0.029 A 
ATOM     56  N   UNL A   1      46.644  29.060  27.314  1.00  0.00    -0.354 N 
ATOM     57  N   UNL A   1      45.740  26.279  26.970  1.00  0.00    -0.248 NA
ATOM     58  C   UNL A   1      46.171  24.069  26.346  1.00  0.00     0.031 C 
ATOM     59  C   UNL A   1      48.770  29.533  26.876  1.00  0.00     0.029 A 
ATOM     60  C   UNL A   1      47.842  28.504  26.899  1.00  0.00     0.049 A 
ATOM     61  H   UNL A   1      45.799  28.566  27.416  1.00  0.00     0.167 HD
ATOM     62  C   UNL A   1      47.076  26.160  26.605  1.00  0.00     0.074 A 
ATOM     63  C   UNL A   1      47.292  24.771  26.254  1.00  0.00     0.031 C 
ATOM     64  C   UNL A   1      48.039  27.115  26.564  1.00  0.00     0.037 A 
BRANCH  51  65
ATOM     65  C   UNL A   1      46.094  32.758  28.184  1.00  0.00     0.058 A 
ATOM     66  C   UNL A   1      46.578  33.266  29.400  1.00  0.00     0.135 A 
ATOM     67  C   UNL A   1      45.941  33.656  27.115  1.00  0.00     0.135 A 
ATOM     68  F   UNL A   1      46.728  32.456  30.459  1.00  0.00    -0.206 F 
ATOM     69  C   UNL A   1      46.868  34.618  29.561  1.00  0.00     0.059 A 
ATOM     70  C   UNL A   1      46.251  35.008  27.246  1.00  0.00     0.059 A 
ATOM     71  F   UNL A   1      45.482  33.225  25.930  1.00  0.00    -0.206 F 
ATOM     72  C   UNL A   1      46.697  35.482  28.479  1.00  0.00     0.060 A 
BRANCH  72  73
ATOM     73  S   UNL A   1      47.073  37.232  28.704  1.00  0.00     0.124 S 
ATOM     74  O   UNL A   1      48.290  37.167  29.506  1.00  0.00    -0.237 OA
ATOM     75  O   UNL A   1      47.245  37.695  27.330  1.00  0.00    -0.237 OA
ATOM     76  O   UNL A   1      45.894  37.748  29.392  1.00  0.00    -0.744 OA
ENDBRANCH  72  73
ENDBRANCH  51  65
BRANCH  52  77
ATOM     77  C   UNL A   1      43.418  23.208  26.885  1.00  0.00     0.058 A 
ATOM     78  C   UNL A   1      43.288  22.702  25.584  1.00  0.00     0.135 A 
ATOM     79  C   UNL A   1      43.177  22.333  27.956  1.00  0.00     0.135 A 
ATOM     80  F   UNL A   1      43.503  23.503  24.530  1.00  0.00    -0.206 F 
ATOM     81  C   UNL A   1      42.919  21.382  25.349  1.00  0.00     0.059 A 
ATOM     82  C   UNL A   1      42.830  21.002  27.747  1.00  0.00     0.059 A 
ATOM     83  F   UNL A   1      43.309  22.764  29.220  1.00  0.00    -0.206 F 
ATOM     84  C   UNL A   1      42.694  20.538  26.437  1.00  0.00     0.060 A 
BRANCH  84  85
ATOM     85  S   UNL A   1      42.269  18.811  26.123  1.00  0.00     0.124 S 
ATOM     86  O   UNL A   1      42.566  18.197  27.412  1.00  0.00    -0.237 OA
ATOM     87  O   UNL A   1      40.856  18.902  25.768  1.00  0.00    -0.237 OA
ATOM     88  O   UNL A   1      43.159  18.443  25.026  1.00  0.00    -0.744 OA
ENDBRANCH  84  85
ENDBRANCH  52  77
BRANCH  64  89
ATOM     89  C   UNL A   1      49.420  26.685  26.162  1.00  0.00     0.058 A 
ATOM     90  C   UNL A   1      49.902  26.884  24.859  1.00  0.00     0.135 A 
ATOM     91  C   UNL A   1      50.289  26.115  27.106  1.00  0.00     0.135 A 
ATOM     92  F   UNL A   1      49.107  27.420  23.919  1.00  0.00    -0.206 F 
ATOM     93  C   UNL A   1      51.194  26.516  24.500  1.00  0.00     0.059 A 
ATOM     94  C   UNL A   1      51.593  25.760  26.775  1.00  0.00     0.059 A 
ATOM     95  F   UNL A   1      49.878  25.912  28.367  1.00  0.00    -0.206 F 
ATOM     96  C   UNL A   1      52.032  25.955  25.466  1.00  0.00     0.060 A 
BRANCH  96  97
ATOM     97  S   UNL A   1      53.720  25.514  25.000  1.00  0.00     0.124 S 
ATOM     98  O   UNL A   1      54.499  26.269  25.977  1.00  0.00    -0.237 OA
ATOM     99  O   UNL A   1      53.724  24.064  25.171  1.00  0.00    -0.237 OA
ATOM    100  O   UNL A   1      53.824  25.977  23.620  1.00  0.00    -0.744 OA
ENDBRANCH  96  97
ENDBRANCH  64  89
ENDBRANCH  38  39
ENDBRANCH  30  33
ENDBRANCH  28  29
ENDBRANCH  27  28
ENDBRANCH   1  27
TORSDOF 19
ENDMDL
MODEL 3
REMARK VINA RESULT:     -11.5      6.578     12.157
REMARK SMILES CC(C)[NH2+][C@]1(C(=O)NCCCNC(=O)c2ccc(-c3c4nc(c(-c5c(F)cc(S(=O)(=O)[O-])cc5F)c5ccc([nH]5)c(-c5c(F)cc(S(=O)(=O)[O-])cc5F)c5nc(c(-c6c(F)cc(S(=O)(=O)[O-])cc6F)c6ccc3[nH]6)C=C5)C=C4)cc2)CC[C@H](Oc2cccc(CO)c2)C1
REMARK SMILES IDX 9 1 8 2 6 3 7 4 5 6 81 7 93 8 82 9 83 10 4 11 2 14 1 15 3 16
REMARK SMILES IDX 84 17 85 18 86 19 92 20 87 21 89 22 88 23 90 24 91 25 10 27
REMARK SMILES IDX 11 28 12 29 13 30 14 32 15 33 16 34 80 35 17 36 79 37 18 38
REMARK SMILES IDX 19 39 20 40 73 41 21 42 78 43 72 44 74 45 22 46 77 47 71 48
REMARK SMILES IDX 70 49 23 51 57 52 36 53 56 54 37 55 40 56 55 57 75 58 38 59
REMARK SMILES IDX 39 60 54 62 76 63 41 64 24 65 25 66 34 67 26 68 27 69 33 70
REMARK SMILES IDX 35 71 28 72 29 73 30 74 31 75 32 76 58 77 59 78 68 79 60 80
REMARK SMILES IDX 61 81 67 82 69 83 62 84 63 85 64 86 65 87 66 88 42 89 43 90
REMARK SMILES IDX 52 91 44 92 45 93 51 94 53 95 46 96 47 97 48 98 49 99 50 100
REMARK H PARENT 8 5 4 12 4 13 91 26 12 31 74 50 40 61
REMARK Flexibility Score: inf
ROOT
ATOM      1  C   UNL A   1      33.928  28.104  26.257  1.00  0.00     0.118 C 
ENDROOT
BRANCH   1   2
ATOM      2  N   UNL A   1      34.209  28.605  24.922  1.00  0.00    -0.351 N 
ATOM      3  C   UNL A   1      33.893  28.209  23.666  1.00  0.00     0.281 C 
ATOM      4  O   UNL A   1      34.323  28.941  22.759  1.00  0.00    -0.268 OA
ATOM      5  H   UNL A   1      34.757  29.423  24.934  1.00  0.00     0.163 HD
BRANCH   3   6
ATOM      6  C   UNL A   1      33.100  26.928  23.287  1.00  0.00     0.179 C 
ATOM      7  C   UNL A   1      33.159  26.378  21.865  1.00  0.00     0.083 C 
ATOM      8  C   UNL A   1      33.749  25.741  24.072  1.00  0.00     0.124 C 
ATOM      9  C   UNL A   1      32.734  24.931  22.008  1.00  0.00     0.052 C 
ATOM     10  C   UNL A   1      33.545  24.468  23.223  1.00  0.00     0.180 C 
BRANCH   6  11
ATOM     11  N   UNL A   1      31.713  27.034  23.821  1.00  0.00    -0.332 N 
ATOM     12  H   UNL A   1      31.236  26.163  23.591  1.00  0.00     0.347 HD
ATOM     13  H   UNL A   1      31.846  27.230  24.813  1.00  0.00     0.347 HD
BRANCH  11  14
ATOM     14  C   UNL A   1      30.859  28.128  23.358  1.00  0.00     0.176 C 
ATOM     15  C   UNL A   1      29.441  27.552  23.239  1.00  0.00     0.075 C 
ATOM     16  C   UNL A   1      30.827  29.321  24.312  1.00  0.00     0.075 C 
ENDBRANCH  11  14
ENDBRANCH   6  11
BRANCH  10  17
ATOM     17  O   UNL A   1      32.894  23.466  24.002  1.00  0.00    -0.490 OA
BRANCH  17  18
ATOM     18  C   UNL A   1      33.605  22.326  24.261  1.00  0.00     0.120 A 
ATOM     19  C   UNL A   1      33.063  21.047  24.385  1.00  0.00     0.046 A 
ATOM     20  C   UNL A   1      34.980  22.512  24.413  1.00  0.00     0.052 A 
ATOM     21  C   UNL A   1      33.883  19.971  24.733  1.00  0.00     0.004 A 
ATOM     22  C   UNL A   1      35.815  21.439  24.748  1.00  0.00    -0.019 A 
ATOM     23  C   UNL A   1      35.250  20.168  24.923  1.00  0.00     0.006 A 
BRANCH  22  24
ATOM     24  C   UNL A   1      37.290  21.647  24.946  1.00  0.00     0.191 C 
BRANCH  24  25
ATOM     25  O   UNL A   1      37.537  22.349  26.157  1.00  0.00    -0.392 OA
ATOM     26  H   UNL A   1      38.470  22.612  26.193  1.00  0.00     0.211 HD
ENDBRANCH  24  25
ENDBRANCH  22  24
ENDBRANCH  17  18
ENDBRANCH  10  17
ENDBRANCH   3   6
ENDBRANCH   1   2
BRANCH   1  27
ATOM     27  C   UNL A   1      33.909  29.196  27.319  1.00  0.00     0.042 C 
BRANCH  27  28
ATOM     28  C   UNL A   1      35.297  29.732  27.657  1.00  0.00     0.118 C 
BRANCH  28  29
ATOM     29  N   UNL A   1      35.347  30.311  28.996  1.00  0.00    -0.352 N 
ATOM     30  C   UNL A   1      36.323  30.255  29.955  1.00  0.00     0.251 C 
ATOM     31  H   UNL A   1      34.549  30.827  29.251  1.00  0.00     0.163 HD
ATOM     32  O   UNL A   1      36.034  30.554  31.117  1.00  0.00    -0.269 OA
BRANCH  30  33
ATOM     33  C   UNL A   1      37.705  29.855  29.620  1.00  0.00     0.039 A 
ATOM     34  C   UNL A   1      38.544  29.381  30.635  1.00  0.00     0.014 A 
ATOM     35  C   UNL A   1      38.203  30.014  28.325  1.00  0.00     0.014 A 
ATOM     36  C   UNL A   1      39.862  29.024  30.339  1.00  0.00     0.010 A 
ATOM     37  C   UNL A   1      39.489  29.583  28.014  1.00  0.00     0.010 A 
ATOM     38  C   UNL A   1      40.338  29.098  29.020  1.00  0.00    -0.014 A 
BRANCH  38  39
ATOM     39  C   UNL A   1      41.726  28.707  28.668  1.00  0.00     0.031 A 
ATOM     40  C   UNL A   1      42.812  29.749  28.628  1.00  0.00     0.074 A 
ATOM     41  C   UNL A   1      41.991  27.436  28.307  1.00  0.00     0.049 A 
ATOM     42  N   UNL A   1      44.053  29.636  28.232  1.00  0.00    -0.248 NA
ATOM     43  C   UNL A   1      42.444  31.107  29.062  1.00  0.00     0.031 C 
ATOM     44  C   UNL A   1      41.013  26.348  28.260  1.00  0.00     0.029 A 
ATOM     45  N   UNL A   1      43.160  26.849  27.895  1.00  0.00    -0.354 N 
ATOM     46  C   UNL A   1      44.603  30.908  28.339  1.00  0.00     0.074 A 
ATOM     47  C   UNL A   1      43.550  31.787  28.795  1.00  0.00     0.031 C 
ATOM     48  C   UNL A   1      41.625  25.222  27.857  1.00  0.00     0.029 A 
ATOM     49  C   UNL A   1      43.028  25.516  27.584  1.00  0.00     0.049 A 
ATOM     50  H   UNL A   1      44.013  27.336  27.828  1.00  0.00     0.167 HD
ATOM     51  C   UNL A   1      45.877  31.303  28.100  1.00  0.00     0.037 A 
ATOM     52  C   UNL A   1      43.935  24.633  27.121  1.00  0.00     0.037 A 
ATOM     53  C   UNL A   1      46.931  30.414  27.690  1.00  0.00     0.049 A 
ATOM     54  C   UNL A   1      45.349  25.088  26.893  1.00  0.00     0.074 A 
ATOM     55  C   UNL A   1      48.269  30.700  27.482  1.00  0.00     0.029 A 
ATOM     56  N   UNL A   1      46.767  29.061  27.430  1.00  0.00    -0.354 N 
ATOM     57  N   UNL A   1      45.864  26.284  27.048  1.00  0.00    -0.248 NA
ATOM     58  C   UNL A   1      46.309  24.074  26.435  1.00  0.00     0.031 C 
ATOM     59  C   UNL A   1      48.909  29.526  27.069  1.00  0.00     0.029 A 
ATOM     60  C   UNL A   1      47.977  28.501  27.056  1.00  0.00     0.049 A 
ATOM     61  H   UNL A   1      45.916  28.571  27.500  1.00  0.00     0.167 HD
ATOM     62  C   UNL A   1      47.213  26.161  26.730  1.00  0.00     0.074 A 
ATOM     63  C   UNL A   1      47.435  24.772  26.384  1.00  0.00     0.031 C 
ATOM     64  C   UNL A   1      48.180  27.112  26.726  1.00  0.00     0.037 A 
BRANCH  51  65
ATOM     65  C   UNL A   1      46.201  32.760  28.287  1.00  0.00     0.058 A 
ATOM     66  C   UNL A   1      46.610  33.270  29.530  1.00  0.00     0.135 A 
ATOM     67  C   UNL A   1      46.123  33.654  27.207  1.00  0.00     0.135 A 
ATOM     68  F   UNL A   1      46.686  32.462  30.600  1.00  0.00    -0.206 F 
ATOM     69  C   UNL A   1      46.899  34.619  29.704  1.00  0.00     0.059 A 
ATOM     70  C   UNL A   1      46.434  35.004  27.352  1.00  0.00     0.059 A 
ATOM     71  F   UNL A   1      45.737  33.221  25.997  1.00  0.00    -0.206 F 
ATOM     72  C   UNL A   1      46.805  35.480  28.609  1.00  0.00     0.060 A 
BRANCH  72  73
ATOM     73  S   UNL A   1      47.179  37.229  28.851  1.00  0.00     0.124 S 
ATOM     74  O   UNL A   1      47.610  37.621  27.513  1.00  0.00    -0.237 OA
ATOM     75  O   UNL A   1      45.893  37.768  29.284  1.00  0.00    -0.237 OA
ATOM     76  O   UNL A   1      48.224  37.216  29.869  1.00  0.00    -0.744 OA
ENDBRANCH  72  73
ENDBRANCH  51  65
BRANCH  52  77
ATOM     77  C   UNL A   1      43.534  23.223  26.873  1.00  0.00     0.058 A 
ATOM     78  C   UNL A   1      43.428  22.727  25.566  1.00  0.00     0.135 A 
ATOM     79  C   UNL A   1      43.273  22.341  27.933  1.00  0.00     0.135 A 
ATOM     80  F   UNL A   1      43.665  23.535  24.521  1.00  0.00    -0.206 F 
ATOM     81  C   UNL A   1      43.063  21.409  25.315  1.00  0.00     0.059 A 
ATOM     82  C   UNL A   1      42.928  21.012  27.708  1.00  0.00     0.059 A 
ATOM     83  F   UNL A   1      43.380  22.763  29.202  1.00  0.00    -0.206 F 
ATOM     84  C   UNL A   1      42.816  20.558  26.393  1.00  0.00     0.060 A 
BRANCH  84  85
ATOM     85  S   UNL A   1      42.395  18.833  26.059  1.00  0.00     0.124 S 
ATOM     86  O   UNL A   1      43.339  18.502  24.998  1.00  0.00    -0.237 OA
ATOM     87  O   UNL A   1      42.639  18.201  27.353  1.00  0.00    -0.237 OA
ATOM     88  O   UNL A   1      40.993  18.902  25.660  1.00  0.00    -0.744 OA
ENDBRANCH  84  85
ENDBRANCH  52  77
BRANCH  64  89
ATOM     89  C   UNL A   1      49.573  26.677  26.373  1.00  0.00     0.058 A 
ATOM     90  C   UNL A   1      50.089  26.842  25.078  1.00  0.00     0.135 A 
ATOM     91  C   UNL A   1      50.418  26.138  27.355  1.00  0.00     0.135 A 
ATOM     92  F   UNL A   1      49.317  27.347  24.103  1.00  0.00    -0.206 F 
ATOM     93  C   UNL A   1      51.391  26.469  24.764  1.00  0.00     0.059 A 
ATOM     94  C   UNL A   1      51.732  25.779  27.069  1.00  0.00     0.059 A 
ATOM     95  F   UNL A   1      49.975  25.968  28.610  1.00  0.00    -0.206 F 
ATOM     96  C   UNL A   1      52.205  25.939  25.767  1.00  0.00     0.060 A 
BRANCH  96  97
ATOM     97  S   UNL A   1      53.906  25.493  25.359  1.00  0.00     0.124 S 
ATOM     98  O   UNL A   1      53.845  25.408  23.903  1.00  0.00    -0.237 OA
ATOM     99  O   UNL A   1      54.664  26.620  25.896  1.00  0.00    -0.237 OA
ATOM    100  O   UNL A   1      54.102  24.226  26.055  1.00  0.00    -0.744 OA
ENDBRANCH  96  97
ENDBRANCH  64  89
ENDBRANCH  38  39
ENDBRANCH  30  33
ENDBRANCH  28  29
ENDBRANCH  27  28
ENDBRANCH   1  27
TORSDOF 19
ENDMDL
