MODEL 1
REMARK VINA RESULT:     -12.0      0.000      0.000
REMARK SMILES CCCc1cc2c(cc1Cl)C=C(C(=O)NCCCNC(=O)c1ccc(-c3c4nc(c(-c5c(F)cc(S(=O)(=O)[O-])cc5F)c5ccc([nH]5)c(-c5c(F)cc(S(=O)(=O)[O-])cc5F)c5nc(c(-c6c(F)cc(S(=O)(=O)[O-])cc6F)c6ccc3[nH]6)C=C5)C=C4)cc1)[C@@H](C(F)(F)F)O2
REMARK SMILES IDX 17 1 16 2 15 3 13 4 14 5 12 7 4 8 5 9 9 10 6 11 8 12 10 13
REMARK SMILES IDX 7 14 93 15 11 16 88 17 3 18 2 19 1 20 89 21 90 22 91 23
REMARK SMILES IDX 92 24 18 25 19 26 20 27 21 29 22 30 23 31 87 32 24 33 86 34
REMARK SMILES IDX 25 35 26 36 27 37 80 38 28 39 85 40 79 41 81 42 29 43 84 44
REMARK SMILES IDX 78 45 77 46 30 48 64 49 43 50 63 51 44 52 47 53 62 54 82 55
REMARK SMILES IDX 45 56 46 57 61 59 83 60 48 61 31 62 32 63 41 64 33 65 34 66
REMARK SMILES IDX 40 67 42 68 35 69 36 70 37 71 38 72 39 73 65 74 66 75 75 76
REMARK SMILES IDX 67 77 68 78 74 79 76 80 69 81 70 82 71 83 72 84 73 85 49 86
REMARK SMILES IDX 50 87 59 88 51 89 52 90 58 91 60 92 53 93 54 94 55 95 56 96
REMARK SMILES IDX 57 97
REMARK H PARENT 15 6 19 28 81 47 47 58
REMARK Flexibility Score: inf
ROOT
ATOM      1  C   UNL A   1      38.169  19.954  25.142  1.00  0.00     0.042 C 
ENDROOT
BRANCH   1   2
ATOM      2  C   UNL A   1      37.212  21.107  24.888  1.00  0.00     0.118 C 
BRANCH   2   3
ATOM      3  N   UNL A   1      35.998  21.002  25.684  1.00  0.00    -0.352 N 
ATOM      4  C   UNL A   1      34.830  21.671  25.800  1.00  0.00     0.251 C 
ATOM      5  O   UNL A   1      34.041  21.211  26.632  1.00  0.00    -0.270 OA
ATOM      6  H   UNL A   1      36.040  20.238  26.305  1.00  0.00     0.163 HD
BRANCH   4   7
ATOM      7  C   UNL A   1      34.447  22.879  25.011  1.00  0.00     0.067 C 
ATOM      8  C   UNL A   1      33.342  27.649  23.711  1.00  0.00    -0.026 A 
ATOM      9  C   UNL A   1      33.485  26.437  23.010  1.00  0.00     0.052 A 
ATOM     10  C   UNL A   1      33.556  27.639  25.098  1.00  0.00     0.045 A 
ATOM     11  C   UNL A   1      33.825  25.259  23.674  1.00  0.00     0.128 A 
ATOM     12  C   UNL A   1      33.871  26.448  25.764  1.00  0.00     0.032 A 
ATOM     13  Cl  UNL A   1      33.481  29.076  26.054  1.00  0.00    -0.084 Cl
ATOM     14  C   UNL A   1      34.008  25.254  25.052  1.00  0.00     0.019 A 
ATOM     15  O   UNL A   1      34.007  24.159  22.891  1.00  0.00    -0.475 OA
ATOM     16  C   UNL A   1      34.383  24.020  25.722  1.00  0.00     0.025 C 
ATOM     17  C   UNL A   1      34.119  22.864  23.543  1.00  0.00     0.314 C 
BRANCH   8  18
ATOM     18  C   UNL A   1      32.977  28.888  22.925  1.00  0.00     0.037 C 
BRANCH  18  19
ATOM     19  C   UNL A   1      31.489  28.988  22.570  1.00  0.00     0.001 C 
ATOM     20  C   UNL A   1      30.589  29.275  23.763  1.00  0.00     0.004 C 
ENDBRANCH  18  19
ENDBRANCH   8  18
BRANCH  17  21
ATOM     21  C   UNL A   1      32.841  22.069  23.215  1.00  0.00     0.429 C 
ATOM     22  F   UNL A   1      33.006  20.759  23.529  1.00  0.00    -0.167 F 
ATOM     23  F   UNL A   1      31.757  22.492  23.904  1.00  0.00    -0.167 F 
ATOM     24  F   UNL A   1      32.519  22.132  21.903  1.00  0.00    -0.167 F 
ENDBRANCH  17  21
ENDBRANCH   4   7
ENDBRANCH   2   3
ENDBRANCH   1   2
BRANCH   1  25
ATOM     25  C   UNL A   1      39.413  20.381  25.910  1.00  0.00     0.118 C 
BRANCH  25  26
ATOM     26  N   UNL A   1      40.398  19.306  26.018  1.00  0.00    -0.352 N 
ATOM     27  C   UNL A   1      41.769  19.352  26.126  1.00  0.00     0.251 C 
ATOM     28  H   UNL A   1      40.016  18.399  26.010  1.00  0.00     0.163 HD
ATOM     29  O   UNL A   1      42.423  18.328  25.970  1.00  0.00    -0.269 OA
BRANCH  27  30
ATOM     30  C   UNL A   1      42.446  20.634  26.413  1.00  0.00     0.039 A 
ATOM     31  C   UNL A   1      42.597  21.068  27.728  1.00  0.00     0.014 A 
ATOM     32  C   UNL A   1      42.941  21.410  25.361  1.00  0.00     0.014 A 
ATOM     33  C   UNL A   1      43.039  22.358  27.979  1.00  0.00     0.010 A 
ATOM     34  C   UNL A   1      43.503  22.664  25.627  1.00  0.00     0.010 A 
ATOM     35  C   UNL A   1      43.507  23.172  26.935  1.00  0.00    -0.014 A 
BRANCH  35  36
ATOM     36  C   UNL A   1      43.996  24.538  27.260  1.00  0.00     0.031 A 
ATOM     37  C   UNL A   1      45.426  24.931  27.001  1.00  0.00     0.074 A 
ATOM     38  C   UNL A   1      43.111  25.453  27.705  1.00  0.00     0.049 A 
ATOM     39  N   UNL A   1      45.998  26.096  27.163  1.00  0.00    -0.248 NA
ATOM     40  C   UNL A   1      46.334  23.887  26.501  1.00  0.00     0.031 C 
ATOM     41  C   UNL A   1      41.697  25.185  27.987  1.00  0.00     0.029 A 
ATOM     42  N   UNL A   1      43.246  26.794  27.952  1.00  0.00    -0.354 N 
ATOM     43  C   UNL A   1      47.331  25.922  26.808  1.00  0.00     0.074 A 
ATOM     44  C   UNL A   1      47.492  24.531  26.448  1.00  0.00     0.031 C 
ATOM     45  C   UNL A   1      41.079  26.338  28.279  1.00  0.00     0.029 A 
ATOM     46  C   UNL A   1      42.064  27.413  28.286  1.00  0.00     0.049 A 
ATOM     47  H   UNL A   1      44.106  27.269  27.894  1.00  0.00     0.167 HD
ATOM     48  C   UNL A   1      48.325  26.843  26.773  1.00  0.00     0.037 A 
ATOM     49  C   UNL A   1      41.798  28.701  28.574  1.00  0.00     0.037 A 
ATOM     50  C   UNL A   1      48.147  28.233  27.105  1.00  0.00     0.049 A 
ATOM     51  C   UNL A   1      42.922  29.695  28.555  1.00  0.00     0.074 A 
ATOM     52  C   UNL A   1      49.088  29.248  27.089  1.00  0.00     0.029 A 
ATOM     53  N   UNL A   1      46.950  28.806  27.509  1.00  0.00    -0.354 N 
ATOM     54  N   UNL A   1      44.177  29.507  28.225  1.00  0.00    -0.248 NA
ATOM     55  C   UNL A   1      42.602  31.068  28.964  1.00  0.00     0.031 C 
ATOM     56  C   UNL A   1      48.468  30.426  27.518  1.00  0.00     0.029 A 
ATOM     57  C   UNL A   1      47.131  30.155  27.761  1.00  0.00     0.049 A 
ATOM     58  H   UNL A   1      46.096  28.324  27.601  1.00  0.00     0.167 HD
ATOM     59  C   UNL A   1      44.799  30.738  28.386  1.00  0.00     0.074 A 
ATOM     60  C   UNL A   1      43.777  31.669  28.820  1.00  0.00     0.031 C 
ATOM     61  C   UNL A   1      46.101  31.065  28.197  1.00  0.00     0.037 A 
BRANCH  48  62
ATOM     62  C   UNL A   1      49.698  26.378  26.372  1.00  0.00     0.058 A 
ATOM     63  C   UNL A   1      50.162  26.501  25.053  1.00  0.00     0.135 A 
ATOM     64  C   UNL A   1      50.579  25.847  27.328  1.00  0.00     0.135 A 
ATOM     65  F   UNL A   1      49.357  26.987  24.094  1.00  0.00    -0.206 F 
ATOM     66  C   UNL A   1      51.443  26.094  24.692  1.00  0.00     0.059 A 
ATOM     67  C   UNL A   1      51.873  25.455  26.994  1.00  0.00     0.059 A 
ATOM     68  F   UNL A   1      50.187  25.707  28.604  1.00  0.00    -0.206 F 
ATOM     69  C   UNL A   1      52.292  25.571  25.670  1.00  0.00     0.060 A 
BRANCH  69  70
ATOM     70  S   UNL A   1      53.950  25.050  25.182  1.00  0.00     0.124 S 
ATOM     71  O   UNL A   1      54.713  25.341  26.391  1.00  0.00    -0.237 OA
ATOM     72  O   UNL A   1      53.756  23.636  24.880  1.00  0.00    -0.237 OA
ATOM     73  O   UNL A   1      54.250  25.898  24.033  1.00  0.00    -0.744 OA
ENDBRANCH  69  70
ENDBRANCH  48  62
BRANCH  49  74
ATOM     74  C   UNL A   1      40.407  29.107  28.902  1.00  0.00     0.058 A 
ATOM     75  C   UNL A   1      39.993  29.259  30.232  1.00  0.00     0.135 A 
ATOM     76  C   UNL A   1      39.481  29.412  27.890  1.00  0.00     0.135 A 
ATOM     77  F   UNL A   1      40.839  28.973  31.234  1.00  0.00    -0.206 F 
ATOM     78  C   UNL A   1      38.714  29.703  30.551  1.00  0.00     0.059 A 
ATOM     79  C   UNL A   1      38.206  29.884  28.182  1.00  0.00     0.059 A 
ATOM     80  F   UNL A   1      39.834  29.298  26.600  1.00  0.00    -0.206 F 
ATOM     81  C   UNL A   1      37.830  30.023  29.517  1.00  0.00     0.060 A 
BRANCH  81  82
ATOM     82  S   UNL A   1      36.201  30.678  29.940  1.00  0.00     0.124 S 
ATOM     83  O   UNL A   1      35.898  29.942  31.161  1.00  0.00    -0.237 OA
ATOM     84  O   UNL A   1      36.479  32.102  30.104  1.00  0.00    -0.237 OA
ATOM     85  O   UNL A   1      35.390  30.335  28.776  1.00  0.00    -0.744 OA
ENDBRANCH  81  82
ENDBRANCH  49  74
BRANCH  61  86
ATOM     86  C   UNL A   1      46.499  32.488  28.458  1.00  0.00     0.058 A 
ATOM     87  C   UNL A   1      46.976  32.894  29.712  1.00  0.00     0.135 A 
ATOM     88  C   UNL A   1      46.476  33.436  27.422  1.00  0.00     0.135 A 
ATOM     89  F   UNL A   1      47.007  32.028  30.737  1.00  0.00    -0.206 F 
ATOM     90  C   UNL A   1      47.413  34.195  29.934  1.00  0.00     0.059 A 
ATOM     91  C   UNL A   1      46.929  34.737  27.615  1.00  0.00     0.059 A 
ATOM     92  F   UNL A   1      46.033  33.092  26.201  1.00  0.00    -0.206 F 
ATOM     93  C   UNL A   1      47.392  35.108  28.877  1.00  0.00     0.060 A 
BRANCH  93  94
ATOM     94  S   UNL A   1      48.018  36.776  29.166  1.00  0.00     0.124 S 
ATOM     95  O   UNL A   1      48.731  36.608  30.428  1.00  0.00    -0.237 OA
ATOM     96  O   UNL A   1      48.853  37.003  27.991  1.00  0.00    -0.237 OA
ATOM     97  O   UNL A   1      46.805  37.587  29.233  1.00  0.00    -0.744 OA
ENDBRANCH  93  94
ENDBRANCH  61  86
ENDBRANCH  35  36
ENDBRANCH  27  30
ENDBRANCH  25  26
ENDBRANCH   1  25
TORSDOF 16
ENDMDL
MODEL 2
REMARK VINA RESULT:     -11.9      6.015      8.122
REMARK SMILES CCCc1cc2c(cc1Cl)C=C(C(=O)NCCCNC(=O)c1ccc(-c3c4nc(c(-c5c(F)cc(S(=O)(=O)[O-])cc5F)c5ccc([nH]5)c(-c5c(F)cc(S(=O)(=O)[O-])cc5F)c5nc(c(-c6c(F)cc(S(=O)(=O)[O-])cc6F)c6ccc3[nH]6)C=C5)C=C4)cc1)[C@@H](C(F)(F)F)O2
REMARK SMILES IDX 17 1 16 2 15 3 13 4 14 5 12 7 4 8 5 9 9 10 6 11 8 12 10 13
REMARK SMILES IDX 7 14 93 15 11 16 88 17 3 18 2 19 1 20 89 21 90 22 91 23
REMARK SMILES IDX 92 24 18 25 19 26 20 27 21 29 22 30 23 31 87 32 24 33 86 34
REMARK SMILES IDX 25 35 26 36 27 37 80 38 28 39 85 40 79 41 81 42 29 43 84 44
REMARK SMILES IDX 78 45 77 46 30 48 64 49 43 50 63 51 44 52 47 53 62 54 82 55
REMARK SMILES IDX 45 56 46 57 61 59 83 60 48 61 31 62 32 63 41 64 33 65 34 66
REMARK SMILES IDX 40 67 42 68 35 69 36 70 37 71 38 72 39 73 65 74 66 75 75 76
REMARK SMILES IDX 67 77 68 78 74 79 76 80 69 81 70 82 71 83 72 84 73 85 49 86
REMARK SMILES IDX 50 87 59 88 51 89 52 90 58 91 60 92 53 93 54 94 55 95 56 96
REMARK SMILES IDX 57 97
REMARK H PARENT 15 6 19 28 81 47 47 58
REMARK Flexibility Score: inf
ROOT
ATOM      1  C   UNL A   1      39.155  21.847  26.237  1.00  0.00     0.042 C 
ENDROOT
BRANCH   1   2
ATOM      2  C   UNL A   1      37.913  22.178  25.425  1.00  0.00     0.118 C 
BRANCH   2   3
ATOM      3  N   UNL A   1      36.690  21.759  26.094  1.00  0.00    -0.352 N 
ATOM      4  C   UNL A   1      35.384  22.109  26.078  1.00  0.00     0.251 C 
ATOM      5  O   UNL A   1      34.656  21.455  26.833  1.00  0.00    -0.270 OA
ATOM      6  H   UNL A   1      36.859  21.026  26.729  1.00  0.00     0.163 HD
BRANCH   4   7
ATOM      7  C   UNL A   1      34.792  23.187  25.233  1.00  0.00     0.067 C 
ATOM      8  C   UNL A   1      33.048  27.670  23.644  1.00  0.00    -0.026 A 
ATOM      9  C   UNL A   1      33.243  26.412  23.045  1.00  0.00     0.052 A 
ATOM     10  C   UNL A   1      33.410  27.823  24.992  1.00  0.00     0.045 A 
ATOM     11  C   UNL A   1      33.777  25.346  23.768  1.00  0.00     0.128 A 
ATOM     12  C   UNL A   1      33.921  26.742  25.721  1.00  0.00     0.032 A 
ATOM     13  Cl  UNL A   1      33.286  29.337  25.815  1.00  0.00    -0.084 Cl
ATOM     14  C   UNL A   1      34.108  25.500  25.109  1.00  0.00     0.019 A 
ATOM     15  O   UNL A   1      33.990  24.195  23.072  1.00  0.00    -0.475 OA
ATOM     16  C   UNL A   1      34.683  24.383  25.840  1.00  0.00     0.025 C 
ATOM     17  C   UNL A   1      34.310  22.990  23.822  1.00  0.00     0.314 C 
BRANCH   8  18
ATOM     18  C   UNL A   1      32.469  28.781  22.797  1.00  0.00     0.037 C 
BRANCH  18  19
ATOM     19  C   UNL A   1      31.028  29.157  23.159  1.00  0.00     0.001 C 
ATOM     20  C   UNL A   1      29.980  28.233  22.554  1.00  0.00     0.004 C 
ENDBRANCH  18  19
ENDBRANCH   8  18
BRANCH  17  21
ATOM     21  C   UNL A   1      33.096  22.047  23.720  1.00  0.00     0.429 C 
ATOM     22  F   UNL A   1      32.190  22.337  24.688  1.00  0.00    -0.167 F 
ATOM     23  F   UNL A   1      32.440  22.146  22.541  1.00  0.00    -0.167 F 
ATOM     24  F   UNL A   1      33.441  20.747  23.866  1.00  0.00    -0.167 F 
ENDBRANCH  17  21
ENDBRANCH   4   7
ENDBRANCH   2   3
ENDBRANCH   1   2
BRANCH   1  25
ATOM     25  C   UNL A   1      39.774  23.075  26.891  1.00  0.00     0.118 C 
BRANCH  25  26
ATOM     26  N   UNL A   1      40.918  23.589  26.141  1.00  0.00    -0.352 N 
ATOM     27  C   UNL A   1      41.526  24.823  26.165  1.00  0.00     0.251 C 
ATOM     28  H   UNL A   1      41.319  22.945  25.514  1.00  0.00     0.163 HD
ATOM     29  O   UNL A   1      42.327  25.120  25.287  1.00  0.00    -0.269 OA
BRANCH  27  30
ATOM     30  C   UNL A   1      41.201  25.787  27.236  1.00  0.00     0.039 A 
ATOM     31  C   UNL A   1      41.975  26.932  27.409  1.00  0.00     0.014 A 
ATOM     32  C   UNL A   1      40.110  25.550  28.077  1.00  0.00     0.014 A 
ATOM     33  C   UNL A   1      41.798  27.718  28.537  1.00  0.00     0.010 A 
ATOM     34  C   UNL A   1      39.855  26.417  29.146  1.00  0.00     0.010 A 
ATOM     35  C   UNL A   1      40.732  27.479  29.417  1.00  0.00    -0.014 A 
BRANCH  35  36
ATOM     36  C   UNL A   1      40.569  28.368  30.598  1.00  0.00     0.031 A 
ATOM     37  C   UNL A   1      41.539  28.315  31.748  1.00  0.00     0.074 A 
ATOM     38  C   UNL A   1      39.587  29.294  30.580  1.00  0.00     0.049 A 
ATOM     39  N   UNL A   1      41.581  29.064  32.820  1.00  0.00    -0.248 NA
ATOM     40  C   UNL A   1      42.594  27.292  31.695  1.00  0.00     0.031 C 
ATOM     41  C   UNL A   1      38.592  29.441  29.514  1.00  0.00     0.029 A 
ATOM     42  N   UNL A   1      39.291  30.312  31.448  1.00  0.00    -0.354 N 
ATOM     43  C   UNL A   1      42.648  28.591  33.577  1.00  0.00     0.074 A 
ATOM     44  C   UNL A   1      43.211  27.471  32.856  1.00  0.00     0.031 C 
ATOM     45  C   UNL A   1      37.856  30.537  29.745  1.00  0.00     0.029 A 
ATOM     46  C   UNL A   1      38.270  31.125  31.013  1.00  0.00     0.049 A 
ATOM     47  H   UNL A   1      39.764  30.449  32.300  1.00  0.00     0.167 HD
ATOM     48  C   UNL A   1      43.121  29.058  34.757  1.00  0.00     0.037 A 
ATOM     49  C   UNL A   1      37.720  32.219  31.573  1.00  0.00     0.037 A 
ATOM     50  C   UNL A   1      42.572  30.194  35.452  1.00  0.00     0.049 A 
ATOM     51  C   UNL A   1      38.244  32.698  32.894  1.00  0.00     0.074 A 
ATOM     52  C   UNL A   1      42.988  30.753  36.648  1.00  0.00     0.029 A 
ATOM     53  N   UNL A   1      41.491  30.946  35.015  1.00  0.00    -0.354 N 
ATOM     54  N   UNL A   1      39.247  32.230  33.597  1.00  0.00    -0.248 NA
ATOM     55  C   UNL A   1      37.554  33.839  33.509  1.00  0.00     0.031 C 
ATOM     56  C   UNL A   1      42.135  31.820  36.951  1.00  0.00     0.029 A 
ATOM     57  C   UNL A   1      41.215  31.953  35.923  1.00  0.00     0.049 A 
ATOM     58  H   UNL A   1      40.994  30.787  34.179  1.00  0.00     0.167 HD
ATOM     59  C   UNL A   1      39.311  33.019  34.738  1.00  0.00     0.074 A 
ATOM     60  C   UNL A   1      38.259  34.009  34.620  1.00  0.00     0.031 C 
ATOM     61  C   UNL A   1      40.160  32.927  35.791  1.00  0.00     0.037 A 
BRANCH  48  62
ATOM     62  C   UNL A   1      44.285  28.338  35.381  1.00  0.00     0.058 A 
ATOM     63  C   UNL A   1      44.099  27.281  36.286  1.00  0.00     0.135 A 
ATOM     64  C   UNL A   1      45.602  28.677  35.034  1.00  0.00     0.135 A 
ATOM     65  F   UNL A   1      42.861  26.925  36.666  1.00  0.00    -0.206 F 
ATOM     66  C   UNL A   1      45.178  26.601  36.842  1.00  0.00     0.059 A 
ATOM     67  C   UNL A   1      46.697  27.994  35.559  1.00  0.00     0.059 A 
ATOM     68  F   UNL A   1      45.838  29.680  34.174  1.00  0.00    -0.206 F 
ATOM     69  C   UNL A   1      46.475  26.965  36.472  1.00  0.00     0.060 A 
BRANCH  69  70
ATOM     70  S   UNL A   1      47.862  26.069  37.201  1.00  0.00     0.124 S 
ATOM     71  O   UNL A   1      47.219  25.413  38.335  1.00  0.00    -0.237 OA
ATOM     72  O   UNL A   1      48.274  25.191  36.112  1.00  0.00    -0.237 OA
ATOM     73  O   UNL A   1      48.809  27.126  37.544  1.00  0.00    -0.744 OA
ENDBRANCH  69  70
ENDBRANCH  48  62
BRANCH  49  74
ATOM     74  C   UNL A   1      36.612  32.921  30.874  1.00  0.00     0.058 A 
ATOM     75  C   UNL A   1      35.285  32.780  31.300  1.00  0.00     0.135 A 
ATOM     76  C   UNL A   1      36.868  33.798  29.806  1.00  0.00     0.135 A 
ATOM     77  F   UNL A   1      34.989  31.949  32.312  1.00  0.00    -0.206 F 
ATOM     78  C   UNL A   1      34.248  33.485  30.696  1.00  0.00     0.059 A 
ATOM     79  C   UNL A   1      35.853  34.534  29.205  1.00  0.00     0.059 A 
ATOM     80  F   UNL A   1      38.125  33.979  29.372  1.00  0.00    -0.206 F 
ATOM     81  C   UNL A   1      34.545  34.368  29.655  1.00  0.00     0.060 A 
BRANCH  81  82
ATOM     82  S   UNL A   1      33.204  35.340  28.935  1.00  0.00     0.124 S 
ATOM     83  O   UNL A   1      32.499  35.795  30.127  1.00  0.00    -0.237 OA
ATOM     84  O   UNL A   1      33.935  36.364  28.194  1.00  0.00    -0.237 OA
ATOM     85  O   UNL A   1      32.491  34.369  28.111  1.00  0.00    -0.744 OA
ENDBRANCH  81  82
ENDBRANCH  49  74
BRANCH  61  86
ATOM     86  C   UNL A   1      39.990  33.921  36.902  1.00  0.00     0.058 A 
ATOM     87  C   UNL A   1      40.603  35.181  36.853  1.00  0.00     0.135 A 
ATOM     88  C   UNL A   1      39.146  33.639  37.988  1.00  0.00     0.135 A 
ATOM     89  F   UNL A   1      41.426  35.494  35.841  1.00  0.00    -0.206 F 
ATOM     90  C   UNL A   1      40.388  36.130  37.846  1.00  0.00     0.059 A 
ATOM     91  C   UNL A   1      38.899  34.581  38.982  1.00  0.00     0.059 A 
ATOM     92  F   UNL A   1      38.532  32.448  38.076  1.00  0.00    -0.206 F 
ATOM     93  C   UNL A   1      39.528  35.822  38.903  1.00  0.00     0.060 A 
BRANCH  93  94
ATOM     94  S   UNL A   1      39.215  37.086  40.154  1.00  0.00     0.124 S 
ATOM     95  O   UNL A   1      38.507  38.098  39.378  1.00  0.00    -0.237 OA
ATOM     96  O   UNL A   1      38.412  36.362  41.134  1.00  0.00    -0.237 OA
ATOM     97  O   UNL A   1      40.553  37.461  40.602  1.00  0.00    -0.744 OA
ENDBRANCH  93  94
ENDBRANCH  61  86
ENDBRANCH  35  36
ENDBRANCH  27  30
ENDBRANCH  25  26
ENDBRANCH   1  25
TORSDOF 16
ENDMDL
MODEL 3
REMARK VINA RESULT:     -11.9      2.814      8.839
REMARK SMILES CCCc1cc2c(cc1Cl)C=C(C(=O)NCCCNC(=O)c1ccc(-c3c4nc(c(-c5c(F)cc(S(=O)(=O)[O-])cc5F)c5ccc([nH]5)c(-c5c(F)cc(S(=O)(=O)[O-])cc5F)c5nc(c(-c6c(F)cc(S(=O)(=O)[O-])cc6F)c6ccc3[nH]6)C=C5)C=C4)cc1)[C@@H](C(F)(F)F)O2
REMARK SMILES IDX 17 1 16 2 15 3 13 4 14 5 12 7 4 8 5 9 9 10 6 11 8 12 10 13
REMARK SMILES IDX 7 14 93 15 11 16 88 17 3 18 2 19 1 20 89 21 90 22 91 23
REMARK SMILES IDX 92 24 18 25 19 26 20 27 21 29 22 30 23 31 87 32 24 33 86 34
REMARK SMILES IDX 25 35 26 36 27 37 80 38 28 39 85 40 79 41 81 42 29 43 84 44
REMARK SMILES IDX 78 45 77 46 30 48 64 49 43 50 63 51 44 52 47 53 62 54 82 55
REMARK SMILES IDX 45 56 46 57 61 59 83 60 48 61 31 62 32 63 41 64 33 65 34 66
REMARK SMILES IDX 40 67 42 68 35 69 36 70 37 71 38 72 39 73 65 74 66 75 75 76
REMARK SMILES IDX 67 77 68 78 74 79 76 80 69 81 70 82 71 83 72 84 73 85 49 86
REMARK SMILES IDX 50 87 59 88 51 89 52 90 58 91 60 92 53 93 54 94 55 95 56 96
REMARK SMILES IDX 57 97
REMARK H PARENT 15 6 19 28 81 47 47 58
REMARK Flexibility Score: inf
ROOT
ATOM      1  C   UNL A   1      34.367  31.072  27.646  1.00  0.00     0.042 C 
ENDROOT
BRANCH   1   2
ATOM      2  C   UNL A   1      33.230  30.190  27.159  1.00  0.00     0.118 C 
BRANCH   2   3
ATOM      3  N   UNL A   1      33.262  29.995  25.717  1.00  0.00    -0.352 N 
ATOM      4  C   UNL A   1      33.142  28.961  24.855  1.00  0.00     0.251 C 
ATOM      5  O   UNL A   1      33.228  29.261  23.659  1.00  0.00    -0.270 OA
ATOM      6  H   UNL A   1      33.412  30.845  25.242  1.00  0.00     0.163 HD
BRANCH   4   7
ATOM      7  C   UNL A   1      32.915  27.538  25.243  1.00  0.00     0.067 C 
ATOM      8  C   UNL A   1      33.664  22.642  26.310  1.00  0.00    -0.026 A 
ATOM      9  C   UNL A   1      32.564  23.516  26.382  1.00  0.00     0.052 A 
ATOM     10  C   UNL A   1      34.892  23.161  25.869  1.00  0.00     0.045 A 
ATOM     11  C   UNL A   1      32.687  24.859  26.023  1.00  0.00     0.128 A 
ATOM     12  C   UNL A   1      35.003  24.503  25.483  1.00  0.00     0.032 A 
ATOM     13  Cl  UNL A   1      36.330  22.205  25.808  1.00  0.00    -0.084 Cl
ATOM     14  C   UNL A   1      33.900  25.356  25.561  1.00  0.00     0.019 A 
ATOM     15  O   UNL A   1      31.580  25.631  26.198  1.00  0.00    -0.475 OA
ATOM     16  C   UNL A   1      34.014  26.762  25.211  1.00  0.00     0.025 C 
ATOM     17  C   UNL A   1      31.575  26.965  25.616  1.00  0.00     0.314 C 
BRANCH   8  18
ATOM     18  C   UNL A   1      33.458  21.202  26.721  1.00  0.00     0.037 C 
BRANCH  18  19
ATOM     19  C   UNL A   1      33.538  20.203  25.561  1.00  0.00     0.001 C 
ATOM     20  C   UNL A   1      32.446  20.382  24.517  1.00  0.00     0.004 C 
ENDBRANCH  18  19
ENDBRANCH   8  18
BRANCH  17  21
ATOM     21  C   UNL A   1      30.571  26.955  24.447  1.00  0.00     0.429 C 
ATOM     22  F   UNL A   1      29.513  26.158  24.741  1.00  0.00    -0.167 F 
ATOM     23  F   UNL A   1      30.062  28.178  24.171  1.00  0.00    -0.167 F 
ATOM     24  F   UNL A   1      31.120  26.493  23.301  1.00  0.00    -0.167 F 
ENDBRANCH  17  21
ENDBRANCH   4   7
ENDBRANCH   2   3
ENDBRANCH   1   2
BRANCH   1  25
ATOM     25  C   UNL A   1      35.509  30.273  28.261  1.00  0.00     0.118 C 
BRANCH  25  26
ATOM     26  N   UNL A   1      35.526  30.360  29.720  1.00  0.00    -0.352 N 
ATOM     27  C   UNL A   1      36.533  30.104  30.623  1.00  0.00     0.251 C 
ATOM     28  H   UNL A   1      34.676  30.648  30.123  1.00  0.00     0.163 HD
ATOM     29  O   UNL A   1      36.268  30.015  31.816  1.00  0.00    -0.269 OA
BRANCH  27  30
ATOM     30  C   UNL A   1      37.922  29.923  30.151  1.00  0.00     0.039 A 
ATOM     31  C   UNL A   1      38.266  30.246  28.841  1.00  0.00     0.014 A 
ATOM     32  C   UNL A   1      38.894  29.429  31.026  1.00  0.00     0.014 A 
ATOM     33  C   UNL A   1      39.507  29.879  28.346  1.00  0.00     0.010 A 
ATOM     34  C   UNL A   1      40.188  29.176  30.555  1.00  0.00     0.010 A 
ATOM     35  C   UNL A   1      40.489  29.348  29.196  1.00  0.00    -0.014 A 
BRANCH  35  36
ATOM     36  C   UNL A   1      41.815  28.996  28.621  1.00  0.00     0.031 A 
ATOM     37  C   UNL A   1      42.951  29.983  28.632  1.00  0.00     0.074 A 
ATOM     38  C   UNL A   1      42.013  27.739  28.173  1.00  0.00     0.049 A 
ATOM     39  N   UNL A   1      44.187  29.817  28.235  1.00  0.00    -0.248 NA
ATOM     40  C   UNL A   1      42.670  31.332  29.149  1.00  0.00     0.031 C 
ATOM     41  C   UNL A   1      40.984  26.695  28.121  1.00  0.00     0.029 A 
ATOM     42  N   UNL A   1      43.144  27.108  27.726  1.00  0.00    -0.354 N 
ATOM     43  C   UNL A   1      44.822  31.038  28.432  1.00  0.00     0.074 A 
ATOM     44  C   UNL A   1      43.829  31.948  28.959  1.00  0.00     0.031 C 
ATOM     45  C   UNL A   1      41.550  25.536  27.754  1.00  0.00     0.029 A 
ATOM     46  C   UNL A   1      42.960  25.769  27.467  1.00  0.00     0.049 A 
ATOM     47  H   UNL A   1      44.006  27.568  27.603  1.00  0.00     0.167 HD
ATOM     48  C   UNL A   1      46.117  31.364  28.207  1.00  0.00     0.037 A 
ATOM     49  C   UNL A   1      43.826  24.831  27.040  1.00  0.00     0.037 A 
ATOM     50  C   UNL A   1      47.106  30.442  27.710  1.00  0.00     0.049 A 
ATOM     51  C   UNL A   1      45.248  25.225  26.772  1.00  0.00     0.074 A 
ATOM     52  C   UNL A   1      48.448  30.672  27.460  1.00  0.00     0.029 A 
ATOM     53  N   UNL A   1      46.863  29.113  27.392  1.00  0.00    -0.354 N 
ATOM     54  N   UNL A   1      45.825  26.388  26.956  1.00  0.00    -0.248 NA
ATOM     55  C   UNL A   1      46.132  24.191  26.221  1.00  0.00     0.031 C 
ATOM     56  C   UNL A   1      49.007  29.493  26.956  1.00  0.00     0.029 A 
ATOM     57  C   UNL A   1      48.024  28.516  26.932  1.00  0.00     0.049 A 
ATOM     58  H   UNL A   1      45.992  28.662  27.481  1.00  0.00     0.167 HD
ATOM     59  C   UNL A   1      47.141  26.227  26.544  1.00  0.00     0.074 A 
ATOM     60  C   UNL A   1      47.282  24.847  26.124  1.00  0.00     0.031 C 
ATOM     61  C   UNL A   1      48.142  27.141  26.512  1.00  0.00     0.037 A 
BRANCH  48  62
ATOM     62  C   UNL A   1      46.543  32.780  28.484  1.00  0.00     0.058 A 
ATOM     63  C   UNL A   1      47.039  33.168  29.739  1.00  0.00     0.135 A 
ATOM     64  C   UNL A   1      46.500  33.749  27.470  1.00  0.00     0.135 A 
ATOM     65  F   UNL A   1      47.088  32.286  30.750  1.00  0.00    -0.206 F 
ATOM     66  C   UNL A   1      47.456  34.473  29.984  1.00  0.00     0.059 A 
ATOM     67  C   UNL A   1      46.934  35.055  27.685  1.00  0.00     0.059 A 
ATOM     68  F   UNL A   1      46.034  33.433  26.251  1.00  0.00    -0.206 F 
ATOM     69  C   UNL A   1      47.399  35.410  28.950  1.00  0.00     0.060 A 
BRANCH  69  70
ATOM     70  S   UNL A   1      47.947  37.098  29.287  1.00  0.00     0.124 S 
ATOM     71  O   UNL A   1      47.827  37.157  30.740  1.00  0.00    -0.237 OA
ATOM     72  O   UNL A   1      49.308  37.094  28.764  1.00  0.00    -0.237 OA
ATOM     73  O   UNL A   1      46.995  37.920  28.546  1.00  0.00    -0.744 OA
ENDBRANCH  69  70
ENDBRANCH  48  62
BRANCH  49  74
ATOM     74  C   UNL A   1      43.356  23.435  26.845  1.00  0.00     0.058 A 
ATOM     75  C   UNL A   1      43.161  22.912  25.559  1.00  0.00     0.135 A 
ATOM     76  C   UNL A   1      43.153  22.577  27.939  1.00  0.00     0.135 A 
ATOM     77  F   UNL A   1      43.336  23.694  24.483  1.00  0.00    -0.206 F 
ATOM     78  C   UNL A   1      42.786  21.586  25.362  1.00  0.00     0.059 A 
ATOM     79  C   UNL A   1      42.805  21.242  27.767  1.00  0.00     0.059 A 
ATOM     80  F   UNL A   1      43.341  23.026  29.189  1.00  0.00    -0.206 F 
ATOM     81  C   UNL A   1      42.620  20.756  26.473  1.00  0.00     0.060 A 
BRANCH  81  82
ATOM     82  S   UNL A   1      42.216  19.017  26.204  1.00  0.00     0.124 S 
ATOM     83  O   UNL A   1      43.206  18.637  25.203  1.00  0.00    -0.237 OA
ATOM     84  O   UNL A   1      42.403  18.450  27.536  1.00  0.00    -0.237 OA
ATOM     85  O   UNL A   1      40.832  19.063  25.738  1.00  0.00    -0.744 OA
ENDBRANCH  81  82
ENDBRANCH  49  74
BRANCH  61  86
ATOM     86  C   UNL A   1      49.478  26.684  26.005  1.00  0.00     0.058 A 
ATOM     87  C   UNL A   1      49.895  26.961  24.696  1.00  0.00     0.135 A 
ATOM     88  C   UNL A   1      50.380  26.030  26.861  1.00  0.00     0.135 A 
ATOM     89  F   UNL A   1      49.066  27.575  23.837  1.00  0.00    -0.206 F 
ATOM     90  C   UNL A   1      51.162  26.602  24.248  1.00  0.00     0.059 A 
ATOM     91  C   UNL A   1      51.659  25.681  26.441  1.00  0.00     0.059 A 
ATOM     92  F   UNL A   1      50.027  25.749  28.126  1.00  0.00    -0.206 F 
ATOM     93  C   UNL A   1      52.039  25.968  25.131  1.00  0.00     0.060 A 
BRANCH  93  94
ATOM     94  S   UNL A   1      53.699  25.561  24.551  1.00  0.00     0.124 S 
ATOM     95  O   UNL A   1      53.623  25.948  23.146  1.00  0.00    -0.237 OA
ATOM     96  O   UNL A   1      54.539  26.403  25.396  1.00  0.00    -0.237 OA
ATOM     97  O   UNL A   1      53.805  24.127  24.803  1.00  0.00    -0.744 OA
ENDBRANCH  93  94
ENDBRANCH  61  86
ENDBRANCH  35  36
ENDBRANCH  27  30
ENDBRANCH  25  26
ENDBRANCH   1  25
TORSDOF 16
ENDMDL
