MODEL 1
REMARK VINA RESULT:     -12.0      0.000      0.000
REMARK SMILES O=C(CCN1C(=O)S/C(=C\c2ccc(F)cc2)C1=O)Nc1ccc(O)cc1C(=O)NCCCNC(=O)c1ccc(-c2c3nc(c(-c4c(F)cc(S(=O)(=O)[O-])cc4F)c4ccc([nH]4)c(-c4c(F)cc(S(=O)(=O)[O-])cc4F)c4nc(c(-c5c(F)cc(S(=O)(=O)[O-])cc5F)c5ccc2[nH]5)C=C4)C=C3)cc1
REMARK SMILES IDX 31 1 30 2 28 3 29 4 27 6 21 7 22 8 23 9 26 10 24 11 20 12
REMARK SMILES IDX 1 13 2 14 3 16 4 17 5 18 6 19 18 20 7 21 8 22 9 23 19 24
REMARK SMILES IDX 10 25 11 26 12 27 17 28 13 29 16 30 14 31 15 32 25 33 32 35
REMARK SMILES IDX 33 36 34 37 35 38 36 40 37 41 38 42 102 43 39 44 101 45
REMARK SMILES IDX 40 46 41 47 42 48 95 49 43 50 100 51 94 52 96 53 44 54 99 55
REMARK SMILES IDX 93 56 92 57 45 59 79 60 58 61 78 62 59 63 62 64 77 65 97 66
REMARK SMILES IDX 60 67 61 68 76 70 98 71 63 72 46 73 47 74 56 75 48 76 49 77
REMARK SMILES IDX 55 78 57 79 50 80 51 81 52 82 53 83 54 84 80 85 81 86 90 87
REMARK SMILES IDX 82 88 83 89 89 90 91 91 84 92 85 93 86 94 87 95 88 96 64 97
REMARK SMILES IDX 65 98 74 99 66 100 67 101 73 102 75 103 68 104 69 105 70 106
REMARK SMILES IDX 71 107 72 108
REMARK H PARENT 30 5 20 15 25 34 34 39 96 58 62 69
REMARK Flexibility Score: inf
ROOT
ATOM      1  C   UNL A   1      32.016  27.933  27.528  1.00  0.00     0.118 C 
ENDROOT
BRANCH   1   2
ATOM      2  N   UNL A   1      30.968  26.963  27.263  1.00  0.00    -0.352 N 
ATOM      3  C   UNL A   1      30.565  26.412  26.055  1.00  0.00     0.253 C 
ATOM      4  O   UNL A   1      29.837  25.419  26.056  1.00  0.00    -0.269 OA
ATOM      5  H   UNL A   1      30.472  26.651  28.054  1.00  0.00     0.163 HD
BRANCH   3   6
ATOM      6  C   UNL A   1      30.936  26.986  24.731  1.00  0.00     0.067 A 
ATOM      7  C   UNL A   1      31.697  26.332  23.748  1.00  0.00     0.054 A 
ATOM      8  C   UNL A   1      32.060  27.030  22.581  1.00  0.00     0.031 A 
ATOM      9  C   UNL A   1      31.600  28.327  22.346  1.00  0.00     0.048 A 
ATOM     10  C   UNL A   1      30.444  28.278  24.466  1.00  0.00     0.062 A 
ATOM     11  C   UNL A   1      30.771  28.930  23.280  1.00  0.00     0.116 A 
BRANCH   7  12
ATOM     12  N   UNL A   1      32.002  24.955  23.852  1.00  0.00    -0.325 N 
ATOM     13  O   UNL A   1      30.063  24.162  22.890  1.00  0.00    -0.275 OA
ATOM     14  C   UNL A   1      31.142  23.955  23.444  1.00  0.00     0.226 C 
ATOM     15  H   UNL A   1      32.871  24.697  24.234  1.00  0.00     0.169 HD
BRANCH  14  16
ATOM     16  C   UNL A   1      31.603  22.538  23.720  1.00  0.00     0.122 C 
BRANCH  16  17
ATOM     17  C   UNL A   1      32.961  22.123  23.159  1.00  0.00     0.140 C 
BRANCH  17  18
ATOM     18  N   UNL A   1      34.133  22.286  24.023  1.00  0.00    -0.268 N 
ATOM     19  C   UNL A   1      34.420  21.440  25.063  1.00  0.00     0.293 C 
ATOM     20  C   UNL A   1      34.942  23.397  23.992  1.00  0.00     0.268 C 
ATOM     21  O   UNL A   1      34.208  20.252  25.158  1.00  0.00    -0.261 OA
ATOM     22  S   UNL A   1      35.307  22.251  26.309  1.00  0.00    -0.022 SA
ATOM     23  C   UNL A   1      35.944  23.274  25.090  1.00  0.00     0.083 C 
ATOM     24  O   UNL A   1      34.922  24.294  23.167  1.00  0.00    -0.268 OA
ATOM     25  C   UNL A   1      37.248  23.528  24.930  1.00  0.00     0.029 C 
BRANCH  25  26
ATOM     26  C   UNL A   1      38.211  22.853  25.815  1.00  0.00    -0.024 A 
ATOM     27  C   UNL A   1      38.923  23.632  26.745  1.00  0.00     0.011 A 
ATOM     28  C   UNL A   1      38.607  21.531  25.573  1.00  0.00     0.011 A 
ATOM     29  C   UNL A   1      40.002  23.085  27.441  1.00  0.00     0.040 A 
ATOM     30  C   UNL A   1      39.689  20.990  26.270  1.00  0.00     0.040 A 
ATOM     31  C   UNL A   1      40.370  21.767  27.202  1.00  0.00     0.123 A 
ATOM     32  F   UNL A   1      41.412  21.245  27.862  1.00  0.00    -0.207 F 
ENDBRANCH  25  26
ENDBRANCH  17  18
ENDBRANCH  16  17
ENDBRANCH  14  16
ENDBRANCH   7  12
BRANCH  11  33
ATOM     33  O   UNL A   1      30.255  30.174  23.068  1.00  0.00    -0.508 OA
ATOM     34  H   UNL A   1      30.764  30.934  23.274  1.00  0.00     0.293 HD
ENDBRANCH  11  33
ENDBRANCH   3   6
ENDBRANCH   1   2
BRANCH   1  35
ATOM     35  C   UNL A   1      33.284  27.959  26.664  1.00  0.00     0.042 C 
BRANCH  35  36
ATOM     36  C   UNL A   1      33.933  29.183  25.950  1.00  0.00     0.118 C 
BRANCH  36  37
ATOM     37  N   UNL A   1      33.941  30.517  26.534  1.00  0.00    -0.352 N 
ATOM     38  C   UNL A   1      34.742  31.108  27.504  1.00  0.00     0.251 C 
ATOM     39  H   UNL A   1      33.247  31.115  26.173  1.00  0.00     0.163 HD
ATOM     40  O   UNL A   1      34.472  32.195  28.004  1.00  0.00    -0.269 OA
BRANCH  38  41
ATOM     41  C   UNL A   1      35.944  30.416  27.968  1.00  0.00     0.039 A 
ATOM     42  C   UNL A   1      37.152  30.465  27.260  1.00  0.00     0.014 A 
ATOM     43  C   UNL A   1      35.833  29.719  29.161  1.00  0.00     0.014 A 
ATOM     44  C   UNL A   1      38.294  29.921  27.844  1.00  0.00     0.010 A 
ATOM     45  C   UNL A   1      36.979  29.322  29.799  1.00  0.00     0.010 A 
ATOM     46  C   UNL A   1      38.215  29.412  29.146  1.00  0.00    -0.014 A 
BRANCH  46  47
ATOM     47  C   UNL A   1      39.378  28.952  29.926  1.00  0.00     0.031 A 
ATOM     48  C   UNL A   1      39.713  29.694  31.187  1.00  0.00     0.074 A 
ATOM     49  C   UNL A   1      40.219  28.065  29.366  1.00  0.00     0.049 A 
ATOM     50  N   UNL A   1      40.830  29.716  31.857  1.00  0.00    -0.248 NA
ATOM     51  C   UNL A   1      38.680  30.612  31.710  1.00  0.00     0.031 C 
ATOM     52  C   UNL A   1      40.003  27.373  28.091  1.00  0.00     0.029 A 
ATOM     53  N   UNL A   1      41.448  27.623  29.774  1.00  0.00    -0.354 N 
ATOM     54  C   UNL A   1      40.649  30.674  32.847  1.00  0.00     0.074 A 
ATOM     55  C   UNL A   1      39.353  31.272  32.639  1.00  0.00     0.031 C 
ATOM     56  C   UNL A   1      41.052  26.576  27.836  1.00  0.00     0.029 A 
ATOM     57  C   UNL A   1      42.036  26.743  28.897  1.00  0.00     0.049 A 
ATOM     58  H   UNL A   1      41.872  27.910  30.616  1.00  0.00     0.167 HD
ATOM     59  C   UNL A   1      41.486  30.991  33.859  1.00  0.00     0.037 A 
ATOM     60  C   UNL A   1      43.243  26.150  28.950  1.00  0.00     0.037 A 
ATOM     61  C   UNL A   1      42.741  30.321  34.062  1.00  0.00     0.049 A 
ATOM     62  C   UNL A   1      44.128  26.468  30.122  1.00  0.00     0.074 A 
ATOM     63  C   UNL A   1      43.637  30.469  35.101  1.00  0.00     0.029 A 
ATOM     64  N   UNL A   1      43.264  29.358  33.207  1.00  0.00    -0.354 N 
ATOM     65  N   UNL A   1      43.919  27.319  31.100  1.00  0.00    -0.248 NA
ATOM     66  C   UNL A   1      45.403  25.749  30.209  1.00  0.00     0.031 C 
ATOM     67  C   UNL A   1      44.724  29.628  34.853  1.00  0.00     0.029 A 
ATOM     68  C   UNL A   1      44.480  28.912  33.688  1.00  0.00     0.049 A 
ATOM     69  H   UNL A   1      42.833  29.041  32.381  1.00  0.00     0.167 HD
ATOM     70  C   UNL A   1      45.025  27.222  31.934  1.00  0.00     0.074 A 
ATOM     71  C   UNL A   1      45.892  26.216  31.349  1.00  0.00     0.031 C 
ATOM     72  C   UNL A   1      45.304  27.900  33.075  1.00  0.00     0.037 A 
BRANCH  59  73
ATOM     73  C   UNL A   1      41.057  32.053  34.833  1.00  0.00     0.058 A 
ATOM     74  C   UNL A   1      41.434  33.391  34.647  1.00  0.00     0.135 A 
ATOM     75  C   UNL A   1      40.316  31.738  35.984  1.00  0.00     0.135 A 
ATOM     76  F   UNL A   1      42.126  33.755  33.556  1.00  0.00    -0.206 F 
ATOM     77  C   UNL A   1      41.115  34.374  35.580  1.00  0.00     0.059 A 
ATOM     78  C   UNL A   1      39.958  32.709  36.914  1.00  0.00     0.059 A 
ATOM     79  F   UNL A   1      39.902  30.478  36.200  1.00  0.00    -0.206 F 
ATOM     80  C   UNL A   1      40.381  34.021  36.713  1.00  0.00     0.060 A 
BRANCH  80  81
ATOM     81  S   UNL A   1      39.978  35.306  37.915  1.00  0.00     0.124 S 
ATOM     82  O   UNL A   1      39.995  36.506  37.088  1.00  0.00    -0.237 OA
ATOM     83  O   UNL A   1      38.666  34.877  38.391  1.00  0.00    -0.237 OA
ATOM     84  O   UNL A   1      41.056  35.202  38.895  1.00  0.00    -0.744 OA
ENDBRANCH  80  81
ENDBRANCH  59  73
BRANCH  60  85
ATOM     85  C   UNL A   1      43.630  25.166  27.904  1.00  0.00     0.058 A 
ATOM     86  C   UNL A   1      43.504  23.783  28.104  1.00  0.00     0.135 A 
ATOM     87  C   UNL A   1      44.208  25.599  26.701  1.00  0.00     0.135 A 
ATOM     88  F   UNL A   1      42.981  23.312  29.247  1.00  0.00    -0.206 F 
ATOM     89  C   UNL A   1      43.956  22.864  27.161  1.00  0.00     0.059 A 
ATOM     90  C   UNL A   1      44.644  24.702  25.730  1.00  0.00     0.059 A 
ATOM     91  F   UNL A   1      44.353  26.911  26.463  1.00  0.00    -0.206 F 
ATOM     92  C   UNL A   1      44.527  23.335  25.976  1.00  0.00     0.060 A 
BRANCH  92  93
ATOM     93  S   UNL A   1      45.120  22.128  24.771  1.00  0.00     0.124 S 
ATOM     94  O   UNL A   1      43.972  21.235  24.660  1.00  0.00    -0.237 OA
ATOM     95  O   UNL A   1      45.387  22.967  23.607  1.00  0.00    -0.237 OA
ATOM     96  O   UNL A   1      46.299  21.558  25.416  1.00  0.00    -0.744 OA
ENDBRANCH  92  93
ENDBRANCH  60  85
BRANCH  72  97
ATOM     97  C   UNL A   1      46.586  27.564  33.777  1.00  0.00     0.058 A 
ATOM     98  C   UNL A   1      46.598  26.603  34.801  1.00  0.00     0.135 A 
ATOM     99  C   UNL A   1      47.770  28.266  33.512  1.00  0.00     0.135 A 
ATOM    100  F   UNL A   1      45.485  25.914  35.100  1.00  0.00    -0.206 F 
ATOM    101  C   UNL A   1      47.737  26.370  35.559  1.00  0.00     0.059 A 
ATOM    102  C   UNL A   1      48.931  28.024  34.235  1.00  0.00     0.059 A 
ATOM    103  F   UNL A   1      47.805  29.186  32.536  1.00  0.00    -0.206 F 
ATOM    104  C   UNL A   1      48.900  27.089  35.269  1.00  0.00     0.060 A 
BRANCH 104 105
ATOM    105  S   UNL A   1      50.370  26.772  36.264  1.00  0.00     0.124 S 
ATOM    106  O   UNL A   1      50.675  28.102  36.779  1.00  0.00    -0.237 OA
ATOM    107  O   UNL A   1      49.873  25.809  37.243  1.00  0.00    -0.237 OA
ATOM    108  O   UNL A   1      51.323  26.237  35.297  1.00  0.00    -0.744 OA
ENDBRANCH 104 105
ENDBRANCH  72  97
ENDBRANCH  46  47
ENDBRANCH  38  41
ENDBRANCH  36  37
ENDBRANCH  35  36
ENDBRANCH   1  35
TORSDOF 19
ENDMDL
MODEL 2
REMARK VINA RESULT:     -11.6      4.653      9.007
REMARK SMILES O=C(CCN1C(=O)S/C(=C\c2ccc(F)cc2)C1=O)Nc1ccc(O)cc1C(=O)NCCCNC(=O)c1ccc(-c2c3nc(c(-c4c(F)cc(S(=O)(=O)[O-])cc4F)c4ccc([nH]4)c(-c4c(F)cc(S(=O)(=O)[O-])cc4F)c4nc(c(-c5c(F)cc(S(=O)(=O)[O-])cc5F)c5ccc2[nH]5)C=C4)C=C3)cc1
REMARK SMILES IDX 31 1 30 2 28 3 29 4 27 6 21 7 22 8 23 9 26 10 24 11 20 12
REMARK SMILES IDX 1 13 2 14 3 16 4 17 5 18 6 19 18 20 7 21 8 22 9 23 19 24
REMARK SMILES IDX 10 25 11 26 12 27 17 28 13 29 16 30 14 31 15 32 25 33 32 35
REMARK SMILES IDX 33 36 34 37 35 38 36 40 37 41 38 42 102 43 39 44 101 45
REMARK SMILES IDX 40 46 41 47 42 48 95 49 43 50 100 51 94 52 96 53 44 54 99 55
REMARK SMILES IDX 93 56 92 57 45 59 79 60 58 61 78 62 59 63 62 64 77 65 97 66
REMARK SMILES IDX 60 67 61 68 76 70 98 71 63 72 46 73 47 74 56 75 48 76 49 77
REMARK SMILES IDX 55 78 57 79 50 80 51 81 52 82 53 83 54 84 80 85 81 86 90 87
REMARK SMILES IDX 82 88 83 89 89 90 91 91 84 92 85 93 86 94 87 95 88 96 64 97
REMARK SMILES IDX 65 98 74 99 66 100 67 101 73 102 75 103 68 104 69 105 70 106
REMARK SMILES IDX 71 107 72 108
REMARK H PARENT 30 5 20 15 25 34 34 39 96 58 62 69
REMARK Flexibility Score: inf
ROOT
ATOM      1  C   UNL A   1      34.041  30.254  26.897  1.00  0.00     0.118 C 
ENDROOT
BRANCH   1   2
ATOM      2  N   UNL A   1      32.954  29.648  27.647  1.00  0.00    -0.352 N 
ATOM      3  C   UNL A   1      31.911  28.853  27.195  1.00  0.00     0.253 C 
ATOM      4  O   UNL A   1      31.236  28.221  28.009  1.00  0.00    -0.269 OA
ATOM      5  H   UNL A   1      32.958  29.828  28.615  1.00  0.00     0.163 HD
BRANCH   3   6
ATOM      6  C   UNL A   1      31.529  28.744  25.759  1.00  0.00     0.067 A 
ATOM      7  C   UNL A   1      31.727  27.613  24.950  1.00  0.00     0.054 A 
ATOM      8  C   UNL A   1      31.410  27.683  23.580  1.00  0.00     0.031 A 
ATOM      9  C   UNL A   1      30.817  28.824  23.036  1.00  0.00     0.048 A 
ATOM     10  C   UNL A   1      30.894  29.874  25.210  1.00  0.00     0.062 A 
ATOM     11  C   UNL A   1      30.538  29.902  23.864  1.00  0.00     0.116 A 
BRANCH   7  12
ATOM     12  N   UNL A   1      32.125  26.375  25.504  1.00  0.00    -0.325 N 
ATOM     13  O   UNL A   1      30.040  25.704  26.223  1.00  0.00    -0.275 OA
ATOM     14  C   UNL A   1      31.252  25.514  26.140  1.00  0.00     0.226 C 
ATOM     15  H   UNL A   1      33.071  26.114  25.434  1.00  0.00     0.169 HD
BRANCH  14  16
ATOM     16  C   UNL A   1      31.879  24.277  26.752  1.00  0.00     0.122 C 
BRANCH  16  17
ATOM     17  C   UNL A   1      33.239  23.843  26.213  1.00  0.00     0.140 C 
BRANCH  17  18
ATOM     18  N   UNL A   1      33.361  22.479  25.691  1.00  0.00    -0.268 N 
ATOM     19  C   UNL A   1      34.075  21.495  26.326  1.00  0.00     0.293 C 
ATOM     20  C   UNL A   1      32.936  22.113  24.435  1.00  0.00     0.268 C 
ATOM     21  O   UNL A   1      34.239  21.320  27.512  1.00  0.00    -0.261 OA
ATOM     22  S   UNL A   1      34.687  20.333  25.198  1.00  0.00    -0.022 SA
ATOM     23  C   UNL A   1      33.340  20.697  24.202  1.00  0.00     0.083 C 
ATOM     24  O   UNL A   1      32.266  22.781  23.666  1.00  0.00    -0.268 OA
ATOM     25  C   UNL A   1      32.524  19.774  23.678  1.00  0.00     0.029 C 
BRANCH  25  26
ATOM     26  C   UNL A   1      32.755  18.359  24.012  1.00  0.00    -0.024 A 
ATOM     27  C   UNL A   1      32.368  17.902  25.284  1.00  0.00     0.011 A 
ATOM     28  C   UNL A   1      33.567  17.553  23.205  1.00  0.00     0.011 A 
ATOM     29  C   UNL A   1      32.768  16.642  25.731  1.00  0.00     0.040 A 
ATOM     30  C   UNL A   1      33.968  16.294  23.657  1.00  0.00     0.040 A 
ATOM     31  C   UNL A   1      33.558  15.848  24.910  1.00  0.00     0.123 A 
ATOM     32  F   UNL A   1      33.953  14.642  25.341  1.00  0.00    -0.207 F 
ENDBRANCH  25  26
ENDBRANCH  17  18
ENDBRANCH  16  17
ENDBRANCH  14  16
ENDBRANCH   7  12
BRANCH  11  33
ATOM     33  O   UNL A   1      29.913  31.015  23.387  1.00  0.00    -0.508 OA
ATOM     34  H   UNL A   1      30.418  31.754  23.109  1.00  0.00     0.293 HD
ENDBRANCH  11  33
ENDBRANCH   3   6
ENDBRANCH   1   2
BRANCH   1  35
ATOM     35  C   UNL A   1      35.498  30.025  27.323  1.00  0.00     0.042 C 
BRANCH  35  36
ATOM     36  C   UNL A   1      36.020  29.356  28.630  1.00  0.00     0.118 C 
BRANCH  36  37
ATOM     37  N   UNL A   1      35.865  29.970  29.941  1.00  0.00    -0.352 N 
ATOM     38  C   UNL A   1      36.775  30.258  30.952  1.00  0.00     0.251 C 
ATOM     39  H   UNL A   1      34.939  30.230  30.154  1.00  0.00     0.163 HD
ATOM     40  O   UNL A   1      36.421  30.608  32.073  1.00  0.00    -0.269 OA
BRANCH  38  41
ATOM     41  C   UNL A   1      38.208  30.129  30.692  1.00  0.00     0.039 A 
ATOM     42  C   UNL A   1      39.042  29.334  31.490  1.00  0.00     0.014 A 
ATOM     43  C   UNL A   1      38.702  30.822  29.597  1.00  0.00     0.014 A 
ATOM     44  C   UNL A   1      40.360  29.129  31.087  1.00  0.00     0.010 A 
ATOM     45  C   UNL A   1      39.945  30.500  29.121  1.00  0.00     0.010 A 
ATOM     46  C   UNL A   1      40.786  29.658  29.862  1.00  0.00    -0.014 A 
BRANCH  46  47
ATOM     47  C   UNL A   1      42.101  29.383  29.256  1.00  0.00     0.031 A 
ATOM     48  C   UNL A   1      42.343  28.009  28.702  1.00  0.00     0.074 A 
ATOM     49  C   UNL A   1      43.093  30.273  29.437  1.00  0.00     0.049 A 
ATOM     50  N   UNL A   1      43.472  27.419  28.431  1.00  0.00    -0.248 NA
ATOM     51  C   UNL A   1      41.156  27.148  28.522  1.00  0.00     0.031 C 
ATOM     52  C   UNL A   1      42.949  31.595  30.056  1.00  0.00     0.029 A 
ATOM     53  N   UNL A   1      44.429  30.185  29.159  1.00  0.00    -0.354 N 
ATOM     54  C   UNL A   1      43.135  26.114  28.092  1.00  0.00     0.074 A 
ATOM     55  C   UNL A   1      41.711  25.973  28.274  1.00  0.00     0.031 C 
ATOM     56  C   UNL A   1      44.145  32.202  30.087  1.00  0.00     0.029 A 
ATOM     57  C   UNL A   1      45.146  31.294  29.542  1.00  0.00     0.049 A 
ATOM     58  H   UNL A   1      44.840  29.402  28.725  1.00  0.00     0.167 HD
ATOM     59  C   UNL A   1      43.949  25.139  27.633  1.00  0.00     0.037 A 
ATOM     60  C   UNL A   1      46.467  31.535  29.467  1.00  0.00     0.037 A 
ATOM     61  C   UNL A   1      45.353  25.347  27.406  1.00  0.00     0.049 A 
ATOM     62  C   UNL A   1      47.343  30.459  28.890  1.00  0.00     0.074 A 
ATOM     63  C   UNL A   1      46.272  24.481  26.849  1.00  0.00     0.029 A 
ATOM     64  N   UNL A   1      46.031  26.521  27.712  1.00  0.00    -0.354 N 
ATOM     65  N   UNL A   1      47.007  29.251  28.497  1.00  0.00    -0.248 NA
ATOM     66  C   UNL A   1      48.767  30.769  28.736  1.00  0.00     0.031 C 
ATOM     67  C   UNL A   1      47.517  25.115  26.859  1.00  0.00     0.029 A 
ATOM     68  C   UNL A   1      47.364  26.397  27.369  1.00  0.00     0.049 A 
ATOM     69  H   UNL A   1      45.624  27.321  28.115  1.00  0.00     0.167 HD
ATOM     70  C   UNL A   1      48.174  28.664  28.026  1.00  0.00     0.074 A 
ATOM     71  C   UNL A   1      49.221  29.659  28.171  1.00  0.00     0.031 C 
ATOM     72  C   UNL A   1      48.369  27.420  27.524  1.00  0.00     0.037 A 
BRANCH  59  73
ATOM     73  C   UNL A   1      43.345  23.802  27.304  1.00  0.00     0.058 A 
ATOM     74  C   UNL A   1      43.217  22.811  28.288  1.00  0.00     0.135 A 
ATOM     75  C   UNL A   1      42.940  23.480  25.997  1.00  0.00     0.135 A 
ATOM     76  F   UNL A   1      43.570  23.067  29.558  1.00  0.00    -0.206 F 
ATOM     77  C   UNL A   1      42.736  21.540  27.985  1.00  0.00     0.059 A 
ATOM     78  C   UNL A   1      42.425  22.227  25.678  1.00  0.00     0.059 A 
ATOM     79  F   UNL A   1      43.011  24.398  25.020  1.00  0.00    -0.206 F 
ATOM     80  C   UNL A   1      42.347  21.258  26.674  1.00  0.00     0.060 A 
BRANCH  80  81
ATOM     81  S   UNL A   1      41.728  19.605  26.296  1.00  0.00     0.124 S 
ATOM     82  O   UNL A   1      42.063  18.874  27.511  1.00  0.00    -0.237 OA
ATOM     83  O   UNL A   1      40.307  19.856  26.073  1.00  0.00    -0.237 OA
ATOM     84  O   UNL A   1      42.483  19.226  25.104  1.00  0.00    -0.744 OA
ENDBRANCH  80  81
ENDBRANCH  59  73
BRANCH  60  85
ATOM     85  C   UNL A   1      47.004  32.858  29.887  1.00  0.00     0.058 A 
ATOM     86  C   UNL A   1      47.115  33.931  28.989  1.00  0.00     0.135 A 
ATOM     87  C   UNL A   1      47.486  33.047  31.190  1.00  0.00     0.135 A 
ATOM     88  F   UNL A   1      46.692  33.797  27.722  1.00  0.00    -0.206 F 
ATOM     89  C   UNL A   1      47.705  35.135  29.362  1.00  0.00     0.059 A 
ATOM     90  C   UNL A   1      48.056  34.251  31.595  1.00  0.00     0.059 A 
ATOM     91  F   UNL A   1      47.405  32.051  32.085  1.00  0.00    -0.206 F 
ATOM     92  C   UNL A   1      48.175  35.285  30.668  1.00  0.00     0.060 A 
BRANCH  92  93
ATOM     93  S   UNL A   1      48.950  36.850  31.128  1.00  0.00     0.124 S 
ATOM     94  O   UNL A   1      49.112  37.490  29.827  1.00  0.00    -0.237 OA
ATOM     95  O   UNL A   1      47.944  37.441  32.005  1.00  0.00    -0.237 OA
ATOM     96  O   UNL A   1      50.186  36.435  31.783  1.00  0.00    -0.744 OA
ENDBRANCH  92  93
ENDBRANCH  60  85
BRANCH  72  97
ATOM     97  C   UNL A   1      49.756  27.070  27.074  1.00  0.00     0.058 A 
ATOM     98  C   UNL A   1      50.120  27.222  25.726  1.00  0.00     0.135 A 
ATOM     99  C   UNL A   1      50.682  26.487  27.950  1.00  0.00     0.135 A 
ATOM    100  F   UNL A   1      49.261  27.765  24.848  1.00  0.00    -0.206 F 
ATOM    101  C   UNL A   1      51.349  26.780  25.257  1.00  0.00     0.059 A 
ATOM    102  C   UNL A   1      51.931  26.069  27.508  1.00  0.00     0.059 A 
ATOM    103  F   UNL A   1      50.379  26.331  29.248  1.00  0.00    -0.206 F 
ATOM    104  C   UNL A   1      52.247  26.202  26.156  1.00  0.00     0.060 A 
BRANCH 104 105
ATOM    105  S   UNL A   1      53.839  25.635  25.526  1.00  0.00     0.124 S 
ATOM    106  O   UNL A   1      53.439  24.860  24.357  1.00  0.00    -0.237 OA
ATOM    107  O   UNL A   1      54.524  26.895  25.251  1.00  0.00    -0.237 OA
ATOM    108  O   UNL A   1      54.386  24.861  26.637  1.00  0.00    -0.744 OA
ENDBRANCH 104 105
ENDBRANCH  72  97
ENDBRANCH  46  47
ENDBRANCH  38  41
ENDBRANCH  36  37
ENDBRANCH  35  36
ENDBRANCH   1  35
TORSDOF 19
ENDMDL
MODEL 3
REMARK VINA RESULT:     -11.5      4.515      5.912
REMARK SMILES O=C(CCN1C(=O)S/C(=C\c2ccc(F)cc2)C1=O)Nc1ccc(O)cc1C(=O)NCCCNC(=O)c1ccc(-c2c3nc(c(-c4c(F)cc(S(=O)(=O)[O-])cc4F)c4ccc([nH]4)c(-c4c(F)cc(S(=O)(=O)[O-])cc4F)c4nc(c(-c5c(F)cc(S(=O)(=O)[O-])cc5F)c5ccc2[nH]5)C=C4)C=C3)cc1
REMARK SMILES IDX 31 1 30 2 28 3 29 4 27 6 21 7 22 8 23 9 26 10 24 11 20 12
REMARK SMILES IDX 1 13 2 14 3 16 4 17 5 18 6 19 18 20 7 21 8 22 9 23 19 24
REMARK SMILES IDX 10 25 11 26 12 27 17 28 13 29 16 30 14 31 15 32 25 33 32 35
REMARK SMILES IDX 33 36 34 37 35 38 36 40 37 41 38 42 102 43 39 44 101 45
REMARK SMILES IDX 40 46 41 47 42 48 95 49 43 50 100 51 94 52 96 53 44 54 99 55
REMARK SMILES IDX 93 56 92 57 45 59 79 60 58 61 78 62 59 63 62 64 77 65 97 66
REMARK SMILES IDX 60 67 61 68 76 70 98 71 63 72 46 73 47 74 56 75 48 76 49 77
REMARK SMILES IDX 55 78 57 79 50 80 51 81 52 82 53 83 54 84 80 85 81 86 90 87
REMARK SMILES IDX 82 88 83 89 89 90 91 91 84 92 85 93 86 94 87 95 88 96 64 97
REMARK SMILES IDX 65 98 74 99 66 100 67 101 73 102 75 103 68 104 69 105 70 106
REMARK SMILES IDX 71 107 72 108
REMARK H PARENT 30 5 20 15 25 34 34 39 96 58 62 69
REMARK Flexibility Score: inf
ROOT
ATOM      1  C   UNL A   1      33.067  29.390  26.347  1.00  0.00     0.118 C 
ENDROOT
BRANCH   1   2
ATOM      2  N   UNL A   1      32.248  28.194  26.447  1.00  0.00    -0.352 N 
ATOM      3  C   UNL A   1      31.384  27.639  25.514  1.00  0.00     0.253 C 
ATOM      4  O   UNL A   1      30.976  26.489  25.677  1.00  0.00    -0.269 OA
ATOM      5  H   UNL A   1      32.316  27.707  27.300  1.00  0.00     0.163 HD
BRANCH   3   6
ATOM      6  C   UNL A   1      30.882  28.381  24.323  1.00  0.00     0.067 A 
ATOM      7  C   UNL A   1      30.915  27.909  23.000  1.00  0.00     0.054 A 
ATOM      8  C   UNL A   1      30.498  28.757  21.957  1.00  0.00     0.031 A 
ATOM      9  C   UNL A   1      29.968  30.021  22.225  1.00  0.00     0.048 A 
ATOM     10  C   UNL A   1      30.308  29.639  24.586  1.00  0.00     0.062 A 
ATOM     11  C   UNL A   1      29.852  30.440  23.543  1.00  0.00     0.116 A 
BRANCH   7  12
ATOM     12  N   UNL A   1      31.243  26.566  22.708  1.00  0.00    -0.325 N 
ATOM     13  O   UNL A   1      33.476  26.913  22.251  1.00  0.00    -0.275 OA
ATOM     14  C   UNL A   1      32.504  26.161  22.316  1.00  0.00     0.226 C 
ATOM     15  H   UNL A   1      30.538  25.884  22.788  1.00  0.00     0.169 HD
BRANCH  14  16
ATOM     16  C   UNL A   1      32.642  24.695  21.957  1.00  0.00     0.122 C 
BRANCH  16  17
ATOM     17  C   UNL A   1      33.864  23.956  22.496  1.00  0.00     0.140 C 
BRANCH  17  18
ATOM     18  N   UNL A   1      33.646  22.650  23.125  1.00  0.00    -0.268 N 
ATOM     19  C   UNL A   1      32.598  21.828  22.800  1.00  0.00     0.293 C 
ATOM     20  C   UNL A   1      34.354  22.214  24.220  1.00  0.00     0.268 C 
ATOM     21  O   UNL A   1      32.050  21.681  21.731  1.00  0.00    -0.261 OA
ATOM     22  S   UNL A   1      32.146  20.824  24.136  1.00  0.00    -0.022 SA
ATOM     23  C   UNL A   1      33.776  20.913  24.660  1.00  0.00     0.083 C 
ATOM     24  O   UNL A   1      35.342  22.737  24.708  1.00  0.00    -0.268 OA
ATOM     25  C   UNL A   1      34.519  19.847  24.982  1.00  0.00     0.029 C 
BRANCH  25  26
ATOM     26  C   UNL A   1      33.930  18.507  24.831  1.00  0.00    -0.024 A 
ATOM     27  C   UNL A   1      32.911  18.122  25.721  1.00  0.00     0.011 A 
ATOM     28  C   UNL A   1      34.532  17.544  24.012  1.00  0.00     0.011 A 
ATOM     29  C   UNL A   1      32.483  16.794  25.769  1.00  0.00     0.040 A 
ATOM     30  C   UNL A   1      34.103  16.216  24.065  1.00  0.00     0.040 A 
ATOM     31  C   UNL A   1      33.079  15.856  24.935  1.00  0.00     0.123 A 
ATOM     32  F   UNL A   1      32.677  14.579  24.988  1.00  0.00    -0.207 F 
ENDBRANCH  25  26
ENDBRANCH  17  18
ENDBRANCH  16  17
ENDBRANCH  14  16
ENDBRANCH   7  12
BRANCH  11  33
ATOM     33  O   UNL A   1      29.291  31.643  23.854  1.00  0.00    -0.508 OA
ATOM     34  H   UNL A   1      28.721  31.718  24.594  1.00  0.00     0.293 HD
ENDBRANCH  11  33
ENDBRANCH   3   6
ENDBRANCH   1   2
BRANCH   1  35
ATOM     35  C   UNL A   1      34.406  29.476  27.091  1.00  0.00     0.042 C 
BRANCH  35  36
ATOM     36  C   UNL A   1      35.094  30.743  27.683  1.00  0.00     0.118 C 
BRANCH  36  37
ATOM     37  N   UNL A   1      35.173  30.996  29.114  1.00  0.00    -0.352 N 
ATOM     38  C   UNL A   1      36.090  30.606  30.083  1.00  0.00     0.251 C 
ATOM     39  H   UNL A   1      34.436  31.548  29.463  1.00  0.00     0.163 HD
ATOM     40  O   UNL A   1      35.883  30.762  31.282  1.00  0.00    -0.269 OA
BRANCH  38  41
ATOM     41  C   UNL A   1      37.344  29.972  29.678  1.00  0.00     0.039 A 
ATOM     42  C   UNL A   1      37.859  30.102  28.381  1.00  0.00     0.014 A 
ATOM     43  C   UNL A   1      38.012  29.247  30.652  1.00  0.00     0.014 A 
ATOM     44  C   UNL A   1      39.135  29.609  28.114  1.00  0.00     0.010 A 
ATOM     45  C   UNL A   1      39.319  28.900  30.432  1.00  0.00     0.010 A 
ATOM     46  C   UNL A   1      39.889  29.071  29.164  1.00  0.00    -0.014 A 
BRANCH  46  47
ATOM     47  C   UNL A   1      41.299  28.660  29.042  1.00  0.00     0.031 A 
ATOM     48  C   UNL A   1      42.349  29.731  29.114  1.00  0.00     0.074 A 
ATOM     49  C   UNL A   1      41.573  27.408  28.636  1.00  0.00     0.049 A 
ATOM     50  N   UNL A   1      43.589  29.695  28.717  1.00  0.00    -0.248 NA
ATOM     51  C   UNL A   1      41.915  31.052  29.613  1.00  0.00     0.031 C 
ATOM     52  C   UNL A   1      40.587  26.337  28.453  1.00  0.00     0.029 A 
ATOM     53  N   UNL A   1      42.756  26.832  28.262  1.00  0.00    -0.354 N 
ATOM     54  C   UNL A   1      44.066  30.990  28.876  1.00  0.00     0.074 A 
ATOM     55  C   UNL A   1      42.963  31.807  29.323  1.00  0.00     0.031 C 
ATOM     56  C   UNL A   1      41.212  25.229  28.024  1.00  0.00     0.029 A 
ATOM     57  C   UNL A   1      42.628  25.526  27.852  1.00  0.00     0.049 A 
ATOM     58  H   UNL A   1      43.618  27.308  28.284  1.00  0.00     0.167 HD
ATOM     59  C   UNL A   1      45.327  31.439  28.698  1.00  0.00     0.037 A 
ATOM     60  C   UNL A   1      43.557  24.675  27.380  1.00  0.00     0.037 A 
ATOM     61  C   UNL A   1      46.408  30.573  28.313  1.00  0.00     0.049 A 
ATOM     62  C   UNL A   1      44.968  25.179  27.254  1.00  0.00     0.074 A 
ATOM     63  C   UNL A   1      47.750  30.873  28.197  1.00  0.00     0.029 A 
ATOM     64  N   UNL A   1      46.261  29.227  28.001  1.00  0.00    -0.354 N 
ATOM     65  N   UNL A   1      45.430  26.388  27.481  1.00  0.00    -0.248 NA
ATOM     66  C   UNL A   1      45.983  24.216  26.819  1.00  0.00     0.031 C 
ATOM     67  C   UNL A   1      48.410  29.718  27.771  1.00  0.00     0.029 A 
ATOM     68  C   UNL A   1      47.489  28.683  27.677  1.00  0.00     0.049 A 
ATOM     69  H   UNL A   1      45.410  28.734  28.008  1.00  0.00     0.167 HD
ATOM     70  C   UNL A   1      46.795  26.325  27.240  1.00  0.00     0.074 A 
ATOM     71  C   UNL A   1      47.084  24.954  26.865  1.00  0.00     0.031 C 
ATOM     72  C   UNL A   1      47.728  27.307  27.318  1.00  0.00     0.037 A 
BRANCH  59  73
ATOM     73  C   UNL A   1      45.611  32.892  28.961  1.00  0.00     0.058 A 
ATOM     74  C   UNL A   1      45.891  33.344  30.259  1.00  0.00     0.135 A 
ATOM     75  C   UNL A   1      45.551  33.851  27.935  1.00  0.00     0.135 A 
ATOM     76  F   UNL A   1      45.979  32.472  31.276  1.00  0.00    -0.206 F 
ATOM     77  C   UNL A   1      46.075  34.696  30.536  1.00  0.00     0.059 A 
ATOM     78  C   UNL A   1      45.765  35.203  28.183  1.00  0.00     0.059 A 
ATOM     79  F   UNL A   1      45.316  33.473  26.668  1.00  0.00    -0.206 F 
ATOM     80  C   UNL A   1      46.005  35.618  29.490  1.00  0.00     0.060 A 
BRANCH  80  81
ATOM     81  S   UNL A   1      46.243  37.367  29.865  1.00  0.00     0.124 S 
ATOM     82  O   UNL A   1      47.216  37.761  28.854  1.00  0.00    -0.237 OA
ATOM     83  O   UNL A   1      44.895  37.901  29.695  1.00  0.00    -0.237 OA
ATOM     84  O   UNL A   1      46.734  37.354  31.241  1.00  0.00    -0.744 OA
ENDBRANCH  80  81
ENDBRANCH  59  73
BRANCH  60  85
ATOM     85  C   UNL A   1      43.182  23.270  27.065  1.00  0.00     0.058 A 
ATOM     86  C   UNL A   1      42.925  22.329  28.074  1.00  0.00     0.135 A 
ATOM     87  C   UNL A   1      43.148  22.825  25.735  1.00  0.00     0.135 A 
ATOM     88  F   UNL A   1      42.969  22.694  29.364  1.00  0.00    -0.206 F 
ATOM     89  C   UNL A   1      42.668  20.994  27.776  1.00  0.00     0.059 A 
ATOM     90  C   UNL A   1      42.868  21.501  25.411  1.00  0.00     0.059 A 
ATOM     91  F   UNL A   1      43.390  23.687  24.735  1.00  0.00    -0.206 F 
ATOM     92  C   UNL A   1      42.644  20.589  26.440  1.00  0.00     0.060 A 
BRANCH  92  93
ATOM     93  S   UNL A   1      42.324  18.849  26.076  1.00  0.00     0.124 S 
ATOM     94  O   UNL A   1      40.915  18.883  25.701  1.00  0.00    -0.237 OA
ATOM     95  O   UNL A   1      43.264  18.588  24.990  1.00  0.00    -0.237 OA
ATOM     96  O   UNL A   1      42.623  18.180  27.338  1.00  0.00    -0.744 OA
ENDBRANCH  92  93
ENDBRANCH  60  85
BRANCH  72  97
ATOM     97  C   UNL A   1      49.147  26.932  27.012  1.00  0.00     0.058 A 
ATOM     98  C   UNL A   1      49.581  26.838  25.679  1.00  0.00     0.135 A 
ATOM     99  C   UNL A   1      50.040  26.563  28.027  1.00  0.00     0.135 A 
ATOM    100  F   UNL A   1      48.757  27.170  24.672  1.00  0.00    -0.206 F 
ATOM    101  C   UNL A   1      50.846  26.364  25.364  1.00  0.00     0.059 A 
ATOM    102  C   UNL A   1      51.324  26.118  27.735  1.00  0.00     0.059 A 
ATOM    103  F   UNL A   1      49.671  26.645  29.315  1.00  0.00    -0.206 F 
ATOM    104  C   UNL A   1      51.710  26.002  26.400  1.00  0.00     0.060 A 
BRANCH 104 105
ATOM    105  S   UNL A   1      53.350  25.389  25.970  1.00  0.00     0.124 S 
ATOM    106  O   UNL A   1      54.041  25.457  27.252  1.00  0.00    -0.237 OA
ATOM    107  O   UNL A   1      53.053  24.046  25.478  1.00  0.00    -0.237 OA
ATOM    108  O   UNL A   1      53.810  26.333  24.956  1.00  0.00    -0.744 OA
ENDBRANCH 104 105
ENDBRANCH  72  97
ENDBRANCH  46  47
ENDBRANCH  38  41
ENDBRANCH  36  37
ENDBRANCH  35  36
ENDBRANCH   1  35
TORSDOF 19
ENDMDL
