MODEL 1
REMARK VINA RESULT:     -11.8      0.000      0.000
REMARK SMILES O=C(NCCCNC(=O)c1cccc(N[C@H]2CCCC[C@@H]2O)c1)c1ccc(-c2c3nc(c(-c4c(F)cc(S(=O)(=O)[O-])cc4F)c4ccc([nH]4)c(-c4c(F)cc(S(=O)(=O)[O-])cc4F)c4nc(c(-c5c(F)cc(S(=O)(=O)[O-])cc5F)c5ccc2[nH]5)C=C4)C=C3)cc1
REMARK SMILES IDX 5 1 4 2 3 3 1 4 2 5 24 7 25 8 89 9 26 10 88 11 27 12 28 13
REMARK SMILES IDX 29 14 82 15 30 16 87 17 81 18 83 19 31 20 86 21 80 22 79 23
REMARK SMILES IDX 32 25 66 26 45 27 65 28 46 29 49 30 64 31 84 32 47 33 48 34
REMARK SMILES IDX 63 36 85 37 50 38 33 39 34 40 43 41 35 42 36 43 42 44 44 45
REMARK SMILES IDX 37 46 38 47 39 48 40 49 41 50 67 51 68 52 77 53 69 54 70 55
REMARK SMILES IDX 76 56 78 57 71 58 72 59 73 60 74 61 75 62 51 63 52 64 61 65
REMARK SMILES IDX 53 66 54 67 60 68 62 69 55 70 56 71 57 72 58 73 59 74 6 75
REMARK SMILES IDX 7 76 8 77 9 79 10 80 11 81 23 82 12 83 14 84 13 85 15 86
REMARK SMILES IDX 16 88 17 89 21 90 18 91 20 92 19 93 22 94
REMARK H PARENT 3 6 83 24 49 35 7 78 15 87 22 95
REMARK Flexibility Score: inf
ROOT
ATOM      1  C   UNL A   1      38.270  19.539  25.226  1.00  0.00     0.042 C 
ENDROOT
BRANCH   1   2
ATOM      2  C   UNL A   1      39.524  20.063  25.903  1.00  0.00     0.118 C 
BRANCH   2   3
ATOM      3  N   UNL A   1      40.584  19.065  25.962  1.00  0.00    -0.352 N 
ATOM      4  O   UNL A   1      42.694  18.283  25.905  1.00  0.00    -0.269 OA
ATOM      5  C   UNL A   1      41.941  19.239  26.078  1.00  0.00     0.251 C 
ATOM      6  H   UNL A   1      40.283  18.129  25.910  1.00  0.00     0.163 HD
BRANCH   5   7
ATOM      7  C   UNL A   1      42.487  20.574  26.400  1.00  0.00     0.039 A 
ATOM      8  C   UNL A   1      42.935  21.418  25.382  1.00  0.00     0.014 A 
ATOM      9  C   UNL A   1      42.529  20.997  27.731  1.00  0.00     0.014 A 
ATOM     10  C   UNL A   1      43.549  22.621  25.697  1.00  0.00     0.010 A 
ATOM     11  C   UNL A   1      43.050  22.256  28.041  1.00  0.00     0.010 A 
ATOM     12  C   UNL A   1      43.575  23.072  27.026  1.00  0.00    -0.014 A 
BRANCH  12  13
ATOM     13  C   UNL A   1      44.022  24.458  27.305  1.00  0.00     0.031 A 
ATOM     14  C   UNL A   1      43.058  25.519  27.750  1.00  0.00     0.074 A 
ATOM     15  C   UNL A   1      45.330  24.743  27.132  1.00  0.00     0.049 A 
ATOM     16  N   UNL A   1      43.291  26.783  27.991  1.00  0.00    -0.248 NA
ATOM     17  C   UNL A   1      41.656  25.119  27.946  1.00  0.00     0.031 C 
ATOM     18  C   UNL A   1      46.347  23.785  26.680  1.00  0.00     0.029 A 
ATOM     19  N   UNL A   1      46.031  25.906  27.307  1.00  0.00    -0.354 N 
ATOM     20  C   UNL A   1      42.064  27.338  28.338  1.00  0.00     0.074 A 
ATOM     21  C   UNL A   1      41.087  26.274  28.272  1.00  0.00     0.031 C 
ATOM     22  C   UNL A   1      47.539  24.394  26.634  1.00  0.00     0.029 A 
ATOM     23  C   UNL A   1      47.362  25.798  26.977  1.00  0.00     0.049 A 
ATOM     24  H   UNL A   1      45.623  26.739  27.637  1.00  0.00     0.167 HD
ATOM     25  C   UNL A   1      41.792  28.621  28.676  1.00  0.00     0.037 A 
ATOM     26  C   UNL A   1      48.327  26.733  26.909  1.00  0.00     0.037 A 
ATOM     27  C   UNL A   1      42.789  29.660  28.761  1.00  0.00     0.049 A 
ATOM     28  C   UNL A   1      47.984  28.151  27.260  1.00  0.00     0.074 A 
ATOM     29  C   UNL A   1      42.628  30.968  29.182  1.00  0.00     0.029 A 
ATOM     30  N   UNL A   1      44.122  29.517  28.403  1.00  0.00    -0.354 N 
ATOM     31  N   UNL A   1      46.836  28.641  27.666  1.00  0.00    -0.248 NA
ATOM     32  C   UNL A   1      49.055  29.146  27.135  1.00  0.00     0.031 C 
ATOM     33  C   UNL A   1      43.847  31.634  29.018  1.00  0.00     0.029 A 
ATOM     34  C   UNL A   1      44.782  30.727  28.546  1.00  0.00     0.049 A 
ATOM     35  H   UNL A   1      44.536  28.680  28.093  1.00  0.00     0.167 HD
ATOM     36  C   UNL A   1      47.050  30.000  27.849  1.00  0.00     0.074 A 
ATOM     37  C   UNL A   1      48.442  30.250  27.539  1.00  0.00     0.031 C 
ATOM     38  C   UNL A   1      46.169  30.957  28.230  1.00  0.00     0.037 A 
BRANCH  25  39
ATOM     39  C   UNL A   1      40.367  29.004  28.963  1.00  0.00     0.058 A 
ATOM     40  C   UNL A   1      39.877  29.115  30.274  1.00  0.00     0.135 A 
ATOM     41  C   UNL A   1      39.514  29.379  27.911  1.00  0.00     0.135 A 
ATOM     42  F   UNL A   1      40.645  28.759  31.315  1.00  0.00    -0.206 F 
ATOM     43  C   UNL A   1      38.592  29.586  30.530  1.00  0.00     0.059 A 
ATOM     44  C   UNL A   1      38.233  29.872  28.146  1.00  0.00     0.059 A 
ATOM     45  F   UNL A   1      39.932  29.289  26.639  1.00  0.00    -0.206 F 
ATOM     46  C   UNL A   1      37.781  29.971  29.460  1.00  0.00     0.060 A 
BRANCH  46  47
ATOM     47  S   UNL A   1      36.138  30.631  29.816  1.00  0.00     0.124 S 
ATOM     48  O   UNL A   1      35.875  30.064  31.135  1.00  0.00    -0.237 OA
ATOM     49  O   UNL A   1      36.368  32.072  29.781  1.00  0.00    -0.237 OA
ATOM     50  O   UNL A   1      35.316  30.103  28.731  1.00  0.00    -0.744 OA
ENDBRANCH  46  47
ENDBRANCH  25  39
BRANCH  26  51
ATOM     51  C   UNL A   1      49.686  26.365  26.431  1.00  0.00     0.058 A 
ATOM     52  C   UNL A   1      50.640  25.816  27.298  1.00  0.00     0.135 A 
ATOM     53  C   UNL A   1      50.056  26.561  25.090  1.00  0.00     0.135 A 
ATOM     54  F   UNL A   1      50.335  25.610  28.588  1.00  0.00    -0.206 F 
ATOM     55  C   UNL A   1      51.923  25.500  26.861  1.00  0.00     0.059 A 
ATOM     56  C   UNL A   1      51.321  26.224  24.622  1.00  0.00     0.059 A 
ATOM     57  F   UNL A   1      49.173  27.064  24.213  1.00  0.00    -0.206 F 
ATOM     58  C   UNL A   1      52.254  25.712  25.521  1.00  0.00     0.060 A 
BRANCH  58  59
ATOM     59  S   UNL A   1      53.917  25.292  24.960  1.00  0.00     0.124 S 
ATOM     60  O   UNL A   1      53.956  25.944  23.655  1.00  0.00    -0.237 OA
ATOM     61  O   UNL A   1      54.752  25.891  25.997  1.00  0.00    -0.237 OA
ATOM     62  O   UNL A   1      53.906  23.834  24.938  1.00  0.00    -0.744 OA
ENDBRANCH  58  59
ENDBRANCH  26  51
BRANCH  38  63
ATOM     63  C   UNL A   1      46.686  32.363  28.336  1.00  0.00     0.058 A 
ATOM     64  C   UNL A   1      46.567  33.266  27.269  1.00  0.00     0.135 A 
ATOM     65  C   UNL A   1      47.247  32.829  29.535  1.00  0.00     0.135 A 
ATOM     66  F   UNL A   1      46.052  32.864  26.096  1.00  0.00    -0.206 F 
ATOM     67  C   UNL A   1      46.995  34.584  27.384  1.00  0.00     0.059 A 
ATOM     68  C   UNL A   1      47.655  34.151  29.682  1.00  0.00     0.059 A 
ATOM     69  F   UNL A   1      47.379  32.005  30.587  1.00  0.00    -0.206 F 
ATOM     70  C   UNL A   1      47.531  35.018  28.598  1.00  0.00     0.060 A 
BRANCH  70  71
ATOM     71  S   UNL A   1      48.026  36.747  28.752  1.00  0.00     0.124 S 
ATOM     72  O   UNL A   1      49.013  36.867  27.684  1.00  0.00    -0.237 OA
ATOM     73  O   UNL A   1      46.766  37.452  28.533  1.00  0.00    -0.237 OA
ATOM     74  O   UNL A   1      48.556  36.830  30.109  1.00  0.00    -0.744 OA
ENDBRANCH  70  71
ENDBRANCH  38  63
ENDBRANCH  12  13
ENDBRANCH   5   7
ENDBRANCH   2   3
ENDBRANCH   1   2
BRANCH   1  75
ATOM     75  C   UNL A   1      37.377  20.632  24.669  1.00  0.00     0.118 C 
BRANCH  75  76
ATOM     76  N   UNL A   1      37.430  21.855  25.461  1.00  0.00    -0.352 N 
ATOM     77  C   UNL A   1      36.596  22.945  25.446  1.00  0.00     0.251 C 
ATOM     78  H   UNL A   1      38.175  21.906  26.103  1.00  0.00     0.163 HD
ATOM     79  O   UNL A   1      36.907  23.970  26.046  1.00  0.00    -0.269 OA
BRANCH  77  80
ATOM     80  C   UNL A   1      35.324  22.886  24.702  1.00  0.00     0.041 A 
ATOM     81  C   UNL A   1      35.151  23.701  23.587  1.00  0.00     0.014 A 
ATOM     82  C   UNL A   1      34.303  22.019  25.112  1.00  0.00     0.039 A 
ATOM     83  C   UNL A   1      33.972  23.600  22.861  1.00  0.00     0.003 A 
ATOM     84  C   UNL A   1      33.145  21.839  24.351  1.00  0.00     0.035 A 
ATOM     85  C   UNL A   1      32.990  22.670  23.236  1.00  0.00     0.026 A 
BRANCH  84  86
ATOM     86  N   UNL A   1      32.264  20.853  24.745  1.00  0.00    -0.380 N 
ATOM     87  H   UNL A   1      31.538  21.148  25.341  1.00  0.00     0.160 HD
BRANCH  86  88
ATOM     88  C   UNL A   1      32.258  19.431  24.402  1.00  0.00     0.107 C 
ATOM     89  C   UNL A   1      32.433  19.235  22.891  1.00  0.00     0.027 C 
ATOM     90  C   UNL A   1      33.213  18.587  25.287  1.00  0.00     0.136 C 
ATOM     91  C   UNL A   1      32.510  17.762  22.511  1.00  0.00     0.002 C 
ATOM     92  C   UNL A   1      33.284  17.135  24.813  1.00  0.00     0.034 C 
ATOM     93  C   UNL A   1      33.573  17.035  23.323  1.00  0.00     0.003 C 
BRANCH  90  94
ATOM     94  O   UNL A   1      32.800  18.556  26.659  1.00  0.00    -0.391 OA
ATOM     95  H   UNL A   1      32.049  19.159  26.785  1.00  0.00     0.211 HD
ENDBRANCH  90  94
ENDBRANCH  86  88
ENDBRANCH  84  86
ENDBRANCH  77  80
ENDBRANCH  75  76
ENDBRANCH   1  75
TORSDOF 16
ENDMDL
MODEL 2
REMARK VINA RESULT:     -11.8      3.799      9.275
REMARK SMILES O=C(NCCCNC(=O)c1cccc(N[C@H]2CCCC[C@@H]2O)c1)c1ccc(-c2c3nc(c(-c4c(F)cc(S(=O)(=O)[O-])cc4F)c4ccc([nH]4)c(-c4c(F)cc(S(=O)(=O)[O-])cc4F)c4nc(c(-c5c(F)cc(S(=O)(=O)[O-])cc5F)c5ccc2[nH]5)C=C4)C=C3)cc1
REMARK SMILES IDX 5 1 4 2 3 3 1 4 2 5 24 7 25 8 89 9 26 10 88 11 27 12 28 13
REMARK SMILES IDX 29 14 82 15 30 16 87 17 81 18 83 19 31 20 86 21 80 22 79 23
REMARK SMILES IDX 32 25 66 26 45 27 65 28 46 29 49 30 64 31 84 32 47 33 48 34
REMARK SMILES IDX 63 36 85 37 50 38 33 39 34 40 43 41 35 42 36 43 42 44 44 45
REMARK SMILES IDX 37 46 38 47 39 48 40 49 41 50 67 51 68 52 77 53 69 54 70 55
REMARK SMILES IDX 76 56 78 57 71 58 72 59 73 60 74 61 75 62 51 63 52 64 61 65
REMARK SMILES IDX 53 66 54 67 60 68 62 69 55 70 56 71 57 72 58 73 59 74 6 75
REMARK SMILES IDX 7 76 8 77 9 79 10 80 11 81 23 82 12 83 14 84 13 85 15 86
REMARK SMILES IDX 16 88 17 89 21 90 18 91 20 92 19 93 22 94
REMARK H PARENT 3 6 83 24 49 35 7 78 15 87 22 95
REMARK Flexibility Score: inf
ROOT
ATOM      1  C   UNL A   1      34.977  30.875  27.401  1.00  0.00     0.042 C 
ENDROOT
BRANCH   1   2
ATOM      2  C   UNL A   1      35.523  29.752  28.264  1.00  0.00     0.118 C 
BRANCH   2   3
ATOM      3  N   UNL A   1      35.501  30.079  29.684  1.00  0.00    -0.352 N 
ATOM      4  O   UNL A   1      36.248  30.128  31.807  1.00  0.00    -0.269 OA
ATOM      5  C   UNL A   1      36.510  30.007  30.612  1.00  0.00     0.251 C 
ATOM      6  H   UNL A   1      34.635  30.395  30.029  1.00  0.00     0.163 HD
BRANCH   5   7
ATOM      7  C   UNL A   1      37.901  29.775  30.171  1.00  0.00     0.039 A 
ATOM      8  C   UNL A   1      38.873  29.363  31.086  1.00  0.00     0.014 A 
ATOM      9  C   UNL A   1      38.233  29.944  28.825  1.00  0.00     0.014 A 
ATOM     10  C   UNL A   1      40.198  29.255  30.689  1.00  0.00     0.010 A 
ATOM     11  C   UNL A   1      39.549  29.731  28.404  1.00  0.00     0.010 A 
ATOM     12  C   UNL A   1      40.543  29.397  29.336  1.00  0.00    -0.014 A 
BRANCH  12  13
ATOM     13  C   UNL A   1      41.918  29.046  28.906  1.00  0.00     0.031 A 
ATOM     14  C   UNL A   1      43.003  30.081  28.829  1.00  0.00     0.074 A 
ATOM     15  C   UNL A   1      42.164  27.763  28.569  1.00  0.00     0.049 A 
ATOM     16  N   UNL A   1      44.240  29.937  28.431  1.00  0.00    -0.248 NA
ATOM     17  C   UNL A   1      42.662  31.451  29.244  1.00  0.00     0.031 C 
ATOM     18  C   UNL A   1      41.169  26.683  28.590  1.00  0.00     0.029 A 
ATOM     19  N   UNL A   1      43.309  27.144  28.144  1.00  0.00    -0.354 N 
ATOM     20  C   UNL A   1      44.819  31.198  28.518  1.00  0.00     0.074 A 
ATOM     21  C   UNL A   1      43.796  32.098  29.003  1.00  0.00     0.031 C 
ATOM     22  C   UNL A   1      41.752  25.538  28.215  1.00  0.00     0.029 A 
ATOM     23  C   UNL A   1      43.136  25.811  27.856  1.00  0.00     0.049 A 
ATOM     24  H   UNL A   1      44.172  27.609  28.053  1.00  0.00     0.167 HD
ATOM     25  C   UNL A   1      46.089  31.557  28.215  1.00  0.00     0.037 A 
ATOM     26  C   UNL A   1      43.981  24.914  27.315  1.00  0.00     0.037 A 
ATOM     27  C   UNL A   1      47.100  30.636  27.759  1.00  0.00     0.049 A 
ATOM     28  C   UNL A   1      45.371  25.355  26.963  1.00  0.00     0.074 A 
ATOM     29  C   UNL A   1      48.439  30.887  27.513  1.00  0.00     0.029 A 
ATOM     30  N   UNL A   1      46.884  29.298  27.462  1.00  0.00    -0.354 N 
ATOM     31  N   UNL A   1      45.926  26.532  27.130  1.00  0.00    -0.248 NA
ATOM     32  C   UNL A   1      46.248  24.357  26.340  1.00  0.00     0.031 C 
ATOM     33  C   UNL A   1      49.017  29.718  27.007  1.00  0.00     0.029 A 
ATOM     34  C   UNL A   1      48.053  28.724  26.988  1.00  0.00     0.049 A 
ATOM     35  H   UNL A   1      46.027  28.827  27.572  1.00  0.00     0.167 HD
ATOM     36  C   UNL A   1      47.218  26.414  26.636  1.00  0.00     0.074 A 
ATOM     37  C   UNL A   1      47.373  25.044  26.193  1.00  0.00     0.031 C 
ATOM     38  C   UNL A   1      48.186  27.358  26.549  1.00  0.00     0.037 A 
BRANCH  25  39
ATOM     39  C   UNL A   1      46.477  33.005  28.339  1.00  0.00     0.058 A 
ATOM     40  C   UNL A   1      47.083  33.515  29.497  1.00  0.00     0.135 A 
ATOM     41  C   UNL A   1      46.346  33.865  27.235  1.00  0.00     0.135 A 
ATOM     42  F   UNL A   1      47.222  32.742  30.585  1.00  0.00    -0.206 F 
ATOM     43  C   UNL A   1      47.546  34.828  29.556  1.00  0.00     0.059 A 
ATOM     44  C   UNL A   1      46.821  35.173  27.265  1.00  0.00     0.059 A 
ATOM     45  F   UNL A   1      45.772  33.427  26.104  1.00  0.00    -0.206 F 
ATOM     46  C   UNL A   1      47.419  35.646  28.431  1.00  0.00     0.060 A 
BRANCH  46  47
ATOM     47  S   UNL A   1      48.075  37.327  28.508  1.00  0.00     0.124 S 
ATOM     48  O   UNL A   1      48.154  37.673  27.092  1.00  0.00    -0.237 OA
ATOM     49  O   UNL A   1      47.048  38.026  29.275  1.00  0.00    -0.237 OA
ATOM     50  O   UNL A   1      49.357  37.162  29.186  1.00  0.00    -0.744 OA
ENDBRANCH  46  47
ENDBRANCH  25  39
BRANCH  26  51
ATOM     51  C   UNL A   1      43.511  23.535  27.019  1.00  0.00     0.058 A 
ATOM     52  C   UNL A   1      43.204  23.135  25.712  1.00  0.00     0.135 A 
ATOM     53  C   UNL A   1      43.357  22.589  28.047  1.00  0.00     0.135 A 
ATOM     54  F   UNL A   1      43.334  24.002  24.696  1.00  0.00    -0.206 F 
ATOM     55  C   UNL A   1      42.734  21.855  25.435  1.00  0.00     0.059 A 
ATOM     56  C   UNL A   1      42.920  21.295  27.791  1.00  0.00     0.059 A 
ATOM     57  F   UNL A   1      43.658  22.914  29.314  1.00  0.00    -0.206 F 
ATOM     58  C   UNL A   1      42.591  20.944  26.483  1.00  0.00     0.060 A 
BRANCH  58  59
ATOM     59  S   UNL A   1      41.989  19.282  26.116  1.00  0.00     0.124 S 
ATOM     60  O   UNL A   1      42.374  18.560  27.324  1.00  0.00    -0.237 OA
ATOM     61  O   UNL A   1      40.558  19.507  25.935  1.00  0.00    -0.237 OA
ATOM     62  O   UNL A   1      42.717  18.921  24.904  1.00  0.00    -0.744 OA
ENDBRANCH  58  59
ENDBRANCH  26  51
BRANCH  38  63
ATOM     63  C   UNL A   1      49.500  26.940  25.954  1.00  0.00     0.058 A 
ATOM     64  C   UNL A   1      49.778  27.131  24.592  1.00  0.00     0.135 A 
ATOM     65  C   UNL A   1      50.514  26.405  26.765  1.00  0.00     0.135 A 
ATOM     66  F   UNL A   1      48.836  27.625  23.773  1.00  0.00    -0.206 F 
ATOM     67  C   UNL A   1      51.014  26.795  24.051  1.00  0.00     0.059 A 
ATOM     68  C   UNL A   1      51.767  26.090  26.251  1.00  0.00     0.059 A 
ATOM     69  F   UNL A   1      50.299  26.208  28.076  1.00  0.00    -0.206 F 
ATOM     70  C   UNL A   1      52.005  26.283  24.891  1.00  0.00     0.060 A 
BRANCH  70  71
ATOM     71  S   UNL A   1      53.624  25.910  24.186  1.00  0.00     0.124 S 
ATOM     72  O   UNL A   1      54.457  26.938  24.803  1.00  0.00    -0.237 OA
ATOM     73  O   UNL A   1      53.857  24.544  24.648  1.00  0.00    -0.237 OA
ATOM     74  O   UNL A   1      53.411  26.052  22.749  1.00  0.00    -0.744 OA
ENDBRANCH  70  71
ENDBRANCH  38  63
ENDBRANCH  12  13
ENDBRANCH   5   7
ENDBRANCH   2   3
ENDBRANCH   1   2
BRANCH   1  75
ATOM     75  C   UNL A   1      33.544  30.655  26.951  1.00  0.00     0.118 C 
BRANCH  75  76
ATOM     76  N   UNL A   1      32.858  29.642  27.745  1.00  0.00    -0.352 N 
ATOM     77  C   UNL A   1      32.271  28.467  27.346  1.00  0.00     0.251 C 
ATOM     78  H   UNL A   1      32.811  29.828  28.710  1.00  0.00     0.163 HD
ATOM     79  O   UNL A   1      31.567  27.832  28.126  1.00  0.00    -0.269 OA
BRANCH  77  80
ATOM     80  C   UNL A   1      32.479  27.971  25.973  1.00  0.00     0.041 A 
ATOM     81  C   UNL A   1      33.737  27.503  25.604  1.00  0.00     0.014 A 
ATOM     82  C   UNL A   1      31.424  27.971  25.052  1.00  0.00     0.039 A 
ATOM     83  C   UNL A   1      33.910  26.988  24.326  1.00  0.00     0.003 A 
ATOM     84  C   UNL A   1      31.551  27.381  23.792  1.00  0.00     0.035 A 
ATOM     85  C   UNL A   1      32.824  26.920  23.440  1.00  0.00     0.026 A 
BRANCH  84  86
ATOM     86  N   UNL A   1      30.418  27.286  23.010  1.00  0.00    -0.380 N 
ATOM     87  H   UNL A   1      30.203  26.382  22.685  1.00  0.00     0.160 HD
BRANCH  86  88
ATOM     88  C   UNL A   1      29.492  28.341  22.596  1.00  0.00     0.107 C 
ATOM     89  C   UNL A   1      28.171  28.237  23.367  1.00  0.00     0.027 C 
ATOM     90  C   UNL A   1      30.139  29.751  22.592  1.00  0.00     0.136 C 
ATOM     91  C   UNL A   1      27.214  29.369  23.015  1.00  0.00     0.002 C 
ATOM     92  C   UNL A   1      29.112  30.841  22.288  1.00  0.00     0.034 C 
ATOM     93  C   UNL A   1      27.882  30.729  23.177  1.00  0.00     0.003 C 
BRANCH  90  94
ATOM     94  O   UNL A   1      31.176  29.872  21.609  1.00  0.00    -0.391 OA
ATOM     95  H   UNL A   1      32.002  29.502  21.962  1.00  0.00     0.211 HD
ENDBRANCH  90  94
ENDBRANCH  86  88
ENDBRANCH  84  86
ENDBRANCH  77  80
ENDBRANCH  75  76
ENDBRANCH   1  75
TORSDOF 16
ENDMDL
MODEL 3
REMARK VINA RESULT:     -11.7      7.297     12.613
REMARK SMILES O=C(NCCCNC(=O)c1cccc(N[C@H]2CCCC[C@@H]2O)c1)c1ccc(-c2c3nc(c(-c4c(F)cc(S(=O)(=O)[O-])cc4F)c4ccc([nH]4)c(-c4c(F)cc(S(=O)(=O)[O-])cc4F)c4nc(c(-c5c(F)cc(S(=O)(=O)[O-])cc5F)c5ccc2[nH]5)C=C4)C=C3)cc1
REMARK SMILES IDX 5 1 4 2 3 3 1 4 2 5 24 7 25 8 89 9 26 10 88 11 27 12 28 13
REMARK SMILES IDX 29 14 82 15 30 16 87 17 81 18 83 19 31 20 86 21 80 22 79 23
REMARK SMILES IDX 32 25 66 26 45 27 65 28 46 29 49 30 64 31 84 32 47 33 48 34
REMARK SMILES IDX 63 36 85 37 50 38 33 39 34 40 43 41 35 42 36 43 42 44 44 45
REMARK SMILES IDX 37 46 38 47 39 48 40 49 41 50 67 51 68 52 77 53 69 54 70 55
REMARK SMILES IDX 76 56 78 57 71 58 72 59 73 60 74 61 75 62 51 63 52 64 61 65
REMARK SMILES IDX 53 66 54 67 60 68 62 69 55 70 56 71 57 72 58 73 59 74 6 75
REMARK SMILES IDX 7 76 8 77 9 79 10 80 11 81 23 82 12 83 14 84 13 85 15 86
REMARK SMILES IDX 16 88 17 89 21 90 18 91 20 92 19 93 22 94
REMARK H PARENT 3 6 83 24 49 35 7 78 15 87 22 95
REMARK Flexibility Score: inf
ROOT
ATOM      1  C   UNL A   1      31.556  32.234  26.779  1.00  0.00     0.042 C 
ENDROOT
BRANCH   1   2
ATOM      2  C   UNL A   1      32.811  32.937  27.266  1.00  0.00     0.118 C 
BRANCH   2   3
ATOM      3  N   UNL A   1      32.546  34.292  27.733  1.00  0.00    -0.352 N 
ATOM      4  O   UNL A   1      32.586  36.032  29.160  1.00  0.00    -0.269 OA
ATOM      5  C   UNL A   1      33.084  34.968  28.799  1.00  0.00     0.251 C 
ATOM      6  H   UNL A   1      31.883  34.795  27.208  1.00  0.00     0.163 HD
BRANCH   5   7
ATOM      7  C   UNL A   1      34.251  34.409  29.514  1.00  0.00     0.039 A 
ATOM      8  C   UNL A   1      34.079  33.707  30.709  1.00  0.00     0.014 A 
ATOM      9  C   UNL A   1      35.529  34.562  28.970  1.00  0.00     0.014 A 
ATOM     10  C   UNL A   1      35.184  33.283  31.431  1.00  0.00     0.010 A 
ATOM     11  C   UNL A   1      36.636  34.041  29.645  1.00  0.00     0.010 A 
ATOM     12  C   UNL A   1      36.472  33.407  30.886  1.00  0.00    -0.014 A 
BRANCH  12  13
ATOM     13  C   UNL A   1      37.607  32.738  31.567  1.00  0.00     0.031 A 
ATOM     14  C   UNL A   1      38.265  31.522  30.981  1.00  0.00     0.074 A 
ATOM     15  C   UNL A   1      38.024  33.249  32.743  1.00  0.00     0.049 A 
ATOM     16  N   UNL A   1      39.237  30.802  31.479  1.00  0.00    -0.248 NA
ATOM     17  C   UNL A   1      37.771  31.045  29.680  1.00  0.00     0.031 C 
ATOM     18  C   UNL A   1      37.435  34.419  33.408  1.00  0.00     0.029 A 
ATOM     19  N   UNL A   1      39.028  32.863  33.590  1.00  0.00    -0.354 N 
ATOM     20  C   UNL A   1      39.454  29.773  30.570  1.00  0.00     0.074 A 
ATOM     21  C   UNL A   1      38.508  29.958  29.491  1.00  0.00     0.031 C 
ATOM     22  C   UNL A   1      38.100  34.662  34.544  1.00  0.00     0.029 A 
ATOM     23  C   UNL A   1      39.109  33.629  34.730  1.00  0.00     0.049 A 
ATOM     24  H   UNL A   1      39.633  32.109  33.403  1.00  0.00     0.167 HD
ATOM     25  C   UNL A   1      40.362  28.771  30.642  1.00  0.00     0.037 A 
ATOM     26  C   UNL A   1      39.875  33.491  35.827  1.00  0.00     0.037 A 
ATOM     27  C   UNL A   1      41.314  28.623  31.715  1.00  0.00     0.049 A 
ATOM     28  C   UNL A   1      40.848  32.350  35.888  1.00  0.00     0.074 A 
ATOM     29  C   UNL A   1      42.333  27.694  31.834  1.00  0.00     0.029 A 
ATOM     30  N   UNL A   1      41.354  29.408  32.859  1.00  0.00    -0.354 N 
ATOM     31  N   UNL A   1      41.097  31.435  34.981  1.00  0.00    -0.248 NA
ATOM     32  C   UNL A   1      41.636  32.212  37.118  1.00  0.00     0.031 C 
ATOM     33  C   UNL A   1      42.948  27.875  33.077  1.00  0.00     0.029 A 
ATOM     34  C   UNL A   1      42.348  28.951  33.710  1.00  0.00     0.049 A 
ATOM     35  H   UNL A   1      40.764  30.174  33.039  1.00  0.00     0.167 HD
ATOM     36  C   UNL A   1      42.074  30.615  35.531  1.00  0.00     0.074 A 
ATOM     37  C   UNL A   1      42.392  31.160  36.834  1.00  0.00     0.031 C 
ATOM     38  C   UNL A   1      42.648  29.505  35.006  1.00  0.00     0.037 A 
BRANCH  25  39
ATOM     39  C   UNL A   1      40.377  27.732  29.556  1.00  0.00     0.058 A 
ATOM     40  C   UNL A   1      41.345  27.732  28.540  1.00  0.00     0.135 A 
ATOM     41  C   UNL A   1      39.477  26.653  29.602  1.00  0.00     0.135 A 
ATOM     42  F   UNL A   1      42.221  28.744  28.442  1.00  0.00    -0.206 F 
ATOM     43  C   UNL A   1      41.422  26.699  27.610  1.00  0.00     0.059 A 
ATOM     44  C   UNL A   1      39.548  25.599  28.695  1.00  0.00     0.059 A 
ATOM     45  F   UNL A   1      38.530  26.605  30.552  1.00  0.00    -0.206 F 
ATOM     46  C   UNL A   1      40.525  25.632  27.702  1.00  0.00     0.060 A 
BRANCH  46  47
ATOM     47  S   UNL A   1      40.675  24.274  26.520  1.00  0.00     0.124 S 
ATOM     48  O   UNL A   1      41.164  23.197  27.375  1.00  0.00    -0.237 OA
ATOM     49  O   UNL A   1      39.303  24.128  26.040  1.00  0.00    -0.237 OA
ATOM     50  O   UNL A   1      41.629  24.779  25.539  1.00  0.00    -0.744 OA
ENDBRANCH  46  47
ENDBRANCH  25  39
BRANCH  26  51
ATOM     51  C   UNL A   1      39.702  34.419  36.975  1.00  0.00     0.058 A 
ATOM     52  C   UNL A   1      38.917  34.070  38.083  1.00  0.00     0.135 A 
ATOM     53  C   UNL A   1      40.321  35.680  36.983  1.00  0.00     0.135 A 
ATOM     54  F   UNL A   1      38.305  32.877  38.122  1.00  0.00    -0.206 F 
ATOM     55  C   UNL A   1      38.728  34.948  39.145  1.00  0.00     0.059 A 
ATOM     56  C   UNL A   1      40.174  36.562  38.047  1.00  0.00     0.059 A 
ATOM     57  F   UNL A   1      41.102  36.055  35.957  1.00  0.00    -0.206 F 
ATOM     58  C   UNL A   1      39.358  36.194  39.115  1.00  0.00     0.060 A 
BRANCH  58  59
ATOM     59  S   UNL A   1      39.114  37.325  40.500  1.00  0.00     0.124 S 
ATOM     60  O   UNL A   1      38.518  36.441  41.496  1.00  0.00    -0.237 OA
ATOM     61  O   UNL A   1      40.477  37.772  40.776  1.00  0.00    -0.237 OA
ATOM     62  O   UNL A   1      38.228  38.345  39.950  1.00  0.00    -0.744 OA
ENDBRANCH  58  59
ENDBRANCH  26  51
BRANCH  38  63
ATOM     63  C   UNL A   1      43.682  28.808  35.842  1.00  0.00     0.058 A 
ATOM     64  C   UNL A   1      43.340  27.739  36.685  1.00  0.00     0.135 A 
ATOM     65  C   UNL A   1      45.036  29.168  35.752  1.00  0.00     0.135 A 
ATOM     66  F   UNL A   1      42.057  27.367  36.817  1.00  0.00    -0.206 F 
ATOM     67  C   UNL A   1      44.304  27.057  37.418  1.00  0.00     0.059 A 
ATOM     68  C   UNL A   1      46.021  28.481  36.453  1.00  0.00     0.059 A 
ATOM     69  F   UNL A   1      45.415  30.181  34.956  1.00  0.00    -0.206 F 
ATOM     70  C   UNL A   1      45.643  27.430  37.289  1.00  0.00     0.060 A 
BRANCH  70  71
ATOM     71  S   UNL A   1      46.890  26.495  38.199  1.00  0.00     0.124 S 
ATOM     72  O   UNL A   1      47.632  27.563  38.863  1.00  0.00    -0.237 OA
ATOM     73  O   UNL A   1      46.074  25.654  39.070  1.00  0.00    -0.237 OA
ATOM     74  O   UNL A   1      47.615  25.784  37.151  1.00  0.00    -0.744 OA
ENDBRANCH  70  71
ENDBRANCH  38  63
ENDBRANCH  12  13
ENDBRANCH   5   7
ENDBRANCH   2   3
ENDBRANCH   1   2
BRANCH   1  75
ATOM     75  C   UNL A   1      31.813  30.846  26.223  1.00  0.00     0.118 C 
BRANCH  75  76
ATOM     76  N   UNL A   1      31.761  29.813  27.251  1.00  0.00    -0.352 N 
ATOM     77  C   UNL A   1      31.802  28.447  27.123  1.00  0.00     0.251 C 
ATOM     78  H   UNL A   1      31.686  30.146  28.175  1.00  0.00     0.163 HD
ATOM     79  O   UNL A   1      31.549  27.728  28.085  1.00  0.00    -0.269 OA
BRANCH  77  80
ATOM     80  C   UNL A   1      32.145  27.842  25.823  1.00  0.00     0.041 A 
ATOM     81  C   UNL A   1      33.355  27.170  25.684  1.00  0.00     0.014 A 
ATOM     82  C   UNL A   1      31.262  27.943  24.740  1.00  0.00     0.039 A 
ATOM     83  C   UNL A   1      33.646  26.557  24.473  1.00  0.00     0.003 A 
ATOM     84  C   UNL A   1      31.493  27.264  23.540  1.00  0.00     0.035 A 
ATOM     85  C   UNL A   1      32.717  26.598  23.422  1.00  0.00     0.026 A 
BRANCH  84  86
ATOM     86  N   UNL A   1      30.498  27.291  22.585  1.00  0.00    -0.380 N 
ATOM     87  H   UNL A   1      30.500  26.539  21.950  1.00  0.00     0.160 HD
BRANCH  86  88
ATOM     88  C   UNL A   1      29.439  28.281  22.384  1.00  0.00     0.107 C 
ATOM     89  C   UNL A   1      28.219  27.956  23.253  1.00  0.00     0.027 C 
ATOM     90  C   UNL A   1      29.947  29.744  22.489  1.00  0.00     0.136 C 
ATOM     91  C   UNL A   1      27.129  29.012  23.125  1.00  0.00     0.002 C 
ATOM     92  C   UNL A   1      28.795  30.746  22.409  1.00  0.00     0.034 C 
ATOM     93  C   UNL A   1      27.678  30.409  23.386  1.00  0.00     0.003 C 
BRANCH  90  94
ATOM     94  O   UNL A   1      30.862  30.080  21.438  1.00  0.00    -0.391 OA
ATOM     95  H   UNL A   1      31.729  29.685  21.624  1.00  0.00     0.211 HD
ENDBRANCH  90  94
ENDBRANCH  86  88
ENDBRANCH  84  86
ENDBRANCH  77  80
ENDBRANCH  75  76
ENDBRANCH   1  75
TORSDOF 16
ENDMDL
