MODEL 1
REMARK VINA RESULT:     -12.1      0.000      0.000
REMARK SMILES CC(=O)c1cccc(-c2ccc(C(=O)NCCCNC(=O)c3ccc(-c4c5nc(c(-c6c(F)cc(S(=O)(=O)[O-])cc6F)c6ccc([nH]6)c(-c6c(F)cc(S(=O)(=O)[O-])cc6F)c6nc(c(-c7c(F)cc(S(=O)(=O)[O-])cc7F)c7ccc4[nH]7)C=C6)C=C5)cc3)cc2F)c1
REMARK SMILES IDX 17 1 16 2 15 3 13 4 14 5 12 7 9 8 10 9 89 10 11 11 88 12
REMARK SMILES IDX 90 13 8 14 4 15 5 16 91 17 6 18 7 19 2 20 1 21 3 22 18 23
REMARK SMILES IDX 19 24 20 25 21 27 22 28 23 29 87 30 24 31 86 32 25 33 26 34
REMARK SMILES IDX 27 35 80 36 28 37 85 38 79 39 81 40 29 41 84 42 78 43 77 44
REMARK SMILES IDX 30 46 64 47 43 48 63 49 44 50 47 51 62 52 82 53 45 54 46 55
REMARK SMILES IDX 61 57 83 58 48 59 31 60 32 61 41 62 33 63 34 64 40 65 42 66
REMARK SMILES IDX 35 67 36 68 37 69 38 70 39 71 65 72 66 73 75 74 67 75 68 76
REMARK SMILES IDX 74 77 76 78 69 79 70 80 71 81 72 82 73 83 49 84 50 85 59 86
REMARK SMILES IDX 51 87 52 88 58 89 60 90 53 91 54 92 55 93 56 94 57 95
REMARK H PARENT 15 6 19 26 81 45 47 56
REMARK Flexibility Score: inf
ROOT
ATOM      1  C   UNL A   1      44.311  22.927  26.653  1.00  0.00     0.042 C 
ENDROOT
BRANCH   1   2
ATOM      2  C   UNL A   1      43.439  21.894  25.939  1.00  0.00     0.118 C 
BRANCH   2   3
ATOM      3  N   UNL A   1      43.061  20.804  26.823  1.00  0.00    -0.352 N 
ATOM      4  C   UNL A   1      41.851  20.219  27.092  1.00  0.00     0.251 C 
ATOM      5  O   UNL A   1      41.837  19.216  27.805  1.00  0.00    -0.269 OA
ATOM      6  H   UNL A   1      43.815  20.415  27.323  1.00  0.00     0.163 HD
BRANCH   4   7
ATOM      7  C   UNL A   1      40.567  20.712  26.526  1.00  0.00     0.042 A 
ATOM      8  C   UNL A   1      38.096  21.499  25.388  1.00  0.00     0.018 A 
ATOM      9  C   UNL A   1      38.576  20.196  25.209  1.00  0.00     0.012 A 
ATOM     10  C   UNL A   1      38.860  22.375  26.168  1.00  0.00     0.131 A 
ATOM     11  C   UNL A   1      39.801  19.810  25.769  1.00  0.00     0.014 A 
ATOM     12  C   UNL A   1      40.061  21.988  26.755  1.00  0.00     0.053 A 
ATOM     13  F   UNL A   1      38.432  23.630  26.378  1.00  0.00    -0.206 F 
BRANCH   8  14
ATOM     14  C   UNL A   1      36.822  21.939  24.812  1.00  0.00    -0.015 A 
ATOM     15  C   UNL A   1      34.439  21.590  24.440  1.00  0.00     0.018 A 
ATOM     16  C   UNL A   1      34.429  22.652  23.529  1.00  0.00     0.012 A 
ATOM     17  C   UNL A   1      35.634  21.236  25.078  1.00  0.00     0.020 A 
ATOM     18  C   UNL A   1      35.595  23.375  23.280  1.00  0.00     0.001 A 
ATOM     19  C   UNL A   1      36.783  23.022  23.921  1.00  0.00     0.009 A 
BRANCH  15  20
ATOM     20  C   UNL A   1      33.167  20.856  24.683  1.00  0.00     0.159 C 
ATOM     21  C   UNL A   1      33.166  19.722  25.673  1.00  0.00     0.093 C 
ATOM     22  O   UNL A   1      32.136  21.214  24.117  1.00  0.00    -0.295 OA
ENDBRANCH  15  20
ENDBRANCH   8  14
ENDBRANCH   4   7
ENDBRANCH   2   3
ENDBRANCH   1   2
BRANCH   1  23
ATOM     23  C   UNL A   1      43.569  24.210  27.023  1.00  0.00     0.118 C 
BRANCH  23  24
ATOM     24  N   UNL A   1      42.664  24.639  25.970  1.00  0.00    -0.352 N 
ATOM     25  C   UNL A   1      41.601  25.505  26.012  1.00  0.00     0.251 C 
ATOM     26  H   UNL A   1      42.842  24.245  25.085  1.00  0.00     0.163 HD
ATOM     27  O   UNL A   1      40.848  25.562  25.043  1.00  0.00    -0.269 OA
BRANCH  25  28
ATOM     28  C   UNL A   1      41.342  26.353  27.200  1.00  0.00     0.039 A 
ATOM     29  C   UNL A   1      42.077  27.535  27.341  1.00  0.00     0.014 A 
ATOM     30  C   UNL A   1      40.445  25.972  28.203  1.00  0.00     0.014 A 
ATOM     31  C   UNL A   1      41.890  28.344  28.464  1.00  0.00     0.010 A 
ATOM     32  C   UNL A   1      40.212  26.813  29.292  1.00  0.00     0.010 A 
ATOM     33  C   UNL A   1      40.941  28.001  29.441  1.00  0.00    -0.014 A 
BRANCH  33  34
ATOM     34  C   UNL A   1      40.718  28.883  30.616  1.00  0.00     0.031 A 
ATOM     35  C   UNL A   1      41.570  28.748  31.850  1.00  0.00     0.074 A 
ATOM     36  C   UNL A   1      39.729  29.797  30.575  1.00  0.00     0.049 A 
ATOM     37  N   UNL A   1      41.534  29.444  32.958  1.00  0.00    -0.248 NA
ATOM     38  C   UNL A   1      42.580  27.678  31.850  1.00  0.00     0.031 C 
ATOM     39  C   UNL A   1      38.796  29.983  29.461  1.00  0.00     0.029 A 
ATOM     40  N   UNL A   1      39.343  30.743  31.490  1.00  0.00    -0.354 N 
ATOM     41  C   UNL A   1      42.506  28.894  33.787  1.00  0.00     0.074 A 
ATOM     42  C   UNL A   1      43.079  27.773  33.073  1.00  0.00     0.031 C 
ATOM     43  C   UNL A   1      37.969  31.002  29.743  1.00  0.00     0.029 A 
ATOM     44  C   UNL A   1      38.296  31.527  31.065  1.00  0.00     0.049 A 
ATOM     45  H   UNL A   1      39.774  30.851  32.369  1.00  0.00     0.167 HD
ATOM     46  C   UNL A   1      42.901  29.299  35.018  1.00  0.00     0.037 A 
ATOM     47  C   UNL A   1      37.678  32.561  31.668  1.00  0.00     0.037 A 
ATOM     48  C   UNL A   1      42.342  30.432  35.714  1.00  0.00     0.049 A 
ATOM     49  C   UNL A   1      38.164  33.019  33.014  1.00  0.00     0.074 A 
ATOM     50  C   UNL A   1      42.703  30.953  36.945  1.00  0.00     0.029 A 
ATOM     51  N   UNL A   1      41.308  31.222  35.235  1.00  0.00    -0.354 N 
ATOM     52  N   UNL A   1      39.125  32.523  33.758  1.00  0.00    -0.248 NA
ATOM     53  C   UNL A   1      37.495  34.191  33.596  1.00  0.00     0.031 C 
ATOM     54  C   UNL A   1      41.868  32.041  37.223  1.00  0.00     0.029 A 
ATOM     55  C   UNL A   1      41.013  32.223  36.147  1.00  0.00     0.049 A 
ATOM     56  H   UNL A   1      40.849  31.092  34.374  1.00  0.00     0.167 HD
ATOM     57  C   UNL A   1      39.192  33.337  34.884  1.00  0.00     0.074 A 
ATOM     58  C   UNL A   1      38.187  34.367  34.713  1.00  0.00     0.031 C 
ATOM     59  C   UNL A   1      40.010  33.240  35.962  1.00  0.00     0.037 A 
BRANCH  46  60
ATOM     60  C   UNL A   1      43.999  28.520  35.688  1.00  0.00     0.058 A 
ATOM     61  C   UNL A   1      43.718  27.460  36.566  1.00  0.00     0.135 A 
ATOM     62  C   UNL A   1      45.349  28.810  35.428  1.00  0.00     0.135 A 
ATOM     63  F   UNL A   1      42.445  27.149  36.863  1.00  0.00    -0.206 F 
ATOM     64  C   UNL A   1      44.732  26.736  37.185  1.00  0.00     0.059 A 
ATOM     65  C   UNL A   1      46.380  28.082  36.016  1.00  0.00     0.059 A 
ATOM     66  F   UNL A   1      45.677  29.811  34.596  1.00  0.00    -0.206 F 
ATOM     67  C   UNL A   1      46.061  27.057  36.905  1.00  0.00     0.060 A 
BRANCH  67  68
ATOM     68  S   UNL A   1      47.367  26.106  37.712  1.00  0.00     0.124 S 
ATOM     69  O   UNL A   1      47.402  26.726  39.033  1.00  0.00    -0.237 OA
ATOM     70  O   UNL A   1      46.840  24.746  37.666  1.00  0.00    -0.237 OA
ATOM     71  O   UNL A   1      48.535  26.352  36.872  1.00  0.00    -0.744 OA
ENDBRANCH  67  68
ENDBRANCH  46  60
BRANCH  47  72
ATOM     72  C   UNL A   1      36.564  33.263  30.979  1.00  0.00     0.058 A 
ATOM     73  C   UNL A   1      35.238  33.105  31.409  1.00  0.00     0.135 A 
ATOM     74  C   UNL A   1      36.802  34.111  29.887  1.00  0.00     0.135 A 
ATOM     75  F   UNL A   1      34.962  32.300  32.447  1.00  0.00    -0.206 F 
ATOM     76  C   UNL A   1      34.183  33.746  30.769  1.00  0.00     0.059 A 
ATOM     77  C   UNL A   1      35.766  34.783  29.246  1.00  0.00     0.059 A 
ATOM     78  F   UNL A   1      38.056  34.312  29.452  1.00  0.00    -0.206 F 
ATOM     79  C   UNL A   1      34.458  34.584  29.686  1.00  0.00     0.060 A 
BRANCH  79  80
ATOM     80  S   UNL A   1      33.088  35.449  28.889  1.00  0.00     0.124 S 
ATOM     81  O   UNL A   1      32.339  35.935  30.042  1.00  0.00    -0.237 OA
ATOM     82  O   UNL A   1      33.779  36.464  28.102  1.00  0.00    -0.237 OA
ATOM     83  O   UNL A   1      32.439  34.398  28.110  1.00  0.00    -0.744 OA
ENDBRANCH  79  80
ENDBRANCH  47  72
BRANCH  59  84
ATOM     84  C   UNL A   1      39.865  34.297  37.020  1.00  0.00     0.058 A 
ATOM     85  C   UNL A   1      39.026  34.121  38.130  1.00  0.00     0.135 A 
ATOM     86  C   UNL A   1      40.576  35.505  36.918  1.00  0.00     0.135 A 
ATOM     87  F   UNL A   1      38.323  32.987  38.273  1.00  0.00    -0.206 F 
ATOM     88  C   UNL A   1      38.859  35.124  39.081  1.00  0.00     0.059 A 
ATOM     89  C   UNL A   1      40.445  36.509  37.870  1.00  0.00     0.059 A 
ATOM     90  F   UNL A   1      41.403  35.718  35.882  1.00  0.00    -0.206 F 
ATOM     91  C   UNL A   1      39.567  36.319  38.936  1.00  0.00     0.060 A 
BRANCH  91  92
ATOM     92  S   UNL A   1      39.334  37.621  40.165  1.00  0.00     0.124 S 
ATOM     93  O   UNL A   1      39.030  36.843  41.360  1.00  0.00    -0.237 OA
ATOM     94  O   UNL A   1      40.630  38.295  40.161  1.00  0.00    -0.237 OA
ATOM     95  O   UNL A   1      38.227  38.403  39.623  1.00  0.00    -0.744 OA
ENDBRANCH  91  92
ENDBRANCH  59  84
ENDBRANCH  33  34
ENDBRANCH  25  28
ENDBRANCH  23  24
ENDBRANCH   1  23
TORSDOF 15
ENDMDL
MODEL 2
REMARK VINA RESULT:     -12.1      4.918     11.922
REMARK SMILES CC(=O)c1cccc(-c2ccc(C(=O)NCCCNC(=O)c3ccc(-c4c5nc(c(-c6c(F)cc(S(=O)(=O)[O-])cc6F)c6ccc([nH]6)c(-c6c(F)cc(S(=O)(=O)[O-])cc6F)c6nc(c(-c7c(F)cc(S(=O)(=O)[O-])cc7F)c7ccc4[nH]7)C=C6)C=C5)cc3)cc2F)c1
REMARK SMILES IDX 17 1 16 2 15 3 13 4 14 5 12 7 9 8 10 9 89 10 11 11 88 12
REMARK SMILES IDX 90 13 8 14 4 15 5 16 91 17 6 18 7 19 2 20 1 21 3 22 18 23
REMARK SMILES IDX 19 24 20 25 21 27 22 28 23 29 87 30 24 31 86 32 25 33 26 34
REMARK SMILES IDX 27 35 80 36 28 37 85 38 79 39 81 40 29 41 84 42 78 43 77 44
REMARK SMILES IDX 30 46 64 47 43 48 63 49 44 50 47 51 62 52 82 53 45 54 46 55
REMARK SMILES IDX 61 57 83 58 48 59 31 60 32 61 41 62 33 63 34 64 40 65 42 66
REMARK SMILES IDX 35 67 36 68 37 69 38 70 39 71 65 72 66 73 75 74 67 75 68 76
REMARK SMILES IDX 74 77 76 78 69 79 70 80 71 81 72 82 73 83 49 84 50 85 59 86
REMARK SMILES IDX 51 87 52 88 58 89 60 90 53 91 54 92 55 93 56 94 57 95
REMARK H PARENT 15 6 19 26 81 45 47 56
REMARK Flexibility Score: inf
ROOT
ATOM      1  C   UNL A   1      33.547  33.724  28.212  1.00  0.00     0.042 C 
ENDROOT
BRANCH   1   2
ATOM      2  C   UNL A   1      33.889  34.968  29.033  1.00  0.00     0.118 C 
BRANCH   2   3
ATOM      3  N   UNL A   1      33.122  35.027  30.265  1.00  0.00    -0.352 N 
ATOM      4  C   UNL A   1      33.438  34.701  31.559  1.00  0.00     0.251 C 
ATOM      5  O   UNL A   1      32.623  34.970  32.441  1.00  0.00    -0.269 OA
ATOM      6  H   UNL A   1      32.203  35.362  30.149  1.00  0.00     0.163 HD
BRANCH   4   7
ATOM      7  C   UNL A   1      34.734  34.083  31.946  1.00  0.00     0.042 A 
ATOM      8  C   UNL A   1      37.133  32.757  32.659  1.00  0.00     0.018 A 
ATOM      9  C   UNL A   1      35.989  32.022  32.327  1.00  0.00     0.012 A 
ATOM     10  C   UNL A   1      37.055  34.153  32.595  1.00  0.00     0.131 A 
ATOM     11  C   UNL A   1      34.801  32.680  31.979  1.00  0.00     0.014 A 
ATOM     12  C   UNL A   1      35.888  34.813  32.218  1.00  0.00     0.053 A 
ATOM     13  F   UNL A   1      38.131  34.899  32.891  1.00  0.00    -0.206 F 
BRANCH   8  14
ATOM     14  C   UNL A   1      38.390  32.103  33.033  1.00  0.00    -0.015 A 
ATOM     15  C   UNL A   1      39.747  30.088  33.229  1.00  0.00     0.018 A 
ATOM     16  C   UNL A   1      40.705  30.807  33.951  1.00  0.00     0.012 A 
ATOM     17  C   UNL A   1      38.593  30.736  32.772  1.00  0.00     0.020 A 
ATOM     18  C   UNL A   1      40.529  32.169  34.190  1.00  0.00     0.001 A 
ATOM     19  C   UNL A   1      39.379  32.813  33.729  1.00  0.00     0.009 A 
BRANCH  15  20
ATOM     20  C   UNL A   1      39.985  28.638  32.987  1.00  0.00     0.159 C 
ATOM     21  C   UNL A   1      41.392  28.171  32.730  1.00  0.00     0.093 C 
ATOM     22  O   UNL A   1      39.047  27.845  33.053  1.00  0.00    -0.295 OA
ENDBRANCH  15  20
ENDBRANCH   8  14
ENDBRANCH   4   7
ENDBRANCH   2   3
ENDBRANCH   1   2
BRANCH   1  23
ATOM     23  C   UNL A   1      34.507  32.556  28.432  1.00  0.00     0.118 C 
BRANCH  23  24
ATOM     24  N   UNL A   1      33.875  31.274  28.169  1.00  0.00    -0.352 N 
ATOM     25  C   UNL A   1      34.429  30.032  27.991  1.00  0.00     0.251 C 
ATOM     26  H   UNL A   1      32.892  31.301  28.110  1.00  0.00     0.163 HD
ATOM     27  O   UNL A   1      33.715  29.122  27.577  1.00  0.00    -0.269 OA
BRANCH  25  28
ATOM     28  C   UNL A   1      35.861  29.776  28.275  1.00  0.00     0.039 A 
ATOM     29  C   UNL A   1      36.780  29.926  27.231  1.00  0.00     0.014 A 
ATOM     30  C   UNL A   1      36.301  29.327  29.525  1.00  0.00     0.014 A 
ATOM     31  C   UNL A   1      38.133  29.660  27.447  1.00  0.00     0.010 A 
ATOM     32  C   UNL A   1      37.662  29.124  29.757  1.00  0.00     0.010 A 
ATOM     33  C   UNL A   1      38.591  29.275  28.718  1.00  0.00    -0.014 A 
BRANCH  33  34
ATOM     34  C   UNL A   1      40.037  29.027  28.954  1.00  0.00     0.031 A 
ATOM     35  C   UNL A   1      40.656  27.701  28.605  1.00  0.00     0.074 A 
ATOM     36  C   UNL A   1      40.790  30.000  29.506  1.00  0.00     0.049 A 
ATOM     37  N   UNL A   1      41.902  27.315  28.719  1.00  0.00    -0.248 NA
ATOM     38  C   UNL A   1      39.756  26.663  28.077  1.00  0.00     0.031 C 
ATOM     39  C   UNL A   1      40.293  31.306  29.945  1.00  0.00     0.029 A 
ATOM     40  N   UNL A   1      42.131  30.044  29.790  1.00  0.00    -0.354 N 
ATOM     41  C   UNL A   1      41.935  25.993  28.288  1.00  0.00     0.074 A 
ATOM     42  C   UNL A   1      40.574  25.627  27.958  1.00  0.00     0.031 C 
ATOM     43  C   UNL A   1      41.320  32.034  30.410  1.00  0.00     0.029 A 
ATOM     44  C   UNL A   1      42.543  31.242  30.324  1.00  0.00     0.049 A 
ATOM     45  H   UNL A   1      42.742  29.289  29.625  1.00  0.00     0.167 HD
ATOM     46  C   UNL A   1      43.002  25.170  28.156  1.00  0.00     0.037 A 
ATOM     47  C   UNL A   1      43.769  31.659  30.692  1.00  0.00     0.037 A 
ATOM     48  C   UNL A   1      44.359  25.548  28.464  1.00  0.00     0.049 A 
ATOM     49  C   UNL A   1      44.944  30.742  30.494  1.00  0.00     0.074 A 
ATOM     50  C   UNL A   1      45.517  24.803  28.322  1.00  0.00     0.029 A 
ATOM     51  N   UNL A   1      44.739  26.782  28.970  1.00  0.00    -0.354 N 
ATOM     52  N   UNL A   1      44.963  29.515  30.029  1.00  0.00    -0.248 NA
ATOM     53  C   UNL A   1      46.266  31.272  30.853  1.00  0.00     0.031 C 
ATOM     54  C   UNL A   1      46.595  25.576  28.769  1.00  0.00     0.029 A 
ATOM     55  C   UNL A   1      46.112  26.818  29.152  1.00  0.00     0.049 A 
ATOM     56  H   UNL A   1      44.125  27.524  29.171  1.00  0.00     0.167 HD
ATOM     57  C   UNL A   1      46.301  29.135  30.017  1.00  0.00     0.074 A 
ATOM     58  C   UNL A   1      47.060  30.270  30.504  1.00  0.00     0.031 C 
ATOM     59  C   UNL A   1      46.852  27.955  29.638  1.00  0.00     0.037 A 
BRANCH  46  60
ATOM     60  C   UNL A   1      42.748  23.777  27.645  1.00  0.00     0.058 A 
ATOM     61  C   UNL A   1      42.708  23.496  26.269  1.00  0.00     0.135 A 
ATOM     62  C   UNL A   1      42.574  22.705  28.535  1.00  0.00     0.135 A 
ATOM     63  F   UNL A   1      42.852  24.486  25.373  1.00  0.00    -0.206 F 
ATOM     64  C   UNL A   1      42.475  22.209  25.794  1.00  0.00     0.059 A 
ATOM     65  C   UNL A   1      42.367  21.405  28.082  1.00  0.00     0.059 A 
ATOM     66  F   UNL A   1      42.604  22.915  29.861  1.00  0.00    -0.206 F 
ATOM     67  C   UNL A   1      42.303  21.170  26.709  1.00  0.00     0.060 A 
BRANCH  67  68
ATOM     68  S   UNL A   1      42.007  19.504  26.079  1.00  0.00     0.124 S 
ATOM     69  O   UNL A   1      42.396  18.688  27.225  1.00  0.00    -0.237 OA
ATOM     70  O   UNL A   1      40.580  19.531  25.776  1.00  0.00    -0.237 OA
ATOM     71  O   UNL A   1      42.889  19.417  24.919  1.00  0.00    -0.744 OA
ENDBRANCH  67  68
ENDBRANCH  46  60
BRANCH  47  72
ATOM     72  C   UNL A   1      43.954  33.029  31.238  1.00  0.00     0.058 A 
ATOM     73  C   UNL A   1      43.913  33.264  32.621  1.00  0.00     0.135 A 
ATOM     74  C   UNL A   1      44.186  34.125  30.393  1.00  0.00     0.135 A 
ATOM     75  F   UNL A   1      43.690  32.247  33.467  1.00  0.00    -0.206 F 
ATOM     76  C   UNL A   1      44.073  34.541  33.148  1.00  0.00     0.059 A 
ATOM     77  C   UNL A   1      44.374  35.407  30.899  1.00  0.00     0.059 A 
ATOM     78  F   UNL A   1      44.256  33.947  29.065  1.00  0.00    -0.206 F 
ATOM     79  C   UNL A   1      44.303  35.607  32.276  1.00  0.00     0.060 A 
BRANCH  79  80
ATOM     80  S   UNL A   1      44.557  37.255  32.971  1.00  0.00     0.124 S 
ATOM     81  O   UNL A   1      43.784  37.175  34.205  1.00  0.00    -0.237 OA
ATOM     82  O   UNL A   1      46.006  37.306  33.127  1.00  0.00    -0.237 OA
ATOM     83  O   UNL A   1      44.015  38.138  31.941  1.00  0.00    -0.744 OA
ENDBRANCH  79  80
ENDBRANCH  47  72
BRANCH  59  84
ATOM     84  C   UNL A   1      48.349  27.852  29.709  1.00  0.00     0.058 A 
ATOM     85  C   UNL A   1      49.167  28.213  28.627  1.00  0.00     0.135 A 
ATOM     86  C   UNL A   1      48.974  27.382  30.876  1.00  0.00     0.135 A 
ATOM     87  F   UNL A   1      48.619  28.664  27.487  1.00  0.00    -0.206 F 
ATOM     88  C   UNL A   1      50.550  28.069  28.681  1.00  0.00     0.059 A 
ATOM     89  C   UNL A   1      50.356  27.255  30.962  1.00  0.00     0.059 A 
ATOM     90  F   UNL A   1      48.240  27.036  31.944  1.00  0.00    -0.206 F 
ATOM     91  C   UNL A   1      51.134  27.580  29.851  1.00  0.00     0.060 A 
BRANCH  91  92
ATOM     92  S   UNL A   1      52.928  27.381  29.910  1.00  0.00     0.124 S 
ATOM     93  O   UNL A   1      53.252  27.241  28.495  1.00  0.00    -0.237 OA
ATOM     94  O   UNL A   1      53.363  28.624  30.539  1.00  0.00    -0.237 OA
ATOM     95  O   UNL A   1      53.108  26.180  30.720  1.00  0.00    -0.744 OA
ENDBRANCH  91  92
ENDBRANCH  59  84
ENDBRANCH  33  34
ENDBRANCH  25  28
ENDBRANCH  23  24
ENDBRANCH   1  23
TORSDOF 15
ENDMDL
MODEL 3
REMARK VINA RESULT:     -12.0      2.313      3.474
REMARK SMILES CC(=O)c1cccc(-c2ccc(C(=O)NCCCNC(=O)c3ccc(-c4c5nc(c(-c6c(F)cc(S(=O)(=O)[O-])cc6F)c6ccc([nH]6)c(-c6c(F)cc(S(=O)(=O)[O-])cc6F)c6nc(c(-c7c(F)cc(S(=O)(=O)[O-])cc7F)c7ccc4[nH]7)C=C6)C=C5)cc3)cc2F)c1
REMARK SMILES IDX 17 1 16 2 15 3 13 4 14 5 12 7 9 8 10 9 89 10 11 11 88 12
REMARK SMILES IDX 90 13 8 14 4 15 5 16 91 17 6 18 7 19 2 20 1 21 3 22 18 23
REMARK SMILES IDX 19 24 20 25 21 27 22 28 23 29 87 30 24 31 86 32 25 33 26 34
REMARK SMILES IDX 27 35 80 36 28 37 85 38 79 39 81 40 29 41 84 42 78 43 77 44
REMARK SMILES IDX 30 46 64 47 43 48 63 49 44 50 47 51 62 52 82 53 45 54 46 55
REMARK SMILES IDX 61 57 83 58 48 59 31 60 32 61 41 62 33 63 34 64 40 65 42 66
REMARK SMILES IDX 35 67 36 68 37 69 38 70 39 71 65 72 66 73 75 74 67 75 68 76
REMARK SMILES IDX 74 77 76 78 69 79 70 80 71 81 72 82 73 83 49 84 50 85 59 86
REMARK SMILES IDX 51 87 52 88 58 89 60 90 53 91 54 92 55 93 56 94 57 95
REMARK H PARENT 15 6 19 26 81 45 47 56
REMARK Flexibility Score: inf
ROOT
ATOM      1  C   UNL A   1      39.402  22.092  26.501  1.00  0.00     0.042 C 
ENDROOT
BRANCH   1   2
ATOM      2  C   UNL A   1      38.163  22.591  25.756  1.00  0.00     0.118 C 
BRANCH   2   3
ATOM      3  N   UNL A   1      37.184  21.533  25.571  1.00  0.00    -0.352 N 
ATOM      4  C   UNL A   1      35.865  21.560  25.200  1.00  0.00     0.251 C 
ATOM      5  O   UNL A   1      35.296  20.487  25.000  1.00  0.00    -0.269 OA
ATOM      6  H   UNL A   1      37.533  20.630  25.746  1.00  0.00     0.163 HD
BRANCH   4   7
ATOM      7  C   UNL A   1      35.108  22.821  24.983  1.00  0.00     0.042 A 
ATOM      8  C   UNL A   1      33.648  25.236  24.737  1.00  0.00     0.018 A 
ATOM      9  C   UNL A   1      33.866  24.665  25.997  1.00  0.00     0.012 A 
ATOM     10  C   UNL A   1      34.199  24.592  23.623  1.00  0.00     0.131 A 
ATOM     11  C   UNL A   1      34.585  23.468  26.116  1.00  0.00     0.014 A 
ATOM     12  C   UNL A   1      34.943  23.421  23.738  1.00  0.00     0.053 A 
ATOM     13  F   UNL A   1      34.027  25.110  22.397  1.00  0.00    -0.206 F 
BRANCH   8  14
ATOM     14  C   UNL A   1      32.897  26.484  24.574  1.00  0.00    -0.015 A 
ATOM     15  C   UNL A   1      30.852  27.653  23.948  1.00  0.00     0.018 A 
ATOM     16  C   UNL A   1      31.525  28.876  24.045  1.00  0.00     0.012 A 
ATOM     17  C   UNL A   1      31.538  26.461  24.212  1.00  0.00     0.020 A 
ATOM     18  C   UNL A   1      32.863  28.912  24.434  1.00  0.00     0.001 A 
ATOM     19  C   UNL A   1      33.543  27.722  24.700  1.00  0.00     0.009 A 
BRANCH  15  20
ATOM     20  C   UNL A   1      29.420  27.665  23.542  1.00  0.00     0.159 C 
ATOM     21  C   UNL A   1      28.904  28.838  22.752  1.00  0.00     0.093 C 
ATOM     22  O   UNL A   1      28.700  26.706  23.811  1.00  0.00    -0.295 OA
ENDBRANCH  15  20
ENDBRANCH   8  14
ENDBRANCH   4   7
ENDBRANCH   2   3
ENDBRANCH   1   2
BRANCH   1  23
ATOM     23  C   UNL A   1      40.237  23.208  27.126  1.00  0.00     0.118 C 
BRANCH  23  24
ATOM     24  N   UNL A   1      40.912  24.012  26.121  1.00  0.00    -0.352 N 
ATOM     25  C   UNL A   1      41.155  25.362  26.080  1.00  0.00     0.251 C 
ATOM     26  H   UNL A   1      41.248  23.508  25.344  1.00  0.00     0.163 HD
ATOM     27  O   UNL A   1      41.564  25.856  25.033  1.00  0.00    -0.269 OA
BRANCH  25  28
ATOM     28  C   UNL A   1      40.924  26.224  27.263  1.00  0.00     0.039 A 
ATOM     29  C   UNL A   1      41.767  27.324  27.455  1.00  0.00     0.014 A 
ATOM     30  C   UNL A   1      39.942  25.930  28.215  1.00  0.00     0.014 A 
ATOM     31  C   UNL A   1      41.606  28.140  28.577  1.00  0.00     0.010 A 
ATOM     32  C   UNL A   1      39.740  26.784  29.301  1.00  0.00     0.010 A 
ATOM     33  C   UNL A   1      40.578  27.890  29.500  1.00  0.00    -0.014 A 
BRANCH  33  34
ATOM     34  C   UNL A   1      40.386  28.782  30.673  1.00  0.00     0.031 A 
ATOM     35  C   UNL A   1      41.231  28.619  31.908  1.00  0.00     0.074 A 
ATOM     36  C   UNL A   1      39.430  29.731  30.629  1.00  0.00     0.049 A 
ATOM     37  N   UNL A   1      41.220  29.319  33.015  1.00  0.00    -0.248 NA
ATOM     38  C   UNL A   1      42.202  27.513  31.912  1.00  0.00     0.031 C 
ATOM     39  C   UNL A   1      38.506  29.948  29.513  1.00  0.00     0.029 A 
ATOM     40  N   UNL A   1      39.078  30.693  31.542  1.00  0.00    -0.354 N 
ATOM     41  C   UNL A   1      42.170  28.736  33.846  1.00  0.00     0.074 A 
ATOM     42  C   UNL A   1      42.703  27.594  33.136  1.00  0.00     0.031 C 
ATOM     43  C   UNL A   1      37.717  30.997  29.793  1.00  0.00     0.029 A 
ATOM     44  C   UNL A   1      38.061  31.513  31.114  1.00  0.00     0.049 A 
ATOM     45  H   UNL A   1      39.512  30.787  32.420  1.00  0.00     0.167 HD
ATOM     46  C   UNL A   1      42.578  29.130  35.076  1.00  0.00     0.037 A 
ATOM     47  C   UNL A   1      37.480  32.570  31.713  1.00  0.00     0.037 A 
ATOM     48  C   UNL A   1      42.060  30.284  35.769  1.00  0.00     0.049 A 
ATOM     49  C   UNL A   1      37.981  33.014  33.059  1.00  0.00     0.074 A 
ATOM     50  C   UNL A   1      42.439  30.794  36.999  1.00  0.00     0.029 A 
ATOM     51  N   UNL A   1      41.055  31.110  35.287  1.00  0.00    -0.354 N 
ATOM     52  N   UNL A   1      38.922  32.485  33.804  1.00  0.00    -0.248 NA
ATOM     53  C   UNL A   1      37.354  34.210  33.637  1.00  0.00     0.031 C 
ATOM     54  C   UNL A   1      41.643  31.913  37.273  1.00  0.00     0.029 A 
ATOM     55  C   UNL A   1      40.796  32.122  36.196  1.00  0.00     0.049 A 
ATOM     56  H   UNL A   1      40.594  30.994  34.426  1.00  0.00     0.167 HD
ATOM     57  C   UNL A   1      39.017  33.298  34.928  1.00  0.00     0.074 A 
ATOM     58  C   UNL A   1      38.051  34.364  34.754  1.00  0.00     0.031 C 
ATOM     59  C   UNL A   1      39.830  33.175  36.007  1.00  0.00     0.037 A 
BRANCH  46  60
ATOM     60  C   UNL A   1      43.647  28.313  35.750  1.00  0.00     0.058 A 
ATOM     61  C   UNL A   1      45.012  28.581  35.549  1.00  0.00     0.135 A 
ATOM     62  C   UNL A   1      43.310  27.273  36.631  1.00  0.00     0.135 A 
ATOM     63  F   UNL A   1      45.392  29.553  34.704  1.00  0.00    -0.206 F 
ATOM     64  C   UNL A   1      46.002  27.828  36.172  1.00  0.00     0.059 A 
ATOM     65  C   UNL A   1      44.284  26.525  37.286  1.00  0.00     0.059 A 
ATOM     66  F   UNL A   1      42.021  26.975  36.862  1.00  0.00    -0.206 F 
ATOM     67  C   UNL A   1      45.628  26.800  37.038  1.00  0.00     0.060 A 
BRANCH  67  68
ATOM     68  S   UNL A   1      46.924  25.835  37.845  1.00  0.00     0.124 S 
ATOM     69  O   UNL A   1      48.084  26.703  37.666  1.00  0.00    -0.237 OA
ATOM     70  O   UNL A   1      46.425  25.719  39.211  1.00  0.00    -0.237 OA
ATOM     71  O   UNL A   1      46.946  24.592  37.081  1.00  0.00    -0.744 OA
ENDBRANCH  67  68
ENDBRANCH  46  60
BRANCH  47  72
ATOM     72  C   UNL A   1      36.393  33.310  31.021  1.00  0.00     0.058 A 
ATOM     73  C   UNL A   1      36.673  34.150  29.932  1.00  0.00     0.135 A 
ATOM     74  C   UNL A   1      35.055  33.184  31.424  1.00  0.00     0.135 A 
ATOM     75  F   UNL A   1      37.938  34.305  29.514  1.00  0.00    -0.206 F 
ATOM     76  C   UNL A   1      35.669  34.858  29.281  1.00  0.00     0.059 A 
ATOM     77  C   UNL A   1      34.030  33.862  30.772  1.00  0.00     0.059 A 
ATOM     78  F   UNL A   1      34.734  32.375  32.445  1.00  0.00    -0.206 F 
ATOM     79  C   UNL A   1      34.349  34.706  29.709  1.00  0.00     0.060 A 
BRANCH  79  80
ATOM     80  S   UNL A   1      33.044  35.592  28.828  1.00  0.00     0.124 S 
ATOM     81  O   UNL A   1      33.809  36.612  28.121  1.00  0.00    -0.237 OA
ATOM     82  O   UNL A   1      32.461  34.542  28.001  1.00  0.00    -0.237 OA
ATOM     83  O   UNL A   1      32.186  36.078  29.906  1.00  0.00    -0.744 OA
ENDBRANCH  79  80
ENDBRANCH  47  72
BRANCH  59  84
ATOM     84  C   UNL A   1      39.723  34.239  37.063  1.00  0.00     0.058 A 
ATOM     85  C   UNL A   1      38.937  34.065  38.211  1.00  0.00     0.135 A 
ATOM     86  C   UNL A   1      40.417  35.452  36.920  1.00  0.00     0.135 A 
ATOM     87  F   UNL A   1      38.251  32.925  38.393  1.00  0.00    -0.206 F 
ATOM     88  C   UNL A   1      38.802  35.073  39.160  1.00  0.00     0.059 A 
ATOM     89  C   UNL A   1      40.319  36.464  37.870  1.00  0.00     0.059 A 
ATOM     90  F   UNL A   1      41.195  35.665  35.847  1.00  0.00    -0.206 F 
ATOM     91  C   UNL A   1      39.491  36.273  38.975  1.00  0.00     0.060 A 
BRANCH  91  92
ATOM     92  S   UNL A   1      39.302  37.583  40.203  1.00  0.00     0.124 S 
ATOM     93  O   UNL A   1      38.903  36.823  41.382  1.00  0.00    -0.237 OA
ATOM     94  O   UNL A   1      40.638  38.170  40.249  1.00  0.00    -0.237 OA
ATOM     95  O   UNL A   1      38.269  38.439  39.626  1.00  0.00    -0.744 OA
ENDBRANCH  91  92
ENDBRANCH  59  84
ENDBRANCH  33  34
ENDBRANCH  25  28
ENDBRANCH  23  24
ENDBRANCH   1  23
TORSDOF 15
ENDMDL
