MODEL 1
REMARK VINA RESULT:     -10.8      0.000      0.000
REMARK SMILES O=C1Nc2ccc(Br)cc2/C1=N/c1ccc(C(=O)NCCCNC(=O)c2ccc(-c3c4nc(c(-c5c(F)cc(S(=O)(=O)[O-])cc5F)c5ccc([nH]5)c(-c5c(F)cc(S(=O)(=O)[O-])cc5F)c5nc(c(-c6c(F)cc(S(=O)(=O)[O-])cc6F)c6ccc3[nH]6)C=C5)C=C4)cc2)cc1
REMARK SMILES IDX 22 1 21 2 20 3 19 4 17 5 18 6 16 8 13 9 14 10 93 11 15 12
REMARK SMILES IDX 92 13 12 14 1 15 2 16 3 17 11 18 4 19 10 21 5 22 9 23 6 24
REMARK SMILES IDX 7 25 8 26 23 27 24 28 25 30 26 31 27 32 91 33 28 34 90 35
REMARK SMILES IDX 29 36 30 37 31 38 84 39 32 40 89 41 83 42 85 43 33 44 88 45
REMARK SMILES IDX 82 46 81 47 34 49 68 50 47 51 67 52 48 53 51 54 66 55 86 56
REMARK SMILES IDX 49 57 50 58 65 60 87 61 52 62 35 63 36 64 45 65 37 66 38 67
REMARK SMILES IDX 44 68 46 69 39 70 40 71 41 72 42 73 43 74 69 75 70 76 79 77
REMARK SMILES IDX 71 78 72 79 78 80 80 81 73 82 74 83 75 84 76 85 77 86 53 87
REMARK SMILES IDX 54 88 63 89 55 90 56 91 62 92 64 93 57 94 58 95 59 96 60 97
REMARK SMILES IDX 61 98
REMARK H PARENT 19 7 3 20 23 29 85 48 51 59
REMARK Flexibility Score: inf
ROOT
ATOM      1  C   UNL A   1      34.625  32.690  28.230  1.00  0.00     0.118 C 
ENDROOT
BRANCH   1   2
ATOM      2  C   UNL A   1      33.693  33.897  28.160  1.00  0.00     0.042 C 
BRANCH   2   3
ATOM      3  C   UNL A   1      34.210  35.108  28.939  1.00  0.00     0.118 C 
BRANCH   3   4
ATOM      4  N   UNL A   1      33.562  35.210  30.234  1.00  0.00    -0.352 N 
ATOM      5  C   UNL A   1      33.873  34.672  31.457  1.00  0.00     0.251 C 
ATOM      6  O   UNL A   1      33.178  34.990  32.421  1.00  0.00    -0.269 OA
ATOM      7  H   UNL A   1      32.750  35.767  30.235  1.00  0.00     0.163 HD
BRANCH   5   8
ATOM      8  C   UNL A   1      35.044  33.778  31.671  1.00  0.00     0.039 A 
ATOM      9  C   UNL A   1      37.139  31.980  32.212  1.00  0.00     0.064 A 
ATOM     10  C   UNL A   1      35.824  31.525  32.157  1.00  0.00     0.029 A 
ATOM     11  C   UNL A   1      37.410  33.315  31.906  1.00  0.00     0.029 A 
ATOM     12  C   UNL A   1      34.781  32.419  31.894  1.00  0.00     0.016 A 
ATOM     13  C   UNL A   1      36.372  34.205  31.622  1.00  0.00     0.016 A 
BRANCH   9  14
ATOM     14  N   UNL A   1      38.187  31.096  32.481  1.00  0.00    -0.243 NA
ATOM     15  O   UNL A   1      37.169  32.367  35.160  1.00  0.00    -0.267 OA
ATOM     16  C   UNL A   1      38.131  31.656  35.005  1.00  0.00     0.275 C 
ATOM     17  N   UNL A   1      39.030  31.243  35.973  1.00  0.00    -0.320 N 
ATOM     18  C   UNL A   1      38.623  30.994  33.696  1.00  0.00     0.138 C 
ATOM     19  C   UNL A   1      39.996  30.402  35.435  1.00  0.00     0.051 A 
ATOM     20  H   UNL A   1      38.990  31.510  36.920  1.00  0.00     0.170 HD
ATOM     21  C   UNL A   1      39.788  30.200  34.072  1.00  0.00     0.031 A 
ATOM     22  C   UNL A   1      41.058  29.817  36.089  1.00  0.00     0.028 A 
ATOM     23  C   UNL A   1      40.622  29.422  33.295  1.00  0.00     0.028 A 
ATOM     24  C   UNL A   1      41.923  29.020  35.326  1.00  0.00     0.018 A 
ATOM     25  C   UNL A   1      41.701  28.828  33.946  1.00  0.00     0.018 A 
ATOM     26  Br  UNL A   1      42.903  27.754  32.956  1.00  0.00    -0.051 Br
ENDBRANCH   9  14
ENDBRANCH   5   8
ENDBRANCH   3   4
ENDBRANCH   2   3
ENDBRANCH   1   2
BRANCH   1  27
ATOM     27  N   UNL A   1      33.896  31.439  28.092  1.00  0.00    -0.352 N 
ATOM     28  C   UNL A   1      34.354  30.160  27.914  1.00  0.00     0.251 C 
ATOM     29  H   UNL A   1      32.916  31.524  28.133  1.00  0.00     0.163 HD
ATOM     30  O   UNL A   1      33.559  29.290  27.562  1.00  0.00    -0.269 OA
BRANCH  28  31
ATOM     31  C   UNL A   1      35.776  29.815  28.137  1.00  0.00     0.039 A 
ATOM     32  C   UNL A   1      36.154  29.338  29.396  1.00  0.00     0.014 A 
ATOM     33  C   UNL A   1      36.748  30.030  27.157  1.00  0.00     0.014 A 
ATOM     34  C   UNL A   1      37.496  29.055  29.658  1.00  0.00     0.010 A 
ATOM     35  C   UNL A   1      38.074  29.670  27.393  1.00  0.00     0.010 A 
ATOM     36  C   UNL A   1      38.466  29.200  28.653  1.00  0.00    -0.014 A 
BRANCH  36  37
ATOM     37  C   UNL A   1      39.894  28.888  28.925  1.00  0.00     0.031 A 
ATOM     38  C   UNL A   1      40.789  29.918  29.562  1.00  0.00     0.074 A 
ATOM     39  C   UNL A   1      40.386  27.682  28.577  1.00  0.00     0.049 A 
ATOM     40  N   UNL A   1      42.058  29.832  29.869  1.00  0.00    -0.248 NA
ATOM     41  C   UNL A   1      40.187  31.224  29.878  1.00  0.00     0.031 C 
ATOM     42  C   UNL A   1      39.626  26.619  27.914  1.00  0.00     0.029 A 
ATOM     43  N   UNL A   1      41.638  27.144  28.733  1.00  0.00    -0.354 N 
ATOM     44  C   UNL A   1      42.404  31.065  30.409  1.00  0.00     0.074 A 
ATOM     45  C   UNL A   1      41.230  31.905  30.327  1.00  0.00     0.031 C 
ATOM     46  C   UNL A   1      40.417  25.546  27.755  1.00  0.00     0.029 A 
ATOM     47  C   UNL A   1      41.749  25.856  28.264  1.00  0.00     0.049 A 
ATOM     48  H   UNL A   1      42.387  27.634  29.143  1.00  0.00     0.167 HD
ATOM     49  C   UNL A   1      43.584  31.454  30.950  1.00  0.00     0.037 A 
ATOM     50  C   UNL A   1      42.805  25.020  28.244  1.00  0.00     0.037 A 
ATOM     51  C   UNL A   1      44.744  30.604  31.043  1.00  0.00     0.049 A 
ATOM     52  C   UNL A   1      44.111  25.484  28.832  1.00  0.00     0.074 A 
ATOM     53  C   UNL A   1      45.974  30.885  31.610  1.00  0.00     0.029 A 
ATOM     54  N   UNL A   1      44.818  29.308  30.552  1.00  0.00    -0.354 N 
ATOM     55  N   UNL A   1      44.402  26.633  29.395  1.00  0.00    -0.248 NA
ATOM     56  C   UNL A   1      45.232  24.535  28.787  1.00  0.00     0.031 C 
ATOM     57  C   UNL A   1      46.808  29.779  31.418  1.00  0.00     0.029 A 
ATOM     58  C   UNL A   1      46.080  28.785  30.783  1.00  0.00     0.049 A 
ATOM     59  H   UNL A   1      44.082  28.830  30.106  1.00  0.00     0.167 HD
ATOM     60  C   UNL A   1      45.729  26.534  29.798  1.00  0.00     0.074 A 
ATOM     61  C   UNL A   1      46.177  25.207  29.430  1.00  0.00     0.031 C 
ATOM     62  C   UNL A   1      46.507  27.457  30.415  1.00  0.00     0.037 A 
BRANCH  49  63
ATOM     63  C   UNL A   1      43.678  32.855  31.495  1.00  0.00     0.058 A 
ATOM     64  C   UNL A   1      44.101  33.930  30.694  1.00  0.00     0.135 A 
ATOM     65  C   UNL A   1      43.301  33.138  32.818  1.00  0.00     0.135 A 
ATOM     66  F   UNL A   1      44.486  33.719  29.427  1.00  0.00    -0.206 F 
ATOM     67  C   UNL A   1      44.173  35.226  31.193  1.00  0.00     0.059 A 
ATOM     68  C   UNL A   1      43.336  34.432  33.329  1.00  0.00     0.059 A 
ATOM     69  F   UNL A   1      42.889  32.151  33.629  1.00  0.00    -0.206 F 
ATOM     70  C   UNL A   1      43.787  35.468  32.513  1.00  0.00     0.060 A 
BRANCH  70  71
ATOM     71  S   UNL A   1      43.877  37.159  33.139  1.00  0.00     0.124 S 
ATOM     72  O   UNL A   1      43.809  37.931  31.902  1.00  0.00    -0.237 OA
ATOM     73  O   UNL A   1      42.700  37.236  33.998  1.00  0.00    -0.237 OA
ATOM     74  O   UNL A   1      45.160  37.199  33.833  1.00  0.00    -0.744 OA
ENDBRANCH  70  71
ENDBRANCH  49  63
BRANCH  50  75
ATOM     75  C   UNL A   1      42.668  23.654  27.670  1.00  0.00     0.058 A 
ATOM     76  C   UNL A   1      42.408  22.547  28.493  1.00  0.00     0.135 A 
ATOM     77  C   UNL A   1      42.796  23.425  26.292  1.00  0.00     0.135 A 
ATOM     78  F   UNL A   1      42.280  22.711  29.817  1.00  0.00    -0.206 F 
ATOM     79  C   UNL A   1      42.307  21.260  27.974  1.00  0.00     0.059 A 
ATOM     80  C   UNL A   1      42.669  22.152  25.744  1.00  0.00     0.059 A 
ATOM     81  F   UNL A   1      43.026  24.451  25.458  1.00  0.00    -0.206 F 
ATOM     82  C   UNL A   1      42.438  21.073  26.597  1.00  0.00     0.060 A 
BRANCH  82  83
ATOM     83  S   UNL A   1      42.275  19.403  25.931  1.00  0.00     0.124 S 
ATOM     84  O   UNL A   1      42.649  18.589  27.082  1.00  0.00    -0.237 OA
ATOM     85  O   UNL A   1      40.866  19.361  25.551  1.00  0.00    -0.237 OA
ATOM     86  O   UNL A   1      43.217  19.391  24.816  1.00  0.00    -0.744 OA
ENDBRANCH  82  83
ENDBRANCH  50  75
BRANCH  62  87
ATOM     87  C   UNL A   1      47.915  27.055  30.763  1.00  0.00     0.058 A 
ATOM     88  C   UNL A   1      48.219  26.381  31.956  1.00  0.00     0.135 A 
ATOM     89  C   UNL A   1      48.969  27.309  29.868  1.00  0.00     0.135 A 
ATOM     90  F   UNL A   1      47.251  26.118  32.849  1.00  0.00    -0.206 F 
ATOM     91  C   UNL A   1      49.520  26.002  32.266  1.00  0.00     0.059 A 
ATOM     92  C   UNL A   1      50.272  26.909  30.142  1.00  0.00     0.059 A 
ATOM     93  F   UNL A   1      48.732  27.940  28.707  1.00  0.00    -0.206 F 
ATOM     94  C   UNL A   1      50.541  26.267  31.350  1.00  0.00     0.060 A 
BRANCH  94  95
ATOM     95  S   UNL A   1      52.221  25.744  31.752  1.00  0.00     0.124 S 
ATOM     96  O   UNL A   1      52.910  25.964  30.485  1.00  0.00    -0.237 OA
ATOM     97  O   UNL A   1      52.579  26.657  32.835  1.00  0.00    -0.237 OA
ATOM     98  O   UNL A   1      52.058  24.348  32.145  1.00  0.00    -0.744 OA
ENDBRANCH  94  95
ENDBRANCH  62  87
ENDBRANCH  36  37
ENDBRANCH  28  31
ENDBRANCH   1  27
TORSDOF 14
ENDMDL
MODEL 2
REMARK VINA RESULT:     -10.7      3.140     11.127
REMARK SMILES O=C1Nc2ccc(Br)cc2/C1=N/c1ccc(C(=O)NCCCNC(=O)c2ccc(-c3c4nc(c(-c5c(F)cc(S(=O)(=O)[O-])cc5F)c5ccc([nH]5)c(-c5c(F)cc(S(=O)(=O)[O-])cc5F)c5nc(c(-c6c(F)cc(S(=O)(=O)[O-])cc6F)c6ccc3[nH]6)C=C5)C=C4)cc2)cc1
REMARK SMILES IDX 22 1 21 2 20 3 19 4 17 5 18 6 16 8 13 9 14 10 93 11 15 12
REMARK SMILES IDX 92 13 12 14 1 15 2 16 3 17 11 18 4 19 10 21 5 22 9 23 6 24
REMARK SMILES IDX 7 25 8 26 23 27 24 28 25 30 26 31 27 32 91 33 28 34 90 35
REMARK SMILES IDX 29 36 30 37 31 38 84 39 32 40 89 41 83 42 85 43 33 44 88 45
REMARK SMILES IDX 82 46 81 47 34 49 68 50 47 51 67 52 48 53 51 54 66 55 86 56
REMARK SMILES IDX 49 57 50 58 65 60 87 61 52 62 35 63 36 64 45 65 37 66 38 67
REMARK SMILES IDX 44 68 46 69 39 70 40 71 41 72 42 73 43 74 69 75 70 76 79 77
REMARK SMILES IDX 71 78 72 79 78 80 80 81 73 82 74 83 75 84 76 85 77 86 53 87
REMARK SMILES IDX 54 88 63 89 55 90 56 91 62 92 64 93 57 94 58 95 59 96 60 97
REMARK SMILES IDX 61 98
REMARK H PARENT 19 7 3 20 23 29 85 48 51 59
REMARK Flexibility Score: inf
ROOT
ATOM      1  C   UNL A   1      40.468  21.583  26.714  1.00  0.00     0.118 C 
ENDROOT
BRANCH   1   2
ATOM      2  C   UNL A   1      40.866  20.160  26.330  1.00  0.00     0.042 C 
BRANCH   2   3
ATOM      3  C   UNL A   1      42.284  19.790  26.768  1.00  0.00     0.118 C 
BRANCH   3   4
ATOM      4  N   UNL A   1      43.191  19.767  25.634  1.00  0.00    -0.352 N 
ATOM      5  C   UNL A   1      43.937  20.753  25.041  1.00  0.00     0.251 C 
ATOM      6  O   UNL A   1      44.690  20.433  24.122  1.00  0.00    -0.269 OA
ATOM      7  H   UNL A   1      43.287  18.882  25.213  1.00  0.00     0.163 HD
BRANCH   5   8
ATOM      8  C   UNL A   1      43.918  22.168  25.502  1.00  0.00     0.039 A 
ATOM      9  C   UNL A   1      43.895  24.900  26.173  1.00  0.00     0.064 A 
ATOM     10  C   UNL A   1      43.245  24.457  25.024  1.00  0.00     0.029 A 
ATOM     11  C   UNL A   1      44.477  23.963  27.029  1.00  0.00     0.029 A 
ATOM     12  C   UNL A   1      43.260  23.100  24.686  1.00  0.00     0.016 A 
ATOM     13  C   UNL A   1      44.475  22.606  26.705  1.00  0.00     0.016 A 
BRANCH   9  14
ATOM     14  N   UNL A   1      43.891  26.255  26.514  1.00  0.00    -0.243 NA
ATOM     15  O   UNL A   1      46.318  25.655  24.623  1.00  0.00    -0.267 OA
ATOM     16  C   UNL A   1      46.078  26.686  25.201  1.00  0.00     0.275 C 
ATOM     17  N   UNL A   1      46.826  27.849  25.182  1.00  0.00    -0.320 N 
ATOM     18  C   UNL A   1      44.865  27.006  26.108  1.00  0.00     0.138 C 
ATOM     19  C   UNL A   1      46.224  28.845  25.941  1.00  0.00     0.051 A 
ATOM     20  H   UNL A   1      47.674  27.958  24.694  1.00  0.00     0.170 HD
ATOM     21  C   UNL A   1      45.031  28.400  26.505  1.00  0.00     0.031 A 
ATOM     22  C   UNL A   1      46.689  30.122  26.170  1.00  0.00     0.028 A 
ATOM     23  C   UNL A   1      44.249  29.190  27.323  1.00  0.00     0.028 A 
ATOM     24  C   UNL A   1      45.915  30.949  26.997  1.00  0.00     0.018 A 
ATOM     25  C   UNL A   1      44.710  30.482  27.563  1.00  0.00     0.018 A 
ATOM     26  Br  UNL A   1      43.708  31.631  28.684  1.00  0.00    -0.051 Br
ENDBRANCH   9  14
ENDBRANCH   5   8
ENDBRANCH   3   4
ENDBRANCH   2   3
ENDBRANCH   1   2
BRANCH   1  27
ATOM     27  N   UNL A   1      39.363  22.070  25.903  1.00  0.00    -0.352 N 
ATOM     28  C   UNL A   1      38.665  23.247  25.969  1.00  0.00     0.251 C 
ATOM     29  H   UNL A   1      39.070  21.456  25.192  1.00  0.00     0.163 HD
ATOM     30  O   UNL A   1      37.604  23.342  25.355  1.00  0.00    -0.269 OA
BRANCH  28  31
ATOM     31  C   UNL A   1      39.166  24.394  26.760  1.00  0.00     0.039 A 
ATOM     32  C   UNL A   1      38.780  24.496  28.100  1.00  0.00     0.014 A 
ATOM     33  C   UNL A   1      39.939  25.404  26.182  1.00  0.00     0.014 A 
ATOM     34  C   UNL A   1      39.190  25.593  28.860  1.00  0.00     0.010 A 
ATOM     35  C   UNL A   1      40.415  26.456  26.963  1.00  0.00     0.010 A 
ATOM     36  C   UNL A   1      40.027  26.574  28.305  1.00  0.00    -0.014 A 
BRANCH  36  37
ATOM     37  C   UNL A   1      40.476  27.737  29.115  1.00  0.00     0.031 A 
ATOM     38  C   UNL A   1      41.838  27.735  29.759  1.00  0.00     0.074 A 
ATOM     39  C   UNL A   1      39.646  28.784  29.286  1.00  0.00     0.049 A 
ATOM     40  N   UNL A   1      42.400  28.652  30.504  1.00  0.00    -0.248 NA
ATOM     41  C   UNL A   1      42.671  26.538  29.557  1.00  0.00     0.031 C 
ATOM     42  C   UNL A   1      38.286  28.881  28.747  1.00  0.00     0.029 A 
ATOM     43  N   UNL A   1      39.819  29.969  29.956  1.00  0.00    -0.354 N 
ATOM     44  C   UNL A   1      43.644  28.145  30.859  1.00  0.00     0.074 A 
ATOM     45  C   UNL A   1      43.729  26.813  30.304  1.00  0.00     0.031 C 
ATOM     46  C   UNL A   1      37.765  30.074  29.077  1.00  0.00     0.029 A 
ATOM     47  C   UNL A   1      38.734  30.809  29.884  1.00  0.00     0.049 A 
ATOM     48  H   UNL A   1      40.645  30.195  30.443  1.00  0.00     0.167 HD
ATOM     49  C   UNL A   1      44.637  28.745  31.560  1.00  0.00     0.037 A 
ATOM     50  C   UNL A   1      38.539  32.034  30.410  1.00  0.00     0.037 A 
ATOM     51  C   UNL A   1      44.549  30.080  32.095  1.00  0.00     0.049 A 
ATOM     52  C   UNL A   1      39.649  32.670  31.204  1.00  0.00     0.074 A 
ATOM     53  C   UNL A   1      45.511  30.797  32.782  1.00  0.00     0.029 A 
ATOM     54  N   UNL A   1      43.431  30.897  32.004  1.00  0.00    -0.354 N 
ATOM     55  N   UNL A   1      40.844  32.199  31.476  1.00  0.00    -0.248 NA
ATOM     56  C   UNL A   1      39.389  34.006  31.756  1.00  0.00     0.031 C 
ATOM     57  C   UNL A   1      44.959  32.027  33.152  1.00  0.00     0.029 A 
ATOM     58  C   UNL A   1      43.672  32.102  32.645  1.00  0.00     0.049 A 
ATOM     59  H   UNL A   1      42.590  30.656  31.553  1.00  0.00     0.167 HD
ATOM     60  C   UNL A   1      41.486  33.194  32.206  1.00  0.00     0.074 A 
ATOM     61  C   UNL A   1      40.555  34.297  32.315  1.00  0.00     0.031 C 
ATOM     62  C   UNL A   1      42.733  33.194  32.738  1.00  0.00     0.037 A 
BRANCH  49  63
ATOM     63  C   UNL A   1      45.908  27.968  31.779  1.00  0.00     0.058 A 
ATOM     64  C   UNL A   1      46.115  27.205  32.941  1.00  0.00     0.135 A 
ATOM     65  C   UNL A   1      46.915  27.949  30.800  1.00  0.00     0.135 A 
ATOM     66  F   UNL A   1      45.194  27.195  33.917  1.00  0.00    -0.206 F 
ATOM     67  C   UNL A   1      47.283  26.476  33.136  1.00  0.00     0.059 A 
ATOM     68  C   UNL A   1      48.080  27.202  30.961  1.00  0.00     0.059 A 
ATOM     69  F   UNL A   1      46.774  28.659  29.670  1.00  0.00    -0.206 F 
ATOM     70  C   UNL A   1      48.261  26.480  32.140  1.00  0.00     0.060 A 
BRANCH  70  71
ATOM     71  S   UNL A   1      49.765  25.518  32.406  1.00  0.00     0.124 S 
ATOM     72  O   UNL A   1      50.095  25.111  31.044  1.00  0.00    -0.237 OA
ATOM     73  O   UNL A   1      50.660  26.501  33.008  1.00  0.00    -0.237 OA
ATOM     74  O   UNL A   1      49.331  24.444  33.293  1.00  0.00    -0.744 OA
ENDBRANCH  70  71
ENDBRANCH  49  63
BRANCH  50  75
ATOM     75  C   UNL A   1      37.253  32.749  30.187  1.00  0.00     0.058 A 
ATOM     76  C   UNL A   1      37.104  33.653  29.124  1.00  0.00     0.135 A 
ATOM     77  C   UNL A   1      36.150  32.548  31.030  1.00  0.00     0.135 A 
ATOM     78  F   UNL A   1      38.129  33.884  28.292  1.00  0.00    -0.206 F 
ATOM     79  C   UNL A   1      35.918  34.351  28.921  1.00  0.00     0.059 A 
ATOM     80  C   UNL A   1      34.943  33.211  30.831  1.00  0.00     0.059 A 
ATOM     81  F   UNL A   1      36.232  31.680  32.051  1.00  0.00    -0.206 F 
ATOM     82  C   UNL A   1      34.841  34.122  29.780  1.00  0.00     0.060 A 
BRANCH  82  83
ATOM     83  S   UNL A   1      33.297  35.011  29.489  1.00  0.00     0.124 S 
ATOM     84  O   UNL A   1      33.785  36.308  29.034  1.00  0.00    -0.237 OA
ATOM     85  O   UNL A   1      32.652  34.180  28.477  1.00  0.00    -0.237 OA
ATOM     86  O   UNL A   1      32.652  35.003  30.799  1.00  0.00    -0.744 OA
ENDBRANCH  82  83
ENDBRANCH  50  75
BRANCH  62  87
ATOM     87  C   UNL A   1      43.178  34.438  33.460  1.00  0.00     0.058 A 
ATOM     88  C   UNL A   1      43.812  35.495  32.789  1.00  0.00     0.135 A 
ATOM     89  C   UNL A   1      42.927  34.590  34.834  1.00  0.00     0.135 A 
ATOM     90  F   UNL A   1      44.082  35.399  31.478  1.00  0.00    -0.206 F 
ATOM     91  C   UNL A   1      44.210  36.647  33.460  1.00  0.00     0.059 A 
ATOM     92  C   UNL A   1      43.285  35.747  35.518  1.00  0.00     0.059 A 
ATOM     93  F   UNL A   1      42.313  33.614  35.522  1.00  0.00    -0.206 F 
ATOM     94  C   UNL A   1      43.939  36.765  34.825  1.00  0.00     0.060 A 
BRANCH  94  95
ATOM     95  S   UNL A   1      44.435  38.277  35.677  1.00  0.00     0.124 S 
ATOM     96  O   UNL A   1      43.836  39.303  34.830  1.00  0.00    -0.237 OA
ATOM     97  O   UNL A   1      43.825  38.106  36.993  1.00  0.00    -0.237 OA
ATOM     98  O   UNL A   1      45.893  38.217  35.655  1.00  0.00    -0.744 OA
ENDBRANCH  94  95
ENDBRANCH  62  87
ENDBRANCH  36  37
ENDBRANCH  28  31
ENDBRANCH   1  27
TORSDOF 14
ENDMDL
MODEL 3
REMARK VINA RESULT:     -10.7      3.118     11.084
REMARK SMILES O=C1Nc2ccc(Br)cc2/C1=N/c1ccc(C(=O)NCCCNC(=O)c2ccc(-c3c4nc(c(-c5c(F)cc(S(=O)(=O)[O-])cc5F)c5ccc([nH]5)c(-c5c(F)cc(S(=O)(=O)[O-])cc5F)c5nc(c(-c6c(F)cc(S(=O)(=O)[O-])cc6F)c6ccc3[nH]6)C=C5)C=C4)cc2)cc1
REMARK SMILES IDX 22 1 21 2 20 3 19 4 17 5 18 6 16 8 13 9 14 10 93 11 15 12
REMARK SMILES IDX 92 13 12 14 1 15 2 16 3 17 11 18 4 19 10 21 5 22 9 23 6 24
REMARK SMILES IDX 7 25 8 26 23 27 24 28 25 30 26 31 27 32 91 33 28 34 90 35
REMARK SMILES IDX 29 36 30 37 31 38 84 39 32 40 89 41 83 42 85 43 33 44 88 45
REMARK SMILES IDX 82 46 81 47 34 49 68 50 47 51 67 52 48 53 51 54 66 55 86 56
REMARK SMILES IDX 49 57 50 58 65 60 87 61 52 62 35 63 36 64 45 65 37 66 38 67
REMARK SMILES IDX 44 68 46 69 39 70 40 71 41 72 42 73 43 74 69 75 70 76 79 77
REMARK SMILES IDX 71 78 72 79 78 80 80 81 73 82 74 83 75 84 76 85 77 86 53 87
REMARK SMILES IDX 54 88 63 89 55 90 56 91 62 92 64 93 57 94 58 95 59 96 60 97
REMARK SMILES IDX 61 98
REMARK H PARENT 19 7 3 20 23 29 85 48 51 59
REMARK Flexibility Score: inf
ROOT
ATOM      1  C   UNL A   1      40.507  21.581  26.807  1.00  0.00     0.118 C 
ENDROOT
BRANCH   1   2
ATOM      2  C   UNL A   1      40.907  20.134  26.533  1.00  0.00     0.042 C 
BRANCH   2   3
ATOM      3  C   UNL A   1      42.332  19.805  26.983  1.00  0.00     0.118 C 
BRANCH   3   4
ATOM      4  N   UNL A   1      43.240  19.760  25.851  1.00  0.00    -0.352 N 
ATOM      5  C   UNL A   1      43.981  20.735  25.234  1.00  0.00     0.251 C 
ATOM      6  O   UNL A   1      44.737  20.397  24.325  1.00  0.00    -0.269 OA
ATOM      7  H   UNL A   1      43.342  18.866  25.452  1.00  0.00     0.163 HD
BRANCH   5   8
ATOM      8  C   UNL A   1      43.952  22.161  25.661  1.00  0.00     0.039 A 
ATOM      9  C   UNL A   1      43.915  24.909  26.264  1.00  0.00     0.064 A 
ATOM     10  C   UNL A   1      43.284  24.437  25.115  1.00  0.00     0.029 A 
ATOM     11  C   UNL A   1      44.483  23.994  27.153  1.00  0.00     0.029 A 
ATOM     12  C   UNL A   1      43.307  23.072  24.811  1.00  0.00     0.016 A 
ATOM     13  C   UNL A   1      44.488  22.629  26.862  1.00  0.00     0.016 A 
BRANCH   9  14
ATOM     14  N   UNL A   1      43.904  26.272  26.572  1.00  0.00    -0.243 NA
ATOM     15  O   UNL A   1      46.298  25.649  24.647  1.00  0.00    -0.267 OA
ATOM     16  C   UNL A   1      46.059  26.691  25.204  1.00  0.00     0.275 C 
ATOM     17  N   UNL A   1      46.794  27.861  25.142  1.00  0.00    -0.320 N 
ATOM     18  C   UNL A   1      44.862  27.022  26.128  1.00  0.00     0.138 C 
ATOM     19  C   UNL A   1      46.198  28.870  25.888  1.00  0.00     0.051 A 
ATOM     20  H   UNL A   1      47.631  27.966  24.634  1.00  0.00     0.170 HD
ATOM     21  C   UNL A   1      45.021  28.427  26.487  1.00  0.00     0.031 A 
ATOM     22  C   UNL A   1      46.654  30.156  26.076  1.00  0.00     0.028 A 
ATOM     23  C   UNL A   1      44.248  29.229  27.302  1.00  0.00     0.028 A 
ATOM     24  C   UNL A   1      45.889  30.996  26.899  1.00  0.00     0.018 A 
ATOM     25  C   UNL A   1      44.700  30.531  27.501  1.00  0.00     0.018 A 
ATOM     26  Br  UNL A   1      43.710  31.697  28.613  1.00  0.00    -0.051 Br
ENDBRANCH   9  14
ENDBRANCH   5   8
ENDBRANCH   3   4
ENDBRANCH   2   3
ENDBRANCH   1   2
BRANCH   1  27
ATOM     27  N   UNL A   1      39.433  22.018  25.927  1.00  0.00    -0.352 N 
ATOM     28  C   UNL A   1      38.683  23.164  25.944  1.00  0.00     0.251 C 
ATOM     29  H   UNL A   1      39.209  21.389  25.204  1.00  0.00     0.163 HD
ATOM     30  O   UNL A   1      37.658  23.211  25.267  1.00  0.00    -0.269 OA
BRANCH  28  31
ATOM     31  C   UNL A   1      39.086  24.334  26.757  1.00  0.00     0.039 A 
ATOM     32  C   UNL A   1      39.940  25.280  26.182  1.00  0.00     0.014 A 
ATOM     33  C   UNL A   1      38.702  24.469  28.094  1.00  0.00     0.014 A 
ATOM     34  C   UNL A   1      40.384  26.367  26.937  1.00  0.00     0.010 A 
ATOM     35  C   UNL A   1      39.079  25.597  28.821  1.00  0.00     0.010 A 
ATOM     36  C   UNL A   1      39.942  26.547  28.258  1.00  0.00    -0.014 A 
BRANCH  36  37
ATOM     37  C   UNL A   1      40.403  27.709  29.061  1.00  0.00     0.031 A 
ATOM     38  C   UNL A   1      41.770  27.703  29.694  1.00  0.00     0.074 A 
ATOM     39  C   UNL A   1      39.579  28.761  29.237  1.00  0.00     0.049 A 
ATOM     40  N   UNL A   1      42.343  28.619  30.432  1.00  0.00    -0.248 NA
ATOM     41  C   UNL A   1      42.596  26.501  29.488  1.00  0.00     0.031 C 
ATOM     42  C   UNL A   1      38.215  28.862  28.710  1.00  0.00     0.029 A 
ATOM     43  N   UNL A   1      39.763  29.946  29.903  1.00  0.00    -0.354 N 
ATOM     44  C   UNL A   1      43.588  28.106  30.778  1.00  0.00     0.074 A 
ATOM     45  C   UNL A   1      43.662  26.773  30.226  1.00  0.00     0.031 C 
ATOM     46  C   UNL A   1      37.703  30.059  29.041  1.00  0.00     0.029 A 
ATOM     47  C   UNL A   1      38.682  30.792  29.838  1.00  0.00     0.049 A 
ATOM     48  H   UNL A   1      40.594  30.169  30.382  1.00  0.00     0.167 HD
ATOM     49  C   UNL A   1      44.589  28.703  31.469  1.00  0.00     0.037 A 
ATOM     50  C   UNL A   1      38.497  32.018  30.363  1.00  0.00     0.037 A 
ATOM     51  C   UNL A   1      44.511  30.040  32.002  1.00  0.00     0.049 A 
ATOM     52  C   UNL A   1      39.617  32.651  31.146  1.00  0.00     0.074 A 
ATOM     53  C   UNL A   1      45.483  30.754  32.680  1.00  0.00     0.029 A 
ATOM     54  N   UNL A   1      43.397  30.862  31.919  1.00  0.00    -0.354 N 
ATOM     55  N   UNL A   1      40.811  32.175  31.410  1.00  0.00    -0.248 NA
ATOM     56  C   UNL A   1      39.367  33.989  31.698  1.00  0.00     0.031 C 
ATOM     57  C   UNL A   1      44.940  31.987  33.052  1.00  0.00     0.029 A 
ATOM     58  C   UNL A   1      43.649  32.067  32.555  1.00  0.00     0.049 A 
ATOM     59  H   UNL A   1      42.551  30.624  31.475  1.00  0.00     0.167 HD
ATOM     60  C   UNL A   1      41.465  33.168  32.132  1.00  0.00     0.074 A 
ATOM     61  C   UNL A   1      40.539  34.276  32.247  1.00  0.00     0.031 C 
ATOM     62  C   UNL A   1      42.716  33.164  32.654  1.00  0.00     0.037 A 
BRANCH  49  63
ATOM     63  C   UNL A   1      45.859  27.921  31.679  1.00  0.00     0.058 A 
ATOM     64  C   UNL A   1      46.051  27.121  32.818  1.00  0.00     0.135 A 
ATOM     65  C   UNL A   1      46.878  27.935  30.714  1.00  0.00     0.135 A 
ATOM     66  F   UNL A   1      45.118  27.078  33.781  1.00  0.00    -0.206 F 
ATOM     67  C   UNL A   1      47.218  26.387  33.005  1.00  0.00     0.059 A 
ATOM     68  C   UNL A   1      48.042  27.185  30.865  1.00  0.00     0.059 A 
ATOM     69  F   UNL A   1      46.750  28.682  29.606  1.00  0.00    -0.206 F 
ATOM     70  C   UNL A   1      48.208  26.424  32.022  1.00  0.00     0.060 A 
BRANCH  70  71
ATOM     71  S   UNL A   1      49.710  25.456  32.277  1.00  0.00     0.124 S 
ATOM     72  O   UNL A   1      49.983  24.982  30.923  1.00  0.00    -0.237 OA
ATOM     73  O   UNL A   1      50.639  26.453  32.797  1.00  0.00    -0.237 OA
ATOM     74  O   UNL A   1      49.298  24.430  33.229  1.00  0.00    -0.744 OA
ENDBRANCH  70  71
ENDBRANCH  49  63
BRANCH  50  75
ATOM     75  C   UNL A   1      37.213  32.739  30.150  1.00  0.00     0.058 A 
ATOM     76  C   UNL A   1      37.067  33.661  29.102  1.00  0.00     0.135 A 
ATOM     77  C   UNL A   1      36.107  32.525  30.987  1.00  0.00     0.135 A 
ATOM     78  F   UNL A   1      38.095  33.905  28.276  1.00  0.00    -0.206 F 
ATOM     79  C   UNL A   1      35.882  34.364  28.908  1.00  0.00     0.059 A 
ATOM     80  C   UNL A   1      34.901  33.193  30.795  1.00  0.00     0.059 A 
ATOM     81  F   UNL A   1      36.186  31.640  31.993  1.00  0.00    -0.206 F 
ATOM     82  C   UNL A   1      34.804  34.122  29.760  1.00  0.00     0.060 A 
BRANCH  82  83
ATOM     83  S   UNL A   1      33.261  35.017  29.481  1.00  0.00     0.124 S 
ATOM     84  O   UNL A   1      32.613  34.180  28.477  1.00  0.00    -0.237 OA
ATOM     85  O   UNL A   1      32.656  35.007  30.808  1.00  0.00    -0.237 OA
ATOM     86  O   UNL A   1      33.711  36.326  29.015  1.00  0.00    -0.744 OA
ENDBRANCH  82  83
ENDBRANCH  50  75
BRANCH  62  87
ATOM     87  C   UNL A   1      43.172  34.407  33.369  1.00  0.00     0.058 A 
ATOM     88  C   UNL A   1      43.040  34.552  34.759  1.00  0.00     0.135 A 
ATOM     89  C   UNL A   1      43.788  35.450  32.657  1.00  0.00     0.135 A 
ATOM     90  F   UNL A   1      42.453  33.589  35.486  1.00  0.00    -0.206 F 
ATOM     91  C   UNL A   1      43.474  35.699  35.414  1.00  0.00     0.059 A 
ATOM     92  C   UNL A   1      44.260  36.591  33.297  1.00  0.00     0.059 A 
ATOM     93  F   UNL A   1      43.950  35.359  31.327  1.00  0.00    -0.206 F 
ATOM     94  C   UNL A   1      44.087  36.713  34.675  1.00  0.00     0.060 A 
BRANCH  94  95
ATOM     95  S   UNL A   1      44.670  38.184  35.542  1.00  0.00     0.124 S 
ATOM     96  O   UNL A   1      44.324  39.241  34.597  1.00  0.00    -0.237 OA
ATOM     97  O   UNL A   1      43.884  38.151  36.773  1.00  0.00    -0.237 OA
ATOM     98  O   UNL A   1      46.099  37.935  35.711  1.00  0.00    -0.744 OA
ENDBRANCH  94  95
ENDBRANCH  62  87
ENDBRANCH  36  37
ENDBRANCH  28  31
ENDBRANCH   1  27
TORSDOF 14
ENDMDL
