MODEL 1
REMARK VINA RESULT:     -12.3      0.000      0.000
REMARK SMILES Cc1c(NS(=O)(=O)c2ncn(C)c2Cl)cccc1C(=O)NCCCNC(=O)c1ccc(-c2c3nc(c(-c4c(F)cc(S(=O)(=O)[O-])cc4F)c4ccc([nH]4)c(-c4c(F)cc(S(=O)(=O)[O-])cc4F)c4nc(c(-c5c(F)cc(S(=O)(=O)[O-])cc5F)c5ccc2[nH]5)C=C4)C=C3)cc1
REMARK SMILES IDX 23 1 22 2 21 3 19 4 20 5 18 7 1 8 2 9 3 10 15 11 17 12 16 13
REMARK SMILES IDX 4 14 5 16 6 17 7 18 8 19 9 20 13 21 10 22 11 23 14 24 12 25
REMARK SMILES IDX 24 26 25 27 26 28 27 30 28 31 29 32 93 33 30 34 92 35 31 36
REMARK SMILES IDX 32 37 33 38 86 39 34 40 91 41 85 42 87 43 35 44 90 45 84 46
REMARK SMILES IDX 83 47 36 49 70 50 49 51 69 52 50 53 53 54 68 55 88 56 51 57
REMARK SMILES IDX 52 58 67 60 89 61 54 62 37 63 38 64 47 65 39 66 40 67 46 68
REMARK SMILES IDX 48 69 41 70 42 71 43 72 44 73 45 74 71 75 72 76 81 77 73 78
REMARK SMILES IDX 74 79 80 80 82 81 75 82 76 83 77 84 78 85 79 86 55 87 56 88
REMARK SMILES IDX 65 89 57 90 58 91 64 92 66 93 59 94 60 95 61 96 62 97 63 98
REMARK H PARENT 21 6 4 15 25 29 87 48 53 59
REMARK Flexibility Score: inf
ROOT
ATOM      1  C   UNL A   1      39.139  21.778  26.290  1.00  0.00     0.042 C 
ENDROOT
BRANCH   1   2
ATOM      2  C   UNL A   1      38.793  20.685  25.133  1.00  0.00     0.118 C 
BRANCH   2   3
ATOM      3  N   UNL A   1      37.468  20.023  25.118  1.00  0.00    -0.352 N 
ATOM      4  C   UNL A   1      36.131  20.342  25.010  1.00  0.00     0.251 C 
ATOM      5  O   UNL A   1      35.311  19.462  24.730  1.00  0.00    -0.269 OA
ATOM      6  H   UNL A   1      37.575  19.049  25.215  1.00  0.00     0.163 HD
BRANCH   4   7
ATOM      7  C   UNL A   1      35.578  21.706  25.215  1.00  0.00     0.044 A 
ATOM      8  C   UNL A   1      36.618  22.671  23.124  1.00  0.00     0.047 C 
ATOM      9  C   UNL A   1      35.624  22.720  24.248  1.00  0.00    -0.014 A 
ATOM     10  C   UNL A   1      34.919  23.910  24.463  1.00  0.00     0.053 A 
ATOM     11  C   UNL A   1      34.661  24.274  25.782  1.00  0.00     0.027 A 
ATOM     12  C   UNL A   1      35.163  22.047  26.519  1.00  0.00     0.014 A 
ATOM     13  C   UNL A   1      34.777  23.350  26.817  1.00  0.00     0.003 A 
BRANCH  10  14
ATOM     14  N   UNL A   1      34.735  24.835  23.373  1.00  0.00    -0.278 N 
ATOM     15  H   UNL A   1      35.453  25.470  23.147  1.00  0.00     0.180 HD
BRANCH  14  16
ATOM     16  S   UNL A   1      33.284  24.843  22.466  1.00  0.00     0.282 S 
ATOM     17  O   UNL A   1      33.136  26.189  21.960  1.00  0.00    -0.199 OA
ATOM     18  O   UNL A   1      33.325  23.723  21.540  1.00  0.00    -0.199 OA
BRANCH  16  19
ATOM     19  C   UNL A   1      31.893  24.572  23.468  1.00  0.00     0.213 A 
ATOM     20  N   UNL A   1      31.094  25.602  23.957  1.00  0.00    -0.222 NA
ATOM     21  C   UNL A   1      31.543  23.387  24.078  1.00  0.00     0.149 A 
ATOM     22  C   UNL A   1      30.384  25.059  24.921  1.00  0.00     0.202 A 
ATOM     23  N   UNL A   1      30.732  23.748  25.119  1.00  0.00    -0.324 N 
ATOM     24  Cl  UNL A   1      32.109  21.789  23.922  1.00  0.00    -0.061 Cl
ATOM     25  C   UNL A   1      30.568  23.076  26.387  1.00  0.00     0.152 C 
ENDBRANCH  16  19
ENDBRANCH  14  16
ENDBRANCH  10  14
ENDBRANCH   4   7
ENDBRANCH   2   3
ENDBRANCH   1   2
BRANCH   1  26
ATOM     26  C   UNL A   1      40.650  21.902  26.781  1.00  0.00     0.118 C 
BRANCH  26  27
ATOM     27  N   UNL A   1      41.538  23.194  26.722  1.00  0.00    -0.352 N 
ATOM     28  C   UNL A   1      41.537  24.539  27.290  1.00  0.00     0.251 C 
ATOM     29  H   UNL A   1      42.317  23.061  26.135  1.00  0.00     0.163 HD
ATOM     30  O   UNL A   1      42.538  24.769  27.992  1.00  0.00    -0.269 OA
BRANCH  28  31
ATOM     31  C   UNL A   1      40.570  25.786  27.171  1.00  0.00     0.039 A 
ATOM     32  C   UNL A   1      40.963  26.958  26.449  1.00  0.00     0.014 A 
ATOM     33  C   UNL A   1      39.333  25.937  27.776  1.00  0.00     0.014 A 
ATOM     34  C   UNL A   1      40.520  28.274  26.873  1.00  0.00     0.010 A 
ATOM     35  C   UNL A   1      38.879  27.231  28.184  1.00  0.00     0.010 A 
ATOM     36  C   UNL A   1      39.627  28.394  27.948  1.00  0.00    -0.014 A 
BRANCH  36  37
ATOM     37  C   UNL A   1      39.591  29.551  28.941  1.00  0.00     0.031 A 
ATOM     38  C   UNL A   1      38.535  30.559  28.903  1.00  0.00     0.074 A 
ATOM     39  C   UNL A   1      40.358  29.750  30.058  1.00  0.00     0.049 A 
ATOM     40  N   UNL A   1      38.733  31.838  28.976  1.00  0.00    -0.248 NA
ATOM     41  C   UNL A   1      37.144  30.153  28.917  1.00  0.00     0.031 C 
ATOM     42  C   UNL A   1      40.283  30.701  31.186  1.00  0.00     0.029 A 
ATOM     43  N   UNL A   1      41.426  29.004  30.502  1.00  0.00    -0.354 N 
ATOM     44  C   UNL A   1      37.527  32.370  29.381  1.00  0.00     0.074 A 
ATOM     45  C   UNL A   1      36.548  31.327  29.133  1.00  0.00     0.031 C 
ATOM     46  C   UNL A   1      41.443  30.681  31.883  1.00  0.00     0.029 A 
ATOM     47  C   UNL A   1      42.345  29.760  31.222  1.00  0.00     0.049 A 
ATOM     48  H   UNL A   1      41.529  28.041  30.326  1.00  0.00     0.167 HD
ATOM     49  C   UNL A   1      37.455  33.498  30.156  1.00  0.00     0.037 A 
ATOM     50  C   UNL A   1      43.607  29.939  30.712  1.00  0.00     0.037 A 
ATOM     51  C   UNL A   1      38.766  33.880  30.719  1.00  0.00     0.049 A 
ATOM     52  C   UNL A   1      43.742  31.354  30.223  1.00  0.00     0.074 A 
ATOM     53  C   UNL A   1      39.294  33.884  32.005  1.00  0.00     0.029 A 
ATOM     54  N   UNL A   1      39.856  34.072  29.888  1.00  0.00    -0.354 N 
ATOM     55  N   UNL A   1      42.953  32.315  30.608  1.00  0.00    -0.248 NA
ATOM     56  C   UNL A   1      44.683  31.789  29.194  1.00  0.00     0.031 C 
ATOM     57  C   UNL A   1      40.700  34.108  31.928  1.00  0.00     0.029 A 
ATOM     58  C   UNL A   1      41.034  34.256  30.595  1.00  0.00     0.049 A 
ATOM     59  H   UNL A   1      39.801  34.077  28.904  1.00  0.00     0.167 HD
ATOM     60  C   UNL A   1      43.122  33.394  29.798  1.00  0.00     0.074 A 
ATOM     61  C   UNL A   1      44.264  33.047  28.967  1.00  0.00     0.031 C 
ATOM     62  C   UNL A   1      42.270  34.459  29.846  1.00  0.00     0.037 A 
BRANCH  49  63
ATOM     63  C   UNL A   1      36.131  34.069  30.648  1.00  0.00     0.058 A 
ATOM     64  C   UNL A   1      35.163  34.592  29.765  1.00  0.00     0.135 A 
ATOM     65  C   UNL A   1      35.733  34.072  32.004  1.00  0.00     0.135 A 
ATOM     66  F   UNL A   1      35.307  34.515  28.436  1.00  0.00    -0.206 F 
ATOM     67  C   UNL A   1      33.970  35.177  30.200  1.00  0.00     0.059 A 
ATOM     68  C   UNL A   1      34.588  34.722  32.472  1.00  0.00     0.059 A 
ATOM     69  F   UNL A   1      36.401  33.368  32.930  1.00  0.00    -0.206 F 
ATOM     70  C   UNL A   1      33.704  35.268  31.558  1.00  0.00     0.060 A 
BRANCH  70  71
ATOM     71  S   UNL A   1      32.154  36.006  32.104  1.00  0.00     0.124 S 
ATOM     72  O   UNL A   1      31.552  36.437  30.845  1.00  0.00    -0.237 OA
ATOM     73  O   UNL A   1      31.502  34.881  32.766  1.00  0.00    -0.237 OA
ATOM     74  O   UNL A   1      32.581  37.088  32.988  1.00  0.00    -0.744 OA
ENDBRANCH  70  71
ENDBRANCH  49  63
BRANCH  50  75
ATOM     75  C   UNL A   1      44.256  28.715  30.023  1.00  0.00     0.058 A 
ATOM     76  C   UNL A   1      44.763  28.996  28.743  1.00  0.00     0.135 A 
ATOM     77  C   UNL A   1      45.184  28.072  30.820  1.00  0.00     0.135 A 
ATOM     78  F   UNL A   1      43.952  28.950  27.678  1.00  0.00    -0.206 F 
ATOM     79  C   UNL A   1      46.090  29.381  28.558  1.00  0.00     0.059 A 
ATOM     80  C   UNL A   1      46.522  28.440  30.652  1.00  0.00     0.059 A 
ATOM     81  F   UNL A   1      44.806  27.488  31.970  1.00  0.00    -0.206 F 
ATOM     82  C   UNL A   1      46.926  29.311  29.655  1.00  0.00     0.060 A 
BRANCH  82  83
ATOM     83  S   UNL A   1      48.360  30.661  29.845  1.00  0.00     0.124 S 
ATOM     84  O   UNL A   1      49.501  29.778  29.745  1.00  0.00    -0.237 OA
ATOM     85  O   UNL A   1      48.265  31.546  28.702  1.00  0.00    -0.237 OA
ATOM     86  O   UNL A   1      48.214  31.304  31.136  1.00  0.00    -0.744 OA
ENDBRANCH  82  83
ENDBRANCH  50  75
BRANCH  62  87
ATOM     87  C   UNL A   1      42.518  35.763  29.141  1.00  0.00     0.058 A 
ATOM     88  C   UNL A   1      43.336  36.767  29.684  1.00  0.00     0.135 A 
ATOM     89  C   UNL A   1      41.826  36.112  27.958  1.00  0.00     0.135 A 
ATOM     90  F   UNL A   1      43.916  36.621  30.885  1.00  0.00    -0.206 F 
ATOM     91  C   UNL A   1      43.555  37.980  29.034  1.00  0.00     0.059 A 
ATOM     92  C   UNL A   1      41.992  37.332  27.319  1.00  0.00     0.059 A 
ATOM     93  F   UNL A   1      40.955  35.286  27.365  1.00  0.00    -0.206 F 
ATOM     94  C   UNL A   1      42.889  38.245  27.842  1.00  0.00     0.060 A 
BRANCH  94  95
ATOM     95  S   UNL A   1      43.176  39.806  27.002  1.00  0.00     0.124 S 
ATOM     96  O   UNL A   1      44.401  39.538  26.253  1.00  0.00    -0.237 OA
ATOM     97  O   UNL A   1      41.961  39.932  26.204  1.00  0.00    -0.237 OA
ATOM     98  O   UNL A   1      43.314  40.763  28.095  1.00  0.00    -0.744 OA
ENDBRANCH  94  95
ENDBRANCH  62  87
ENDBRANCH  36  37
ENDBRANCH  28  31
ENDBRANCH  26  27
ENDBRANCH   1  26
TORSDOF 16
ENDMDL
MODEL 2
REMARK VINA RESULT:     -12.1      3.964      9.399
REMARK SMILES Cc1c(NS(=O)(=O)c2ncn(C)c2Cl)cccc1C(=O)NCCCNC(=O)c1ccc(-c2c3nc(c(-c4c(F)cc(S(=O)(=O)[O-])cc4F)c4ccc([nH]4)c(-c4c(F)cc(S(=O)(=O)[O-])cc4F)c4nc(c(-c5c(F)cc(S(=O)(=O)[O-])cc5F)c5ccc2[nH]5)C=C4)C=C3)cc1
REMARK SMILES IDX 23 1 22 2 21 3 19 4 20 5 18 7 1 8 2 9 3 10 15 11 17 12 16 13
REMARK SMILES IDX 4 14 5 16 6 17 7 18 8 19 9 20 13 21 10 22 11 23 14 24 12 25
REMARK SMILES IDX 24 26 25 27 26 28 27 30 28 31 29 32 93 33 30 34 92 35 31 36
REMARK SMILES IDX 32 37 33 38 86 39 34 40 91 41 85 42 87 43 35 44 90 45 84 46
REMARK SMILES IDX 83 47 36 49 70 50 49 51 69 52 50 53 53 54 68 55 88 56 51 57
REMARK SMILES IDX 52 58 67 60 89 61 54 62 37 63 38 64 47 65 39 66 40 67 46 68
REMARK SMILES IDX 48 69 41 70 42 71 43 72 44 73 45 74 71 75 72 76 81 77 73 78
REMARK SMILES IDX 74 79 80 80 82 81 75 82 76 83 77 84 78 85 79 86 55 87 56 88
REMARK SMILES IDX 65 89 57 90 58 91 64 92 66 93 59 94 60 95 61 96 62 97 63 98
REMARK H PARENT 21 6 4 15 25 29 87 48 53 59
REMARK Flexibility Score: inf
ROOT
ATOM      1  C   UNL A   1      37.015  24.061  25.997  1.00  0.00     0.042 C 
ENDROOT
BRANCH   1   2
ATOM      2  C   UNL A   1      36.817  23.020  24.761  1.00  0.00     0.118 C 
BRANCH   2   3
ATOM      3  N   UNL A   1      36.096  21.744  24.980  1.00  0.00    -0.352 N 
ATOM      4  C   UNL A   1      34.837  21.204  24.823  1.00  0.00     0.251 C 
ATOM      5  O   UNL A   1      34.690  19.978  24.839  1.00  0.00    -0.269 OA
ATOM      6  H   UNL A   1      36.707  21.071  25.357  1.00  0.00     0.163 HD
BRANCH   4   7
ATOM      7  C   UNL A   1      33.601  22.007  24.633  1.00  0.00     0.044 A 
ATOM      8  C   UNL A   1      33.280  22.486  27.093  1.00  0.00     0.047 C 
ATOM      9  C   UNL A   1      33.002  22.770  25.645  1.00  0.00    -0.014 A 
ATOM     10  C   UNL A   1      31.947  23.634  25.324  1.00  0.00     0.053 A 
ATOM     11  C   UNL A   1      31.189  23.330  24.197  1.00  0.00     0.027 A 
ATOM     12  C   UNL A   1      32.895  21.830  23.424  1.00  0.00     0.014 A 
ATOM     13  C   UNL A   1      31.655  22.433  23.239  1.00  0.00     0.003 A 
BRANCH  10  14
ATOM     14  N   UNL A   1      31.512  24.613  26.288  1.00  0.00    -0.278 N 
ATOM     15  H   UNL A   1      30.965  24.329  27.057  1.00  0.00     0.180 HD
BRANCH  14  16
ATOM     16  S   UNL A   1      31.935  26.262  26.113  1.00  0.00     0.282 S 
ATOM     17  O   UNL A   1      30.937  27.010  26.845  1.00  0.00    -0.199 OA
ATOM     18  O   UNL A   1      33.340  26.406  26.454  1.00  0.00    -0.199 OA
BRANCH  16  19
ATOM     19  C   UNL A   1      31.794  26.795  24.467  1.00  0.00     0.213 A 
ATOM     20  N   UNL A   1      30.678  27.469  23.977  1.00  0.00    -0.222 NA
ATOM     21  C   UNL A   1      32.616  26.440  23.420  1.00  0.00     0.149 A 
ATOM     22  C   UNL A   1      30.780  27.395  22.669  1.00  0.00     0.202 A 
ATOM     23  N   UNL A   1      31.871  26.655  22.294  1.00  0.00    -0.324 N 
ATOM     24  Cl  UNL A   1      34.111  25.629  23.340  1.00  0.00    -0.061 Cl
ATOM     25  C   UNL A   1      31.942  25.946  21.037  1.00  0.00     0.152 C 
ENDBRANCH  16  19
ENDBRANCH  14  16
ENDBRANCH  10  14
ENDBRANCH   4   7
ENDBRANCH   2   3
ENDBRANCH   1   2
BRANCH   1  26
ATOM     26  C   UNL A   1      38.356  23.968  26.852  1.00  0.00     0.118 C 
BRANCH  26  27
ATOM     27  N   UNL A   1      39.388  25.129  27.081  1.00  0.00    -0.352 N 
ATOM     28  C   UNL A   1      39.829  25.989  28.174  1.00  0.00     0.251 C 
ATOM     29  H   UNL A   1      39.877  25.335  26.252  1.00  0.00     0.163 HD
ATOM     30  O   UNL A   1      41.036  25.849  28.444  1.00  0.00    -0.269 OA
BRANCH  28  31
ATOM     31  C   UNL A   1      39.126  27.096  29.060  1.00  0.00     0.039 A 
ATOM     32  C   UNL A   1      38.594  28.286  28.469  1.00  0.00     0.014 A 
ATOM     33  C   UNL A   1      39.012  27.104  30.441  1.00  0.00     0.014 A 
ATOM     34  C   UNL A   1      38.614  29.546  29.190  1.00  0.00     0.010 A 
ATOM     35  C   UNL A   1      39.015  28.340  31.160  1.00  0.00     0.010 A 
ATOM     36  C   UNL A   1      39.080  29.583  30.512  1.00  0.00    -0.014 A 
BRANCH  36  37
ATOM     37  C   UNL A   1      39.808  30.756  31.159  1.00  0.00     0.031 A 
ATOM     38  C   UNL A   1      41.011  30.561  31.963  1.00  0.00     0.074 A 
ATOM     39  C   UNL A   1      39.602  32.099  30.982  1.00  0.00     0.049 A 
ATOM     40  N   UNL A   1      41.224  31.110  33.118  1.00  0.00    -0.248 NA
ATOM     41  C   UNL A   1      42.132  29.819  31.423  1.00  0.00     0.031 C 
ATOM     42  C   UNL A   1      40.357  33.304  31.382  1.00  0.00     0.029 A 
ATOM     43  N   UNL A   1      38.613  32.720  30.254  1.00  0.00    -0.354 N 
ATOM     44  C   UNL A   1      42.590  31.070  33.294  1.00  0.00     0.074 A 
ATOM     45  C   UNL A   1      43.070  30.095  32.330  1.00  0.00     0.031 C 
ATOM     46  C   UNL A   1      39.585  34.405  31.222  1.00  0.00     0.029 A 
ATOM     47  C   UNL A   1      38.282  33.973  30.760  1.00  0.00     0.049 A 
ATOM     48  H   UNL A   1      38.186  32.320  29.462  1.00  0.00     0.167 HD
ATOM     49  C   UNL A   1      43.260  32.036  33.998  1.00  0.00     0.037 A 
ATOM     50  C   UNL A   1      37.026  34.172  31.278  1.00  0.00     0.037 A 
ATOM     51  C   UNL A   1      42.419  33.217  34.275  1.00  0.00     0.049 A 
ATOM     52  C   UNL A   1      37.123  34.265  32.776  1.00  0.00     0.074 A 
ATOM     53  C   UNL A   1      42.433  34.533  33.824  1.00  0.00     0.029 A 
ATOM     54  N   UNL A   1      41.199  33.075  34.913  1.00  0.00    -0.354 N 
ATOM     55  N   UNL A   1      38.234  34.529  33.399  1.00  0.00    -0.248 NA
ATOM     56  C   UNL A   1      36.029  33.964  33.697  1.00  0.00     0.031 C 
ATOM     57  C   UNL A   1      41.224  35.173  34.226  1.00  0.00     0.029 A 
ATOM     58  C   UNL A   1      40.473  34.256  34.937  1.00  0.00     0.049 A 
ATOM     59  H   UNL A   1      40.882  32.229  35.307  1.00  0.00     0.167 HD
ATOM     60  C   UNL A   1      38.087  34.263  34.725  1.00  0.00     0.074 A 
ATOM     61  C   UNL A   1      36.670  33.977  34.879  1.00  0.00     0.031 C 
ATOM     62  C   UNL A   1      39.158  34.250  35.570  1.00  0.00     0.037 A 
BRANCH  49  63
ATOM     63  C   UNL A   1      44.776  32.027  34.160  1.00  0.00     0.058 A 
ATOM     64  C   UNL A   1      45.641  32.522  33.162  1.00  0.00     0.135 A 
ATOM     65  C   UNL A   1      45.438  31.589  35.329  1.00  0.00     0.135 A 
ATOM     66  F   UNL A   1      45.175  33.127  32.061  1.00  0.00    -0.206 F 
ATOM     67  C   UNL A   1      47.034  32.466  33.264  1.00  0.00     0.059 A 
ATOM     68  C   UNL A   1      46.824  31.447  35.424  1.00  0.00     0.059 A 
ATOM     69  F   UNL A   1      44.766  31.355  36.466  1.00  0.00    -0.206 F 
ATOM     70  C   UNL A   1      47.620  31.897  34.385  1.00  0.00     0.060 A 
BRANCH  70  71
ATOM     71  S   UNL A   1      49.416  31.851  34.513  1.00  0.00     0.124 S 
ATOM     72  O   UNL A   1      49.702  30.425  34.382  1.00  0.00    -0.237 OA
ATOM     73  O   UNL A   1      49.819  32.685  33.386  1.00  0.00    -0.237 OA
ATOM     74  O   UNL A   1      49.680  32.417  35.833  1.00  0.00    -0.744 OA
ENDBRANCH  70  71
ENDBRANCH  49  63
BRANCH  50  75
ATOM     75  C   UNL A   1      35.851  33.507  30.522  1.00  0.00     0.058 A 
ATOM     76  C   UNL A   1      34.829  33.046  31.369  1.00  0.00     0.135 A 
ATOM     77  C   UNL A   1      35.360  34.286  29.491  1.00  0.00     0.135 A 
ATOM     78  F   UNL A   1      34.926  31.835  31.933  1.00  0.00    -0.206 F 
ATOM     79  C   UNL A   1      33.733  33.847  31.685  1.00  0.00     0.059 A 
ATOM     80  C   UNL A   1      34.259  35.097  29.783  1.00  0.00     0.059 A 
ATOM     81  F   UNL A   1      36.138  34.594  28.439  1.00  0.00    -0.206 F 
ATOM     82  C   UNL A   1      33.607  35.041  31.002  1.00  0.00     0.060 A 
BRANCH  82  83
ATOM     83  S   UNL A   1      32.841  36.600  31.949  1.00  0.00     0.124 S 
ATOM     84  O   UNL A   1      31.498  36.099  32.138  1.00  0.00    -0.237 OA
ATOM     85  O   UNL A   1      33.549  36.725  33.206  1.00  0.00    -0.237 OA
ATOM     86  O   UNL A   1      32.931  37.754  31.075  1.00  0.00    -0.744 OA
ENDBRANCH  82  83
ENDBRANCH  50  75
BRANCH  62  87
ATOM     87  C   UNL A   1      39.044  34.178  37.066  1.00  0.00     0.058 A 
ATOM     88  C   UNL A   1      38.555  33.040  37.730  1.00  0.00     0.135 A 
ATOM     89  C   UNL A   1      39.284  35.306  37.885  1.00  0.00     0.135 A 
ATOM     90  F   UNL A   1      38.135  31.963  37.049  1.00  0.00    -0.206 F 
ATOM     91  C   UNL A   1      38.439  32.980  39.116  1.00  0.00     0.059 A 
ATOM     92  C   UNL A   1      39.129  35.285  39.264  1.00  0.00     0.059 A 
ATOM     93  F   UNL A   1      39.680  36.483  37.387  1.00  0.00    -0.206 F 
ATOM     94  C   UNL A   1      38.745  34.106  39.876  1.00  0.00     0.060 A 
BRANCH  94  95
ATOM     95  S   UNL A   1      38.600  34.026  41.664  1.00  0.00     0.124 S 
ATOM     96  O   UNL A   1      37.390  34.804  41.914  1.00  0.00    -0.237 OA
ATOM     97  O   UNL A   1      38.484  32.588  41.880  1.00  0.00    -0.237 OA
ATOM     98  O   UNL A   1      39.838  34.636  42.135  1.00  0.00    -0.744 OA
ENDBRANCH  94  95
ENDBRANCH  62  87
ENDBRANCH  36  37
ENDBRANCH  28  31
ENDBRANCH  26  27
ENDBRANCH   1  26
TORSDOF 16
ENDMDL
MODEL 3
REMARK VINA RESULT:     -12.1      5.314     10.205
REMARK SMILES Cc1c(NS(=O)(=O)c2ncn(C)c2Cl)cccc1C(=O)NCCCNC(=O)c1ccc(-c2c3nc(c(-c4c(F)cc(S(=O)(=O)[O-])cc4F)c4ccc([nH]4)c(-c4c(F)cc(S(=O)(=O)[O-])cc4F)c4nc(c(-c5c(F)cc(S(=O)(=O)[O-])cc5F)c5ccc2[nH]5)C=C4)C=C3)cc1
REMARK SMILES IDX 23 1 22 2 21 3 19 4 20 5 18 7 1 8 2 9 3 10 15 11 17 12 16 13
REMARK SMILES IDX 4 14 5 16 6 17 7 18 8 19 9 20 13 21 10 22 11 23 14 24 12 25
REMARK SMILES IDX 24 26 25 27 26 28 27 30 28 31 29 32 93 33 30 34 92 35 31 36
REMARK SMILES IDX 32 37 33 38 86 39 34 40 91 41 85 42 87 43 35 44 90 45 84 46
REMARK SMILES IDX 83 47 36 49 70 50 49 51 69 52 50 53 53 54 68 55 88 56 51 57
REMARK SMILES IDX 52 58 67 60 89 61 54 62 37 63 38 64 47 65 39 66 40 67 46 68
REMARK SMILES IDX 48 69 41 70 42 71 43 72 44 73 45 74 71 75 72 76 81 77 73 78
REMARK SMILES IDX 74 79 80 80 82 81 75 82 76 83 77 84 78 85 79 86 55 87 56 88
REMARK SMILES IDX 65 89 57 90 58 91 64 92 66 93 59 94 60 95 61 96 62 97 63 98
REMARK H PARENT 21 6 4 15 25 29 87 48 53 59
REMARK Flexibility Score: inf
ROOT
ATOM      1  C   UNL A   1      34.477  30.031  26.860  1.00  0.00     0.042 C 
ENDROOT
BRANCH   1   2
ATOM      2  C   UNL A   1      33.852  29.248  25.575  1.00  0.00     0.118 C 
BRANCH   2   3
ATOM      3  N   UNL A   1      32.588  29.724  24.965  1.00  0.00    -0.352 N 
ATOM      4  C   UNL A   1      31.386  29.229  24.508  1.00  0.00     0.251 C 
ATOM      5  O   UNL A   1      30.432  29.994  24.338  1.00  0.00    -0.269 OA
ATOM      6  H   UNL A   1      32.616  30.702  24.849  1.00  0.00     0.163 HD
BRANCH   4   7
ATOM      7  C   UNL A   1      31.138  27.798  24.191  1.00  0.00     0.044 A 
ATOM      8  C   UNL A   1      31.212  27.032  26.598  1.00  0.00     0.047 C 
ATOM      9  C   UNL A   1      30.849  26.823  25.156  1.00  0.00    -0.014 A 
ATOM     10  C   UNL A   1      30.452  25.544  24.746  1.00  0.00     0.053 A 
ATOM     11  C   UNL A   1      30.863  25.117  23.486  1.00  0.00     0.027 A 
ATOM     12  C   UNL A   1      31.400  27.373  22.871  1.00  0.00     0.014 A 
ATOM     13  C   UNL A   1      31.335  26.024  22.540  1.00  0.00     0.003 A 
BRANCH  10  14
ATOM     14  N   UNL A   1      29.895  24.629  25.710  1.00  0.00    -0.278 N 
ATOM     15  H   UNL A   1      28.979  24.773  26.045  1.00  0.00     0.180 HD
BRANCH  14  16
ATOM     16  S   UNL A   1      30.804  23.296  26.282  1.00  0.00     0.282 S 
ATOM     17  O   UNL A   1      31.456  23.746  27.491  1.00  0.00    -0.199 OA
ATOM     18  O   UNL A   1      29.929  22.137  26.320  1.00  0.00    -0.199 OA
BRANCH  16  19
ATOM     19  C   UNL A   1      32.091  22.877  25.194  1.00  0.00     0.213 A 
ATOM     20  N   UNL A   1      32.085  21.724  24.414  1.00  0.00    -0.222 NA
ATOM     21  C   UNL A   1      33.332  23.472  25.129  1.00  0.00     0.149 A 
ATOM     22  C   UNL A   1      33.326  21.577  24.008  1.00  0.00     0.202 A 
ATOM     23  N   UNL A   1      34.142  22.541  24.539  1.00  0.00    -0.324 N 
ATOM     24  Cl  UNL A   1      33.982  24.884  25.823  1.00  0.00    -0.061 Cl
ATOM     25  C   UNL A   1      35.558  22.343  24.745  1.00  0.00     0.152 C 
ENDBRANCH  16  19
ENDBRANCH  14  16
ENDBRANCH  10  14
ENDBRANCH   4   7
ENDBRANCH   2   3
ENDBRANCH   1   2
BRANCH   1  26
ATOM     26  C   UNL A   1      35.230  29.173  27.971  1.00  0.00     0.118 C 
BRANCH  26  27
ATOM     27  N   UNL A   1      36.590  29.545  28.661  1.00  0.00    -0.352 N 
ATOM     28  C   UNL A   1      37.980  29.758  28.274  1.00  0.00     0.251 C 
ATOM     29  H   UNL A   1      36.471  29.669  29.630  1.00  0.00     0.163 HD
ATOM     30  O   UNL A   1      38.381  30.910  28.523  1.00  0.00    -0.269 OA
BRANCH  28  31
ATOM     31  C   UNL A   1      39.107  28.836  27.654  1.00  0.00     0.039 A 
ATOM     32  C   UNL A   1      39.193  27.448  27.990  1.00  0.00     0.014 A 
ATOM     33  C   UNL A   1      40.143  29.236  26.824  1.00  0.00     0.014 A 
ATOM     34  C   UNL A   1      40.480  26.780  28.065  1.00  0.00     0.010 A 
ATOM     35  C   UNL A   1      41.410  28.576  26.878  1.00  0.00     0.010 A 
ATOM     36  C   UNL A   1      41.646  27.479  27.720  1.00  0.00    -0.014 A 
BRANCH  36  37
ATOM     37  C   UNL A   1      43.021  27.264  28.344  1.00  0.00     0.031 A 
ATOM     38  C   UNL A   1      43.885  28.387  28.699  1.00  0.00     0.074 A 
ATOM     39  C   UNL A   1      43.581  26.104  28.812  1.00  0.00     0.049 A 
ATOM     40  N   UNL A   1      45.148  28.462  28.419  1.00  0.00    -0.248 NA
ATOM     41  C   UNL A   1      43.377  29.455  29.536  1.00  0.00     0.031 C 
ATOM     42  C   UNL A   1      44.791  25.809  29.605  1.00  0.00     0.029 A 
ATOM     43  N   UNL A   1      43.079  24.825  28.735  1.00  0.00    -0.354 N 
ATOM     44  C   UNL A   1      45.662  29.385  29.306  1.00  0.00     0.074 A 
ATOM     45  C   UNL A   1      44.508  30.102  29.821  1.00  0.00     0.031 C 
ATOM     46  C   UNL A   1      45.062  24.483  29.556  1.00  0.00     0.029 A 
ATOM     47  C   UNL A   1      44.079  23.859  28.694  1.00  0.00     0.049 A 
ATOM     48  H   UNL A   1      42.117  24.617  28.711  1.00  0.00     0.167 HD
ATOM     49  C   UNL A   1      46.946  29.302  29.775  1.00  0.00     0.037 A 
ATOM     50  C   UNL A   1      44.224  23.097  27.560  1.00  0.00     0.037 A 
ATOM     51  C   UNL A   1      47.580  28.006  29.461  1.00  0.00     0.049 A 
ATOM     52  C   UNL A   1      45.460  23.538  26.828  1.00  0.00     0.074 A 
ATOM     53  C   UNL A   1      47.978  26.919  30.232  1.00  0.00     0.029 A 
ATOM     54  N   UNL A   1      47.635  27.552  28.155  1.00  0.00    -0.354 N 
ATOM     55  N   UNL A   1      46.416  24.215  27.394  1.00  0.00    -0.248 NA
ATOM     56  C   UNL A   1      45.681  23.361  25.394  1.00  0.00     0.031 C 
ATOM     57  C   UNL A   1      48.295  25.830  29.369  1.00  0.00     0.029 A 
ATOM     58  C   UNL A   1      48.106  26.251  28.066  1.00  0.00     0.049 A 
ATOM     59  H   UNL A   1      47.369  28.092  27.375  1.00  0.00     0.167 HD
ATOM     60  C   UNL A   1      47.247  24.715  26.440  1.00  0.00     0.074 A 
ATOM     61  C   UNL A   1      46.789  24.100  25.205  1.00  0.00     0.031 C 
ATOM     62  C   UNL A   1      48.206  25.637  26.746  1.00  0.00     0.037 A 
BRANCH  49  63
ATOM     63  C   UNL A   1      47.511  30.288  30.791  1.00  0.00     0.058 A 
ATOM     64  C   UNL A   1      48.111  31.505  30.404  1.00  0.00     0.135 A 
ATOM     65  C   UNL A   1      47.433  30.106  32.190  1.00  0.00     0.135 A 
ATOM     66  F   UNL A   1      48.118  31.913  29.128  1.00  0.00    -0.206 F 
ATOM     67  C   UNL A   1      48.690  32.394  31.314  1.00  0.00     0.059 A 
ATOM     68  C   UNL A   1      48.073  30.934  33.115  1.00  0.00     0.059 A 
ATOM     69  F   UNL A   1      46.655  29.154  32.728  1.00  0.00    -0.206 F 
ATOM     70  C   UNL A   1      48.697  32.086  32.667  1.00  0.00     0.060 A 
BRANCH  70  71
ATOM     71  S   UNL A   1      49.429  33.249  33.831  1.00  0.00     0.124 S 
ATOM     72  O   UNL A   1      49.557  32.443  35.041  1.00  0.00    -0.237 OA
ATOM     73  O   UNL A   1      50.679  33.597  33.164  1.00  0.00    -0.237 OA
ATOM     74  O   UNL A   1      48.443  34.325  33.906  1.00  0.00    -0.744 OA
ENDBRANCH  70  71
ENDBRANCH  49  63
BRANCH  50  75
ATOM     75  C   UNL A   1      42.921  22.633  26.866  1.00  0.00     0.058 A 
ATOM     76  C   UNL A   1      43.002  22.634  25.464  1.00  0.00     0.135 A 
ATOM     77  C   UNL A   1      42.441  21.435  27.360  1.00  0.00     0.135 A 
ATOM     78  F   UNL A   1      42.761  23.760  24.781  1.00  0.00    -0.206 F 
ATOM     79  C   UNL A   1      43.385  21.492  24.761  1.00  0.00     0.059 A 
ATOM     80  C   UNL A   1      42.811  20.276  26.671  1.00  0.00     0.059 A 
ATOM     81  F   UNL A   1      42.043  21.334  28.640  1.00  0.00    -0.206 F 
ATOM     82  C   UNL A   1      43.518  20.321  25.481  1.00  0.00     0.060 A 
BRANCH  82  83
ATOM     83  S   UNL A   1      44.917  19.029  24.946  1.00  0.00     0.124 S 
ATOM     84  O   UNL A   1      46.079  19.791  25.348  1.00  0.00    -0.237 OA
ATOM     85  O   UNL A   1      44.741  17.848  25.766  1.00  0.00    -0.237 OA
ATOM     86  O   UNL A   1      44.812  18.809  23.517  1.00  0.00    -0.744 OA
ENDBRANCH  82  83
ENDBRANCH  50  75
BRANCH  62  87
ATOM     87  C   UNL A   1      49.287  26.067  25.796  1.00  0.00     0.058 A 
ATOM     88  C   UNL A   1      50.640  25.752  26.004  1.00  0.00     0.135 A 
ATOM     89  C   UNL A   1      49.022  26.937  24.713  1.00  0.00     0.135 A 
ATOM     90  F   UNL A   1      51.040  25.072  27.089  1.00  0.00    -0.206 F 
ATOM     91  C   UNL A   1      51.642  26.162  25.127  1.00  0.00     0.059 A 
ATOM     92  C   UNL A   1      50.011  27.397  23.854  1.00  0.00     0.059 A 
ATOM     93  F   UNL A   1      47.792  27.384  24.435  1.00  0.00    -0.206 F 
ATOM     94  C   UNL A   1      51.313  26.972  24.045  1.00  0.00     0.060 A 
BRANCH  94  95
ATOM     95  S   UNL A   1      52.604  27.495  22.912  1.00  0.00     0.124 S 
ATOM     96  O   UNL A   1      51.901  28.442  22.052  1.00  0.00    -0.237 OA
ATOM     97  O   UNL A   1      53.577  28.076  23.832  1.00  0.00    -0.237 OA
ATOM     98  O   UNL A   1      53.014  26.254  22.263  1.00  0.00    -0.744 OA
ENDBRANCH  94  95
ENDBRANCH  62  87
ENDBRANCH  36  37
ENDBRANCH  28  31
ENDBRANCH  26  27
ENDBRANCH   1  26
TORSDOF 16
ENDMDL
