MODEL 1
REMARK VINA RESULT:     -11.7      0.000      0.000
REMARK SMILES Nc1cc(=O)[nH]c(SCC(=O)Nc2ccccc2C(=O)NCCCNC(=O)c2ccc(-c3c4nc(c(-c5c(F)cc(S(=O)(=O)[O-])cc5F)c5ccc([nH]5)c(-c5c(F)cc(S(=O)(=O)[O-])cc5F)c5nc(c(-c6c(F)cc(S(=O)(=O)[O-])cc6F)c6ccc3[nH]6)C=C5)C=C4)cc2)n1
REMARK SMILES IDX 22 1 21 2 19 3 20 4 18 6 13 7 14 8 15 9 17 10 16 11 12 12
REMARK SMILES IDX 10 13 11 14 9 16 8 17 7 18 2 19 3 20 94 21 4 22 5 23 6 24
REMARK SMILES IDX 1 26 23 29 24 30 25 31 26 32 27 34 28 35 29 36 93 37 30 38
REMARK SMILES IDX 92 39 31 40 32 41 33 42 86 43 34 44 91 45 85 46 87 47 35 48
REMARK SMILES IDX 90 49 84 50 83 51 36 53 70 54 49 55 69 56 50 57 53 58 68 59
REMARK SMILES IDX 88 60 51 61 52 62 67 64 89 65 54 66 37 67 38 68 47 69 39 70
REMARK SMILES IDX 40 71 46 72 48 73 41 74 42 75 43 76 44 77 45 78 71 79 72 80
REMARK SMILES IDX 81 81 73 82 74 83 80 84 82 85 75 86 76 87 77 88 78 89 79 90
REMARK SMILES IDX 55 91 56 92 65 93 57 94 58 95 64 96 66 97 59 98 60 99 61 100
REMARK SMILES IDX 62 101 63 102
REMARK H PARENT 21 5 12 15 6 25 1 27 1 28 25 33 87 52 53 63
REMARK Flexibility Score: inf
ROOT
ATOM      1  C   UNL A   1      35.108  24.394  25.719  1.00  0.00     0.118 C 
ENDROOT
BRANCH   1   2
ATOM      2  N   UNL A   1      33.737  24.187  26.140  1.00  0.00    -0.352 N 
ATOM      3  C   UNL A   1      32.567  24.469  25.477  1.00  0.00     0.253 C 
ATOM      4  O   UNL A   1      31.502  24.305  26.077  1.00  0.00    -0.269 OA
ATOM      5  H   UNL A   1      33.628  23.787  27.032  1.00  0.00     0.163 HD
BRANCH   3   6
ATOM      6  C   UNL A   1      32.515  25.047  24.107  1.00  0.00     0.063 A 
ATOM      7  C   UNL A   1      32.333  24.381  22.885  1.00  0.00     0.054 A 
ATOM      8  C   UNL A   1      32.767  25.040  21.715  1.00  0.00     0.027 A 
ATOM      9  C   UNL A   1      33.183  26.374  21.725  1.00  0.00     0.002 A 
ATOM     10  C   UNL A   1      32.856  26.422  24.093  1.00  0.00     0.016 A 
ATOM     11  C   UNL A   1      33.172  27.086  22.912  1.00  0.00     0.001 A 
BRANCH   7  12
ATOM     12  N   UNL A   1      31.878  23.069  22.656  1.00  0.00    -0.325 N 
ATOM     13  C   UNL A   1      32.377  21.805  22.784  1.00  0.00     0.234 C 
ATOM     14  O   UNL A   1      31.804  20.954  22.081  1.00  0.00    -0.274 OA
ATOM     15  H   UNL A   1      30.955  23.061  22.315  1.00  0.00     0.169 HD
BRANCH  13  16
ATOM     16  C   UNL A   1      33.284  21.319  23.893  1.00  0.00     0.178 C 
BRANCH  16  17
ATOM     17  S   UNL A   1      32.597  20.586  25.359  1.00  0.00    -0.078 SA
BRANCH  17  18
ATOM     18  C   UNL A   1      32.769  18.875  25.094  1.00  0.00     0.170 A 
ATOM     19  C   UNL A   1      32.710  16.651  25.588  1.00  0.00     0.131 A 
ATOM     20  C   UNL A   1      33.166  16.314  24.370  1.00  0.00     0.118 A 
ATOM     21  N   UNL A   1      32.490  17.960  25.959  1.00  0.00    -0.207 NA
ATOM     22  C   UNL A   1      33.445  17.368  23.392  1.00  0.00     0.253 A 
ATOM     23  O   UNL A   1      33.813  17.106  22.255  1.00  0.00    -0.269 OA
ATOM     24  N   UNL A   1      33.250  18.627  23.850  1.00  0.00    -0.301 N 
ATOM     25  H   UNL A   1      33.463  19.386  23.262  1.00  0.00     0.172 HD
BRANCH  19  26
ATOM     26  N   UNL A   1      32.453  15.660  26.486  1.00  0.00    -0.383 N 
ATOM     27  H   UNL A   1      31.557  15.579  26.888  1.00  0.00     0.158 HD
ATOM     28  H   UNL A   1      33.162  15.023  26.733  1.00  0.00     0.158 HD
ENDBRANCH  19  26
ENDBRANCH  17  18
ENDBRANCH  16  17
ENDBRANCH  13  16
ENDBRANCH   7  12
ENDBRANCH   3   6
ENDBRANCH   1   2
BRANCH   1  29
ATOM     29  C   UNL A   1      35.986  23.158  25.746  1.00  0.00     0.042 C 
BRANCH  29  30
ATOM     30  C   UNL A   1      37.245  23.262  24.890  1.00  0.00     0.118 C 
BRANCH  30  31
ATOM     31  N   UNL A   1      38.375  22.434  25.313  1.00  0.00    -0.352 N 
ATOM     32  C   UNL A   1      39.393  22.746  26.197  1.00  0.00     0.251 C 
ATOM     33  H   UNL A   1      38.418  21.535  24.914  1.00  0.00     0.163 HD
ATOM     34  O   UNL A   1      40.264  21.940  26.478  1.00  0.00    -0.269 OA
BRANCH  32  35
ATOM     35  C   UNL A   1      39.445  24.110  26.773  1.00  0.00     0.039 A 
ATOM     36  C   UNL A   1      38.813  24.353  27.997  1.00  0.00     0.014 A 
ATOM     37  C   UNL A   1      40.201  25.108  26.159  1.00  0.00     0.014 A 
ATOM     38  C   UNL A   1      39.055  25.555  28.666  1.00  0.00     0.010 A 
ATOM     39  C   UNL A   1      40.515  26.261  26.867  1.00  0.00     0.010 A 
ATOM     40  C   UNL A   1      39.966  26.486  28.138  1.00  0.00    -0.014 A 
BRANCH  40  41
ATOM     41  C   UNL A   1      40.415  27.670  28.915  1.00  0.00     0.031 A 
ATOM     42  C   UNL A   1      41.732  27.635  29.644  1.00  0.00     0.074 A 
ATOM     43  C   UNL A   1      39.578  28.717  29.069  1.00  0.00     0.049 A 
ATOM     44  N   UNL A   1      42.236  28.506  30.477  1.00  0.00    -0.248 NA
ATOM     45  C   UNL A   1      42.572  26.442  29.445  1.00  0.00     0.031 C 
ATOM     46  C   UNL A   1      38.234  28.824  28.492  1.00  0.00     0.029 A 
ATOM     47  N   UNL A   1      39.721  29.883  29.778  1.00  0.00    -0.354 N 
ATOM     48  C   UNL A   1      43.428  27.953  30.930  1.00  0.00     0.074 A 
ATOM     49  C   UNL A   1      43.553  26.652  30.312  1.00  0.00     0.031 C 
ATOM     50  C   UNL A   1      37.687  29.996  28.853  1.00  0.00     0.029 A 
ATOM     51  C   UNL A   1      38.624  30.713  29.712  1.00  0.00     0.049 A 
ATOM     52  H   UNL A   1      40.533  30.107  30.289  1.00  0.00     0.167 HD
ATOM     53  C   UNL A   1      44.346  28.493  31.764  1.00  0.00     0.037 A 
ATOM     54  C   UNL A   1      38.399  31.913  30.280  1.00  0.00     0.037 A 
ATOM     55  C   UNL A   1      44.246  29.818  32.317  1.00  0.00     0.049 A 
ATOM     56  C   UNL A   1      39.479  32.527  31.130  1.00  0.00     0.074 A 
ATOM     57  C   UNL A   1      45.170  30.500  33.091  1.00  0.00     0.029 A 
ATOM     58  N   UNL A   1      43.164  30.667  32.144  1.00  0.00    -0.354 N 
ATOM     59  N   UNL A   1      40.641  32.026  31.472  1.00  0.00    -0.248 NA
ATOM     60  C   UNL A   1      39.226  33.876  31.657  1.00  0.00     0.031 C 
ATOM     61  C   UNL A   1      44.636  31.754  33.405  1.00  0.00     0.029 A 
ATOM     62  C   UNL A   1      43.396  31.866  32.796  1.00  0.00     0.049 A 
ATOM     63  H   UNL A   1      42.351  30.451  31.632  1.00  0.00     0.167 HD
ATOM     64  C   UNL A   1      41.273  33.013  32.220  1.00  0.00     0.074 A 
ATOM     65  C   UNL A   1      40.367  34.141  32.276  1.00  0.00     0.031 C 
ATOM     66  C   UNL A   1      42.494  32.987  32.809  1.00  0.00     0.037 A 
BRANCH  53  67
ATOM     67  C   UNL A   1      45.558  27.674  32.108  1.00  0.00     0.058 A 
ATOM     68  C   UNL A   1      46.710  27.695  31.304  1.00  0.00     0.135 A 
ATOM     69  C   UNL A   1      45.598  26.916  33.289  1.00  0.00     0.135 A 
ATOM     70  F   UNL A   1      46.720  28.389  30.154  1.00  0.00    -0.206 F 
ATOM     71  C   UNL A   1      47.852  26.983  31.653  1.00  0.00     0.059 A 
ATOM     72  C   UNL A   1      46.739  26.216  33.670  1.00  0.00     0.059 A 
ATOM     73  F   UNL A   1      44.523  26.859  34.091  1.00  0.00    -0.206 F 
ATOM     74  C   UNL A   1      47.859  26.251  32.841  1.00  0.00     0.060 A 
BRANCH  74  75
ATOM     75  S   UNL A   1      49.367  25.371  33.301  1.00  0.00     0.124 S 
ATOM     76  O   UNL A   1      50.147  25.468  32.070  1.00  0.00    -0.237 OA
ATOM     77  O   UNL A   1      49.859  26.160  34.425  1.00  0.00    -0.237 OA
ATOM     78  O   UNL A   1      48.890  24.034  33.638  1.00  0.00    -0.744 OA
ENDBRANCH  74  75
ENDBRANCH  53  67
BRANCH  54  79
ATOM     79  C   UNL A   1      37.124  32.639  30.036  1.00  0.00     0.058 A 
ATOM     80  C   UNL A   1      37.045  33.644  29.060  1.00  0.00     0.135 A 
ATOM     81  C   UNL A   1      35.970  32.365  30.785  1.00  0.00     0.135 A 
ATOM     82  F   UNL A   1      38.123  33.943  28.318  1.00  0.00    -0.206 F 
ATOM     83  C   UNL A   1      35.882  34.381  28.861  1.00  0.00     0.059 A 
ATOM     84  C   UNL A   1      34.786  33.071  30.588  1.00  0.00     0.059 A 
ATOM     85  F   UNL A   1      35.984  31.397  31.714  1.00  0.00    -0.206 F 
ATOM     86  C   UNL A   1      34.759  34.091  29.636  1.00  0.00     0.060 A 
BRANCH  86  87
ATOM     87  S   UNL A   1      33.249  35.045  29.369  1.00  0.00     0.124 S 
ATOM     88  O   UNL A   1      32.541  34.208  28.407  1.00  0.00    -0.237 OA
ATOM     89  O   UNL A   1      32.675  35.103  30.710  1.00  0.00    -0.237 OA
ATOM     90  O   UNL A   1      33.746  36.318  28.854  1.00  0.00    -0.744 OA
ENDBRANCH  86  87
ENDBRANCH  54  79
BRANCH  66  91
ATOM     91  C   UNL A   1      42.949  34.238  33.504  1.00  0.00     0.058 A 
ATOM     92  C   UNL A   1      43.489  35.323  32.796  1.00  0.00     0.135 A 
ATOM     93  C   UNL A   1      42.797  34.366  34.894  1.00  0.00     0.135 A 
ATOM     94  F   UNL A   1      43.660  35.245  31.467  1.00  0.00    -0.206 F 
ATOM     95  C   UNL A   1      43.887  36.485  33.448  1.00  0.00     0.059 A 
ATOM     96  C   UNL A   1      43.164  35.528  35.562  1.00  0.00     0.059 A 
ATOM     97  F   UNL A   1      42.274  33.360  35.613  1.00  0.00    -0.206 F 
ATOM     98  C   UNL A   1      43.721  36.578  34.832  1.00  0.00     0.060 A 
BRANCH  98  99
ATOM     99  S   UNL A   1      44.215  38.100  35.665  1.00  0.00     0.124 S 
ATOM    100  O   UNL A   1      43.484  37.997  36.923  1.00  0.00    -0.237 OA
ATOM    101  O   UNL A   1      45.664  37.953  35.760  1.00  0.00    -0.237 OA
ATOM    102  O   UNL A   1      43.757  39.147  34.755  1.00  0.00    -0.744 OA
ENDBRANCH  98  99
ENDBRANCH  66  91
ENDBRANCH  40  41
ENDBRANCH  32  35
ENDBRANCH  30  31
ENDBRANCH  29  30
ENDBRANCH   1  29
TORSDOF 18
ENDMDL
MODEL 2
REMARK VINA RESULT:     -11.6      4.755     10.157
REMARK SMILES Nc1cc(=O)[nH]c(SCC(=O)Nc2ccccc2C(=O)NCCCNC(=O)c2ccc(-c3c4nc(c(-c5c(F)cc(S(=O)(=O)[O-])cc5F)c5ccc([nH]5)c(-c5c(F)cc(S(=O)(=O)[O-])cc5F)c5nc(c(-c6c(F)cc(S(=O)(=O)[O-])cc6F)c6ccc3[nH]6)C=C5)C=C4)cc2)n1
REMARK SMILES IDX 22 1 21 2 19 3 20 4 18 6 13 7 14 8 15 9 17 10 16 11 12 12
REMARK SMILES IDX 10 13 11 14 9 16 8 17 7 18 2 19 3 20 94 21 4 22 5 23 6 24
REMARK SMILES IDX 1 26 23 29 24 30 25 31 26 32 27 34 28 35 29 36 93 37 30 38
REMARK SMILES IDX 92 39 31 40 32 41 33 42 86 43 34 44 91 45 85 46 87 47 35 48
REMARK SMILES IDX 90 49 84 50 83 51 36 53 70 54 49 55 69 56 50 57 53 58 68 59
REMARK SMILES IDX 88 60 51 61 52 62 67 64 89 65 54 66 37 67 38 68 47 69 39 70
REMARK SMILES IDX 40 71 46 72 48 73 41 74 42 75 43 76 44 77 45 78 71 79 72 80
REMARK SMILES IDX 81 81 73 82 74 83 80 84 82 85 75 86 76 87 77 88 78 89 79 90
REMARK SMILES IDX 55 91 56 92 65 93 57 94 58 95 64 96 66 97 59 98 60 99 61 100
REMARK SMILES IDX 62 101 63 102
REMARK H PARENT 21 5 12 15 6 25 1 27 1 28 25 33 87 52 53 63
REMARK Flexibility Score: inf
ROOT
ATOM      1  C   UNL A   1      37.324  22.815  25.394  1.00  0.00     0.118 C 
ENDROOT
BRANCH   1   2
ATOM      2  N   UNL A   1      36.304  22.972  26.411  1.00  0.00    -0.352 N 
ATOM      3  C   UNL A   1      34.950  22.748  26.335  1.00  0.00     0.253 C 
ATOM      4  O   UNL A   1      34.252  23.051  27.305  1.00  0.00    -0.269 OA
ATOM      5  H   UNL A   1      36.629  23.285  27.286  1.00  0.00     0.163 HD
BRANCH   3   6
ATOM      6  C   UNL A   1      34.267  22.242  25.113  1.00  0.00     0.063 A 
ATOM      7  C   UNL A   1      33.729  22.978  24.045  1.00  0.00     0.054 A 
ATOM      8  C   UNL A   1      32.752  22.346  23.248  1.00  0.00     0.027 A 
ATOM      9  C   UNL A   1      32.456  20.986  23.374  1.00  0.00     0.002 A 
ATOM     10  C   UNL A   1      34.023  20.848  25.175  1.00  0.00     0.016 A 
ATOM     11  C   UNL A   1      33.138  20.220  24.304  1.00  0.00     0.001 A 
BRANCH   7  12
ATOM     12  N   UNL A   1      33.939  24.330  23.714  1.00  0.00    -0.325 N 
ATOM     13  C   UNL A   1      33.169  25.442  23.532  1.00  0.00     0.234 C 
ATOM     14  O   UNL A   1      33.703  26.327  22.840  1.00  0.00    -0.274 OA
ATOM     15  H   UNL A   1      34.895  24.525  23.579  1.00  0.00     0.169 HD
BRANCH  13  16
ATOM     16  C   UNL A   1      31.939  25.808  24.333  1.00  0.00     0.178 C 
BRANCH  16  17
ATOM     17  S   UNL A   1      30.317  25.541  23.659  1.00  0.00    -0.078 SA
BRANCH  17  18
ATOM     18  C   UNL A   1      29.814  27.122  23.134  1.00  0.00     0.170 A 
ATOM     19  C   UNL A   1      30.006  29.188  22.190  1.00  0.00     0.131 A 
ATOM     20  C   UNL A   1      28.730  29.496  22.476  1.00  0.00     0.118 A 
ATOM     21  N   UNL A   1      30.563  27.968  22.510  1.00  0.00    -0.207 NA
ATOM     22  C   UNL A   1      27.890  28.508  23.156  1.00  0.00     0.253 A 
ATOM     23  O   UNL A   1      26.708  28.725  23.391  1.00  0.00    -0.269 OA
ATOM     24  N   UNL A   1      28.523  27.356  23.479  1.00  0.00    -0.301 N 
ATOM     25  H   UNL A   1      28.032  26.666  23.978  1.00  0.00     0.172 HD
BRANCH  19  26
ATOM     26  N   UNL A   1      30.776  30.116  21.556  1.00  0.00    -0.383 N 
ATOM     27  H   UNL A   1      31.757  30.084  21.642  1.00  0.00     0.158 HD
ATOM     28  H   UNL A   1      30.352  30.819  21.012  1.00  0.00     0.158 HD
ENDBRANCH  19  26
ENDBRANCH  17  18
ENDBRANCH  16  17
ENDBRANCH  13  16
ENDBRANCH   7  12
ENDBRANCH   3   6
ENDBRANCH   1   2
BRANCH   1  29
ATOM     29  C   UNL A   1      37.958  21.440  25.320  1.00  0.00     0.042 C 
BRANCH  29  30
ATOM     30  C   UNL A   1      39.288  21.320  26.059  1.00  0.00     0.118 C 
BRANCH  30  31
ATOM     31  N   UNL A   1      39.965  20.027  25.951  1.00  0.00    -0.352 N 
ATOM     32  C   UNL A   1      41.302  19.731  26.150  1.00  0.00     0.251 C 
ATOM     33  H   UNL A   1      39.392  19.266  25.702  1.00  0.00     0.163 HD
ATOM     34  O   UNL A   1      41.724  18.591  26.050  1.00  0.00    -0.269 OA
BRANCH  32  35
ATOM     35  C   UNL A   1      42.242  20.837  26.444  1.00  0.00     0.039 A 
ATOM     36  C   UNL A   1      42.794  21.558  25.381  1.00  0.00     0.014 A 
ATOM     37  C   UNL A   1      42.490  21.222  27.761  1.00  0.00     0.014 A 
ATOM     38  C   UNL A   1      43.482  22.745  25.641  1.00  0.00     0.010 A 
ATOM     39  C   UNL A   1      43.092  22.447  28.013  1.00  0.00     0.010 A 
ATOM     40  C   UNL A   1      43.572  23.235  26.955  1.00  0.00    -0.014 A 
BRANCH  40  41
ATOM     41  C   UNL A   1      44.102  24.590  27.252  1.00  0.00     0.031 A 
ATOM     42  C   UNL A   1      43.170  25.675  27.723  1.00  0.00     0.074 A 
ATOM     43  C   UNL A   1      45.391  24.874  26.969  1.00  0.00     0.049 A 
ATOM     44  N   UNL A   1      43.411  26.947  27.904  1.00  0.00    -0.248 NA
ATOM     45  C   UNL A   1      41.772  25.287  27.979  1.00  0.00     0.031 C 
ATOM     46  C   UNL A   1      46.368  23.931  26.415  1.00  0.00     0.029 A 
ATOM     47  N   UNL A   1      46.098  26.044  27.084  1.00  0.00    -0.354 N 
ATOM     48  C   UNL A   1      42.194  27.516  28.258  1.00  0.00     0.074 A 
ATOM     49  C   UNL A   1      41.206  26.461  28.223  1.00  0.00     0.031 C 
ATOM     50  C   UNL A   1      47.547  24.553  26.259  1.00  0.00     0.029 A 
ATOM     51  C   UNL A   1      47.408  25.946  26.670  1.00  0.00     0.049 A 
ATOM     52  H   UNL A   1      45.706  26.878  27.432  1.00  0.00     0.167 HD
ATOM     53  C   UNL A   1      41.929  28.798  28.604  1.00  0.00     0.037 A 
ATOM     54  C   UNL A   1      48.383  26.873  26.626  1.00  0.00     0.037 A 
ATOM     55  C   UNL A   1      42.933  29.824  28.704  1.00  0.00     0.049 A 
ATOM     56  C   UNL A   1      48.080  28.268  27.103  1.00  0.00     0.074 A 
ATOM     57  C   UNL A   1      42.789  31.128  29.144  1.00  0.00     0.029 A 
ATOM     58  N   UNL A   1      44.269  29.659  28.372  1.00  0.00    -0.354 N 
ATOM     59  N   UNL A   1      46.941  28.765  27.523  1.00  0.00    -0.248 NA
ATOM     60  C   UNL A   1      49.197  29.224  27.121  1.00  0.00     0.031 C 
ATOM     61  C   UNL A   1      44.035  31.759  29.057  1.00  0.00     0.029 A 
ATOM     62  C   UNL A   1      44.960  30.836  28.596  1.00  0.00     0.049 A 
ATOM     63  H   UNL A   1      44.668  28.827  28.028  1.00  0.00     0.167 HD
ATOM     64  C   UNL A   1      47.214  30.078  27.890  1.00  0.00     0.074 A 
ATOM     65  C   UNL A   1      48.625  30.296  27.649  1.00  0.00     0.031 C 
ATOM     66  C   UNL A   1      46.372  31.019  28.382  1.00  0.00     0.037 A 
BRANCH  53  67
ATOM     67  C   UNL A   1      40.510  29.163  28.937  1.00  0.00     0.058 A 
ATOM     68  C   UNL A   1      40.086  29.323  30.265  1.00  0.00     0.135 A 
ATOM     69  C   UNL A   1      39.582  29.425  27.916  1.00  0.00     0.135 A 
ATOM     70  F   UNL A   1      40.928  29.068  31.280  1.00  0.00    -0.206 F 
ATOM     71  C   UNL A   1      38.788  29.718  30.571  1.00  0.00     0.059 A 
ATOM     72  C   UNL A   1      38.286  29.845  28.199  1.00  0.00     0.059 A 
ATOM     73  F   UNL A   1      39.935  29.282  26.629  1.00  0.00    -0.206 F 
ATOM     74  C   UNL A   1      37.897  29.983  29.531  1.00  0.00     0.060 A 
BRANCH  74  75
ATOM     75  S   UNL A   1      36.230  30.540  29.945  1.00  0.00     0.124 S 
ATOM     76  O   UNL A   1      35.481  30.118  28.765  1.00  0.00    -0.237 OA
ATOM     77  O   UNL A   1      35.949  29.800  31.170  1.00  0.00    -0.237 OA
ATOM     78  O   UNL A   1      36.385  31.982  30.108  1.00  0.00    -0.744 OA
ENDBRANCH  74  75
ENDBRANCH  53  67
BRANCH  54  79
ATOM     79  C   UNL A   1      49.748  26.515  26.153  1.00  0.00     0.058 A 
ATOM     80  C   UNL A   1      50.675  25.920  27.022  1.00  0.00     0.135 A 
ATOM     81  C   UNL A   1      50.162  26.781  24.840  1.00  0.00     0.135 A 
ATOM     82  F   UNL A   1      50.325  25.646  28.290  1.00  0.00    -0.206 F 
ATOM     83  C   UNL A   1      51.976  25.638  26.621  1.00  0.00     0.059 A 
ATOM     84  C   UNL A   1      51.451  26.485  24.407  1.00  0.00     0.059 A 
ATOM     85  F   UNL A   1      49.307  27.327  23.961  1.00  0.00    -0.206 F 
ATOM     86  C   UNL A   1      52.357  25.931  25.312  1.00  0.00     0.060 A 
BRANCH  86  87
ATOM     87  S   UNL A   1      54.046  25.555  24.794  1.00  0.00     0.124 S 
ATOM     88  O   UNL A   1      54.060  26.085  23.435  1.00  0.00    -0.237 OA
ATOM     89  O   UNL A   1      54.843  26.288  25.773  1.00  0.00    -0.237 OA
ATOM     90  O   UNL A   1      54.113  24.101  24.906  1.00  0.00    -0.744 OA
ENDBRANCH  86  87
ENDBRANCH  54  79
BRANCH  66  91
ATOM     91  C   UNL A   1      46.965  32.346  28.757  1.00  0.00     0.058 A 
ATOM     92  C   UNL A   1      47.042  33.407  27.842  1.00  0.00     0.135 A 
ATOM     93  C   UNL A   1      47.420  32.569  30.067  1.00  0.00     0.135 A 
ATOM     94  F   UNL A   1      46.624  33.240  26.577  1.00  0.00    -0.206 F 
ATOM     95  C   UNL A   1      47.574  34.639  28.207  1.00  0.00     0.059 A 
ATOM     96  C   UNL A   1      47.932  33.800  30.459  1.00  0.00     0.059 A 
ATOM     97  F   UNL A   1      47.357  31.588  30.981  1.00  0.00    -0.206 F 
ATOM     98  C   UNL A   1      48.018  34.826  29.518  1.00  0.00     0.060 A 
BRANCH  98  99
ATOM     99  S   UNL A   1      48.681  36.436  29.989  1.00  0.00     0.124 S 
ATOM    100  O   UNL A   1      47.577  36.993  30.763  1.00  0.00    -0.237 OA
ATOM    101  O   UNL A   1      49.872  36.077  30.752  1.00  0.00    -0.237 OA
ATOM    102  O   UNL A   1      48.939  37.084  28.706  1.00  0.00    -0.744 OA
ENDBRANCH  98  99
ENDBRANCH  66  91
ENDBRANCH  40  41
ENDBRANCH  32  35
ENDBRANCH  30  31
ENDBRANCH  29  30
ENDBRANCH   1  29
TORSDOF 18
ENDMDL
MODEL 3
REMARK VINA RESULT:     -11.5      0.973      2.025
REMARK SMILES Nc1cc(=O)[nH]c(SCC(=O)Nc2ccccc2C(=O)NCCCNC(=O)c2ccc(-c3c4nc(c(-c5c(F)cc(S(=O)(=O)[O-])cc5F)c5ccc([nH]5)c(-c5c(F)cc(S(=O)(=O)[O-])cc5F)c5nc(c(-c6c(F)cc(S(=O)(=O)[O-])cc6F)c6ccc3[nH]6)C=C5)C=C4)cc2)n1
REMARK SMILES IDX 22 1 21 2 19 3 20 4 18 6 13 7 14 8 15 9 17 10 16 11 12 12
REMARK SMILES IDX 10 13 11 14 9 16 8 17 7 18 2 19 3 20 94 21 4 22 5 23 6 24
REMARK SMILES IDX 1 26 23 29 24 30 25 31 26 32 27 34 28 35 29 36 93 37 30 38
REMARK SMILES IDX 92 39 31 40 32 41 33 42 86 43 34 44 91 45 85 46 87 47 35 48
REMARK SMILES IDX 90 49 84 50 83 51 36 53 70 54 49 55 69 56 50 57 53 58 68 59
REMARK SMILES IDX 88 60 51 61 52 62 67 64 89 65 54 66 37 67 38 68 47 69 39 70
REMARK SMILES IDX 40 71 46 72 48 73 41 74 42 75 43 76 44 77 45 78 71 79 72 80
REMARK SMILES IDX 81 81 73 82 74 83 80 84 82 85 75 86 76 87 77 88 78 89 79 90
REMARK SMILES IDX 55 91 56 92 65 93 57 94 58 95 64 96 66 97 59 98 60 99 61 100
REMARK SMILES IDX 62 101 63 102
REMARK H PARENT 21 5 12 15 6 25 1 27 1 28 25 33 87 52 53 63
REMARK Flexibility Score: inf
ROOT
ATOM      1  C   UNL A   1      35.310  23.809  24.162  1.00  0.00     0.118 C 
ENDROOT
BRANCH   1   2
ATOM      2  N   UNL A   1      34.477  22.974  23.319  1.00  0.00    -0.352 N 
ATOM      3  C   UNL A   1      33.240  23.235  22.780  1.00  0.00     0.253 C 
ATOM      4  O   UNL A   1      32.665  22.328  22.173  1.00  0.00    -0.269 OA
ATOM      5  H   UNL A   1      34.853  22.091  23.101  1.00  0.00     0.163 HD
BRANCH   3   6
ATOM      6  C   UNL A   1      32.516  24.522  22.963  1.00  0.00     0.063 A 
ATOM      7  C   UNL A   1      31.782  24.960  24.077  1.00  0.00     0.054 A 
ATOM      8  C   UNL A   1      30.826  25.976  23.866  1.00  0.00     0.027 A 
ATOM      9  C   UNL A   1      30.732  26.667  22.655  1.00  0.00     0.002 A 
ATOM     10  C   UNL A   1      32.471  25.284  21.770  1.00  0.00     0.016 A 
ATOM     11  C   UNL A   1      31.598  26.358  21.620  1.00  0.00     0.001 A 
BRANCH   7  12
ATOM     12  N   UNL A   1      31.774  24.441  25.385  1.00  0.00    -0.325 N 
ATOM     13  C   UNL A   1      31.440  23.262  25.988  1.00  0.00     0.234 C 
ATOM     14  O   UNL A   1      31.183  23.362  27.200  1.00  0.00    -0.274 OA
ATOM     15  H   UNL A   1      32.094  25.104  26.039  1.00  0.00     0.169 HD
BRANCH  13  16
ATOM     16  C   UNL A   1      31.675  21.881  25.419  1.00  0.00     0.178 C 
BRANCH  16  17
ATOM     17  S   UNL A   1      32.944  20.835  26.094  1.00  0.00    -0.078 SA
BRANCH  17  18
ATOM     18  C   UNL A   1      33.087  19.546  24.934  1.00  0.00     0.170 A 
ATOM     19  C   UNL A   1      32.577  18.303  23.094  1.00  0.00     0.131 A 
ATOM     20  C   UNL A   1      33.566  17.428  23.344  1.00  0.00     0.118 A 
ATOM     21  N   UNL A   1      32.337  19.398  23.895  1.00  0.00    -0.207 NA
ATOM     22  C   UNL A   1      34.427  17.635  24.511  1.00  0.00     0.253 A 
ATOM     23  O   UNL A   1      35.371  16.893  24.751  1.00  0.00    -0.269 OA
ATOM     24  N   UNL A   1      34.095  18.704  25.273  1.00  0.00    -0.301 N 
ATOM     25  H   UNL A   1      34.601  18.876  26.099  1.00  0.00     0.172 HD
BRANCH  19  26
ATOM     26  N   UNL A   1      31.786  18.098  22.003  1.00  0.00    -0.383 N 
ATOM     27  H   UNL A   1      30.877  17.736  22.116  1.00  0.00     0.158 HD
ATOM     28  H   UNL A   1      32.123  18.313  21.103  1.00  0.00     0.158 HD
ENDBRANCH  19  26
ENDBRANCH  17  18
ENDBRANCH  16  17
ENDBRANCH  13  16
ENDBRANCH   7  12
ENDBRANCH   3   6
ENDBRANCH   1   2
BRANCH   1  29
ATOM     29  C   UNL A   1      36.778  23.431  24.198  1.00  0.00     0.042 C 
BRANCH  29  30
ATOM     30  C   UNL A   1      37.327  23.174  25.598  1.00  0.00     0.118 C 
BRANCH  30  31
ATOM     31  N   UNL A   1      38.645  22.541  25.661  1.00  0.00    -0.352 N 
ATOM     32  C   UNL A   1      39.803  23.010  26.258  1.00  0.00     0.251 C 
ATOM     33  H   UNL A   1      38.718  21.664  25.220  1.00  0.00     0.163 HD
ATOM     34  O   UNL A   1      40.832  22.356  26.254  1.00  0.00    -0.269 OA
BRANCH  32  35
ATOM     35  C   UNL A   1      39.795  24.360  26.868  1.00  0.00     0.039 A 
ATOM     36  C   UNL A   1      39.227  24.526  28.135  1.00  0.00     0.014 A 
ATOM     37  C   UNL A   1      40.438  25.424  26.238  1.00  0.00     0.014 A 
ATOM     38  C   UNL A   1      39.425  25.726  28.823  1.00  0.00     0.010 A 
ATOM     39  C   UNL A   1      40.714  26.579  26.958  1.00  0.00     0.010 A 
ATOM     40  C   UNL A   1      40.233  26.733  28.267  1.00  0.00    -0.014 A 
BRANCH  40  41
ATOM     41  C   UNL A   1      40.647  27.927  29.047  1.00  0.00     0.031 A 
ATOM     42  C   UNL A   1      41.966  27.930  29.773  1.00  0.00     0.074 A 
ATOM     43  C   UNL A   1      39.776  28.946  29.209  1.00  0.00     0.049 A 
ATOM     44  N   UNL A   1      42.443  28.814  30.609  1.00  0.00    -0.248 NA
ATOM     45  C   UNL A   1      42.843  26.766  29.566  1.00  0.00     0.031 C 
ATOM     46  C   UNL A   1      38.428  29.013  28.636  1.00  0.00     0.029 A 
ATOM     47  N   UNL A   1      39.884  30.112  29.923  1.00  0.00    -0.354 N 
ATOM     48  C   UNL A   1      43.653  28.297  31.056  1.00  0.00     0.074 A 
ATOM     49  C   UNL A   1      43.818  27.003  30.432  1.00  0.00     0.031 C 
ATOM     50  C   UNL A   1      37.845  30.165  29.004  1.00  0.00     0.029 A 
ATOM     51  C   UNL A   1      38.761  30.907  29.864  1.00  0.00     0.049 A 
ATOM     52  H   UNL A   1      40.690  30.360  30.433  1.00  0.00     0.167 HD
ATOM     53  C   UNL A   1      44.557  28.862  31.891  1.00  0.00     0.037 A 
ATOM     54  C   UNL A   1      38.499  32.097  30.438  1.00  0.00     0.037 A 
ATOM     55  C   UNL A   1      44.416  30.181  32.450  1.00  0.00     0.049 A 
ATOM     56  C   UNL A   1      39.561  32.740  31.289  1.00  0.00     0.074 A 
ATOM     57  C   UNL A   1      45.319  30.888  33.225  1.00  0.00     0.029 A 
ATOM     58  N   UNL A   1      43.307  30.995  32.284  1.00  0.00    -0.354 N 
ATOM     59  N   UNL A   1      40.740  32.275  31.625  1.00  0.00    -0.248 NA
ATOM     60  C   UNL A   1      39.266  34.078  31.823  1.00  0.00     0.031 C 
ATOM     61  C   UNL A   1      44.746  32.123  33.546  1.00  0.00     0.029 A 
ATOM     62  C   UNL A   1      43.502  32.198  32.941  1.00  0.00     0.049 A 
ATOM     63  H   UNL A   1      42.500  30.756  31.773  1.00  0.00     0.167 HD
ATOM     64  C   UNL A   1      41.342  33.279  32.377  1.00  0.00     0.074 A 
ATOM     65  C   UNL A   1      40.400  34.377  32.440  1.00  0.00     0.031 C 
ATOM     66  C   UNL A   1      42.565  33.290  32.962  1.00  0.00     0.037 A 
BRANCH  53  67
ATOM     67  C   UNL A   1      45.796  28.081  32.227  1.00  0.00     0.058 A 
ATOM     68  C   UNL A   1      45.860  27.261  33.364  1.00  0.00     0.135 A 
ATOM     69  C   UNL A   1      46.905  28.096  31.366  1.00  0.00     0.135 A 
ATOM     70  F   UNL A   1      44.833  27.223  34.230  1.00  0.00    -0.206 F 
ATOM     71  C   UNL A   1      46.984  26.493  33.644  1.00  0.00     0.059 A 
ATOM     72  C   UNL A   1      48.031  27.316  31.614  1.00  0.00     0.059 A 
ATOM     73  F   UNL A   1      46.897  28.866  30.267  1.00  0.00    -0.206 F 
ATOM     74  C   UNL A   1      48.063  26.522  32.760  1.00  0.00     0.060 A 
BRANCH  74  75
ATOM     75  S   UNL A   1      49.496  25.483  33.114  1.00  0.00     0.124 S 
ATOM     76  O   UNL A   1      48.906  24.457  33.970  1.00  0.00    -0.237 OA
ATOM     77  O   UNL A   1      49.899  25.042  31.784  1.00  0.00    -0.237 OA
ATOM     78  O   UNL A   1      50.422  26.396  33.777  1.00  0.00    -0.744 OA
ENDBRANCH  74  75
ENDBRANCH  53  67
BRANCH  54  79
ATOM     79  C   UNL A   1      37.200  32.782  30.202  1.00  0.00     0.058 A 
ATOM     80  C   UNL A   1      37.016  33.602  29.078  1.00  0.00     0.135 A 
ATOM     81  C   UNL A   1      36.130  32.656  31.100  1.00  0.00     0.135 A 
ATOM     82  F   UNL A   1      38.011  33.756  28.190  1.00  0.00    -0.206 F 
ATOM     83  C   UNL A   1      35.834  34.305  28.872  1.00  0.00     0.059 A 
ATOM     84  C   UNL A   1      34.928  33.329  30.902  1.00  0.00     0.059 A 
ATOM     85  F   UNL A   1      36.245  31.864  32.177  1.00  0.00    -0.206 F 
ATOM     86  C   UNL A   1      34.797  34.167  29.795  1.00  0.00     0.060 A 
BRANCH  86  87
ATOM     87  S   UNL A   1      33.260  35.076  29.518  1.00  0.00     0.124 S 
ATOM     88  O   UNL A   1      32.661  34.313  28.429  1.00  0.00    -0.237 OA
ATOM     89  O   UNL A   1      32.597  34.968  30.814  1.00  0.00    -0.237 OA
ATOM     90  O   UNL A   1      33.724  36.416  29.172  1.00  0.00    -0.744 OA
ENDBRANCH  86  87
ENDBRANCH  54  79
BRANCH  66  91
ATOM     91  C   UNL A   1      42.981  34.551  33.662  1.00  0.00     0.058 A 
ATOM     92  C   UNL A   1      42.868  34.697  35.053  1.00  0.00     0.135 A 
ATOM     93  C   UNL A   1      43.546  35.608  32.931  1.00  0.00     0.135 A 
ATOM     94  F   UNL A   1      42.330  33.715  35.793  1.00  0.00    -0.206 F 
ATOM     95  C   UNL A   1      43.277  35.861  35.693  1.00  0.00     0.059 A 
ATOM     96  C   UNL A   1      43.985  36.771  33.554  1.00  0.00     0.059 A 
ATOM     97  F   UNL A   1      43.686  35.511  31.599  1.00  0.00    -0.206 F 
ATOM     98  C   UNL A   1      43.834  36.893  34.934  1.00  0.00     0.060 A 
BRANCH  98  99
ATOM     99  S   UNL A   1      44.388  38.389  35.778  1.00  0.00     0.124 S 
ATOM    100  O   UNL A   1      45.838  38.240  35.718  1.00  0.00    -0.237 OA
ATOM    101  O   UNL A   1      43.825  39.448  34.947  1.00  0.00    -0.237 OA
ATOM    102  O   UNL A   1      43.797  38.266  37.108  1.00  0.00    -0.744 OA
ENDBRANCH  98  99
ENDBRANCH  66  91
ENDBRANCH  40  41
ENDBRANCH  32  35
ENDBRANCH  30  31
ENDBRANCH  29  30
ENDBRANCH   1  29
TORSDOF 18
ENDMDL
