MODEL 1
REMARK VINA RESULT:     -12.6      0.000      0.000
REMARK SMILES Cc1nsc(NC(=O)[C@@H]2C=C[C@@H]([NH3+])C2)c1C(=O)NCCCNC(=O)c1ccc(-c2c3nc(c(-c4c(F)cc(S(=O)(=O)[O-])cc4F)c4ccc([nH]4)c(-c4c(F)cc(S(=O)(=O)[O-])cc4F)c4nc(c(-c5c(F)cc(S(=O)(=O)[O-])cc5F)c5ccc2[nH]5)C=C4)C=C3)cc1
REMARK SMILES IDX 20 1 19 2 18 3 16 4 17 5 15 7 1 8 2 9 3 10 4 11 5 12 6 13
REMARK SMILES IDX 7 14 8 16 9 17 10 18 14 19 11 20 12 21 13 22 21 26 22 27
REMARK SMILES IDX 23 28 24 30 25 31 26 32 90 33 27 34 89 35 28 36 29 37 30 38
REMARK SMILES IDX 83 39 31 40 88 41 82 42 84 43 32 44 87 45 81 46 80 47 33 49
REMARK SMILES IDX 67 50 46 51 66 52 47 53 50 54 65 55 85 56 48 57 49 58 64 60
REMARK SMILES IDX 86 61 51 62 34 63 35 64 44 65 36 66 37 67 43 68 45 69 38 70
REMARK SMILES IDX 39 71 40 72 41 73 42 74 68 75 69 76 78 77 70 78 71 79 77 80
REMARK SMILES IDX 79 81 72 82 73 83 74 84 75 85 76 86 52 87 53 88 62 89 54 90
REMARK SMILES IDX 55 91 61 92 63 93 56 94 57 95 58 96 59 97 60 98
REMARK H PARENT 18 6 6 15 13 23 13 24 13 25 22 29 84 48 50 59
REMARK Flexibility Score: inf
ROOT
ATOM      1  C   UNL A   1      38.178  21.371  25.324  1.00  0.00     0.042 C 
ENDROOT
BRANCH   1   2
ATOM      2  C   UNL A   1      36.719  21.814  25.431  1.00  0.00     0.118 C 
BRANCH   2   3
ATOM      3  N   UNL A   1      36.078  22.123  24.175  1.00  0.00    -0.352 N 
ATOM      4  C   UNL A   1      34.973  22.844  23.817  1.00  0.00     0.256 C 
ATOM      5  O   UNL A   1      34.923  23.128  22.614  1.00  0.00    -0.269 OA
ATOM      6  H   UNL A   1      36.539  21.724  23.403  1.00  0.00     0.163 HD
BRANCH   4   7
ATOM      7  C   UNL A   1      33.846  23.173  24.697  1.00  0.00     0.097 A 
ATOM      8  C   UNL A   1      34.026  25.664  25.644  1.00  0.00     0.069 C 
ATOM      9  C   UNL A   1      33.501  24.275  25.583  1.00  0.00     0.066 A 
ATOM     10  N   UNL A   1      32.491  24.047  26.434  1.00  0.00    -0.195 NA
ATOM     11  S   UNL A   1      31.782  22.614  26.049  1.00  0.00    -0.017 S 
ATOM     12  C   UNL A   1      32.695  22.378  24.638  1.00  0.00     0.129 A 
BRANCH  12  13
ATOM     13  N   UNL A   1      32.344  21.435  23.695  1.00  0.00    -0.315 N 
ATOM     14  C   UNL A   1      32.584  20.085  23.681  1.00  0.00     0.232 C 
ATOM     15  H   UNL A   1      31.847  21.781  22.919  1.00  0.00     0.170 HD
ATOM     16  O   UNL A   1      32.164  19.449  22.706  1.00  0.00    -0.274 OA
BRANCH  14  17
ATOM     17  C   UNL A   1      33.332  19.365  24.823  1.00  0.00     0.107 C 
ATOM     18  C   UNL A   1      34.440  18.478  24.305  1.00  0.00    -0.012 C 
ATOM     19  C   UNL A   1      32.512  18.346  25.639  1.00  0.00     0.087 C 
ATOM     20  C   UNL A   1      34.192  17.175  24.485  1.00  0.00     0.033 C 
ATOM     21  C   UNL A   1      32.866  16.954  25.115  1.00  0.00     0.205 C 
BRANCH  21  22
ATOM     22  N   UNL A   1      32.893  15.987  26.197  1.00  0.00    -0.352 N 
ATOM     23  H   UNL A   1      33.371  16.393  27.003  1.00  0.00     0.345 HD
ATOM     24  H   UNL A   1      33.389  15.150  25.894  1.00  0.00     0.345 HD
ATOM     25  H   UNL A   1      31.938  15.742  26.459  1.00  0.00     0.345 HD
ENDBRANCH  21  22
ENDBRANCH  14  17
ENDBRANCH  12  13
ENDBRANCH   4   7
ENDBRANCH   2   3
ENDBRANCH   1   2
BRANCH   1  26
ATOM     26  C   UNL A   1      39.057  22.064  26.346  1.00  0.00     0.118 C 
BRANCH  26  27
ATOM     27  N   UNL A   1      40.476  22.037  25.954  1.00  0.00    -0.352 N 
ATOM     28  C   UNL A   1      41.436  23.036  26.050  1.00  0.00     0.251 C 
ATOM     29  H   UNL A   1      40.790  21.188  25.567  1.00  0.00     0.163 HD
ATOM     30  O   UNL A   1      42.465  22.976  25.409  1.00  0.00    -0.269 OA
BRANCH  28  31
ATOM     31  C   UNL A   1      41.154  24.165  26.952  1.00  0.00     0.039 A 
ATOM     32  C   UNL A   1      41.821  24.330  28.165  1.00  0.00     0.014 A 
ATOM     33  C   UNL A   1      40.284  25.135  26.475  1.00  0.00     0.014 A 
ATOM     34  C   UNL A   1      41.675  25.543  28.831  1.00  0.00     0.010 A 
ATOM     35  C   UNL A   1      40.367  26.399  26.979  1.00  0.00     0.010 A 
ATOM     36  C   UNL A   1      40.979  26.594  28.203  1.00  0.00    -0.014 A 
BRANCH  36  37
ATOM     37  C   UNL A   1      40.958  27.940  28.757  1.00  0.00     0.031 A 
ATOM     38  C   UNL A   1      42.060  28.795  28.262  1.00  0.00     0.074 A 
ATOM     39  C   UNL A   1      39.950  28.433  29.512  1.00  0.00     0.049 A 
ATOM     40  N   UNL A   1      43.218  28.944  28.814  1.00  0.00    -0.248 NA
ATOM     41  C   UNL A   1      41.977  29.360  26.907  1.00  0.00     0.031 C 
ATOM     42  C   UNL A   1      38.637  27.835  29.801  1.00  0.00     0.029 A 
ATOM     43  N   UNL A   1      39.871  29.633  30.151  1.00  0.00    -0.354 N 
ATOM     44  C   UNL A   1      43.874  29.890  28.038  1.00  0.00     0.074 A 
ATOM     45  C   UNL A   1      43.197  29.893  26.769  1.00  0.00     0.031 C 
ATOM     46  C   UNL A   1      37.823  28.755  30.362  1.00  0.00     0.029 A 
ATOM     47  C   UNL A   1      38.614  29.932  30.666  1.00  0.00     0.049 A 
ATOM     48  H   UNL A   1      40.641  30.241  30.240  1.00  0.00     0.167 HD
ATOM     49  C   UNL A   1      44.674  30.818  28.635  1.00  0.00     0.037 A 
ATOM     50  C   UNL A   1      38.257  31.043  31.355  1.00  0.00     0.037 A 
ATOM     51  C   UNL A   1      44.850  30.491  30.033  1.00  0.00     0.049 A 
ATOM     52  C   UNL A   1      39.500  31.578  31.960  1.00  0.00     0.074 A 
ATOM     53  C   UNL A   1      45.536  29.548  30.766  1.00  0.00     0.029 A 
ATOM     54  N   UNL A   1      43.853  30.989  30.834  1.00  0.00    -0.354 N 
ATOM     55  N   UNL A   1      40.190  30.934  32.865  1.00  0.00    -0.248 NA
ATOM     56  C   UNL A   1      40.210  32.659  31.288  1.00  0.00     0.031 C 
ATOM     57  C   UNL A   1      44.793  29.368  31.972  1.00  0.00     0.029 A 
ATOM     58  C   UNL A   1      43.709  30.245  31.974  1.00  0.00     0.049 A 
ATOM     59  H   UNL A   1      43.311  31.782  30.617  1.00  0.00     0.167 HD
ATOM     60  C   UNL A   1      41.507  31.231  32.570  1.00  0.00     0.074 A 
ATOM     61  C   UNL A   1      41.452  32.414  31.718  1.00  0.00     0.031 C 
ATOM     62  C   UNL A   1      42.499  30.314  32.770  1.00  0.00     0.037 A 
BRANCH  49  63
ATOM     63  C   UNL A   1      44.880  32.243  28.163  1.00  0.00     0.058 A 
ATOM     64  C   UNL A   1      46.170  32.642  27.751  1.00  0.00     0.135 A 
ATOM     65  C   UNL A   1      43.960  33.294  28.370  1.00  0.00     0.135 A 
ATOM     66  F   UNL A   1      47.131  31.728  27.536  1.00  0.00    -0.206 F 
ATOM     67  C   UNL A   1      46.533  33.982  27.612  1.00  0.00     0.059 A 
ATOM     68  C   UNL A   1      44.286  34.633  28.188  1.00  0.00     0.059 A 
ATOM     69  F   UNL A   1      42.730  33.087  28.851  1.00  0.00    -0.206 F 
ATOM     70  C   UNL A   1      45.583  34.972  27.842  1.00  0.00     0.060 A 
BRANCH  70  71
ATOM     71  S   UNL A   1      46.058  36.704  27.715  1.00  0.00     0.124 S 
ATOM     72  O   UNL A   1      46.737  36.729  26.425  1.00  0.00    -0.237 OA
ATOM     73  O   UNL A   1      44.764  37.375  27.773  1.00  0.00    -0.237 OA
ATOM     74  O   UNL A   1      46.912  36.903  28.883  1.00  0.00    -0.744 OA
ENDBRANCH  70  71
ENDBRANCH  49  63
BRANCH  50  75
ATOM     75  C   UNL A   1      37.004  31.833  31.254  1.00  0.00     0.058 A 
ATOM     76  C   UNL A   1      36.092  31.890  32.323  1.00  0.00     0.135 A 
ATOM     77  C   UNL A   1      36.834  32.794  30.237  1.00  0.00     0.135 A 
ATOM     78  F   UNL A   1      36.187  31.017  33.337  1.00  0.00    -0.206 F 
ATOM     79  C   UNL A   1      35.114  32.886  32.416  1.00  0.00     0.059 A 
ATOM     80  C   UNL A   1      35.865  33.795  30.308  1.00  0.00     0.059 A 
ATOM     81  F   UNL A   1      37.674  32.843  29.191  1.00  0.00    -0.206 F 
ATOM     82  C   UNL A   1      35.026  33.853  31.416  1.00  0.00     0.060 A 
BRANCH  82  83
ATOM     83  S   UNL A   1      33.896  35.251  31.630  1.00  0.00     0.124 S 
ATOM     84  O   UNL A   1      34.700  36.168  32.430  1.00  0.00    -0.237 OA
ATOM     85  O   UNL A   1      33.646  35.660  30.252  1.00  0.00    -0.237 OA
ATOM     86  O   UNL A   1      32.752  34.658  32.319  1.00  0.00    -0.744 OA
ENDBRANCH  82  83
ENDBRANCH  50  75
BRANCH  62  87
ATOM     87  C   UNL A   1      42.274  29.250  33.805  1.00  0.00     0.058 A 
ATOM     88  C   UNL A   1      41.598  28.036  33.599  1.00  0.00     0.135 A 
ATOM     89  C   UNL A   1      42.867  29.451  35.061  1.00  0.00     0.135 A 
ATOM     90  F   UNL A   1      41.066  27.735  32.407  1.00  0.00    -0.206 F 
ATOM     91  C   UNL A   1      41.494  27.078  34.612  1.00  0.00     0.059 A 
ATOM     92  C   UNL A   1      42.803  28.500  36.072  1.00  0.00     0.059 A 
ATOM     93  F   UNL A   1      43.562  30.575  35.304  1.00  0.00    -0.206 F 
ATOM     94  C   UNL A   1      42.104  27.319  35.846  1.00  0.00     0.060 A 
BRANCH  94  95
ATOM     95  S   UNL A   1      42.025  26.060  37.138  1.00  0.00     0.124 S 
ATOM     96  O   UNL A   1      40.610  26.076  37.497  1.00  0.00    -0.237 OA
ATOM     97  O   UNL A   1      42.489  24.863  36.443  1.00  0.00    -0.237 OA
ATOM     98  O   UNL A   1      42.933  26.566  38.164  1.00  0.00    -0.744 OA
ENDBRANCH  94  95
ENDBRANCH  62  87
ENDBRANCH  36  37
ENDBRANCH  28  31
ENDBRANCH  26  27
ENDBRANCH   1  26
TORSDOF 16
ENDMDL
MODEL 2
REMARK VINA RESULT:     -12.3      1.913      3.774
REMARK SMILES Cc1nsc(NC(=O)[C@@H]2C=C[C@@H]([NH3+])C2)c1C(=O)NCCCNC(=O)c1ccc(-c2c3nc(c(-c4c(F)cc(S(=O)(=O)[O-])cc4F)c4ccc([nH]4)c(-c4c(F)cc(S(=O)(=O)[O-])cc4F)c4nc(c(-c5c(F)cc(S(=O)(=O)[O-])cc5F)c5ccc2[nH]5)C=C4)C=C3)cc1
REMARK SMILES IDX 20 1 19 2 18 3 16 4 17 5 15 7 1 8 2 9 3 10 4 11 5 12 6 13
REMARK SMILES IDX 7 14 8 16 9 17 10 18 14 19 11 20 12 21 13 22 21 26 22 27
REMARK SMILES IDX 23 28 24 30 25 31 26 32 90 33 27 34 89 35 28 36 29 37 30 38
REMARK SMILES IDX 83 39 31 40 88 41 82 42 84 43 32 44 87 45 81 46 80 47 33 49
REMARK SMILES IDX 67 50 46 51 66 52 47 53 50 54 65 55 85 56 48 57 49 58 64 60
REMARK SMILES IDX 86 61 51 62 34 63 35 64 44 65 36 66 37 67 43 68 45 69 38 70
REMARK SMILES IDX 39 71 40 72 41 73 42 74 68 75 69 76 78 77 70 78 71 79 77 80
REMARK SMILES IDX 79 81 72 82 73 83 74 84 75 85 76 86 52 87 53 88 62 89 54 90
REMARK SMILES IDX 55 91 61 92 63 93 56 94 57 95 58 96 59 97 60 98
REMARK H PARENT 18 6 6 15 13 23 13 24 13 25 22 29 84 48 50 59
REMARK Flexibility Score: inf
ROOT
ATOM      1  C   UNL A   1      37.415  22.739  24.765  1.00  0.00     0.042 C 
ENDROOT
BRANCH   1   2
ATOM      2  C   UNL A   1      36.118  23.528  24.942  1.00  0.00     0.118 C 
BRANCH   2   3
ATOM      3  N   UNL A   1      35.039  23.138  24.065  1.00  0.00    -0.352 N 
ATOM      4  C   UNL A   1      33.676  23.227  24.128  1.00  0.00     0.256 C 
ATOM      5  O   UNL A   1      33.108  23.056  23.043  1.00  0.00    -0.269 OA
ATOM      6  H   UNL A   1      35.355  22.711  23.237  1.00  0.00     0.163 HD
BRANCH   4   7
ATOM      7  C   UNL A   1      32.886  23.378  25.355  1.00  0.00     0.097 A 
ATOM      8  C   UNL A   1      33.976  22.049  27.400  1.00  0.00     0.069 C 
ATOM      9  C   UNL A   1      32.901  22.786  26.685  1.00  0.00     0.066 A 
ATOM     10  N   UNL A   1      31.810  23.000  27.432  1.00  0.00    -0.195 NA
ATOM     11  S   UNL A   1      30.846  24.091  26.670  1.00  0.00    -0.017 S 
ATOM     12  C   UNL A   1      31.958  24.423  25.432  1.00  0.00     0.129 A 
BRANCH  12  13
ATOM     13  N   UNL A   1      31.815  25.514  24.599  1.00  0.00    -0.315 N 
ATOM     14  C   UNL A   1      32.172  26.821  24.807  1.00  0.00     0.232 C 
ATOM     15  H   UNL A   1      31.396  25.326  23.728  1.00  0.00     0.170 HD
ATOM     16  O   UNL A   1      31.930  27.622  23.895  1.00  0.00    -0.274 OA
BRANCH  14  17
ATOM     17  C   UNL A   1      32.857  27.297  26.106  1.00  0.00     0.107 C 
ATOM     18  C   UNL A   1      31.891  27.993  27.035  1.00  0.00    -0.012 C 
ATOM     19  C   UNL A   1      33.934  28.387  25.948  1.00  0.00     0.087 C 
ATOM     20  C   UNL A   1      32.141  29.302  27.162  1.00  0.00     0.033 C 
ATOM     21  C   UNL A   1      33.287  29.723  26.317  1.00  0.00     0.205 C 
BRANCH  21  22
ATOM     22  N   UNL A   1      34.231  30.581  27.007  1.00  0.00    -0.352 N 
ATOM     23  H   UNL A   1      35.158  30.154  26.984  1.00  0.00     0.345 HD
ATOM     24  H   UNL A   1      33.936  30.702  27.976  1.00  0.00     0.345 HD
ATOM     25  H   UNL A   1      34.266  31.491  26.546  1.00  0.00     0.345 HD
ENDBRANCH  21  22
ENDBRANCH  14  17
ENDBRANCH  12  13
ENDBRANCH   4   7
ENDBRANCH   2   3
ENDBRANCH   1   2
BRANCH   1  26
ATOM     26  C   UNL A   1      38.079  22.436  26.094  1.00  0.00     0.118 C 
BRANCH  26  27
ATOM     27  N   UNL A   1      39.448  21.923  25.916  1.00  0.00    -0.352 N 
ATOM     28  C   UNL A   1      40.662  22.542  26.181  1.00  0.00     0.251 C 
ATOM     29  H   UNL A   1      39.512  21.009  25.556  1.00  0.00     0.163 HD
ATOM     30  O   UNL A   1      41.695  22.124  25.698  1.00  0.00    -0.269 OA
BRANCH  28  31
ATOM     31  C   UNL A   1      40.646  23.722  27.062  1.00  0.00     0.039 A 
ATOM     32  C   UNL A   1      41.546  23.872  28.117  1.00  0.00     0.014 A 
ATOM     33  C   UNL A   1      39.774  24.743  26.712  1.00  0.00     0.014 A 
ATOM     34  C   UNL A   1      41.623  25.116  28.736  1.00  0.00     0.010 A 
ATOM     35  C   UNL A   1      40.048  26.013  27.128  1.00  0.00     0.010 A 
ATOM     36  C   UNL A   1      40.898  26.198  28.201  1.00  0.00    -0.014 A 
BRANCH  36  37
ATOM     37  C   UNL A   1      41.086  27.560  28.681  1.00  0.00     0.031 A 
ATOM     38  C   UNL A   1      42.333  28.188  28.191  1.00  0.00     0.074 A 
ATOM     39  C   UNL A   1      40.150  28.258  29.364  1.00  0.00     0.049 A 
ATOM     40  N   UNL A   1      43.480  28.175  28.784  1.00  0.00    -0.248 NA
ATOM     41  C   UNL A   1      42.394  28.676  26.804  1.00  0.00     0.031 C 
ATOM     42  C   UNL A   1      38.746  27.906  29.626  1.00  0.00     0.029 A 
ATOM     43  N   UNL A   1      40.253  29.491  29.933  1.00  0.00    -0.354 N 
ATOM     44  C   UNL A   1      44.312  28.950  27.989  1.00  0.00     0.074 A 
ATOM     45  C   UNL A   1      43.690  28.990  26.693  1.00  0.00     0.031 C 
ATOM     46  C   UNL A   1      38.080  28.981  30.100  1.00  0.00     0.029 A 
ATOM     47  C   UNL A   1      39.047  30.026  30.376  1.00  0.00     0.049 A 
ATOM     48  H   UNL A   1      41.111  29.966  30.024  1.00  0.00     0.167 HD
ATOM     49  C   UNL A   1      45.236  29.766  28.571  1.00  0.00     0.037 A 
ATOM     50  C   UNL A   1      38.859  31.220  30.988  1.00  0.00     0.037 A 
ATOM     51  C   UNL A   1      45.306  29.499  29.990  1.00  0.00     0.049 A 
ATOM     52  C   UNL A   1      40.154  31.576  31.618  1.00  0.00     0.074 A 
ATOM     53  C   UNL A   1      45.797  28.500  30.802  1.00  0.00     0.029 A 
ATOM     54  N   UNL A   1      44.381  30.203  30.719  1.00  0.00    -0.354 N 
ATOM     55  N   UNL A   1      40.693  30.881  32.585  1.00  0.00    -0.248 NA
ATOM     56  C   UNL A   1      41.059  32.480  30.920  1.00  0.00     0.031 C 
ATOM     57  C   UNL A   1      44.993  28.519  31.982  1.00  0.00     0.029 A 
ATOM     58  C   UNL A   1      44.074  29.563  31.889  1.00  0.00     0.049 A 
ATOM     59  H   UNL A   1      43.989  31.061  30.436  1.00  0.00     0.167 HD
ATOM     60  C   UNL A   1      42.051  30.936  32.334  1.00  0.00     0.074 A 
ATOM     61  C   UNL A   1      42.225  32.058  31.418  1.00  0.00     0.031 C 
ATOM     62  C   UNL A   1      42.866  29.881  32.626  1.00  0.00     0.037 A 
BRANCH  49  63
ATOM     63  C   UNL A   1      45.696  31.105  28.032  1.00  0.00     0.058 A 
ATOM     64  C   UNL A   1      44.737  32.121  27.826  1.00  0.00     0.135 A 
ATOM     65  C   UNL A   1      46.958  31.338  27.442  1.00  0.00     0.135 A 
ATOM     66  F   UNL A   1      43.497  32.001  28.330  1.00  0.00    -0.206 F 
ATOM     67  C   UNL A   1      44.993  33.249  27.047  1.00  0.00     0.059 A 
ATOM     68  C   UNL A   1      47.250  32.480  26.704  1.00  0.00     0.059 A 
ATOM     69  F   UNL A   1      47.940  30.431  27.465  1.00  0.00    -0.206 F 
ATOM     70  C   UNL A   1      46.254  33.416  26.483  1.00  0.00     0.060 A 
BRANCH  70  71
ATOM     71  S   UNL A   1      46.575  34.843  25.434  1.00  0.00     0.124 S 
ATOM     72  O   UNL A   1      46.248  35.946  26.330  1.00  0.00    -0.237 OA
ATOM     73  O   UNL A   1      47.989  34.670  25.119  1.00  0.00    -0.237 OA
ATOM     74  O   UNL A   1      45.662  34.647  24.312  1.00  0.00    -0.744 OA
ENDBRANCH  70  71
ENDBRANCH  49  63
BRANCH  50  75
ATOM     75  C   UNL A   1      37.762  32.200  30.789  1.00  0.00     0.058 A 
ATOM     76  C   UNL A   1      37.824  33.165  29.767  1.00  0.00     0.135 A 
ATOM     77  C   UNL A   1      36.501  32.006  31.388  1.00  0.00     0.135 A 
ATOM     78  F   UNL A   1      38.985  33.406  29.140  1.00  0.00    -0.206 F 
ATOM     79  C   UNL A   1      36.689  33.845  29.314  1.00  0.00     0.059 A 
ATOM     80  C   UNL A   1      35.356  32.675  30.954  1.00  0.00     0.059 A 
ATOM     81  F   UNL A   1      36.332  31.085  32.350  1.00  0.00    -0.206 F 
ATOM     82  C   UNL A   1      35.451  33.572  29.896  1.00  0.00     0.060 A 
BRANCH  82  83
ATOM     83  S   UNL A   1      33.957  34.303  29.184  1.00  0.00     0.124 S 
ATOM     84  O   UNL A   1      34.497  35.444  28.454  1.00  0.00    -0.237 OA
ATOM     85  O   UNL A   1      33.439  33.211  28.365  1.00  0.00    -0.237 OA
ATOM     86  O   UNL A   1      33.151  34.635  30.356  1.00  0.00    -0.744 OA
ENDBRANCH  82  83
ENDBRANCH  50  75
BRANCH  62  87
ATOM     87  C   UNL A   1      42.428  28.933  33.705  1.00  0.00     0.058 A 
ATOM     88  C   UNL A   1      41.553  27.847  33.538  1.00  0.00     0.135 A 
ATOM     89  C   UNL A   1      43.015  29.097  34.970  1.00  0.00     0.135 A 
ATOM     90  F   UNL A   1      41.007  27.578  32.344  1.00  0.00    -0.206 F 
ATOM     91  C   UNL A   1      41.255  26.981  34.594  1.00  0.00     0.059 A 
ATOM     92  C   UNL A   1      42.756  28.231  36.025  1.00  0.00     0.059 A 
ATOM     93  F   UNL A   1      43.892  30.093  35.180  1.00  0.00    -0.206 F 
ATOM     94  C   UNL A   1      41.865  27.181  35.835  1.00  0.00     0.060 A 
BRANCH  94  95
ATOM     95  S   UNL A   1      41.530  26.031  37.186  1.00  0.00     0.124 S 
ATOM     96  O   UNL A   1      40.230  26.489  37.665  1.00  0.00    -0.237 OA
ATOM     97  O   UNL A   1      41.536  24.737  36.509  1.00  0.00    -0.237 OA
ATOM     98  O   UNL A   1      42.644  26.249  38.105  1.00  0.00    -0.744 OA
ENDBRANCH  94  95
ENDBRANCH  62  87
ENDBRANCH  36  37
ENDBRANCH  28  31
ENDBRANCH  26  27
ENDBRANCH   1  26
TORSDOF 16
ENDMDL
MODEL 3
REMARK VINA RESULT:     -12.3      3.869     10.248
REMARK SMILES Cc1nsc(NC(=O)[C@@H]2C=C[C@@H]([NH3+])C2)c1C(=O)NCCCNC(=O)c1ccc(-c2c3nc(c(-c4c(F)cc(S(=O)(=O)[O-])cc4F)c4ccc([nH]4)c(-c4c(F)cc(S(=O)(=O)[O-])cc4F)c4nc(c(-c5c(F)cc(S(=O)(=O)[O-])cc5F)c5ccc2[nH]5)C=C4)C=C3)cc1
REMARK SMILES IDX 20 1 19 2 18 3 16 4 17 5 15 7 1 8 2 9 3 10 4 11 5 12 6 13
REMARK SMILES IDX 7 14 8 16 9 17 10 18 14 19 11 20 12 21 13 22 21 26 22 27
REMARK SMILES IDX 23 28 24 30 25 31 26 32 90 33 27 34 89 35 28 36 29 37 30 38
REMARK SMILES IDX 83 39 31 40 88 41 82 42 84 43 32 44 87 45 81 46 80 47 33 49
REMARK SMILES IDX 67 50 46 51 66 52 47 53 50 54 65 55 85 56 48 57 49 58 64 60
REMARK SMILES IDX 86 61 51 62 34 63 35 64 44 65 36 66 37 67 43 68 45 69 38 70
REMARK SMILES IDX 39 71 40 72 41 73 42 74 68 75 69 76 78 77 70 78 71 79 77 80
REMARK SMILES IDX 79 81 72 82 73 83 74 84 75 85 76 86 52 87 53 88 62 89 54 90
REMARK SMILES IDX 55 91 61 92 63 93 56 94 57 95 58 96 59 97 60 98
REMARK H PARENT 18 6 6 15 13 23 13 24 13 25 22 29 84 48 50 59
REMARK Flexibility Score: inf
ROOT
ATOM      1  C   UNL A   1      32.894  30.665  27.263  1.00  0.00     0.042 C 
ENDROOT
BRANCH   1   2
ATOM      2  C   UNL A   1      33.065  29.303  26.590  1.00  0.00     0.118 C 
BRANCH   2   3
ATOM      3  N   UNL A   1      31.913  28.435  26.662  1.00  0.00    -0.352 N 
ATOM      4  C   UNL A   1      31.576  27.244  26.081  1.00  0.00     0.256 C 
ATOM      5  O   UNL A   1      30.630  26.665  26.629  1.00  0.00    -0.269 OA
ATOM      6  H   UNL A   1      31.214  28.778  27.264  1.00  0.00     0.163 HD
BRANCH   4   7
ATOM      7  C   UNL A   1      32.149  26.705  24.843  1.00  0.00     0.097 A 
ATOM      8  C   UNL A   1      34.375  25.305  25.313  1.00  0.00     0.069 C 
ATOM      9  C   UNL A   1      33.382  26.025  24.473  1.00  0.00     0.066 A 
ATOM     10  N   UNL A   1      33.640  25.955  23.161  1.00  0.00    -0.195 NA
ATOM     11  S   UNL A   1      32.325  26.486  22.329  1.00  0.00    -0.017 S 
ATOM     12  C   UNL A   1      31.340  26.639  23.703  1.00  0.00     0.129 A 
BRANCH  12  13
ATOM     13  N   UNL A   1      29.973  26.795  23.603  1.00  0.00    -0.315 N 
ATOM     14  C   UNL A   1      29.244  27.912  23.289  1.00  0.00     0.232 C 
ATOM     15  H   UNL A   1      29.444  25.984  23.783  1.00  0.00     0.170 HD
ATOM     16  O   UNL A   1      28.012  27.793  23.269  1.00  0.00    -0.274 OA
BRANCH  14  17
ATOM     17  C   UNL A   1      29.905  29.267  22.959  1.00  0.00     0.107 C 
ATOM     18  C   UNL A   1      29.367  30.386  23.820  1.00  0.00    -0.012 C 
ATOM     19  C   UNL A   1      29.631  29.835  21.553  1.00  0.00     0.087 C 
ATOM     20  C   UNL A   1      28.646  31.276  23.127  1.00  0.00     0.033 C 
ATOM     21  C   UNL A   1      28.539  30.897  21.696  1.00  0.00     0.205 C 
BRANCH  21  22
ATOM     22  N   UNL A   1      28.772  32.002  20.784  1.00  0.00    -0.352 N 
ATOM     23  H   UNL A   1      29.628  31.831  20.255  1.00  0.00     0.345 HD
ATOM     24  H   UNL A   1      28.867  32.867  21.316  1.00  0.00     0.345 HD
ATOM     25  H   UNL A   1      27.986  32.083  20.139  1.00  0.00     0.345 HD
ENDBRANCH  21  22
ENDBRANCH  14  17
ENDBRANCH  12  13
ENDBRANCH   4   7
ENDBRANCH   2   3
ENDBRANCH   1   2
BRANCH   1  26
ATOM     26  C   UNL A   1      34.224  31.361  27.479  1.00  0.00     0.118 C 
BRANCH  26  27
ATOM     27  N   UNL A   1      34.271  32.058  28.775  1.00  0.00    -0.352 N 
ATOM     28  C   UNL A   1      35.194  31.941  29.806  1.00  0.00     0.251 C 
ATOM     29  H   UNL A   1      33.541  32.699  28.935  1.00  0.00     0.163 HD
ATOM     30  O   UNL A   1      34.936  32.339  30.923  1.00  0.00    -0.269 OA
BRANCH  28  31
ATOM     31  C   UNL A   1      36.489  31.316  29.490  1.00  0.00     0.039 A 
ATOM     32  C   UNL A   1      37.683  32.036  29.505  1.00  0.00     0.014 A 
ATOM     33  C   UNL A   1      36.483  29.941  29.306  1.00  0.00     0.014 A 
ATOM     34  C   UNL A   1      38.876  31.323  29.441  1.00  0.00     0.010 A 
ATOM     35  C   UNL A   1      37.635  29.243  29.523  1.00  0.00     0.010 A 
ATOM     36  C   UNL A   1      38.842  29.916  29.497  1.00  0.00    -0.014 A 
BRANCH  36  37
ATOM     37  C   UNL A   1      40.055  29.123  29.630  1.00  0.00     0.031 A 
ATOM     38  C   UNL A   1      40.425  28.848  31.036  1.00  0.00     0.074 A 
ATOM     39  C   UNL A   1      40.699  28.543  28.591  1.00  0.00     0.049 A 
ATOM     40  N   UNL A   1      41.208  29.562  31.774  1.00  0.00    -0.248 NA
ATOM     41  C   UNL A   1      39.682  27.823  31.786  1.00  0.00     0.031 C 
ATOM     42  C   UNL A   1      40.271  28.431  27.188  1.00  0.00     0.029 A 
ATOM     43  N   UNL A   1      41.879  27.863  28.591  1.00  0.00    -0.354 N 
ATOM     44  C   UNL A   1      41.309  28.872  32.974  1.00  0.00     0.074 A 
ATOM     45  C   UNL A   1      40.168  27.997  33.021  1.00  0.00     0.031 C 
ATOM     46  C   UNL A   1      41.058  27.550  26.533  1.00  0.00     0.029 A 
ATOM     47  C   UNL A   1      42.165  27.201  27.402  1.00  0.00     0.049 A 
ATOM     48  H   UNL A   1      42.481  27.843  29.370  1.00  0.00     0.167 HD
ATOM     49  C   UNL A   1      42.501  28.834  33.635  1.00  0.00     0.037 A 
ATOM     50  C   UNL A   1      43.269  26.466  27.121  1.00  0.00     0.037 A 
ATOM     51  C   UNL A   1      43.437  29.746  33.015  1.00  0.00     0.049 A 
ATOM     52  C   UNL A   1      44.339  26.957  28.023  1.00  0.00     0.074 A 
ATOM     53  C   UNL A   1      43.613  31.110  32.942  1.00  0.00     0.029 A 
ATOM     54  N   UNL A   1      44.122  29.186  31.965  1.00  0.00    -0.354 N 
ATOM     55  N   UNL A   1      44.824  28.169  27.963  1.00  0.00    -0.248 NA
ATOM     56  C   UNL A   1      44.611  26.236  29.260  1.00  0.00     0.031 C 
ATOM     57  C   UNL A   1      44.274  31.357  31.701  1.00  0.00     0.029 A 
ATOM     58  C   UNL A   1      44.539  30.139  31.076  1.00  0.00     0.049 A 
ATOM     59  H   UNL A   1      44.292  28.222  31.866  1.00  0.00     0.167 HD
ATOM     60  C   UNL A   1      45.072  28.506  29.280  1.00  0.00     0.074 A 
ATOM     61  C   UNL A   1      45.089  27.239  30.003  1.00  0.00     0.031 C 
ATOM     62  C   UNL A   1      44.920  29.789  29.722  1.00  0.00     0.037 A 
BRANCH  49  63
ATOM     63  C   UNL A   1      43.014  27.678  34.467  1.00  0.00     0.058 A 
ATOM     64  C   UNL A   1      43.255  27.884  35.843  1.00  0.00     0.135 A 
ATOM     65  C   UNL A   1      43.552  26.486  33.933  1.00  0.00     0.135 A 
ATOM     66  F   UNL A   1      42.801  28.991  36.456  1.00  0.00    -0.206 F 
ATOM     67  C   UNL A   1      44.017  27.005  36.613  1.00  0.00     0.059 A 
ATOM     68  C   UNL A   1      44.271  25.571  34.694  1.00  0.00     0.059 A 
ATOM     69  F   UNL A   1      43.492  26.193  32.630  1.00  0.00    -0.206 F 
ATOM     70  C   UNL A   1      44.528  25.853  36.025  1.00  0.00     0.060 A 
BRANCH  70  71
ATOM     71  S   UNL A   1      45.556  24.741  36.999  1.00  0.00     0.124 S 
ATOM     72  O   UNL A   1      44.960  23.446  36.693  1.00  0.00    -0.237 OA
ATOM     73  O   UNL A   1      46.880  24.987  36.436  1.00  0.00    -0.237 OA
ATOM     74  O   UNL A   1      45.365  25.219  38.365  1.00  0.00    -0.744 OA
ENDBRANCH  70  71
ENDBRANCH  49  63
BRANCH  50  75
ATOM     75  C   UNL A   1      43.364  25.184  26.379  1.00  0.00     0.058 A 
ATOM     76  C   UNL A   1      44.302  25.008  25.346  1.00  0.00     0.135 A 
ATOM     77  C   UNL A   1      42.759  24.012  26.879  1.00  0.00     0.135 A 
ATOM     78  F   UNL A   1      44.928  26.071  24.819  1.00  0.00    -0.206 F 
ATOM     79  C   UNL A   1      44.674  23.741  24.884  1.00  0.00     0.059 A 
ATOM     80  C   UNL A   1      43.114  22.739  26.432  1.00  0.00     0.059 A 
ATOM     81  F   UNL A   1      41.876  24.071  27.887  1.00  0.00    -0.206 F 
ATOM     82  C   UNL A   1      44.094  22.609  25.454  1.00  0.00     0.060 A 
BRANCH  82  83
ATOM     83  S   UNL A   1      44.714  20.971  24.998  1.00  0.00     0.124 S 
ATOM     84  O   UNL A   1      44.568  20.987  23.547  1.00  0.00    -0.237 OA
ATOM     85  O   UNL A   1      46.083  21.008  25.501  1.00  0.00    -0.237 OA
ATOM     86  O   UNL A   1      43.818  20.061  25.706  1.00  0.00    -0.744 OA
ENDBRANCH  82  83
ENDBRANCH  50  75
BRANCH  62  87
ATOM     87  C   UNL A   1      45.050  30.897  28.716  1.00  0.00     0.058 A 
ATOM     88  C   UNL A   1      46.257  31.462  28.270  1.00  0.00     0.135 A 
ATOM     89  C   UNL A   1      43.867  31.345  28.108  1.00  0.00     0.135 A 
ATOM     90  F   UNL A   1      47.435  31.039  28.748  1.00  0.00    -0.206 F 
ATOM     91  C   UNL A   1      46.278  32.450  27.281  1.00  0.00     0.059 A 
ATOM     92  C   UNL A   1      43.867  32.304  27.103  1.00  0.00     0.059 A 
ATOM     93  F   UNL A   1      42.686  30.813  28.464  1.00  0.00    -0.206 F 
ATOM     94  C   UNL A   1      45.076  32.863  26.701  1.00  0.00     0.060 A 
BRANCH  94  95
ATOM     95  S   UNL A   1      45.102  34.095  25.382  1.00  0.00     0.124 S 
ATOM     96  O   UNL A   1      44.406  33.403  24.301  1.00  0.00    -0.237 OA
ATOM     97  O   UNL A   1      44.384  35.216  25.983  1.00  0.00    -0.237 OA
ATOM     98  O   UNL A   1      46.527  34.326  25.158  1.00  0.00    -0.744 OA
ENDBRANCH  94  95
ENDBRANCH  62  87
ENDBRANCH  36  37
ENDBRANCH  28  31
ENDBRANCH  26  27
ENDBRANCH   1  26
TORSDOF 16
ENDMDL
