MODEL 1
REMARK VINA RESULT:     -11.8      0.000      0.000
REMARK SMILES CC(C)C[C@@H](CNc1ccc(C(N)=O)cc1)C(=O)NCCCNC(=O)c1ccc(-c2c3nc(c(-c4c(F)cc(S(=O)(=O)[O-])cc4F)c4ccc([nH]4)c(-c4c(F)cc(S(=O)(=O)[O-])cc4F)c4nc(c(-c5c(F)cc(S(=O)(=O)[O-])cc5F)c5ccc2[nH]5)C=C4)C=C3)cc1
REMARK SMILES IDX 20 1 19 2 17 3 18 4 5 6 4 7 2 8 1 9 3 10 6 11 7 12 8 14 9 15
REMARK SMILES IDX 16 16 10 17 15 18 11 19 12 20 13 21 14 22 21 25 22 26 23 27
REMARK SMILES IDX 24 28 25 30 26 31 27 32 91 33 28 34 90 35 29 36 30 37 31 38
REMARK SMILES IDX 84 39 32 40 89 41 83 42 85 43 33 44 88 45 82 46 81 47 34 49
REMARK SMILES IDX 68 50 47 51 67 52 48 53 51 54 66 55 86 56 49 57 50 58 65 60
REMARK SMILES IDX 87 61 52 62 35 63 36 64 45 65 37 66 38 67 44 68 46 69 39 70
REMARK SMILES IDX 40 71 41 72 42 73 43 74 69 75 70 76 79 77 71 78 72 79 78 80
REMARK SMILES IDX 80 81 73 82 74 83 75 84 76 85 77 86 53 87 54 88 63 89 55 90
REMARK SMILES IDX 56 91 62 92 64 93 57 94 58 95 59 96 60 97 61 98
REMARK H PARENT 19 5 7 13 13 23 13 24 23 29 85 48 51 59
REMARK Flexibility Score: inf
ROOT
ATOM      1  C   UNL A   1      38.044  22.931  25.949  1.00  0.00     0.117 C 
ENDROOT
BRANCH   1   2
ATOM      2  N   UNL A   1      37.701  22.597  24.588  1.00  0.00    -0.356 N 
ATOM      3  C   UNL A   1      36.503  22.787  23.968  1.00  0.00     0.224 C 
ATOM      4  O   UNL A   1      36.489  22.792  22.734  1.00  0.00    -0.275 OA
ATOM      5  H   UNL A   1      38.413  22.186  24.047  1.00  0.00     0.163 HD
BRANCH   3   6
ATOM      6  C   UNL A   1      35.200  22.934  24.757  1.00  0.00     0.098 C 
BRANCH   6   7
ATOM      7  C   UNL A   1      34.557  24.314  24.504  1.00  0.00     0.018 C 
BRANCH   7   8
ATOM      8  C   UNL A   1      34.183  25.143  25.740  1.00  0.00    -0.017 C 
ATOM      9  C   UNL A   1      33.653  26.527  25.365  1.00  0.00     0.007 C 
ATOM     10  C   UNL A   1      33.116  24.384  26.541  1.00  0.00     0.007 C 
ENDBRANCH   7   8
ENDBRANCH   6   7
BRANCH   6  11
ATOM     11  C   UNL A   1      34.336  21.654  24.757  1.00  0.00     0.126 C 
BRANCH  11  12
ATOM     12  N   UNL A   1      35.051  20.387  24.633  1.00  0.00    -0.384 N 
ATOM     13  H   UNL A   1      36.022  20.419  24.470  1.00  0.00     0.160 HD
BRANCH  12  14
ATOM     14  C   UNL A   1      34.450  19.141  24.728  1.00  0.00     0.034 A 
ATOM     15  C   UNL A   1      35.211  17.984  24.485  1.00  0.00     0.026 A 
ATOM     16  C   UNL A   1      33.132  18.956  25.151  1.00  0.00     0.026 A 
ATOM     17  C   UNL A   1      34.710  16.697  24.733  1.00  0.00     0.016 A 
ATOM     18  C   UNL A   1      32.602  17.672  25.348  1.00  0.00     0.016 A 
ATOM     19  C   UNL A   1      33.397  16.534  25.174  1.00  0.00     0.039 A 
BRANCH  19  20
ATOM     20  C   UNL A   1      32.787  15.201  25.451  1.00  0.00     0.248 C 
ATOM     21  N   UNL A   1      31.455  15.150  25.759  1.00  0.00    -0.366 N 
ATOM     22  O   UNL A   1      33.445  14.171  25.382  1.00  0.00    -0.270 OA
ATOM     23  H   UNL A   1      30.931  15.981  25.813  1.00  0.00     0.159 HD
ATOM     24  H   UNL A   1      31.022  14.282  25.926  1.00  0.00     0.159 HD
ENDBRANCH  19  20
ENDBRANCH  12  14
ENDBRANCH  11  12
ENDBRANCH   6  11
ENDBRANCH   3   6
ENDBRANCH   1   2
BRANCH   1  25
ATOM     25  C   UNL A   1      39.319  22.304  26.461  1.00  0.00     0.042 C 
BRANCH  25  26
ATOM     26  C   UNL A   1      40.233  23.320  27.115  1.00  0.00     0.118 C 
BRANCH  26  27
ATOM     27  N   UNL A   1      41.151  23.947  26.162  1.00  0.00    -0.352 N 
ATOM     28  C   UNL A   1      41.515  25.262  26.002  1.00  0.00     0.251 C 
ATOM     29  H   UNL A   1      41.577  23.323  25.531  1.00  0.00     0.163 HD
ATOM     30  O   UNL A   1      42.127  25.602  24.993  1.00  0.00    -0.269 OA
BRANCH  28  31
ATOM     31  C   UNL A   1      41.144  26.252  27.035  1.00  0.00     0.039 A 
ATOM     32  C   UNL A   1      40.173  25.932  27.986  1.00  0.00     0.014 A 
ATOM     33  C   UNL A   1      41.790  27.488  27.087  1.00  0.00     0.014 A 
ATOM     34  C   UNL A   1      39.929  26.816  29.040  1.00  0.00     0.010 A 
ATOM     35  C   UNL A   1      41.652  28.293  28.206  1.00  0.00     0.010 A 
ATOM     36  C   UNL A   1      40.709  27.976  29.192  1.00  0.00    -0.014 A 
BRANCH  36  37
ATOM     37  C   UNL A   1      40.560  28.874  30.365  1.00  0.00     0.031 A 
ATOM     38  C   UNL A   1      41.425  28.676  31.583  1.00  0.00     0.074 A 
ATOM     39  C   UNL A   1      39.591  29.813  30.364  1.00  0.00     0.049 A 
ATOM     40  N   UNL A   1      41.396  29.310  32.727  1.00  0.00    -0.248 NA
ATOM     41  C   UNL A   1      42.426  27.597  31.526  1.00  0.00     0.031 C 
ATOM     42  C   UNL A   1      38.638  30.050  29.276  1.00  0.00     0.029 A 
ATOM     43  N   UNL A   1      39.241  30.741  31.312  1.00  0.00    -0.354 N 
ATOM     44  C   UNL A   1      42.358  28.699  33.523  1.00  0.00     0.074 A 
ATOM     45  C   UNL A   1      42.899  27.595  32.762  1.00  0.00     0.031 C 
ATOM     46  C   UNL A   1      37.843  31.081  29.600  1.00  0.00     0.029 A 
ATOM     47  C   UNL A   1      38.195  31.550  30.935  1.00  0.00     0.049 A 
ATOM     48  H   UNL A   1      39.697  30.820  32.182  1.00  0.00     0.167 HD
ATOM     49  C   UNL A   1      42.779  29.044  34.762  1.00  0.00     0.037 A 
ATOM     50  C   UNL A   1      37.586  32.556  31.593  1.00  0.00     0.037 A 
ATOM     51  C   UNL A   1      42.256  30.164  35.499  1.00  0.00     0.049 A 
ATOM     52  C   UNL A   1      38.080  32.933  32.963  1.00  0.00     0.074 A 
ATOM     53  C   UNL A   1      42.657  30.644  36.733  1.00  0.00     0.029 A 
ATOM     54  N   UNL A   1      41.218  30.980  35.071  1.00  0.00    -0.354 N 
ATOM     55  N   UNL A   1      39.045  32.392  33.669  1.00  0.00    -0.248 NA
ATOM     56  C   UNL A   1      37.413  34.063  33.621  1.00  0.00     0.031 C 
ATOM     57  C   UNL A   1      41.826  31.716  37.075  1.00  0.00     0.029 A 
ATOM     58  C   UNL A   1      40.949  31.945  36.026  1.00  0.00     0.049 A 
ATOM     59  H   UNL A   1      40.743  30.885  34.214  1.00  0.00     0.167 HD
ATOM     60  C   UNL A   1      39.120  33.133  34.842  1.00  0.00     0.074 A 
ATOM     61  C   UNL A   1      38.114  34.171  34.741  1.00  0.00     0.031 C 
ATOM     62  C   UNL A   1      39.944  32.972  35.907  1.00  0.00     0.037 A 
BRANCH  49  63
ATOM     63  C   UNL A   1      43.864  28.212  35.391  1.00  0.00     0.058 A 
ATOM     64  C   UNL A   1      45.225  28.503  35.200  1.00  0.00     0.135 A 
ATOM     65  C   UNL A   1      43.541  27.126  36.223  1.00  0.00     0.135 A 
ATOM     66  F   UNL A   1      45.594  29.516  34.401  1.00  0.00    -0.206 F 
ATOM     67  C   UNL A   1      46.225  27.733  35.784  1.00  0.00     0.059 A 
ATOM     68  C   UNL A   1      44.525  26.363  36.845  1.00  0.00     0.059 A 
ATOM     69  F   UNL A   1      42.257  26.799  36.439  1.00  0.00    -0.206 F 
ATOM     70  C   UNL A   1      45.865  26.665  36.608  1.00  0.00     0.060 A 
BRANCH  70  71
ATOM     71  S   UNL A   1      47.176  25.686  37.367  1.00  0.00     0.124 S 
ATOM     72  O   UNL A   1      48.234  25.789  36.365  1.00  0.00    -0.237 OA
ATOM     73  O   UNL A   1      47.415  26.401  38.616  1.00  0.00    -0.237 OA
ATOM     74  O   UNL A   1      46.575  24.364  37.510  1.00  0.00    -0.744 OA
ENDBRANCH  70  71
ENDBRANCH  49  63
BRANCH  50  75
ATOM     75  C   UNL A   1      36.465  33.296  30.951  1.00  0.00     0.058 A 
ATOM     76  C   UNL A   1      36.695  34.161  29.870  1.00  0.00     0.135 A 
ATOM     77  C   UNL A   1      35.141  33.142  31.392  1.00  0.00     0.135 A 
ATOM     78  F   UNL A   1      37.944  34.344  29.413  1.00  0.00    -0.206 F 
ATOM     79  C   UNL A   1      35.659  34.864  29.263  1.00  0.00     0.059 A 
ATOM     80  C   UNL A   1      34.084  33.811  30.783  1.00  0.00     0.059 A 
ATOM     81  F   UNL A   1      34.863  32.310  32.408  1.00  0.00    -0.206 F 
ATOM     82  C   UNL A   1      34.355  34.679  29.725  1.00  0.00     0.060 A 
BRANCH  82  83
ATOM     83  S   UNL A   1      33.012  35.559  28.900  1.00  0.00     0.124 S 
ATOM     84  O   UNL A   1      33.742  36.570  28.144  1.00  0.00    -0.237 OA
ATOM     85  O   UNL A   1      32.389  34.498  28.114  1.00  0.00    -0.237 OA
ATOM     86  O   UNL A   1      32.206  36.059  30.010  1.00  0.00    -0.744 OA
ENDBRANCH  82  83
ENDBRANCH  50  75
BRANCH  62  87
ATOM     87  C   UNL A   1      39.821  33.964  37.032  1.00  0.00     0.058 A 
ATOM     88  C   UNL A   1      40.446  35.219  36.986  1.00  0.00     0.135 A 
ATOM     89  C   UNL A   1      39.034  33.664  38.156  1.00  0.00     0.135 A 
ATOM     90  F   UNL A   1      41.214  35.555  35.936  1.00  0.00    -0.206 F 
ATOM     91  C   UNL A   1      40.326  36.128  38.031  1.00  0.00     0.059 A 
ATOM     92  C   UNL A   1      38.872  34.571  39.198  1.00  0.00     0.059 A 
ATOM     93  F   UNL A   1      38.401  32.483  38.244  1.00  0.00    -0.206 F 
ATOM     94  C   UNL A   1      39.538  35.795  39.134  1.00  0.00     0.060 A 
BRANCH  94  95
ATOM     95  S   UNL A   1      39.379  36.989  40.478  1.00  0.00     0.124 S 
ATOM     96  O   UNL A   1      38.428  36.316  41.357  1.00  0.00    -0.237 OA
ATOM     97  O   UNL A   1      40.748  37.080  40.975  1.00  0.00    -0.237 OA
ATOM     98  O   UNL A   1      38.879  38.187  39.810  1.00  0.00    -0.744 OA
ENDBRANCH  94  95
ENDBRANCH  62  87
ENDBRANCH  36  37
ENDBRANCH  28  31
ENDBRANCH  26  27
ENDBRANCH  25  26
ENDBRANCH   1  25
TORSDOF 19
ENDMDL
MODEL 2
REMARK VINA RESULT:     -11.7      4.812     10.259
REMARK SMILES CC(C)C[C@@H](CNc1ccc(C(N)=O)cc1)C(=O)NCCCNC(=O)c1ccc(-c2c3nc(c(-c4c(F)cc(S(=O)(=O)[O-])cc4F)c4ccc([nH]4)c(-c4c(F)cc(S(=O)(=O)[O-])cc4F)c4nc(c(-c5c(F)cc(S(=O)(=O)[O-])cc5F)c5ccc2[nH]5)C=C4)C=C3)cc1
REMARK SMILES IDX 20 1 19 2 17 3 18 4 5 6 4 7 2 8 1 9 3 10 6 11 7 12 8 14 9 15
REMARK SMILES IDX 16 16 10 17 15 18 11 19 12 20 13 21 14 22 21 25 22 26 23 27
REMARK SMILES IDX 24 28 25 30 26 31 27 32 91 33 28 34 90 35 29 36 30 37 31 38
REMARK SMILES IDX 84 39 32 40 89 41 83 42 85 43 33 44 88 45 82 46 81 47 34 49
REMARK SMILES IDX 68 50 47 51 67 52 48 53 51 54 66 55 86 56 49 57 50 58 65 60
REMARK SMILES IDX 87 61 52 62 35 63 36 64 45 65 37 66 38 67 44 68 46 69 39 70
REMARK SMILES IDX 40 71 41 72 42 73 43 74 69 75 70 76 79 77 71 78 72 79 78 80
REMARK SMILES IDX 80 81 73 82 74 83 75 84 76 85 77 86 53 87 54 88 63 89 55 90
REMARK SMILES IDX 56 91 62 92 64 93 57 94 58 95 59 96 60 97 61 98
REMARK H PARENT 19 5 7 13 13 23 13 24 23 29 85 48 51 59
REMARK Flexibility Score: inf
ROOT
ATOM      1  C   UNL A   1      32.713  27.003  25.314  1.00  0.00     0.117 C 
ENDROOT
BRANCH   1   2
ATOM      2  N   UNL A   1      32.148  26.077  26.265  1.00  0.00    -0.356 N 
ATOM      3  C   UNL A   1      32.275  24.720  26.272  1.00  0.00     0.224 C 
ATOM      4  O   UNL A   1      32.049  24.128  27.331  1.00  0.00    -0.275 OA
ATOM      5  H   UNL A   1      31.609  26.469  26.990  1.00  0.00     0.163 HD
BRANCH   3   6
ATOM      6  C   UNL A   1      32.628  23.936  25.007  1.00  0.00     0.098 C 
BRANCH   6   7
ATOM      7  C   UNL A   1      34.158  23.796  24.856  1.00  0.00     0.018 C 
BRANCH   7   8
ATOM      8  C   UNL A   1      34.954  23.475  26.128  1.00  0.00    -0.017 C 
ATOM      9  C   UNL A   1      34.992  21.976  26.419  1.00  0.00     0.007 C 
ATOM     10  C   UNL A   1      36.386  24.003  25.962  1.00  0.00     0.007 C 
ENDBRANCH   7   8
ENDBRANCH   6   7
BRANCH   6  11
ATOM     11  C   UNL A   1      31.701  22.726  24.756  1.00  0.00     0.126 C 
BRANCH  11  12
ATOM     12  N   UNL A   1      32.136  21.775  23.737  1.00  0.00    -0.384 N 
ATOM     13  H   UNL A   1      32.338  22.122  22.837  1.00  0.00     0.160 HD
BRANCH  12  14
ATOM     14  C   UNL A   1      32.283  20.414  23.955  1.00  0.00     0.034 A 
ATOM     15  C   UNL A   1      32.284  19.533  22.860  1.00  0.00     0.026 A 
ATOM     16  C   UNL A   1      32.529  19.861  25.214  1.00  0.00     0.026 A 
ATOM     17  C   UNL A   1      32.600  18.172  22.998  1.00  0.00     0.016 A 
ATOM     18  C   UNL A   1      32.790  18.491  25.372  1.00  0.00     0.016 A 
ATOM     19  C   UNL A   1      32.862  17.643  24.262  1.00  0.00     0.039 A 
BRANCH  19  20
ATOM     20  C   UNL A   1      33.196  16.208  24.494  1.00  0.00     0.248 C 
ATOM     21  N   UNL A   1      32.338  15.458  25.252  1.00  0.00    -0.366 N 
ATOM     22  O   UNL A   1      34.193  15.696  24.002  1.00  0.00    -0.270 OA
ATOM     23  H   UNL A   1      31.537  15.875  25.645  1.00  0.00     0.159 HD
ATOM     24  H   UNL A   1      32.522  14.504  25.405  1.00  0.00     0.159 HD
ENDBRANCH  19  20
ENDBRANCH  12  14
ENDBRANCH  11  12
ENDBRANCH   6  11
ENDBRANCH   3   6
ENDBRANCH   1   2
BRANCH   1  25
ATOM     25  C   UNL A   1      33.673  28.013  25.897  1.00  0.00     0.042 C 
BRANCH  25  26
ATOM     26  C   UNL A   1      33.357  28.334  27.344  1.00  0.00     0.118 C 
BRANCH  26  27
ATOM     27  N   UNL A   1      33.407  29.769  27.626  1.00  0.00    -0.352 N 
ATOM     28  C   UNL A   1      34.410  30.543  28.159  1.00  0.00     0.251 C 
ATOM     29  H   UNL A   1      32.586  30.262  27.396  1.00  0.00     0.163 HD
ATOM     30  O   UNL A   1      34.162  31.690  28.521  1.00  0.00    -0.269 OA
BRANCH  28  31
ATOM     31  C   UNL A   1      35.766  29.975  28.310  1.00  0.00     0.039 A 
ATOM     32  C   UNL A   1      36.659  30.013  27.238  1.00  0.00     0.014 A 
ATOM     33  C   UNL A   1      36.169  29.439  29.534  1.00  0.00     0.014 A 
ATOM     34  C   UNL A   1      37.980  29.603  27.430  1.00  0.00     0.010 A 
ATOM     35  C   UNL A   1      37.510  29.170  29.762  1.00  0.00     0.010 A 
ATOM     36  C   UNL A   1      38.431  29.234  28.710  1.00  0.00    -0.014 A 
BRANCH  36  37
ATOM     37  C   UNL A   1      39.856  28.910  28.977  1.00  0.00     0.031 A 
ATOM     38  C   UNL A   1      40.773  29.955  29.558  1.00  0.00     0.074 A 
ATOM     39  C   UNL A   1      40.340  27.703  28.619  1.00  0.00     0.049 A 
ATOM     40  N   UNL A   1      42.057  29.885  29.796  1.00  0.00    -0.248 NA
ATOM     41  C   UNL A   1      40.179  31.266  29.875  1.00  0.00     0.031 C 
ATOM     42  C   UNL A   1      39.571  26.635  27.975  1.00  0.00     0.029 A 
ATOM     43  N   UNL A   1      41.600  27.171  28.740  1.00  0.00    -0.354 N 
ATOM     44  C   UNL A   1      42.423  31.139  30.272  1.00  0.00     0.074 A 
ATOM     45  C   UNL A   1      41.244  31.974  30.218  1.00  0.00     0.031 C 
ATOM     46  C   UNL A   1      40.361  25.565  27.797  1.00  0.00     0.029 A 
ATOM     47  C   UNL A   1      41.704  25.884  28.269  1.00  0.00     0.049 A 
ATOM     48  H   UNL A   1      42.358  27.665  29.127  1.00  0.00     0.167 HD
ATOM     49  C   UNL A   1      43.622  31.551  30.746  1.00  0.00     0.037 A 
ATOM     50  C   UNL A   1      42.764  25.052  28.220  1.00  0.00     0.037 A 
ATOM     51  C   UNL A   1      44.783  30.703  30.826  1.00  0.00     0.049 A 
ATOM     52  C   UNL A   1      44.083  25.525  28.766  1.00  0.00     0.074 A 
ATOM     53  C   UNL A   1      46.028  30.997  31.350  1.00  0.00     0.029 A 
ATOM     54  N   UNL A   1      44.840  29.394  30.368  1.00  0.00    -0.354 N 
ATOM     55  N   UNL A   1      44.390  26.691  29.286  1.00  0.00    -0.248 NA
ATOM     56  C   UNL A   1      45.197  24.569  28.731  1.00  0.00     0.031 C 
ATOM     57  C   UNL A   1      46.855  29.885  31.161  1.00  0.00     0.029 A 
ATOM     58  C   UNL A   1      46.106  28.875  30.576  1.00  0.00     0.049 A 
ATOM     59  H   UNL A   1      44.091  28.907  29.955  1.00  0.00     0.167 HD
ATOM     60  C   UNL A   1      45.724  26.597  29.666  1.00  0.00     0.074 A 
ATOM     61  C   UNL A   1      46.158  25.256  29.331  1.00  0.00     0.031 C 
ATOM     62  C   UNL A   1      46.520  27.535  30.239  1.00  0.00     0.037 A 
BRANCH  49  63
ATOM     63  C   UNL A   1      43.736  32.973  31.225  1.00  0.00     0.058 A 
ATOM     64  C   UNL A   1      43.509  33.322  32.567  1.00  0.00     0.135 A 
ATOM     65  C   UNL A   1      44.108  33.999  30.339  1.00  0.00     0.135 A 
ATOM     66  F   UNL A   1      43.133  32.388  33.454  1.00  0.00    -0.206 F 
ATOM     67  C   UNL A   1      43.617  34.637  33.007  1.00  0.00     0.059 A 
ATOM     68  C   UNL A   1      44.254  35.316  30.765  1.00  0.00     0.059 A 
ATOM     69  F   UNL A   1      44.334  33.725  29.045  1.00  0.00    -0.206 F 
ATOM     70  C   UNL A   1      43.993  35.628  32.098  1.00  0.00     0.060 A 
BRANCH  70  71
ATOM     71  S   UNL A   1      44.140  37.326  32.690  1.00  0.00     0.124 S 
ATOM     72  O   UNL A   1      43.996  38.081  31.448  1.00  0.00    -0.237 OA
ATOM     73  O   UNL A   1      43.025  37.426  33.625  1.00  0.00    -0.237 OA
ATOM     74  O   UNL A   1      45.467  37.362  33.295  1.00  0.00    -0.744 OA
ENDBRANCH  70  71
ENDBRANCH  49  63
BRANCH  50  75
ATOM     75  C   UNL A   1      42.610  23.680  27.664  1.00  0.00     0.058 A 
ATOM     76  C   UNL A   1      42.382  22.580  28.505  1.00  0.00     0.135 A 
ATOM     77  C   UNL A   1      42.674  23.442  26.282  1.00  0.00     0.135 A 
ATOM     78  F   UNL A   1      42.315  22.755  29.834  1.00  0.00    -0.206 F 
ATOM     79  C   UNL A   1      42.242  21.291  28.001  1.00  0.00     0.059 A 
ATOM     80  C   UNL A   1      42.508  22.166  25.751  1.00  0.00     0.059 A 
ATOM     81  F   UNL A   1      42.869  24.461  25.432  1.00  0.00    -0.206 F 
ATOM     82  C   UNL A   1      42.303  21.095  26.620  1.00  0.00     0.060 A 
BRANCH  82  83
ATOM     83  S   UNL A   1      42.073  19.425  25.972  1.00  0.00     0.124 S 
ATOM     84  O   UNL A   1      42.901  19.459  24.771  1.00  0.00    -0.237 OA
ATOM     85  O   UNL A   1      42.572  18.601  27.070  1.00  0.00    -0.237 OA
ATOM     86  O   UNL A   1      40.633  19.348  25.746  1.00  0.00    -0.744 OA
ENDBRANCH  82  83
ENDBRANCH  50  75
BRANCH  62  87
ATOM     87  C   UNL A   1      47.929  27.132  30.577  1.00  0.00     0.058 A 
ATOM     88  C   UNL A   1      48.997  27.358  29.694  1.00  0.00     0.135 A 
ATOM     89  C   UNL A   1      48.218  26.542  31.818  1.00  0.00     0.135 A 
ATOM     90  F   UNL A   1      48.776  27.915  28.493  1.00  0.00    -0.206 F 
ATOM     91  C   UNL A   1      50.296  26.980  30.016  1.00  0.00     0.059 A 
ATOM     92  C   UNL A   1      49.515  26.187  32.175  1.00  0.00     0.059 A 
ATOM     93  F   UNL A   1      47.236  26.316  32.705  1.00  0.00    -0.206 F 
ATOM     94  C   UNL A   1      50.545  26.394  31.258  1.00  0.00     0.060 A 
BRANCH  94  95
ATOM     95  S   UNL A   1      52.238  25.921  31.668  1.00  0.00     0.124 S 
ATOM     96  O   UNL A   1      52.919  26.142  30.397  1.00  0.00    -0.237 OA
ATOM     97  O   UNL A   1      52.571  26.856  32.738  1.00  0.00    -0.237 OA
ATOM     98  O   UNL A   1      52.111  24.526  32.079  1.00  0.00    -0.744 OA
ENDBRANCH  94  95
ENDBRANCH  62  87
ENDBRANCH  36  37
ENDBRANCH  28  31
ENDBRANCH  26  27
ENDBRANCH  25  26
ENDBRANCH   1  25
TORSDOF 19
ENDMDL
MODEL 3
REMARK VINA RESULT:     -11.7      4.932     10.389
REMARK SMILES CC(C)C[C@@H](CNc1ccc(C(N)=O)cc1)C(=O)NCCCNC(=O)c1ccc(-c2c3nc(c(-c4c(F)cc(S(=O)(=O)[O-])cc4F)c4ccc([nH]4)c(-c4c(F)cc(S(=O)(=O)[O-])cc4F)c4nc(c(-c5c(F)cc(S(=O)(=O)[O-])cc5F)c5ccc2[nH]5)C=C4)C=C3)cc1
REMARK SMILES IDX 20 1 19 2 17 3 18 4 5 6 4 7 2 8 1 9 3 10 6 11 7 12 8 14 9 15
REMARK SMILES IDX 16 16 10 17 15 18 11 19 12 20 13 21 14 22 21 25 22 26 23 27
REMARK SMILES IDX 24 28 25 30 26 31 27 32 91 33 28 34 90 35 29 36 30 37 31 38
REMARK SMILES IDX 84 39 32 40 89 41 83 42 85 43 33 44 88 45 82 46 81 47 34 49
REMARK SMILES IDX 68 50 47 51 67 52 48 53 51 54 66 55 86 56 49 57 50 58 65 60
REMARK SMILES IDX 87 61 52 62 35 63 36 64 45 65 37 66 38 67 44 68 46 69 39 70
REMARK SMILES IDX 40 71 41 72 42 73 43 74 69 75 70 76 79 77 71 78 72 79 78 80
REMARK SMILES IDX 80 81 73 82 74 83 75 84 76 85 77 86 53 87 54 88 63 89 55 90
REMARK SMILES IDX 56 91 62 92 64 93 57 94 58 95 59 96 60 97 61 98
REMARK H PARENT 19 5 7 13 13 23 13 24 23 29 85 48 51 59
REMARK Flexibility Score: inf
ROOT
ATOM      1  C   UNL A   1      31.718  28.239  25.524  1.00  0.00     0.117 C 
ENDROOT
BRANCH   1   2
ATOM      2  N   UNL A   1      32.815  28.617  24.668  1.00  0.00    -0.356 N 
ATOM      3  C   UNL A   1      33.470  27.831  23.768  1.00  0.00     0.224 C 
ATOM      4  O   UNL A   1      34.115  28.392  22.877  1.00  0.00    -0.275 OA
ATOM      5  H   UNL A   1      33.126  29.549  24.741  1.00  0.00     0.163 HD
BRANCH   3   6
ATOM      6  C   UNL A   1      33.465  26.305  23.876  1.00  0.00     0.098 C 
BRANCH   6   7
ATOM      7  C   UNL A   1      33.572  25.656  22.479  1.00  0.00     0.018 C 
BRANCH   7   8
ATOM      8  C   UNL A   1      32.557  24.553  22.147  1.00  0.00    -0.017 C 
ATOM      9  C   UNL A   1      33.153  23.156  22.312  1.00  0.00     0.007 C 
ATOM     10  C   UNL A   1      31.340  24.705  23.069  1.00  0.00     0.007 C 
ENDBRANCH   7   8
ENDBRANCH   6   7
BRANCH   6  11
ATOM     11  C   UNL A   1      34.305  25.770  25.056  1.00  0.00     0.126 C 
BRANCH  11  12
ATOM     12  N   UNL A   1      33.608  24.920  26.017  1.00  0.00    -0.384 N 
ATOM     13  H   UNL A   1      33.138  25.357  26.764  1.00  0.00     0.160 HD
BRANCH  12  14
ATOM     14  C   UNL A   1      33.566  23.536  25.944  1.00  0.00     0.034 A 
ATOM     15  C   UNL A   1      32.331  22.874  26.053  1.00  0.00     0.026 A 
ATOM     16  C   UNL A   1      34.685  22.748  25.667  1.00  0.00     0.026 A 
ATOM     17  C   UNL A   1      32.199  21.496  25.815  1.00  0.00     0.016 A 
ATOM     18  C   UNL A   1      34.575  21.361  25.483  1.00  0.00     0.016 A 
ATOM     19  C   UNL A   1      33.328  20.730  25.521  1.00  0.00     0.039 A 
BRANCH  19  20
ATOM     20  C   UNL A   1      33.273  19.262  25.265  1.00  0.00     0.248 C 
ATOM     21  N   UNL A   1      32.800  18.449  26.259  1.00  0.00    -0.366 N 
ATOM     22  O   UNL A   1      33.615  18.788  24.190  1.00  0.00    -0.270 OA
ATOM     23  H   UNL A   1      32.526  18.836  27.122  1.00  0.00     0.159 HD
ATOM     24  H   UNL A   1      32.733  17.479  26.111  1.00  0.00     0.159 HD
ENDBRANCH  19  20
ENDBRANCH  12  14
ENDBRANCH  11  12
ENDBRANCH   6  11
ENDBRANCH   3   6
ENDBRANCH   1   2
BRANCH   1  25
ATOM     25  C   UNL A   1      32.075  28.059  26.981  1.00  0.00     0.042 C 
BRANCH  25  26
ATOM     26  C   UNL A   1      33.479  28.538  27.289  1.00  0.00     0.118 C 
BRANCH  26  27
ATOM     27  N   UNL A   1      33.516  29.940  27.707  1.00  0.00    -0.352 N 
ATOM     28  C   UNL A   1      34.503  30.661  28.336  1.00  0.00     0.251 C 
ATOM     29  H   UNL A   1      32.699  30.451  27.505  1.00  0.00     0.163 HD
ATOM     30  O   UNL A   1      34.241  31.768  28.799  1.00  0.00    -0.269 OA
BRANCH  28  31
ATOM     31  C   UNL A   1      35.857  30.084  28.466  1.00  0.00     0.039 A 
ATOM     32  C   UNL A   1      36.726  30.099  27.373  1.00  0.00     0.014 A 
ATOM     33  C   UNL A   1      36.283  29.563  29.689  1.00  0.00     0.014 A 
ATOM     34  C   UNL A   1      38.048  29.680  27.543  1.00  0.00     0.010 A 
ATOM     35  C   UNL A   1      37.626  29.286  29.891  1.00  0.00     0.010 A 
ATOM     36  C   UNL A   1      38.524  29.327  28.818  1.00  0.00    -0.014 A 
BRANCH  36  37
ATOM     37  C   UNL A   1      39.952  28.994  29.058  1.00  0.00     0.031 A 
ATOM     38  C   UNL A   1      40.885  30.033  29.625  1.00  0.00     0.074 A 
ATOM     39  C   UNL A   1      40.423  27.786  28.689  1.00  0.00     0.049 A 
ATOM     40  N   UNL A   1      42.173  29.956  29.839  1.00  0.00    -0.248 NA
ATOM     41  C   UNL A   1      40.304  31.347  29.956  1.00  0.00     0.031 C 
ATOM     42  C   UNL A   1      39.637  26.723  28.057  1.00  0.00     0.029 A 
ATOM     43  N   UNL A   1      41.682  27.247  28.786  1.00  0.00    -0.354 N 
ATOM     44  C   UNL A   1      42.554  31.207  30.312  1.00  0.00     0.074 A 
ATOM     45  C   UNL A   1      41.379  32.048  30.280  1.00  0.00     0.031 C 
ATOM     46  C   UNL A   1      40.418  25.650  27.862  1.00  0.00     0.029 A 
ATOM     47  C   UNL A   1      41.771  25.960  28.311  1.00  0.00     0.049 A 
ATOM     48  H   UNL A   1      42.450  27.736  29.160  1.00  0.00     0.167 HD
ATOM     49  C   UNL A   1      43.764  31.612  30.764  1.00  0.00     0.037 A 
ATOM     50  C   UNL A   1      42.825  25.123  28.241  1.00  0.00     0.037 A 
ATOM     51  C   UNL A   1      44.921  30.757  30.821  1.00  0.00     0.049 A 
ATOM     52  C   UNL A   1      44.157  25.588  28.764  1.00  0.00     0.074 A 
ATOM     53  C   UNL A   1      46.177  31.044  31.324  1.00  0.00     0.029 A 
ATOM     54  N   UNL A   1      44.963  29.449  30.360  1.00  0.00    -0.354 N 
ATOM     55  N   UNL A   1      44.479  26.751  29.280  1.00  0.00    -0.248 NA
ATOM     56  C   UNL A   1      45.264  24.626  28.706  1.00  0.00     0.031 C 
ATOM     57  C   UNL A   1      46.994  29.928  31.117  1.00  0.00     0.029 A 
ATOM     58  C   UNL A   1      46.230  28.923  30.544  1.00  0.00     0.049 A 
ATOM     59  H   UNL A   1      44.204  28.967  29.960  1.00  0.00     0.167 HD
ATOM     60  C   UNL A   1      45.820  26.650  29.635  1.00  0.00     0.074 A 
ATOM     61  C   UNL A   1      46.240  25.307  29.290  1.00  0.00     0.031 C 
ATOM     62  C   UNL A   1      46.630  27.582  30.196  1.00  0.00     0.037 A 
BRANCH  49  63
ATOM     63  C   UNL A   1      43.894  33.032  31.244  1.00  0.00     0.058 A 
ATOM     64  C   UNL A   1      44.184  34.087  30.363  1.00  0.00     0.135 A 
ATOM     65  C   UNL A   1      43.696  33.350  32.598  1.00  0.00     0.135 A 
ATOM     66  F   UNL A   1      44.402  33.842  29.061  1.00  0.00    -0.206 F 
ATOM     67  C   UNL A   1      44.302  35.399  30.809  1.00  0.00     0.059 A 
ATOM     68  C   UNL A   1      43.776  34.660  33.061  1.00  0.00     0.059 A 
ATOM     69  F   UNL A   1      43.420  32.383  33.486  1.00  0.00    -0.206 F 
ATOM     70  C   UNL A   1      44.094  35.677  32.161  1.00  0.00     0.060 A 
BRANCH  70  71
ATOM     71  S   UNL A   1      44.238  37.386  32.720  1.00  0.00     0.124 S 
ATOM     72  O   UNL A   1      43.074  37.507  33.593  1.00  0.00    -0.237 OA
ATOM     73  O   UNL A   1      45.534  37.386  33.389  1.00  0.00    -0.237 OA
ATOM     74  O   UNL A   1      44.175  38.156  31.481  1.00  0.00    -0.744 OA
ENDBRANCH  70  71
ENDBRANCH  49  63
BRANCH  50  75
ATOM     75  C   UNL A   1      42.654  23.753  27.684  1.00  0.00     0.058 A 
ATOM     76  C   UNL A   1      42.433  22.653  28.527  1.00  0.00     0.135 A 
ATOM     77  C   UNL A   1      42.693  23.517  26.301  1.00  0.00     0.135 A 
ATOM     78  F   UNL A   1      42.390  22.826  29.857  1.00  0.00    -0.206 F 
ATOM     79  C   UNL A   1      42.277  21.366  28.022  1.00  0.00     0.059 A 
ATOM     80  C   UNL A   1      42.511  22.243  25.770  1.00  0.00     0.059 A 
ATOM     81  F   UNL A   1      42.880  24.537  25.450  1.00  0.00    -0.206 F 
ATOM     82  C   UNL A   1      42.314  21.172  26.641  1.00  0.00     0.060 A 
BRANCH  82  83
ATOM     83  S   UNL A   1      42.064  19.505  25.994  1.00  0.00     0.124 S 
ATOM     84  O   UNL A   1      42.881  19.532  24.786  1.00  0.00    -0.237 OA
ATOM     85  O   UNL A   1      42.564  18.676  27.086  1.00  0.00    -0.237 OA
ATOM     86  O   UNL A   1      40.621  19.442  25.779  1.00  0.00    -0.744 OA
ENDBRANCH  82  83
ENDBRANCH  50  75
BRANCH  62  87
ATOM     87  C   UNL A   1      48.043  27.170  30.508  1.00  0.00     0.058 A 
ATOM     88  C   UNL A   1      49.118  27.515  29.672  1.00  0.00     0.135 A 
ATOM     89  C   UNL A   1      48.329  26.450  31.679  1.00  0.00     0.135 A 
ATOM     90  F   UNL A   1      48.900  28.200  28.538  1.00  0.00    -0.206 F 
ATOM     91  C   UNL A   1      50.420  27.128  29.969  1.00  0.00     0.059 A 
ATOM     92  C   UNL A   1      49.628  26.082  32.013  1.00  0.00     0.059 A 
ATOM     93  F   UNL A   1      47.340  26.106  32.520  1.00  0.00    -0.206 F 
ATOM     94  C   UNL A   1      50.665  26.411  31.141  1.00  0.00     0.060 A 
BRANCH  94  95
ATOM     95  S   UNL A   1      52.362  25.927  31.521  1.00  0.00     0.124 S 
ATOM     96  O   UNL A   1      52.166  24.601  32.098  1.00  0.00    -0.237 OA
ATOM     97  O   UNL A   1      52.996  25.960  30.206  1.00  0.00    -0.237 OA
ATOM     98  O   UNL A   1      52.809  26.958  32.452  1.00  0.00    -0.744 OA
ENDBRANCH  94  95
ENDBRANCH  62  87
ENDBRANCH  36  37
ENDBRANCH  28  31
ENDBRANCH  26  27
ENDBRANCH  25  26
ENDBRANCH   1  25
TORSDOF 19
ENDMDL
