MODEL 1
REMARK VINA RESULT:     -13.5      0.000      0.000
REMARK SMILES O=C(NCCCNC(=O)c1ccc2nc(-c3c[nH]nc3-c3ccc(F)cc3F)[nH]c2c1)c1ccc(-c2c3nc(c(-c4c(F)cc(S(=O)(=O)[O-])cc4F)c4ccc([nH]4)c(-c4c(F)cc(S(=O)(=O)[O-])cc4F)c4nc(c(-c5c(F)cc(S(=O)(=O)[O-])cc5F)c5ccc2[nH]5)C=C4)C=C3)cc1
REMARK SMILES IDX 4 1 3 2 1 3 2 4 32 6 33 7 97 8 34 9 96 10 35 11 36 12 37 13
REMARK SMILES IDX 90 14 38 15 95 16 89 17 91 18 39 19 94 20 88 21 87 22 40 24
REMARK SMILES IDX 74 25 53 26 73 27 54 28 57 29 72 30 92 31 55 32 56 33 71 35
REMARK SMILES IDX 93 36 58 37 41 38 42 39 51 40 43 41 44 42 50 43 52 44 45 45
REMARK SMILES IDX 46 46 47 47 48 48 49 49 75 50 76 51 85 52 77 53 78 54 84 55
REMARK SMILES IDX 86 56 79 57 80 58 81 59 82 60 83 61 59 62 60 63 69 64 61 65
REMARK SMILES IDX 62 66 68 67 70 68 63 69 64 70 65 71 66 72 67 73 5 74 6 75
REMARK SMILES IDX 7 76 8 77 9 79 10 80 11 81 31 82 12 83 30 84 13 85 29 86
REMARK SMILES IDX 14 87 15 88 16 90 17 91 20 92 18 93 19 94 21 96 22 97 27 98
REMARK SMILES IDX 23 99 26 100 28 101 24 102 25 103
REMARK H PARENT 3 5 91 23 57 34 7 78 29 89 18 95
REMARK Flexibility Score: inf
ROOT
ATOM      1  C   UNL A   1      41.338  23.064  27.581  1.00  0.00     0.118 C 
ENDROOT
BRANCH   1   2
ATOM      2  N   UNL A   1      41.498  23.850  26.366  1.00  0.00    -0.352 N 
ATOM      3  O   UNL A   1      41.304  25.613  24.993  1.00  0.00    -0.269 OA
ATOM      4  C   UNL A   1      41.340  25.195  26.148  1.00  0.00     0.251 C 
ATOM      5  H   UNL A   1      41.762  23.332  25.573  1.00  0.00     0.163 HD
BRANCH   4   6
ATOM      6  C   UNL A   1      41.204  26.136  27.280  1.00  0.00     0.039 A 
ATOM      7  C   UNL A   1      42.111  27.181  27.465  1.00  0.00     0.014 A 
ATOM      8  C   UNL A   1      40.109  26.003  28.139  1.00  0.00     0.014 A 
ATOM      9  C   UNL A   1      42.000  28.014  28.576  1.00  0.00     0.010 A 
ATOM     10  C   UNL A   1      39.951  26.889  29.208  1.00  0.00     0.010 A 
ATOM     11  C   UNL A   1      40.909  27.886  29.448  1.00  0.00    -0.014 A 
BRANCH  11  12
ATOM     12  C   UNL A   1      40.736  28.846  30.567  1.00  0.00     0.031 A 
ATOM     13  C   UNL A   1      41.580  28.744  31.804  1.00  0.00     0.074 A 
ATOM     14  C   UNL A   1      39.786  29.796  30.467  1.00  0.00     0.049 A 
ATOM     15  N   UNL A   1      41.519  29.454  32.902  1.00  0.00    -0.248 NA
ATOM     16  C   UNL A   1      42.622  27.707  31.816  1.00  0.00     0.031 C 
ATOM     17  C   UNL A   1      38.902  29.982  29.315  1.00  0.00     0.029 A 
ATOM     18  N   UNL A   1      39.399  30.775  31.346  1.00  0.00    -0.354 N 
ATOM     19  C   UNL A   1      42.491  28.932  33.747  1.00  0.00     0.074 A 
ATOM     20  C   UNL A   1      43.118  27.836  33.040  1.00  0.00     0.031 C 
ATOM     21  C   UNL A   1      38.088  31.021  29.548  1.00  0.00     0.029 A 
ATOM     22  C   UNL A   1      38.347  31.534  30.889  1.00  0.00     0.049 A 
ATOM     23  H   UNL A   1      39.831  30.920  32.218  1.00  0.00     0.167 HD
ATOM     24  C   UNL A   1      42.827  29.336  34.996  1.00  0.00     0.037 A 
ATOM     25  C   UNL A   1      37.643  32.512  31.492  1.00  0.00     0.037 A 
ATOM     26  C   UNL A   1      42.202  30.439  35.679  1.00  0.00     0.049 A 
ATOM     27  C   UNL A   1      38.011  32.926  32.885  1.00  0.00     0.074 A 
ATOM     28  C   UNL A   1      42.510  30.965  36.922  1.00  0.00     0.029 A 
ATOM     29  N   UNL A   1      41.131  31.175  35.189  1.00  0.00    -0.354 N 
ATOM     30  N   UNL A   1      38.963  32.453  33.653  1.00  0.00    -0.248 NA
ATOM     31  C   UNL A   1      37.213  33.994  33.499  1.00  0.00     0.031 C 
ATOM     32  C   UNL A   1      41.594  31.984  37.203  1.00  0.00     0.029 A 
ATOM     33  C   UNL A   1      40.747  32.128  36.116  1.00  0.00     0.049 A 
ATOM     34  H   UNL A   1      40.708  31.038  34.309  1.00  0.00     0.167 HD
ATOM     35  C   UNL A   1      38.890  33.175  34.838  1.00  0.00     0.074 A 
ATOM     36  C   UNL A   1      37.801  34.120  34.684  1.00  0.00     0.031 C 
ATOM     37  C   UNL A   1      39.659  33.064  35.948  1.00  0.00     0.037 A 
BRANCH  24  38
ATOM     38  C   UNL A   1      43.895  28.561  35.717  1.00  0.00     0.058 A 
ATOM     39  C   UNL A   1      45.251  28.867  35.515  1.00  0.00     0.135 A 
ATOM     40  C   UNL A   1      43.587  27.506  36.591  1.00  0.00     0.135 A 
ATOM     41  F   UNL A   1      45.604  29.862  34.687  1.00  0.00    -0.206 F 
ATOM     42  C   UNL A   1      46.265  28.165  36.162  1.00  0.00     0.059 A 
ATOM     43  C   UNL A   1      44.583  26.809  37.269  1.00  0.00     0.059 A 
ATOM     44  F   UNL A   1      42.307  27.177  36.830  1.00  0.00    -0.206 F 
ATOM     45  C   UNL A   1      45.918  27.150  37.053  1.00  0.00     0.060 A 
BRANCH  45  46
ATOM     46  S   UNL A   1      47.194  26.258  37.968  1.00  0.00     0.124 S 
ATOM     47  O   UNL A   1      47.582  25.237  36.999  1.00  0.00    -0.237 OA
ATOM     48  O   UNL A   1      48.183  27.301  38.218  1.00  0.00    -0.237 OA
ATOM     49  O   UNL A   1      46.490  25.768  39.148  1.00  0.00    -0.744 OA
ENDBRANCH  45  46
ENDBRANCH  24  38
BRANCH  25  50
ATOM     50  C   UNL A   1      36.522  33.142  30.751  1.00  0.00     0.058 A 
ATOM     51  C   UNL A   1      36.765  34.087  29.740  1.00  0.00     0.135 A 
ATOM     52  C   UNL A   1      35.192  32.905  31.120  1.00  0.00     0.135 A 
ATOM     53  F   UNL A   1      38.026  34.360  29.366  1.00  0.00    -0.206 F 
ATOM     54  C   UNL A   1      35.734  34.810  29.151  1.00  0.00     0.059 A 
ATOM     55  C   UNL A   1      34.140  33.601  30.530  1.00  0.00     0.059 A 
ATOM     56  F   UNL A   1      34.910  32.008  32.076  1.00  0.00    -0.206 F 
ATOM     57  C   UNL A   1      34.424  34.565  29.559  1.00  0.00     0.060 A 
BRANCH  57  58
ATOM     58  S   UNL A   1      33.060  35.545  28.894  1.00  0.00     0.124 S 
ATOM     59  O   UNL A   1      33.774  36.609  28.198  1.00  0.00    -0.237 OA
ATOM     60  O   UNL A   1      32.375  34.574  28.046  1.00  0.00    -0.237 OA
ATOM     61  O   UNL A   1      32.325  35.953  30.088  1.00  0.00    -0.744 OA
ENDBRANCH  57  58
ENDBRANCH  25  50
BRANCH  37  62
ATOM     62  C   UNL A   1      39.378  33.995  37.092  1.00  0.00     0.058 A 
ATOM     63  C   UNL A   1      39.951  35.278  37.117  1.00  0.00     0.135 A 
ATOM     64  C   UNL A   1      38.650  33.577  38.215  1.00  0.00     0.135 A 
ATOM     65  F   UNL A   1      40.660  35.721  36.067  1.00  0.00    -0.206 F 
ATOM     66  C   UNL A   1      39.841  36.103  38.231  1.00  0.00     0.059 A 
ATOM     67  C   UNL A   1      38.510  34.394  39.332  1.00  0.00     0.059 A 
ATOM     68  F   UNL A   1      38.074  32.365  38.234  1.00  0.00    -0.206 F 
ATOM     69  C   UNL A   1      39.122  35.650  39.336  1.00  0.00     0.060 A 
BRANCH  69  70
ATOM     70  S   UNL A   1      39.010  36.659  40.830  1.00  0.00     0.124 S 
ATOM     71  O   UNL A   1      38.087  35.877  41.646  1.00  0.00    -0.237 OA
ATOM     72  O   UNL A   1      40.396  36.688  41.288  1.00  0.00    -0.237 OA
ATOM     73  O   UNL A   1      38.490  37.933  40.342  1.00  0.00    -0.744 OA
ENDBRANCH  69  70
ENDBRANCH  37  62
ENDBRANCH  11  12
ENDBRANCH   4   6
ENDBRANCH   1   2
BRANCH   1  74
ATOM     74  C   UNL A   1      40.370  21.900  27.398  1.00  0.00     0.042 C 
BRANCH  74  75
ATOM     75  C   UNL A   1      39.379  22.098  26.258  1.00  0.00     0.118 C 
BRANCH  75  76
ATOM     76  N   UNL A   1      39.041  20.841  25.604  1.00  0.00    -0.352 N 
ATOM     77  C   UNL A   1      37.843  20.443  25.076  1.00  0.00     0.251 C 
ATOM     78  H   UNL A   1      39.775  20.189  25.532  1.00  0.00     0.163 HD
ATOM     79  O   UNL A   1      37.655  19.276  24.741  1.00  0.00    -0.269 OA
BRANCH  77  80
ATOM     80  C   UNL A   1      36.762  21.430  24.911  1.00  0.00     0.042 A 
ATOM     81  C   UNL A   1      36.821  22.347  23.853  1.00  0.00     0.016 A 
ATOM     82  C   UNL A   1      35.686  21.395  25.811  1.00  0.00     0.042 A 
ATOM     83  C   UNL A   1      35.794  23.277  23.666  1.00  0.00     0.031 A 
ATOM     84  C   UNL A   1      34.693  22.353  25.610  1.00  0.00     0.067 A 
ATOM     85  C   UNL A   1      34.708  23.256  24.552  1.00  0.00     0.089 A 
ATOM     86  N   UNL A   1      33.550  22.668  26.303  1.00  0.00    -0.338 N 
ATOM     87  N   UNL A   1      33.570  24.011  24.541  1.00  0.00    -0.228 NA
ATOM     88  C   UNL A   1      32.892  23.652  25.610  1.00  0.00     0.142 A 
ATOM     89  H   UNL A   1      33.256  22.261  27.148  1.00  0.00     0.168 HD
BRANCH  88  90
ATOM     90  C   UNL A   1      31.581  24.230  25.978  1.00  0.00     0.063 A 
ATOM     91  C   UNL A   1      30.528  23.574  26.566  1.00  0.00     0.117 A 
ATOM     92  C   UNL A   1      31.148  25.573  25.795  1.00  0.00     0.106 A 
ATOM     93  N   UNL A   1      29.584  24.536  26.784  1.00  0.00    -0.284 N 
ATOM     94  N   UNL A   1      29.902  25.736  26.272  1.00  0.00    -0.175 NA
ATOM     95  H   UNL A   1      28.746  24.365  27.272  1.00  0.00     0.189 HD
BRANCH  92  96
ATOM     96  C   UNL A   1      31.832  26.631  25.063  1.00  0.00     0.039 A 
ATOM     97  C   UNL A   1      31.430  26.927  23.748  1.00  0.00     0.016 A 
ATOM     98  C   UNL A   1      32.894  27.344  25.623  1.00  0.00     0.135 A 
ATOM     99  C   UNL A   1      32.092  27.909  23.011  1.00  0.00     0.040 A 
ATOM    100  C   UNL A   1      33.556  28.328  24.891  1.00  0.00     0.079 A 
ATOM    101  F   UNL A   1      33.320  27.085  26.868  1.00  0.00    -0.206 F 
ATOM    102  C   UNL A   1      33.150  28.600  23.591  1.00  0.00     0.126 A 
ATOM    103  F   UNL A   1      33.787  29.541  22.881  1.00  0.00    -0.207 F 
ENDBRANCH  92  96
ENDBRANCH  88  90
ENDBRANCH  77  80
ENDBRANCH  75  76
ENDBRANCH  74  75
ENDBRANCH   1  74
TORSDOF 15
ENDMDL
MODEL 2
REMARK VINA RESULT:     -13.4      0.711      8.088
REMARK SMILES O=C(NCCCNC(=O)c1ccc2nc(-c3c[nH]nc3-c3ccc(F)cc3F)[nH]c2c1)c1ccc(-c2c3nc(c(-c4c(F)cc(S(=O)(=O)[O-])cc4F)c4ccc([nH]4)c(-c4c(F)cc(S(=O)(=O)[O-])cc4F)c4nc(c(-c5c(F)cc(S(=O)(=O)[O-])cc5F)c5ccc2[nH]5)C=C4)C=C3)cc1
REMARK SMILES IDX 4 1 3 2 1 3 2 4 32 6 33 7 97 8 34 9 96 10 35 11 36 12 37 13
REMARK SMILES IDX 90 14 38 15 95 16 89 17 91 18 39 19 94 20 88 21 87 22 40 24
REMARK SMILES IDX 74 25 53 26 73 27 54 28 57 29 72 30 92 31 55 32 56 33 71 35
REMARK SMILES IDX 93 36 58 37 41 38 42 39 51 40 43 41 44 42 50 43 52 44 45 45
REMARK SMILES IDX 46 46 47 47 48 48 49 49 75 50 76 51 85 52 77 53 78 54 84 55
REMARK SMILES IDX 86 56 79 57 80 58 81 59 82 60 83 61 59 62 60 63 69 64 61 65
REMARK SMILES IDX 62 66 68 67 70 68 63 69 64 70 65 71 66 72 67 73 5 74 6 75
REMARK SMILES IDX 7 76 8 77 9 79 10 80 11 81 31 82 12 83 30 84 13 85 29 86
REMARK SMILES IDX 14 87 15 88 16 90 17 91 20 92 18 93 19 94 21 96 22 97 27 98
REMARK SMILES IDX 23 99 26 100 28 101 24 102 25 103
REMARK H PARENT 3 5 91 23 57 34 7 78 29 89 18 95
REMARK Flexibility Score: inf
ROOT
ATOM      1  C   UNL A   1      41.639  23.207  27.478  1.00  0.00     0.118 C 
ENDROOT
BRANCH   1   2
ATOM      2  N   UNL A   1      41.631  24.057  26.295  1.00  0.00    -0.352 N 
ATOM      3  O   UNL A   1      41.132  25.831  25.016  1.00  0.00    -0.269 OA
ATOM      4  C   UNL A   1      41.281  25.376  26.147  1.00  0.00     0.251 C 
ATOM      5  H   UNL A   1      41.924  23.613  25.467  1.00  0.00     0.163 HD
BRANCH   4   6
ATOM      6  C   UNL A   1      41.073  26.241  27.328  1.00  0.00     0.039 A 
ATOM      7  C   UNL A   1      40.018  26.016  28.214  1.00  0.00     0.014 A 
ATOM      8  C   UNL A   1      41.992  27.263  27.585  1.00  0.00     0.014 A 
ATOM      9  C   UNL A   1      39.806  26.884  29.282  1.00  0.00     0.010 A 
ATOM     10  C   UNL A   1      41.826  28.084  28.702  1.00  0.00     0.010 A 
ATOM     11  C   UNL A   1      40.717  27.916  29.546  1.00  0.00    -0.014 A 
BRANCH  11  12
ATOM     12  C   UNL A   1      40.547  28.769  30.748  1.00  0.00     0.031 A 
ATOM     13  C   UNL A   1      39.495  29.839  30.788  1.00  0.00     0.074 A 
ATOM     14  C   UNL A   1      41.372  28.587  31.797  1.00  0.00     0.049 A 
ATOM     15  N   UNL A   1      39.250  30.718  31.727  1.00  0.00    -0.248 NA
ATOM     16  C   UNL A   1      38.607  29.945  29.620  1.00  0.00     0.031 C 
ATOM     17  C   UNL A   1      42.435  27.583  31.864  1.00  0.00     0.029 A 
ATOM     18  N   UNL A   1      41.454  29.241  33.000  1.00  0.00    -0.354 N 
ATOM     19  C   UNL A   1      38.202  31.499  31.253  1.00  0.00     0.074 A 
ATOM     20  C   UNL A   1      37.868  31.000  29.936  1.00  0.00     0.031 C 
ATOM     21  C   UNL A   1      43.052  27.674  33.051  1.00  0.00     0.029 A 
ATOM     22  C   UNL A   1      42.472  28.782  33.802  1.00  0.00     0.049 A 
ATOM     23  H   UNL A   1      40.844  29.966  33.263  1.00  0.00     0.167 HD
ATOM     24  C   UNL A   1      37.580  32.535  31.866  1.00  0.00     0.037 A 
ATOM     25  C   UNL A   1      42.917  29.223  34.995  1.00  0.00     0.037 A 
ATOM     26  C   UNL A   1      37.917  33.009  33.184  1.00  0.00     0.049 A 
ATOM     27  C   UNL A   1      42.233  30.389  35.645  1.00  0.00     0.074 A 
ATOM     28  C   UNL A   1      37.307  34.012  33.916  1.00  0.00     0.029 A 
ATOM     29  N   UNL A   1      38.963  32.527  33.959  1.00  0.00    -0.354 N 
ATOM     30  N   UNL A   1      41.215  31.089  35.204  1.00  0.00    -0.248 NA
ATOM     31  C   UNL A   1      42.756  30.834  36.942  1.00  0.00     0.031 C 
ATOM     32  C   UNL A   1      38.016  34.171  35.112  1.00  0.00     0.029 A 
ATOM     33  C   UNL A   1      39.036  33.233  35.148  1.00  0.00     0.049 A 
ATOM     34  H   UNL A   1      39.564  31.791  33.701  1.00  0.00     0.167 HD
ATOM     35  C   UNL A   1      40.964  32.048  36.176  1.00  0.00     0.074 A 
ATOM     36  C   UNL A   1      41.935  31.838  37.231  1.00  0.00     0.031 C 
ATOM     37  C   UNL A   1      40.010  33.012  36.190  1.00  0.00     0.037 A 
BRANCH  24  38
ATOM     38  C   UNL A   1      36.496  33.247  31.105  1.00  0.00     0.058 A 
ATOM     39  C   UNL A   1      35.150  33.092  31.478  1.00  0.00     0.135 A 
ATOM     40  C   UNL A   1      36.777  34.065  29.999  1.00  0.00     0.135 A 
ATOM     41  F   UNL A   1      34.823  32.318  32.524  1.00  0.00    -0.206 F 
ATOM     42  C   UNL A   1      34.121  33.732  30.791  1.00  0.00     0.059 A 
ATOM     43  C   UNL A   1      35.767  34.736  29.316  1.00  0.00     0.059 A 
ATOM     44  F   UNL A   1      38.046  34.258  29.606  1.00  0.00    -0.206 F 
ATOM     45  C   UNL A   1      34.443  34.568  29.723  1.00  0.00     0.060 A 
BRANCH  45  46
ATOM     46  S   UNL A   1      33.150  35.473  28.846  1.00  0.00     0.124 S 
ATOM     47  O   UNL A   1      32.526  34.405  28.071  1.00  0.00    -0.237 OA
ATOM     48  O   UNL A   1      32.350  36.011  29.940  1.00  0.00    -0.237 OA
ATOM     49  O   UNL A   1      33.891  36.461  28.068  1.00  0.00    -0.744 OA
ENDBRANCH  45  46
ENDBRANCH  24  38
BRANCH  25  50
ATOM     50  C   UNL A   1      44.075  28.538  35.621  1.00  0.00     0.058 A 
ATOM     51  C   UNL A   1      45.391  28.870  35.261  1.00  0.00     0.135 A 
ATOM     52  C   UNL A   1      43.887  27.460  36.495  1.00  0.00     0.135 A 
ATOM     53  F   UNL A   1      45.619  29.885  34.411  1.00  0.00    -0.206 F 
ATOM     54  C   UNL A   1      46.481  28.130  35.708  1.00  0.00     0.059 A 
ATOM     55  C   UNL A   1      44.963  26.717  36.974  1.00  0.00     0.059 A 
ATOM     56  F   UNL A   1      42.648  27.109  36.872  1.00  0.00    -0.206 F 
ATOM     57  C   UNL A   1      46.255  27.050  36.559  1.00  0.00     0.060 A 
BRANCH  57  58
ATOM     58  S   UNL A   1      47.626  26.001  37.089  1.00  0.00     0.124 S 
ATOM     59  O   UNL A   1      48.756  26.628  36.412  1.00  0.00    -0.237 OA
ATOM     60  O   UNL A   1      47.584  26.158  38.540  1.00  0.00    -0.237 OA
ATOM     61  O   UNL A   1      47.249  24.679  36.597  1.00  0.00    -0.744 OA
ENDBRANCH  57  58
ENDBRANCH  25  50
BRANCH  37  62
ATOM     62  C   UNL A   1      39.943  33.914  37.389  1.00  0.00     0.058 A 
ATOM     63  C   UNL A   1      39.046  33.636  38.434  1.00  0.00     0.135 A 
ATOM     64  C   UNL A   1      40.670  35.111  37.447  1.00  0.00     0.135 A 
ATOM     65  F   UNL A   1      38.324  32.504  38.420  1.00  0.00    -0.206 F 
ATOM     66  C   UNL A   1      38.845  34.531  39.479  1.00  0.00     0.059 A 
ATOM     67  C   UNL A   1      40.500  36.012  38.494  1.00  0.00     0.059 A 
ATOM     68  F   UNL A   1      41.550  35.415  36.479  1.00  0.00    -0.206 F 
ATOM     69  C   UNL A   1      39.574  35.719  39.497  1.00  0.00     0.060 A 
BRANCH  69  70
ATOM     70  S   UNL A   1      39.297  36.941  40.798  1.00  0.00     0.124 S 
ATOM     71  O   UNL A   1      38.749  36.114  41.869  1.00  0.00    -0.237 OA
ATOM     72  O   UNL A   1      40.641  37.463  41.023  1.00  0.00    -0.237 OA
ATOM     73  O   UNL A   1      38.359  37.880  40.189  1.00  0.00    -0.744 OA
ENDBRANCH  69  70
ENDBRANCH  37  62
ENDBRANCH  11  12
ENDBRANCH   4   6
ENDBRANCH   1   2
BRANCH   1  74
ATOM     74  C   UNL A   1      40.336  22.433  27.647  1.00  0.00     0.042 C 
BRANCH  74  75
ATOM     75  C   UNL A   1      39.378  22.578  26.471  1.00  0.00     0.118 C 
BRANCH  75  76
ATOM     76  N   UNL A   1      39.226  21.330  25.735  1.00  0.00    -0.352 N 
ATOM     77  C   UNL A   1      38.103  20.810  25.149  1.00  0.00     0.251 C 
ATOM     78  H   UNL A   1      40.042  20.786  25.647  1.00  0.00     0.163 HD
ATOM     79  O   UNL A   1      38.081  19.652  24.741  1.00  0.00    -0.269 OA
BRANCH  77  80
ATOM     80  C   UNL A   1      36.905  21.654  25.010  1.00  0.00     0.042 A 
ATOM     81  C   UNL A   1      36.821  22.565  23.948  1.00  0.00     0.016 A 
ATOM     82  C   UNL A   1      35.864  21.491  25.937  1.00  0.00     0.042 A 
ATOM     83  C   UNL A   1      35.682  23.359  23.786  1.00  0.00     0.031 A 
ATOM     84  C   UNL A   1      34.755  22.317  25.760  1.00  0.00     0.067 A 
ATOM     85  C   UNL A   1      34.630  23.208  24.700  1.00  0.00     0.089 A 
ATOM     86  N   UNL A   1      33.600  22.491  26.481  1.00  0.00    -0.338 N 
ATOM     87  N   UNL A   1      33.407  23.815  24.716  1.00  0.00    -0.228 NA
ATOM     88  C   UNL A   1      32.806  23.380  25.804  1.00  0.00     0.142 A 
ATOM     89  H   UNL A   1      33.380  22.054  27.335  1.00  0.00     0.168 HD
BRANCH  88  90
ATOM     90  C   UNL A   1      31.443  23.793  26.204  1.00  0.00     0.063 A 
ATOM     91  C   UNL A   1      30.422  22.971  26.612  1.00  0.00     0.117 A 
ATOM     92  C   UNL A   1      30.918  25.115  26.243  1.00  0.00     0.106 A 
ATOM     93  N   UNL A   1      29.401  23.812  26.953  1.00  0.00    -0.284 N 
ATOM     94  N   UNL A   1      29.646  25.104  26.680  1.00  0.00    -0.175 NA
ATOM     95  H   UNL A   1      28.561  23.500  27.361  1.00  0.00     0.189 HD
BRANCH  92  96
ATOM     96  C   UNL A   1      31.547  26.331  25.746  1.00  0.00     0.039 A 
ATOM     97  C   UNL A   1      32.458  27.018  26.567  1.00  0.00     0.016 A 
ATOM     98  C   UNL A   1      31.250  26.849  24.483  1.00  0.00     0.135 A 
ATOM     99  C   UNL A   1      33.047  28.206  26.131  1.00  0.00     0.040 A 
ATOM    100  C   UNL A   1      31.838  28.032  24.042  1.00  0.00     0.079 A 
ATOM    101  F   UNL A   1      30.376  26.234  23.673  1.00  0.00    -0.206 F 
ATOM    102  C   UNL A   1      32.729  28.701  24.871  1.00  0.00     0.126 A 
ATOM    103  F   UNL A   1      33.292  29.843  24.454  1.00  0.00    -0.207 F 
ENDBRANCH  92  96
ENDBRANCH  88  90
ENDBRANCH  77  80
ENDBRANCH  75  76
ENDBRANCH  74  75
ENDBRANCH   1  74
TORSDOF 15
ENDMDL
MODEL 3
REMARK VINA RESULT:     -13.3      4.997     10.577
REMARK SMILES O=C(NCCCNC(=O)c1ccc2nc(-c3c[nH]nc3-c3ccc(F)cc3F)[nH]c2c1)c1ccc(-c2c3nc(c(-c4c(F)cc(S(=O)(=O)[O-])cc4F)c4ccc([nH]4)c(-c4c(F)cc(S(=O)(=O)[O-])cc4F)c4nc(c(-c5c(F)cc(S(=O)(=O)[O-])cc5F)c5ccc2[nH]5)C=C4)C=C3)cc1
REMARK SMILES IDX 4 1 3 2 1 3 2 4 32 6 33 7 97 8 34 9 96 10 35 11 36 12 37 13
REMARK SMILES IDX 90 14 38 15 95 16 89 17 91 18 39 19 94 20 88 21 87 22 40 24
REMARK SMILES IDX 74 25 53 26 73 27 54 28 57 29 72 30 92 31 55 32 56 33 71 35
REMARK SMILES IDX 93 36 58 37 41 38 42 39 51 40 43 41 44 42 50 43 52 44 45 45
REMARK SMILES IDX 46 46 47 47 48 48 49 49 75 50 76 51 85 52 77 53 78 54 84 55
REMARK SMILES IDX 86 56 79 57 80 58 81 59 82 60 83 61 59 62 60 63 69 64 61 65
REMARK SMILES IDX 62 66 68 67 70 68 63 69 64 70 65 71 66 72 67 73 5 74 6 75
REMARK SMILES IDX 7 76 8 77 9 79 10 80 11 81 31 82 12 83 30 84 13 85 29 86
REMARK SMILES IDX 14 87 15 88 16 90 17 91 20 92 18 93 19 94 21 96 22 97 27 98
REMARK SMILES IDX 23 99 26 100 28 101 24 102 25 103
REMARK H PARENT 3 5 91 23 57 34 7 78 29 89 18 95
REMARK Flexibility Score: inf
ROOT
ATOM      1  C   UNL A   1      33.742  28.312  26.893  1.00  0.00     0.118 C 
ENDROOT
BRANCH   1   2
ATOM      2  N   UNL A   1      33.582  29.693  27.325  1.00  0.00    -0.352 N 
ATOM      3  O   UNL A   1      33.990  31.565  28.492  1.00  0.00    -0.269 OA
ATOM      4  C   UNL A   1      34.422  30.505  28.044  1.00  0.00     0.251 C 
ATOM      5  H   UNL A   1      32.733  30.112  27.056  1.00  0.00     0.163 HD
BRANCH   4   6
ATOM      6  C   UNL A   1      35.826  30.114  28.291  1.00  0.00     0.039 A 
ATOM      7  C   UNL A   1      36.795  30.226  27.291  1.00  0.00     0.014 A 
ATOM      8  C   UNL A   1      36.191  29.683  29.570  1.00  0.00     0.014 A 
ATOM      9  C   UNL A   1      38.095  29.790  27.528  1.00  0.00     0.010 A 
ATOM     10  C   UNL A   1      37.515  29.323  29.831  1.00  0.00     0.010 A 
ATOM     11  C   UNL A   1      38.472  29.351  28.805  1.00  0.00    -0.014 A 
BRANCH  11  12
ATOM     12  C   UNL A   1      39.886  28.991  29.081  1.00  0.00     0.031 A 
ATOM     13  C   UNL A   1      40.837  30.000  29.656  1.00  0.00     0.074 A 
ATOM     14  C   UNL A   1      40.311  27.749  28.781  1.00  0.00     0.049 A 
ATOM     15  N   UNL A   1      42.118  29.879  29.897  1.00  0.00    -0.248 NA
ATOM     16  C   UNL A   1      40.284  31.320  29.996  1.00  0.00     0.031 C 
ATOM     17  C   UNL A   1      39.475  26.691  28.210  1.00  0.00     0.029 A 
ATOM     18  N   UNL A   1      41.547  27.169  28.902  1.00  0.00    -0.354 N 
ATOM     19  C   UNL A   1      42.531  31.112  30.389  1.00  0.00     0.074 A 
ATOM     20  C   UNL A   1      41.367  31.972  30.397  1.00  0.00     0.031 C 
ATOM     21  C   UNL A   1      40.216  25.585  28.047  1.00  0.00     0.029 A 
ATOM     22  C   UNL A   1      41.591  25.874  28.440  1.00  0.00     0.049 A 
ATOM     23  H   UNL A   1      42.327  27.633  29.283  1.00  0.00     0.167 HD
ATOM     24  C   UNL A   1      43.768  31.484  30.796  1.00  0.00     0.037 A 
ATOM     25  C   UNL A   1      42.626  25.022  28.312  1.00  0.00     0.037 A 
ATOM     26  C   UNL A   1      44.912  30.610  30.795  1.00  0.00     0.049 A 
ATOM     27  C   UNL A   1      43.994  25.462  28.742  1.00  0.00     0.074 A 
ATOM     28  C   UNL A   1      46.195  30.873  31.243  1.00  0.00     0.029 A 
ATOM     29  N   UNL A   1      44.919  29.310  30.306  1.00  0.00    -0.354 N 
ATOM     30  N   UNL A   1      44.359  26.617  29.247  1.00  0.00    -0.248 NA
ATOM     31  C   UNL A   1      45.089  24.499  28.581  1.00  0.00     0.031 C 
ATOM     32  C   UNL A   1      46.988  29.752  30.979  1.00  0.00     0.029 A 
ATOM     33  C   UNL A   1      46.190  28.770  30.414  1.00  0.00     0.049 A 
ATOM     34  H   UNL A   1      44.135  28.841  29.939  1.00  0.00     0.167 HD
ATOM     35  C   UNL A   1      45.725  26.515  29.478  1.00  0.00     0.074 A 
ATOM     36  C   UNL A   1      46.121  25.184  29.061  1.00  0.00     0.031 C 
ATOM     37  C   UNL A   1      46.569  27.441  29.993  1.00  0.00     0.037 A 
BRANCH  24  38
ATOM     38  C   UNL A   1      43.957  32.907  31.244  1.00  0.00     0.058 A 
ATOM     39  C   UNL A   1      43.752  33.260  32.589  1.00  0.00     0.135 A 
ATOM     40  C   UNL A   1      44.319  33.928  30.350  1.00  0.00     0.135 A 
ATOM     41  F   UNL A   1      43.400  32.326  33.487  1.00  0.00    -0.206 F 
ATOM     42  C   UNL A   1      43.912  34.568  33.036  1.00  0.00     0.059 A 
ATOM     43  C   UNL A   1      44.510  35.238  30.781  1.00  0.00     0.059 A 
ATOM     44  F   UNL A   1      44.537  33.647  29.056  1.00  0.00    -0.206 F 
ATOM     45  C   UNL A   1      44.311  35.547  32.127  1.00  0.00     0.060 A 
BRANCH  45  46
ATOM     46  S   UNL A   1      44.598  37.243  32.672  1.00  0.00     0.124 S 
ATOM     47  O   UNL A   1      44.328  37.990  31.447  1.00  0.00    -0.237 OA
ATOM     48  O   UNL A   1      43.613  37.399  33.737  1.00  0.00    -0.237 OA
ATOM     49  O   UNL A   1      45.991  37.233  33.106  1.00  0.00    -0.744 OA
ENDBRANCH  45  46
ENDBRANCH  24  38
BRANCH  25  50
ATOM     50  C   UNL A   1      42.373  23.674  27.744  1.00  0.00     0.058 A 
ATOM     51  C   UNL A   1      42.285  22.546  28.575  1.00  0.00     0.135 A 
ATOM     52  C   UNL A   1      42.336  23.472  26.358  1.00  0.00     0.135 A 
ATOM     53  F   UNL A   1      42.335  22.689  29.909  1.00  0.00    -0.206 F 
ATOM     54  C   UNL A   1      42.216  21.257  28.055  1.00  0.00     0.059 A 
ATOM     55  C   UNL A   1      42.246  22.195  25.814  1.00  0.00     0.059 A 
ATOM     56  F   UNL A   1      42.411  24.521  25.525  1.00  0.00    -0.206 F 
ATOM     57  C   UNL A   1      42.205  21.093  26.671  1.00  0.00     0.060 A 
BRANCH  57  58
ATOM     58  S   UNL A   1      42.213  19.437  25.948  1.00  0.00     0.124 S 
ATOM     59  O   UNL A   1      40.799  19.237  25.653  1.00  0.00    -0.237 OA
ATOM     60  O   UNL A   1      43.087  19.616  24.792  1.00  0.00    -0.237 OA
ATOM     61  O   UNL A   1      42.761  18.606  27.016  1.00  0.00    -0.744 OA
ENDBRANCH  57  58
ENDBRANCH  25  50
BRANCH  37  62
ATOM     62  C   UNL A   1      48.012  27.059  30.161  1.00  0.00     0.058 A 
ATOM     63  C   UNL A   1      48.450  26.458  31.353  1.00  0.00     0.135 A 
ATOM     64  C   UNL A   1      48.976  27.399  29.201  1.00  0.00     0.135 A 
ATOM     65  F   UNL A   1      47.565  26.120  32.304  1.00  0.00    -0.206 F 
ATOM     66  C   UNL A   1      49.801  26.238  31.603  1.00  0.00     0.059 A 
ATOM     67  C   UNL A   1      50.330  27.168  29.422  1.00  0.00     0.059 A 
ATOM     68  F   UNL A   1      48.605  27.963  28.041  1.00  0.00    -0.206 F 
ATOM     69  C   UNL A   1      50.733  26.601  30.633  1.00  0.00     0.060 A 
BRANCH  69  70
ATOM     70  S   UNL A   1      52.501  26.395  30.943  1.00  0.00     0.124 S 
ATOM     71  O   UNL A   1      53.029  26.298  29.586  1.00  0.00    -0.237 OA
ATOM     72  O   UNL A   1      52.832  27.618  31.668  1.00  0.00    -0.237 OA
ATOM     73  O   UNL A   1      52.568  25.168  31.730  1.00  0.00    -0.744 OA
ENDBRANCH  69  70
ENDBRANCH  37  62
ENDBRANCH  11  12
ENDBRANCH   4   6
ENDBRANCH   1   2
BRANCH   1  74
ATOM     74  C   UNL A   1      32.684  27.894  25.877  1.00  0.00     0.042 C 
BRANCH  74  75
ATOM     75  C   UNL A   1      32.750  28.669  24.567  1.00  0.00     0.118 C 
BRANCH  75  76
ATOM     76  N   UNL A   1      31.459  28.711  23.894  1.00  0.00    -0.352 N 
ATOM     77  C   UNL A   1      30.920  27.812  23.013  1.00  0.00     0.251 C 
ATOM     78  H   UNL A   1      30.897  29.494  24.100  1.00  0.00     0.163 HD
ATOM     79  O   UNL A   1      29.910  28.084  22.370  1.00  0.00    -0.269 OA
BRANCH  77  80
ATOM     80  C   UNL A   1      31.565  26.501  22.835  1.00  0.00     0.042 A 
ATOM     81  C   UNL A   1      32.386  26.281  21.720  1.00  0.00     0.016 A 
ATOM     82  C   UNL A   1      31.358  25.519  23.816  1.00  0.00     0.042 A 
ATOM     83  C   UNL A   1      33.025  25.050  21.545  1.00  0.00     0.031 A 
ATOM     84  C   UNL A   1      31.991  24.296  23.595  1.00  0.00     0.067 A 
ATOM     85  C   UNL A   1      32.833  24.057  22.515  1.00  0.00     0.089 A 
ATOM     86  N   UNL A   1      31.975  23.104  24.278  1.00  0.00    -0.338 N 
ATOM     87  N   UNL A   1      33.391  22.813  22.600  1.00  0.00    -0.228 NA
ATOM     88  C   UNL A   1      32.852  22.249  23.660  1.00  0.00     0.142 A 
ATOM     89  H   UNL A   1      31.429  22.899  25.070  1.00  0.00     0.168 HD
BRANCH  88  90
ATOM     90  C   UNL A   1      33.185  20.883  24.117  1.00  0.00     0.063 A 
ATOM     91  C   UNL A   1      32.362  19.784  24.092  1.00  0.00     0.117 A 
ATOM     92  C   UNL A   1      34.415  20.435  24.674  1.00  0.00     0.106 A 
ATOM     93  N   UNL A   1      33.136  18.748  24.531  1.00  0.00    -0.284 N 
ATOM     94  N   UNL A   1      34.357  19.121  24.951  1.00  0.00    -0.175 NA
ATOM     95  H   UNL A   1      32.828  17.813  24.540  1.00  0.00     0.189 HD
BRANCH  92  96
ATOM     96  C   UNL A   1      35.556  21.250  25.068  1.00  0.00     0.039 A 
ATOM     97  C   UNL A   1      35.340  22.568  25.510  1.00  0.00     0.016 A 
ATOM     98  C   UNL A   1      36.865  20.767  24.995  1.00  0.00     0.135 A 
ATOM     99  C   UNL A   1      36.418  23.383  25.857  1.00  0.00     0.040 A 
ATOM    100  C   UNL A   1      37.944  21.576  25.345  1.00  0.00     0.079 A 
ATOM    101  F   UNL A   1      37.119  19.522  24.565  1.00  0.00    -0.206 F 
ATOM    102  C   UNL A   1      37.710  22.878  25.770  1.00  0.00     0.126 A 
ATOM    103  F   UNL A   1      38.745  23.662  26.101  1.00  0.00    -0.207 F 
ENDBRANCH  92  96
ENDBRANCH  88  90
ENDBRANCH  77  80
ENDBRANCH  75  76
ENDBRANCH  74  75
ENDBRANCH   1  74
TORSDOF 15
ENDMDL
