MODEL 1
REMARK VINA RESULT:     -13.8      0.000      0.000
REMARK SMILES Cc1ccccc1N[C@H](C(=O)NCCCNC(=O)c1ccc(-c2c3nc(c(-c4c(F)cc(S(=O)(=O)[O-])cc4F)c4ccc([nH]4)c(-c4c(F)cc(S(=O)(=O)[O-])cc4F)c4nc(c(-c5c(F)cc(S(=O)(=O)[O-])cc5F)c5ccc2[nH]5)C=C4)C=C3)cc1)c1ccccc1
REMARK SMILES IDX 14 1 13 2 12 3 10 4 11 5 9 7 8 8 7 10 1 11 2 12 3 13 4 14
REMARK SMILES IDX 6 15 5 16 85 17 86 18 90 19 87 20 89 21 88 22 15 23 16 24
REMARK SMILES IDX 17 25 18 27 19 28 20 29 84 30 21 31 83 32 22 33 23 34 24 35
REMARK SMILES IDX 77 36 25 37 82 38 76 39 78 40 26 41 81 42 75 43 74 44 27 46
REMARK SMILES IDX 61 47 40 48 60 49 41 50 44 51 59 52 79 53 42 54 43 55 58 57
REMARK SMILES IDX 80 58 45 59 28 60 29 61 38 62 30 63 31 64 37 65 39 66 32 67
REMARK SMILES IDX 33 68 34 69 35 70 36 71 62 72 63 73 72 74 64 75 65 76 71 77
REMARK SMILES IDX 73 78 66 79 67 80 68 81 69 82 70 83 46 84 47 85 56 86 48 87
REMARK SMILES IDX 49 88 55 89 57 90 50 91 51 92 52 93 53 94 54 95
REMARK H PARENT 12 6 8 9 16 26 78 45 44 56
REMARK Flexibility Score: inf
ROOT
ATOM      1  C   UNL A   1      33.038  29.731  27.006  1.00  0.00     0.042 C 
ENDROOT
BRANCH   1   2
ATOM      2  C   UNL A   1      32.382  29.773  25.639  1.00  0.00     0.117 C 
BRANCH   2   3
ATOM      3  N   UNL A   1      33.350  29.610  24.560  1.00  0.00    -0.354 N 
ATOM      4  C   UNL A   1      33.400  28.599  23.633  1.00  0.00     0.247 C 
ATOM      5  O   UNL A   1      34.276  28.644  22.762  1.00  0.00    -0.272 OA
ATOM      6  H   UNL A   1      34.046  30.302  24.489  1.00  0.00     0.163 HD
BRANCH   4   7
ATOM      7  C   UNL A   1      32.427  27.383  23.732  1.00  0.00     0.200 C 
BRANCH   7   8
ATOM      8  N   UNL A   1      31.318  27.646  22.772  1.00  0.00    -0.370 N 
ATOM      9  H   UNL A   1      31.445  27.144  21.934  1.00  0.00     0.161 HD
BRANCH   8  10
ATOM     10  C   UNL A   1      30.165  28.398  22.730  1.00  0.00     0.038 A 
ATOM     11  C   UNL A   1      28.843  26.632  24.072  1.00  0.00     0.046 C 
ATOM     12  C   UNL A   1      28.940  27.868  23.211  1.00  0.00    -0.028 A 
ATOM     13  C   UNL A   1      27.715  28.524  22.948  1.00  0.00     0.005 A 
ATOM     14  C   UNL A   1      27.683  29.743  22.288  1.00  0.00     0.000 A 
ATOM     15  C   UNL A   1      30.093  29.689  22.200  1.00  0.00     0.026 A 
ATOM     16  C   UNL A   1      28.880  30.345  21.952  1.00  0.00     0.002 A 
ENDBRANCH   8  10
ENDBRANCH   7   8
BRANCH   7  17
ATOM     17  C   UNL A   1      33.102  26.014  23.797  1.00  0.00    -0.016 A 
ATOM     18  C   UNL A   1      32.785  24.994  22.892  1.00  0.00     0.006 A 
ATOM     19  C   UNL A   1      34.081  25.726  24.773  1.00  0.00     0.006 A 
ATOM     20  C   UNL A   1      33.595  23.855  22.793  1.00  0.00     0.000 A 
ATOM     21  C   UNL A   1      34.895  24.599  24.672  1.00  0.00     0.000 A 
ATOM     22  C   UNL A   1      34.678  23.685  23.652  1.00  0.00     0.000 A 
ENDBRANCH   7  17
ENDBRANCH   4   7
ENDBRANCH   2   3
ENDBRANCH   1   2
BRANCH   1  23
ATOM     23  C   UNL A   1      34.545  29.770  26.868  1.00  0.00     0.118 C 
BRANCH  23  24
ATOM     24  N   UNL A   1      35.182  30.926  27.483  1.00  0.00    -0.352 N 
ATOM     25  C   UNL A   1      36.260  30.949  28.361  1.00  0.00     0.251 C 
ATOM     26  H   UNL A   1      34.801  31.804  27.249  1.00  0.00     0.163 HD
ATOM     27  O   UNL A   1      36.546  31.944  28.993  1.00  0.00    -0.269 OA
BRANCH  25  28
ATOM     28  C   UNL A   1      37.097  29.727  28.433  1.00  0.00     0.039 A 
ATOM     29  C   UNL A   1      37.251  29.107  29.678  1.00  0.00     0.014 A 
ATOM     30  C   UNL A   1      37.931  29.405  27.369  1.00  0.00     0.014 A 
ATOM     31  C   UNL A   1      38.380  28.324  29.915  1.00  0.00     0.010 A 
ATOM     32  C   UNL A   1      39.115  28.760  27.648  1.00  0.00     0.010 A 
ATOM     33  C   UNL A   1      39.358  28.241  28.927  1.00  0.00    -0.014 A 
BRANCH  33  34
ATOM     34  C   UNL A   1      40.692  27.680  29.121  1.00  0.00     0.031 A 
ATOM     35  C   UNL A   1      40.961  26.285  28.692  1.00  0.00     0.074 A 
ATOM     36  C   UNL A   1      41.704  28.471  29.539  1.00  0.00     0.049 A 
ATOM     37  N   UNL A   1      42.002  25.595  29.013  1.00  0.00    -0.248 NA
ATOM     38  C   UNL A   1      40.019  25.531  27.872  1.00  0.00     0.031 C 
ATOM     39  C   UNL A   1      43.136  28.215  29.399  1.00  0.00     0.029 A 
ATOM     40  N   UNL A   1      41.641  29.610  30.338  1.00  0.00    -0.354 N 
ATOM     41  C   UNL A   1      42.005  24.442  28.256  1.00  0.00     0.074 A 
ATOM     42  C   UNL A   1      40.727  24.438  27.586  1.00  0.00     0.031 C 
ATOM     43  C   UNL A   1      43.810  29.010  30.244  1.00  0.00     0.029 A 
ATOM     44  C   UNL A   1      42.833  29.685  31.081  1.00  0.00     0.049 A 
ATOM     45  H   UNL A   1      40.894  30.250  30.376  1.00  0.00     0.167 HD
ATOM     46  C   UNL A   1      43.140  23.683  28.197  1.00  0.00     0.037 A 
ATOM     47  C   UNL A   1      42.812  29.600  32.446  1.00  0.00     0.037 A 
ATOM     48  C   UNL A   1      44.144  24.191  29.134  1.00  0.00     0.049 A 
ATOM     49  C   UNL A   1      43.488  28.364  32.999  1.00  0.00     0.074 A 
ATOM     50  C   UNL A   1      45.228  25.038  28.977  1.00  0.00     0.029 A 
ATOM     51  N   UNL A   1      43.912  24.101  30.504  1.00  0.00    -0.354 N 
ATOM     52  N   UNL A   1      43.826  27.328  32.283  1.00  0.00    -0.248 NA
ATOM     53  C   UNL A   1      43.809  28.191  34.414  1.00  0.00     0.031 C 
ATOM     54  C   UNL A   1      45.588  25.532  30.256  1.00  0.00     0.029 A 
ATOM     55  C   UNL A   1      44.743  24.965  31.195  1.00  0.00     0.049 A 
ATOM     56  H   UNL A   1      43.251  23.504  30.923  1.00  0.00     0.167 HD
ATOM     57  C   UNL A   1      44.314  26.346  33.102  1.00  0.00     0.074 A 
ATOM     58  C   UNL A   1      44.327  26.951  34.421  1.00  0.00     0.031 C 
ATOM     59  C   UNL A   1      44.643  25.103  32.641  1.00  0.00     0.037 A 
BRANCH  46  60
ATOM     60  C   UNL A   1      43.443  22.676  27.098  1.00  0.00     0.058 A 
ATOM     61  C   UNL A   1      42.703  21.475  27.000  1.00  0.00     0.135 A 
ATOM     62  C   UNL A   1      44.488  22.784  26.157  1.00  0.00     0.135 A 
ATOM     63  F   UNL A   1      41.611  21.263  27.748  1.00  0.00    -0.206 F 
ATOM     64  C   UNL A   1      43.046  20.430  26.137  1.00  0.00     0.059 A 
ATOM     65  C   UNL A   1      44.889  21.732  25.326  1.00  0.00     0.059 A 
ATOM     66  F   UNL A   1      45.128  23.939  25.949  1.00  0.00    -0.206 F 
ATOM     67  C   UNL A   1      44.168  20.549  25.330  1.00  0.00     0.060 A 
BRANCH  67  68
ATOM     68  S   UNL A   1      44.649  19.164  24.283  1.00  0.00     0.124 S 
ATOM     69  O   UNL A   1      46.047  18.968  24.653  1.00  0.00    -0.237 OA
ATOM     70  O   UNL A   1      43.725  18.121  24.715  1.00  0.00    -0.237 OA
ATOM     71  O   UNL A   1      44.434  19.669  22.929  1.00  0.00    -0.744 OA
ENDBRANCH  67  68
ENDBRANCH  46  60
BRANCH  47  72
ATOM     72  C   UNL A   1      41.632  30.274  33.054  1.00  0.00     0.058 A 
ATOM     73  C   UNL A   1      41.719  31.663  33.254  1.00  0.00     0.135 A 
ATOM     74  C   UNL A   1      40.353  29.704  32.976  1.00  0.00     0.135 A 
ATOM     75  F   UNL A   1      42.922  32.253  33.365  1.00  0.00    -0.206 F 
ATOM     76  C   UNL A   1      40.597  32.479  33.181  1.00  0.00     0.059 A 
ATOM     77  C   UNL A   1      39.213  30.504  32.906  1.00  0.00     0.059 A 
ATOM     78  F   UNL A   1      40.211  28.382  32.794  1.00  0.00    -0.206 F 
ATOM     79  C   UNL A   1      39.362  31.891  32.924  1.00  0.00     0.060 A 
BRANCH  79  80
ATOM     80  S   UNL A   1      38.020  32.976  32.380  1.00  0.00     0.124 S 
ATOM     81  O   UNL A   1      38.001  33.988  33.432  1.00  0.00    -0.237 OA
ATOM     82  O   UNL A   1      38.528  33.422  31.084  1.00  0.00    -0.237 OA
ATOM     83  O   UNL A   1      36.867  32.086  32.336  1.00  0.00    -0.744 OA
ENDBRANCH  79  80
ENDBRANCH  47  72
BRANCH  59  84
ATOM     84  C   UNL A   1      44.981  23.931  33.525  1.00  0.00     0.058 A 
ATOM     85  C   UNL A   1      44.077  22.898  33.824  1.00  0.00     0.135 A 
ATOM     86  C   UNL A   1      46.298  23.758  34.008  1.00  0.00     0.135 A 
ATOM     87  F   UNL A   1      42.834  22.893  33.319  1.00  0.00    -0.206 F 
ATOM     88  C   UNL A   1      44.426  21.811  34.627  1.00  0.00     0.059 A 
ATOM     89  C   UNL A   1      46.681  22.655  34.767  1.00  0.00     0.059 A 
ATOM     90  F   UNL A   1      47.257  24.660  33.752  1.00  0.00    -0.206 F 
ATOM     91  C   UNL A   1      45.728  21.703  35.102  1.00  0.00     0.060 A 
BRANCH  91  92
ATOM     92  S   UNL A   1      46.193  20.295  36.127  1.00  0.00     0.124 S 
ATOM     93  O   UNL A   1      47.632  20.232  35.895  1.00  0.00    -0.237 OA
ATOM     94  O   UNL A   1      45.787  20.716  37.465  1.00  0.00    -0.237 OA
ATOM     95  O   UNL A   1      45.411  19.201  35.560  1.00  0.00    -0.744 OA
ENDBRANCH  91  92
ENDBRANCH  59  84
ENDBRANCH  33  34
ENDBRANCH  25  28
ENDBRANCH  23  24
ENDBRANCH   1  23
TORSDOF 16
ENDMDL
MODEL 2
REMARK VINA RESULT:     -13.6      0.679      2.662
REMARK SMILES Cc1ccccc1N[C@H](C(=O)NCCCNC(=O)c1ccc(-c2c3nc(c(-c4c(F)cc(S(=O)(=O)[O-])cc4F)c4ccc([nH]4)c(-c4c(F)cc(S(=O)(=O)[O-])cc4F)c4nc(c(-c5c(F)cc(S(=O)(=O)[O-])cc5F)c5ccc2[nH]5)C=C4)C=C3)cc1)c1ccccc1
REMARK SMILES IDX 14 1 13 2 12 3 10 4 11 5 9 7 8 8 7 10 1 11 2 12 3 13 4 14
REMARK SMILES IDX 6 15 5 16 85 17 86 18 90 19 87 20 89 21 88 22 15 23 16 24
REMARK SMILES IDX 17 25 18 27 19 28 20 29 84 30 21 31 83 32 22 33 23 34 24 35
REMARK SMILES IDX 77 36 25 37 82 38 76 39 78 40 26 41 81 42 75 43 74 44 27 46
REMARK SMILES IDX 61 47 40 48 60 49 41 50 44 51 59 52 79 53 42 54 43 55 58 57
REMARK SMILES IDX 80 58 45 59 28 60 29 61 38 62 30 63 31 64 37 65 39 66 32 67
REMARK SMILES IDX 33 68 34 69 35 70 36 71 62 72 63 73 72 74 64 75 65 76 71 77
REMARK SMILES IDX 73 78 66 79 67 80 68 81 69 82 70 83 46 84 47 85 56 86 48 87
REMARK SMILES IDX 49 88 55 89 57 90 50 91 51 92 52 93 53 94 54 95
REMARK H PARENT 12 6 8 9 16 26 78 45 44 56
REMARK Flexibility Score: inf
ROOT
ATOM      1  C   UNL A   1      32.843  29.591  27.078  1.00  0.00     0.042 C 
ENDROOT
BRANCH   1   2
ATOM      2  C   UNL A   1      32.253  29.929  25.723  1.00  0.00     0.117 C 
BRANCH   2   3
ATOM      3  N   UNL A   1      33.227  29.782  24.647  1.00  0.00    -0.354 N 
ATOM      4  C   UNL A   1      33.171  28.912  23.587  1.00  0.00     0.247 C 
ATOM      5  O   UNL A   1      34.076  28.953  22.746  1.00  0.00    -0.272 OA
ATOM      6  H   UNL A   1      34.013  30.373  24.686  1.00  0.00     0.163 HD
BRANCH   4   7
ATOM      7  C   UNL A   1      32.038  27.843  23.498  1.00  0.00     0.200 C 
BRANCH   7   8
ATOM      8  N   UNL A   1      32.155  26.997  24.720  1.00  0.00    -0.370 N 
ATOM      9  H   UNL A   1      31.600  27.352  25.453  1.00  0.00     0.161 HD
BRANCH   8  10
ATOM     10  C   UNL A   1      32.823  25.859  25.111  1.00  0.00     0.038 A 
ATOM     11  C   UNL A   1      30.664  24.785  26.036  1.00  0.00     0.046 C 
ATOM     12  C   UNL A   1      32.163  24.860  25.872  1.00  0.00    -0.028 A 
ATOM     13  C   UNL A   1      32.894  23.817  26.486  1.00  0.00     0.005 A 
ATOM     14  C   UNL A   1      34.262  23.692  26.294  1.00  0.00     0.000 A 
ATOM     15  C   UNL A   1      34.169  25.609  24.833  1.00  0.00     0.026 A 
ATOM     16  C   UNL A   1      34.891  24.568  25.430  1.00  0.00     0.002 A 
ENDBRANCH   8  10
ENDBRANCH   7   8
BRANCH   7  17
ATOM     17  C   UNL A   1      30.682  28.369  23.032  1.00  0.00    -0.016 A 
ATOM     18  C   UNL A   1      29.484  27.750  23.409  1.00  0.00     0.006 A 
ATOM     19  C   UNL A   1      30.583  29.509  22.204  1.00  0.00     0.006 A 
ATOM     20  C   UNL A   1      28.257  28.393  23.204  1.00  0.00     0.000 A 
ATOM     21  C   UNL A   1      29.366  30.157  22.006  1.00  0.00     0.000 A 
ATOM     22  C   UNL A   1      28.206  29.620  22.545  1.00  0.00     0.000 A 
ENDBRANCH   7  17
ENDBRANCH   4   7
ENDBRANCH   2   3
ENDBRANCH   1   2
BRANCH   1  23
ATOM     23  C   UNL A   1      34.355  29.560  27.002  1.00  0.00     0.118 C 
BRANCH  23  24
ATOM     24  N   UNL A   1      35.012  30.764  27.490  1.00  0.00    -0.352 N 
ATOM     25  C   UNL A   1      36.155  30.861  28.276  1.00  0.00     0.251 C 
ATOM     26  H   UNL A   1      34.594  31.618  27.233  1.00  0.00     0.163 HD
ATOM     27  O   UNL A   1      36.468  31.900  28.820  1.00  0.00    -0.269 OA
BRANCH  25  28
ATOM     28  C   UNL A   1      37.023  29.661  28.358  1.00  0.00     0.039 A 
ATOM     29  C   UNL A   1      37.184  29.049  29.606  1.00  0.00     0.014 A 
ATOM     30  C   UNL A   1      37.870  29.357  27.300  1.00  0.00     0.014 A 
ATOM     31  C   UNL A   1      38.330  28.295  29.852  1.00  0.00     0.010 A 
ATOM     32  C   UNL A   1      39.069  28.742  27.588  1.00  0.00     0.010 A 
ATOM     33  C   UNL A   1      39.317  28.234  28.870  1.00  0.00    -0.014 A 
BRANCH  33  34
ATOM     34  C   UNL A   1      40.663  27.707  29.074  1.00  0.00     0.031 A 
ATOM     35  C   UNL A   1      40.976  26.326  28.630  1.00  0.00     0.074 A 
ATOM     36  C   UNL A   1      41.648  28.520  29.516  1.00  0.00     0.049 A 
ATOM     37  N   UNL A   1      42.031  25.661  28.955  1.00  0.00    -0.248 NA
ATOM     38  C   UNL A   1      40.065  25.557  27.787  1.00  0.00     0.031 C 
ATOM     39  C   UNL A   1      43.087  28.305  29.391  1.00  0.00     0.029 A 
ATOM     40  N   UNL A   1      41.543  29.646  30.329  1.00  0.00    -0.354 N 
ATOM     41  C   UNL A   1      42.076  24.518  28.183  1.00  0.00     0.074 A 
ATOM     42  C   UNL A   1      40.807  24.489  27.497  1.00  0.00     0.031 C 
ATOM     43  C   UNL A   1      43.728  29.107  30.255  1.00  0.00     0.029 A 
ATOM     44  C   UNL A   1      42.722  29.743  31.088  1.00  0.00     0.049 A 
ATOM     45  H   UNL A   1      40.778  30.264  30.366  1.00  0.00     0.167 HD
ATOM     46  C   UNL A   1      43.232  23.792  28.129  1.00  0.00     0.037 A 
ATOM     47  C   UNL A   1      42.687  29.638  32.452  1.00  0.00     0.037 A 
ATOM     48  C   UNL A   1      44.209  24.314  29.086  1.00  0.00     0.049 A 
ATOM     49  C   UNL A   1      43.389  28.414  32.997  1.00  0.00     0.074 A 
ATOM     50  C   UNL A   1      45.272  25.193  28.953  1.00  0.00     0.029 A 
ATOM     51  N   UNL A   1      43.963  24.199  30.451  1.00  0.00    -0.354 N 
ATOM     52  N   UNL A   1      43.765  27.398  32.271  1.00  0.00    -0.248 NA
ATOM     53  C   UNL A   1      43.697  28.231  34.413  1.00  0.00     0.031 C 
ATOM     54  C   UNL A   1      45.601  25.679  30.244  1.00  0.00     0.029 A 
ATOM     55  C   UNL A   1      44.760  25.076  31.164  1.00  0.00     0.049 A 
ATOM     56  H   UNL A   1      43.313  23.578  30.853  1.00  0.00     0.167 HD
ATOM     57  C   UNL A   1      44.270  26.418  33.084  1.00  0.00     0.074 A 
ATOM     58  C   UNL A   1      44.249  27.005  34.410  1.00  0.00     0.031 C 
ATOM     59  C   UNL A   1      44.639  25.191  32.610  1.00  0.00     0.037 A 
BRANCH  46  60
ATOM     60  C   UNL A   1      43.577  22.809  27.020  1.00  0.00     0.058 A 
ATOM     61  C   UNL A   1      42.906  21.567  26.928  1.00  0.00     0.135 A 
ATOM     62  C   UNL A   1      44.599  22.981  26.064  1.00  0.00     0.135 A 
ATOM     63  F   UNL A   1      41.840  21.288  27.691  1.00  0.00    -0.206 F 
ATOM     64  C   UNL A   1      43.296  20.547  26.055  1.00  0.00     0.059 A 
ATOM     65  C   UNL A   1      45.048  21.957  25.223  1.00  0.00     0.059 A 
ATOM     66  F   UNL A   1      45.168  24.173  25.853  1.00  0.00    -0.206 F 
ATOM     67  C   UNL A   1      44.397  20.735  25.232  1.00  0.00     0.060 A 
BRANCH  67  68
ATOM     68  S   UNL A   1      44.942  19.384  24.171  1.00  0.00     0.124 S 
ATOM     69  O   UNL A   1      46.384  19.377  24.396  1.00  0.00    -0.237 OA
ATOM     70  O   UNL A   1      44.207  18.250  24.721  1.00  0.00    -0.237 OA
ATOM     71  O   UNL A   1      44.529  19.810  22.836  1.00  0.00    -0.744 OA
ENDBRANCH  67  68
ENDBRANCH  46  60
BRANCH  47  72
ATOM     72  C   UNL A   1      41.482  30.271  33.053  1.00  0.00     0.058 A 
ATOM     73  C   UNL A   1      41.497  31.670  33.201  1.00  0.00     0.135 A 
ATOM     74  C   UNL A   1      40.234  29.632  33.017  1.00  0.00     0.135 A 
ATOM     75  F   UNL A   1      42.667  32.326  33.271  1.00  0.00    -0.206 F 
ATOM     76  C   UNL A   1      40.332  32.422  33.115  1.00  0.00     0.059 A 
ATOM     77  C   UNL A   1      39.051  30.367  32.936  1.00  0.00     0.059 A 
ATOM     78  F   UNL A   1      40.160  28.299  32.886  1.00  0.00    -0.206 F 
ATOM     79  C   UNL A   1      39.126  31.760  32.900  1.00  0.00     0.060 A 
BRANCH  79  80
ATOM     80  S   UNL A   1      37.721  32.751  32.338  1.00  0.00     0.124 S 
ATOM     81  O   UNL A   1      38.249  33.368  31.125  1.00  0.00    -0.237 OA
ATOM     82  O   UNL A   1      36.711  31.715  32.131  1.00  0.00    -0.237 OA
ATOM     83  O   UNL A   1      37.480  33.656  33.455  1.00  0.00    -0.744 OA
ENDBRANCH  79  80
ENDBRANCH  47  72
BRANCH  59  84
ATOM     84  C   UNL A   1      44.998  24.017  33.483  1.00  0.00     0.058 A 
ATOM     85  C   UNL A   1      44.091  23.002  33.831  1.00  0.00     0.135 A 
ATOM     86  C   UNL A   1      46.333  23.821  33.903  1.00  0.00     0.135 A 
ATOM     87  F   UNL A   1      42.825  23.018  33.386  1.00  0.00    -0.206 F 
ATOM     88  C   UNL A   1      44.458  21.912  34.621  1.00  0.00     0.059 A 
ATOM     89  C   UNL A   1      46.732  22.716  34.648  1.00  0.00     0.059 A 
ATOM     90  F   UNL A   1      47.295  24.705  33.596  1.00  0.00    -0.206 F 
ATOM     91  C   UNL A   1      45.780  21.782  35.034  1.00  0.00     0.060 A 
BRANCH  91  92
ATOM     92  S   UNL A   1      46.268  20.371  36.042  1.00  0.00     0.124 S 
ATOM     93  O   UNL A   1      45.646  19.268  35.316  1.00  0.00    -0.237 OA
ATOM     94  O   UNL A   1      47.726  20.419  35.989  1.00  0.00    -0.237 OA
ATOM     95  O   UNL A   1      45.686  20.679  37.345  1.00  0.00    -0.744 OA
ENDBRANCH  91  92
ENDBRANCH  59  84
ENDBRANCH  33  34
ENDBRANCH  25  28
ENDBRANCH  23  24
ENDBRANCH   1  23
TORSDOF 16
ENDMDL
MODEL 3
REMARK VINA RESULT:     -13.5      5.205     11.585
REMARK SMILES Cc1ccccc1N[C@H](C(=O)NCCCNC(=O)c1ccc(-c2c3nc(c(-c4c(F)cc(S(=O)(=O)[O-])cc4F)c4ccc([nH]4)c(-c4c(F)cc(S(=O)(=O)[O-])cc4F)c4nc(c(-c5c(F)cc(S(=O)(=O)[O-])cc5F)c5ccc2[nH]5)C=C4)C=C3)cc1)c1ccccc1
REMARK SMILES IDX 14 1 13 2 12 3 10 4 11 5 9 7 8 8 7 10 1 11 2 12 3 13 4 14
REMARK SMILES IDX 6 15 5 16 85 17 86 18 90 19 87 20 89 21 88 22 15 23 16 24
REMARK SMILES IDX 17 25 18 27 19 28 20 29 84 30 21 31 83 32 22 33 23 34 24 35
REMARK SMILES IDX 77 36 25 37 82 38 76 39 78 40 26 41 81 42 75 43 74 44 27 46
REMARK SMILES IDX 61 47 40 48 60 49 41 50 44 51 59 52 79 53 42 54 43 55 58 57
REMARK SMILES IDX 80 58 45 59 28 60 29 61 38 62 30 63 31 64 37 65 39 66 32 67
REMARK SMILES IDX 33 68 34 69 35 70 36 71 62 72 63 73 72 74 64 75 65 76 71 77
REMARK SMILES IDX 73 78 66 79 67 80 68 81 69 82 70 83 46 84 47 85 56 86 48 87
REMARK SMILES IDX 49 88 55 89 57 90 50 91 51 92 52 93 53 94 54 95
REMARK H PARENT 12 6 8 9 16 26 78 45 44 56
REMARK Flexibility Score: inf
ROOT
ATOM      1  C   UNL A   1      37.558  22.429  24.919  1.00  0.00     0.042 C 
ENDROOT
BRANCH   1   2
ATOM      2  C   UNL A   1      36.666  21.254  25.272  1.00  0.00     0.117 C 
BRANCH   2   3
ATOM      3  N   UNL A   1      35.949  21.466  26.524  1.00  0.00    -0.354 N 
ATOM      4  C   UNL A   1      34.666  21.928  26.681  1.00  0.00     0.247 C 
ATOM      5  O   UNL A   1      34.207  22.010  27.826  1.00  0.00    -0.272 OA
ATOM      6  H   UNL A   1      36.441  21.254  27.351  1.00  0.00     0.163 HD
BRANCH   4   7
ATOM      7  C   UNL A   1      33.844  22.417  25.449  1.00  0.00     0.200 C 
BRANCH   7   8
ATOM      8  N   UNL A   1      32.953  21.289  25.057  1.00  0.00    -0.370 N 
ATOM      9  H   UNL A   1      32.044  21.410  25.419  1.00  0.00     0.161 HD
BRANCH   8  10
ATOM     10  C   UNL A   1      33.046  20.123  24.332  1.00  0.00     0.038 A 
ATOM     11  C   UNL A   1      31.873  21.180  22.288  1.00  0.00     0.046 C 
ATOM     12  C   UNL A   1      32.406  20.004  23.070  1.00  0.00    -0.028 A 
ATOM     13  C   UNL A   1      32.284  18.745  22.436  1.00  0.00     0.005 A 
ATOM     14  C   UNL A   1      32.858  17.608  22.986  1.00  0.00     0.000 A 
ATOM     15  C   UNL A   1      33.725  18.982  24.769  1.00  0.00     0.026 A 
ATOM     16  C   UNL A   1      33.616  17.738  24.134  1.00  0.00     0.002 A 
ENDBRANCH   8  10
ENDBRANCH   7   8
BRANCH   7  17
ATOM     17  C   UNL A   1      33.307  23.844  25.550  1.00  0.00    -0.016 A 
ATOM     18  C   UNL A   1      32.019  24.114  26.027  1.00  0.00     0.006 A 
ATOM     19  C   UNL A   1      34.096  24.952  25.170  1.00  0.00     0.006 A 
ATOM     20  C   UNL A   1      31.646  25.420  26.366  1.00  0.00     0.000 A 
ATOM     21  C   UNL A   1      33.733  26.252  25.515  1.00  0.00     0.000 A 
ATOM     22  C   UNL A   1      32.524  26.481  26.155  1.00  0.00     0.000 A 
ENDBRANCH   7  17
ENDBRANCH   4   7
ENDBRANCH   2   3
ENDBRANCH   1   2
BRANCH   1  23
ATOM     23  C   UNL A   1      37.856  23.255  26.153  1.00  0.00     0.118 C 
BRANCH  23  24
ATOM     24  N   UNL A   1      39.129  22.954  26.793  1.00  0.00    -0.352 N 
ATOM     25  C   UNL A   1      40.057  23.845  27.321  1.00  0.00     0.251 C 
ATOM     26  H   UNL A   1      39.364  22.000  26.859  1.00  0.00     0.163 HD
ATOM     27  O   UNL A   1      41.183  23.497  27.606  1.00  0.00    -0.269 OA
BRANCH  25  28
ATOM     28  C   UNL A   1      39.587  25.225  27.597  1.00  0.00     0.039 A 
ATOM     29  C   UNL A   1      40.059  26.257  26.778  1.00  0.00     0.014 A 
ATOM     30  C   UNL A   1      38.956  25.504  28.802  1.00  0.00     0.014 A 
ATOM     31  C   UNL A   1      40.089  27.560  27.273  1.00  0.00     0.010 A 
ATOM     32  C   UNL A   1      39.125  26.758  29.346  1.00  0.00     0.010 A 
ATOM     33  C   UNL A   1      39.717  27.784  28.597  1.00  0.00    -0.014 A 
BRANCH  33  34
ATOM     34  C   UNL A   1      39.938  29.030  29.324  1.00  0.00     0.031 A 
ATOM     35  C   UNL A   1      38.900  30.091  29.276  1.00  0.00     0.074 A 
ATOM     36  C   UNL A   1      40.996  29.150  30.155  1.00  0.00     0.049 A 
ATOM     37  N   UNL A   1      39.063  31.308  29.665  1.00  0.00    -0.248 NA
ATOM     38  C   UNL A   1      37.570  29.849  28.727  1.00  0.00     0.031 C 
ATOM     39  C   UNL A   1      41.156  30.112  31.242  1.00  0.00     0.029 A 
ATOM     40  N   UNL A   1      42.237  28.521  30.074  1.00  0.00    -0.354 N 
ATOM     41  C   UNL A   1      37.830  31.928  29.672  1.00  0.00     0.074 A 
ATOM     42  C   UNL A   1      36.940  30.981  29.046  1.00  0.00     0.031 C 
ATOM     43  C   UNL A   1      42.452  30.178  31.585  1.00  0.00     0.029 A 
ATOM     44  C   UNL A   1      43.198  29.390  30.620  1.00  0.00     0.049 A 
ATOM     45  H   UNL A   1      42.409  27.627  29.701  1.00  0.00     0.167 HD
ATOM     46  C   UNL A   1      37.686  33.126  30.313  1.00  0.00     0.037 A 
ATOM     47  C   UNL A   1      44.206  29.894  29.843  1.00  0.00     0.037 A 
ATOM     48  C   UNL A   1      38.988  33.625  30.760  1.00  0.00     0.049 A 
ATOM     49  C   UNL A   1      44.138  31.391  29.637  1.00  0.00     0.074 A 
ATOM     50  C   UNL A   1      39.651  33.555  31.974  1.00  0.00     0.029 A 
ATOM     51  N   UNL A   1      39.935  34.015  29.817  1.00  0.00    -0.354 N 
ATOM     52  N   UNL A   1      43.099  32.127  29.921  1.00  0.00    -0.248 NA
ATOM     53  C   UNL A   1      45.233  32.173  29.067  1.00  0.00     0.031 C 
ATOM     54  C   UNL A   1      41.026  33.811  31.738  1.00  0.00     0.029 A 
ATOM     55  C   UNL A   1      41.195  34.066  30.387  1.00  0.00     0.049 A 
ATOM     56  H   UNL A   1      39.736  34.225  28.876  1.00  0.00     0.167 HD
ATOM     57  C   UNL A   1      43.326  33.415  29.517  1.00  0.00     0.074 A 
ATOM     58  C   UNL A   1      44.693  33.403  29.030  1.00  0.00     0.031 C 
ATOM     59  C   UNL A   1      42.366  34.384  29.584  1.00  0.00     0.037 A 
BRANCH  46  60
ATOM     60  C   UNL A   1      36.356  33.692  30.785  1.00  0.00     0.058 A 
ATOM     61  C   UNL A   1      35.423  34.206  29.854  1.00  0.00     0.135 A 
ATOM     62  C   UNL A   1      35.959  33.834  32.131  1.00  0.00     0.135 A 
ATOM     63  F   UNL A   1      35.597  34.054  28.534  1.00  0.00    -0.206 F 
ATOM     64  C   UNL A   1      34.271  34.904  30.227  1.00  0.00     0.059 A 
ATOM     65  C   UNL A   1      34.845  34.580  32.532  1.00  0.00     0.059 A 
ATOM     66  F   UNL A   1      36.597  33.199  33.120  1.00  0.00    -0.206 F 
ATOM     67  C   UNL A   1      34.009  35.123  31.571  1.00  0.00     0.060 A 
BRANCH  67  68
ATOM     68  S   UNL A   1      32.566  36.096  32.038  1.00  0.00     0.124 S 
ATOM     69  O   UNL A   1      32.189  36.716  30.772  1.00  0.00    -0.237 OA
ATOM     70  O   UNL A   1      31.657  35.071  32.539  1.00  0.00    -0.237 OA
ATOM     71  O   UNL A   1      33.087  37.017  33.045  1.00  0.00    -0.744 OA
ENDBRANCH  67  68
ENDBRANCH  46  60
BRANCH  47  72
ATOM     72  C   UNL A   1      44.716  28.916  28.844  1.00  0.00     0.058 A 
ATOM     73  C   UNL A   1      44.260  29.053  27.520  1.00  0.00     0.135 A 
ATOM     74  C   UNL A   1      45.922  28.231  29.053  1.00  0.00     0.135 A 
ATOM     75  F   UNL A   1      43.096  29.675  27.271  1.00  0.00    -0.206 F 
ATOM     76  C   UNL A   1      45.059  28.705  26.438  1.00  0.00     0.059 A 
ATOM     77  C   UNL A   1      46.737  27.867  27.981  1.00  0.00     0.059 A 
ATOM     78  F   UNL A   1      46.399  28.063  30.295  1.00  0.00    -0.206 F 
ATOM     79  C   UNL A   1      46.329  28.189  26.685  1.00  0.00     0.060 A 
BRANCH  79  80
ATOM     80  S   UNL A   1      47.505  28.179  25.311  1.00  0.00     0.124 S 
ATOM     81  O   UNL A   1      48.589  29.007  25.832  1.00  0.00    -0.237 OA
ATOM     82  O   UNL A   1      47.798  26.751  25.203  1.00  0.00    -0.237 OA
ATOM     83  O   UNL A   1      46.741  28.754  24.211  1.00  0.00    -0.744 OA
ENDBRANCH  79  80
ENDBRANCH  47  72
BRANCH  59  84
ATOM     84  C   UNL A   1      42.495  35.750  28.964  1.00  0.00     0.058 A 
ATOM     85  C   UNL A   1      41.791  36.152  27.816  1.00  0.00     0.135 A 
ATOM     86  C   UNL A   1      43.262  36.754  29.598  1.00  0.00     0.135 A 
ATOM     87  F   UNL A   1      40.937  35.321  27.199  1.00  0.00    -0.206 F 
ATOM     88  C   UNL A   1      41.911  37.433  27.277  1.00  0.00     0.059 A 
ATOM     89  C   UNL A   1      43.355  38.053  29.107  1.00  0.00     0.059 A 
ATOM     90  F   UNL A   1      43.947  36.498  30.724  1.00  0.00    -0.206 F 
ATOM     91  C   UNL A   1      42.703  38.375  27.924  1.00  0.00     0.060 A 
BRANCH  91  92
ATOM     92  S   UNL A   1      42.853  40.037  27.245  1.00  0.00     0.124 S 
ATOM     93  O   UNL A   1      43.930  39.858  26.277  1.00  0.00    -0.237 OA
ATOM     94  O   UNL A   1      41.529  40.279  26.678  1.00  0.00    -0.237 OA
ATOM     95  O   UNL A   1      43.181  40.845  28.416  1.00  0.00    -0.744 OA
ENDBRANCH  91  92
ENDBRANCH  59  84
ENDBRANCH  33  34
ENDBRANCH  25  28
ENDBRANCH  23  24
ENDBRANCH   1  23
TORSDOF 16
ENDMDL
