MODEL 1
REMARK VINA RESULT:     -12.0      0.000      0.000
REMARK SMILES O=C(/C=C/C(=O)NNC(=O)CSc1ccc2ccccc2n1)NCCCNC(=O)c1ccc(-c2c3nc(c(-c4c(F)cc(S(=O)(=O)[O-])cc4F)c4ccc([nH]4)c(-c4c(F)cc(S(=O)(=O)[O-])cc4F)c4nc(c(-c5c(F)cc(S(=O)(=O)[O-])cc5F)c5ccc2[nH]5)C=C4)C=C3)cc1
REMARK SMILES IDX 24 1 23 2 1 3 2 4 3 6 4 7 5 8 6 9 7 10 8 12 9 13 10 15 11 16
REMARK SMILES IDX 12 17 13 18 14 19 22 20 15 21 21 22 16 23 20 24 17 25 19 26
REMARK SMILES IDX 18 27 25 28 26 29 27 30 28 31 29 33 30 34 31 35 95 36 32 37
REMARK SMILES IDX 94 38 33 39 34 40 35 41 88 42 36 43 93 44 87 45 89 46 37 47
REMARK SMILES IDX 92 48 86 49 85 50 38 52 72 53 51 54 71 55 52 56 55 57 70 58
REMARK SMILES IDX 90 59 53 60 54 61 69 63 91 64 56 65 39 66 40 67 49 68 41 69
REMARK SMILES IDX 42 70 48 71 50 72 43 73 44 74 45 75 46 76 47 77 73 78 74 79
REMARK SMILES IDX 83 80 75 81 76 82 82 83 84 84 77 85 78 86 79 87 80 88 81 89
REMARK SMILES IDX 57 90 58 91 67 92 59 93 60 94 66 95 68 96 61 97 62 98 63 99
REMARK SMILES IDX 64 100 65 101
REMARK H PARENT 23 5 7 11 8 14 27 32 89 51 55 62
REMARK Flexibility Score: inf
ROOT
ATOM      1  C   UNL A   1      33.561  30.736  27.044  1.00  0.00     0.118 C 
ENDROOT
BRANCH   1   2
ATOM      2  N   UNL A   1      32.358  30.068  26.583  1.00  0.00    -0.352 N 
ATOM      3  O   UNL A   1      33.200  29.408  24.541  1.00  0.00    -0.270 OA
ATOM      4  C   UNL A   1      32.301  29.437  25.368  1.00  0.00     0.244 C 
ATOM      5  H   UNL A   1      31.560  30.068  27.161  1.00  0.00     0.163 HD
BRANCH   4   6
ATOM      6  C   UNL A   1      31.066  28.659  25.128  1.00  0.00     0.077 C 
ATOM      7  C   UNL A   1      31.101  27.384  24.725  1.00  0.00     0.078 C 
BRANCH   7   8
ATOM      8  C   UNL A   1      29.896  26.565  24.463  1.00  0.00     0.262 C 
ATOM      9  O   UNL A   1      29.229  26.812  23.460  1.00  0.00    -0.268 OA
ATOM     10  N   UNL A   1      29.564  25.509  25.271  1.00  0.00    -0.264 N 
ATOM     11  H   UNL A   1      28.771  24.986  25.011  1.00  0.00     0.191 HD
BRANCH  10  12
ATOM     12  N   UNL A   1      30.235  25.103  26.421  1.00  0.00    -0.267 N 
ATOM     13  C   UNL A   1      31.137  24.067  26.461  1.00  0.00     0.248 C 
ATOM     14  H   UNL A   1      30.052  25.589  27.258  1.00  0.00     0.191 HD
ATOM     15  O   UNL A   1      31.503  23.625  27.554  1.00  0.00    -0.272 OA
BRANCH  13  16
ATOM     16  C   UNL A   1      31.771  23.566  25.179  1.00  0.00     0.178 C 
BRANCH  16  17
ATOM     17  S   UNL A   1      32.008  21.772  25.105  1.00  0.00    -0.096 SA
BRANCH  17  18
ATOM     18  C   UNL A   1      33.779  21.629  25.095  1.00  0.00     0.097 A 
ATOM     19  C   UNL A   1      34.434  20.433  24.844  1.00  0.00     0.036 A 
ATOM     20  N   UNL A   1      34.431  22.757  25.454  1.00  0.00    -0.241 NA
ATOM     21  C   UNL A   1      35.820  20.394  24.973  1.00  0.00     0.013 A 
ATOM     22  C   UNL A   1      35.767  22.717  25.592  1.00  0.00     0.072 A 
ATOM     23  C   UNL A   1      36.516  21.544  25.365  1.00  0.00     0.000 A 
ATOM     24  C   UNL A   1      36.444  23.862  25.990  1.00  0.00     0.029 A 
ATOM     25  C   UNL A   1      37.911  21.550  25.545  1.00  0.00     0.010 A 
ATOM     26  C   UNL A   1      37.830  23.871  26.173  1.00  0.00     0.002 A 
ATOM     27  C   UNL A   1      38.565  22.712  25.951  1.00  0.00     0.001 A 
ENDBRANCH  17  18
ENDBRANCH  16  17
ENDBRANCH  13  16
ENDBRANCH  10  12
ENDBRANCH   7   8
ENDBRANCH   4   6
ENDBRANCH   1   2
BRANCH   1  28
ATOM     28  C   UNL A   1      34.750  29.796  27.202  1.00  0.00     0.042 C 
BRANCH  28  29
ATOM     29  C   UNL A   1      35.170  29.540  28.647  1.00  0.00     0.118 C 
BRANCH  29  30
ATOM     30  N   UNL A   1      35.401  30.761  29.408  1.00  0.00    -0.352 N 
ATOM     31  C   UNL A   1      36.566  31.266  29.939  1.00  0.00     0.251 C 
ATOM     32  H   UNL A   1      34.599  31.310  29.567  1.00  0.00     0.163 HD
ATOM     33  O   UNL A   1      36.526  32.251  30.665  1.00  0.00    -0.269 OA
BRANCH  31  34
ATOM     34  C   UNL A   1      37.859  30.601  29.661  1.00  0.00     0.039 A 
ATOM     35  C   UNL A   1      38.204  30.319  28.336  1.00  0.00     0.014 A 
ATOM     36  C   UNL A   1      38.730  30.264  30.699  1.00  0.00     0.014 A 
ATOM     37  C   UNL A   1      39.462  29.783  28.045  1.00  0.00     0.010 A 
ATOM     38  C   UNL A   1      40.006  29.794  30.403  1.00  0.00     0.010 A 
ATOM     39  C   UNL A   1      40.392  29.561  29.073  1.00  0.00    -0.014 A 
BRANCH  39  40
ATOM     40  C   UNL A   1      41.781  29.112  28.793  1.00  0.00     0.031 A 
ATOM     41  C   UNL A   1      42.903  30.111  28.768  1.00  0.00     0.074 A 
ATOM     42  C   UNL A   1      42.010  27.825  28.457  1.00  0.00     0.049 A 
ATOM     43  N   UNL A   1      44.144  29.949  28.387  1.00  0.00    -0.248 NA
ATOM     44  C   UNL A   1      42.580  31.479  29.200  1.00  0.00     0.031 C 
ATOM     45  C   UNL A   1      40.998  26.768  28.410  1.00  0.00     0.029 A 
ATOM     46  N   UNL A   1      43.165  27.194  28.067  1.00  0.00    -0.354 N 
ATOM     47  C   UNL A   1      44.743  31.198  28.510  1.00  0.00     0.074 A 
ATOM     48  C   UNL A   1      43.718  32.114  28.963  1.00  0.00     0.031 C 
ATOM     49  C   UNL A   1      41.576  25.621  28.021  1.00  0.00     0.029 A 
ATOM     50  C   UNL A   1      42.988  25.869  27.745  1.00  0.00     0.049 A 
ATOM     51  H   UNL A   1      44.038  27.648  28.021  1.00  0.00     0.167 HD
ATOM     52  C   UNL A   1      46.031  31.543  28.280  1.00  0.00     0.037 A 
ATOM     53  C   UNL A   1      43.858  24.959  27.262  1.00  0.00     0.037 A 
ATOM     54  C   UNL A   1      47.052  30.619  27.858  1.00  0.00     0.049 A 
ATOM     55  C   UNL A   1      45.284  25.367  27.012  1.00  0.00     0.074 A 
ATOM     56  C   UNL A   1      48.399  30.862  27.648  1.00  0.00     0.029 A 
ATOM     57  N   UNL A   1      46.840  29.276  27.583  1.00  0.00    -0.354 N 
ATOM     58  N   UNL A   1      45.844  26.542  27.176  1.00  0.00    -0.248 NA
ATOM     59  C   UNL A   1      46.199  24.329  26.515  1.00  0.00     0.031 C 
ATOM     60  C   UNL A   1      48.993  29.674  27.211  1.00  0.00     0.029 A 
ATOM     61  C   UNL A   1      48.028  28.680  27.193  1.00  0.00     0.049 A 
ATOM     62  H   UNL A   1      45.973  28.815  27.654  1.00  0.00     0.167 HD
ATOM     63  C   UNL A   1      47.182  26.376  26.835  1.00  0.00     0.074 A 
ATOM     64  C   UNL A   1      47.349  24.988  26.456  1.00  0.00     0.031 C 
ATOM     65  C   UNL A   1      48.182  27.290  26.842  1.00  0.00     0.037 A 
BRANCH  52  66
ATOM     66  C   UNL A   1      46.414  32.984  28.481  1.00  0.00     0.058 A 
ATOM     67  C   UNL A   1      46.360  33.914  27.431  1.00  0.00     0.135 A 
ATOM     68  C   UNL A   1      46.807  33.449  29.747  1.00  0.00     0.135 A 
ATOM     69  F   UNL A   1      46.006  33.521  26.198  1.00  0.00    -0.206 F 
ATOM     70  C   UNL A   1      46.712  35.247  27.620  1.00  0.00     0.059 A 
ATOM     71  C   UNL A   1      47.136  34.783  29.967  1.00  0.00     0.059 A 
ATOM     72  F   UNL A   1      46.875  32.602  30.788  1.00  0.00    -0.206 F 
ATOM     73  C   UNL A   1      47.101  35.671  28.892  1.00  0.00     0.060 A 
BRANCH  73  74
ATOM     74  S   UNL A   1      47.552  37.403  29.122  1.00  0.00     0.124 S 
ATOM     75  O   UNL A   1      46.481  37.867  29.999  1.00  0.00    -0.237 OA
ATOM     76  O   UNL A   1      48.874  37.305  29.734  1.00  0.00    -0.237 OA
ATOM     77  O   UNL A   1      47.532  37.944  27.767  1.00  0.00    -0.744 OA
ENDBRANCH  73  74
ENDBRANCH  52  66
BRANCH  53  78
ATOM     78  C   UNL A   1      43.406  23.568  26.996  1.00  0.00     0.058 A 
ATOM     79  C   UNL A   1      43.153  23.133  25.687  1.00  0.00     0.135 A 
ATOM     80  C   UNL A   1      43.235  22.642  28.037  1.00  0.00     0.135 A 
ATOM     81  F   UNL A   1      43.296  23.982  24.659  1.00  0.00    -0.206 F 
ATOM     82  C   UNL A   1      42.732  21.834  25.418  1.00  0.00     0.059 A 
ATOM     83  C   UNL A   1      42.838  21.330  27.792  1.00  0.00     0.059 A 
ATOM     84  F   UNL A   1      43.481  23.003  29.306  1.00  0.00    -0.206 F 
ATOM     85  C   UNL A   1      42.580  20.939  26.479  1.00  0.00     0.060 A 
BRANCH  85  86
ATOM     86  S   UNL A   1      42.079  19.242  26.114  1.00  0.00     0.124 S 
ATOM     87  O   UNL A   1      42.481  18.549  27.333  1.00  0.00    -0.237 OA
ATOM     88  O   UNL A   1      40.642  19.384  25.902  1.00  0.00    -0.237 OA
ATOM     89  O   UNL A   1      42.852  18.917  24.918  1.00  0.00    -0.744 OA
ENDBRANCH  85  86
ENDBRANCH  53  78
BRANCH  65  90
ATOM     90  C   UNL A   1      49.563  26.821  26.481  1.00  0.00     0.058 A 
ATOM     91  C   UNL A   1      50.385  26.159  27.404  1.00  0.00     0.135 A 
ATOM     92  C   UNL A   1      50.031  26.959  25.163  1.00  0.00     0.135 A 
ATOM     93  F   UNL A   1      49.987  26.009  28.677  1.00  0.00    -0.206 F 
ATOM     94  C   UNL A   1      51.628  25.652  27.035  1.00  0.00     0.059 A 
ATOM     95  C   UNL A   1      51.259  26.439  24.766  1.00  0.00     0.059 A 
ATOM     96  F   UNL A   1      49.279  27.578  24.240  1.00  0.00    -0.206 F 
ATOM     97  C   UNL A   1      52.052  25.790  25.711  1.00  0.00     0.060 A 
BRANCH  97  98
ATOM     98  S   UNL A   1      53.634  25.065  25.228  1.00  0.00     0.124 S 
ATOM     99  O   UNL A   1      53.807  25.606  23.884  1.00  0.00    -0.237 OA
ATOM    100  O   UNL A   1      54.542  25.591  26.244  1.00  0.00    -0.237 OA
ATOM    101  O   UNL A   1      53.386  23.629  25.300  1.00  0.00    -0.744 OA
ENDBRANCH  97  98
ENDBRANCH  65  90
ENDBRANCH  39  40
ENDBRANCH  31  34
ENDBRANCH  29  30
ENDBRANCH  28  29
ENDBRANCH   1  28
TORSDOF 18
ENDMDL
MODEL 2
REMARK VINA RESULT:     -12.0      6.220     11.970
REMARK SMILES O=C(/C=C/C(=O)NNC(=O)CSc1ccc2ccccc2n1)NCCCNC(=O)c1ccc(-c2c3nc(c(-c4c(F)cc(S(=O)(=O)[O-])cc4F)c4ccc([nH]4)c(-c4c(F)cc(S(=O)(=O)[O-])cc4F)c4nc(c(-c5c(F)cc(S(=O)(=O)[O-])cc5F)c5ccc2[nH]5)C=C4)C=C3)cc1
REMARK SMILES IDX 24 1 23 2 1 3 2 4 3 6 4 7 5 8 6 9 7 10 8 12 9 13 10 15 11 16
REMARK SMILES IDX 12 17 13 18 14 19 22 20 15 21 21 22 16 23 20 24 17 25 19 26
REMARK SMILES IDX 18 27 25 28 26 29 27 30 28 31 29 33 30 34 31 35 95 36 32 37
REMARK SMILES IDX 94 38 33 39 34 40 35 41 88 42 36 43 93 44 87 45 89 46 37 47
REMARK SMILES IDX 92 48 86 49 85 50 38 52 72 53 51 54 71 55 52 56 55 57 70 58
REMARK SMILES IDX 90 59 53 60 54 61 69 63 91 64 56 65 39 66 40 67 49 68 41 69
REMARK SMILES IDX 42 70 48 71 50 72 43 73 44 74 45 75 46 76 47 77 73 78 74 79
REMARK SMILES IDX 83 80 75 81 76 82 82 83 84 84 77 85 78 86 79 87 80 88 81 89
REMARK SMILES IDX 57 90 58 91 67 92 59 93 60 94 66 95 68 96 61 97 62 98 63 99
REMARK SMILES IDX 64 100 65 101
REMARK H PARENT 23 5 7 11 8 14 27 32 89 51 55 62
REMARK Flexibility Score: inf
ROOT
ATOM      1  C   UNL A   1      38.107  21.764  25.647  1.00  0.00     0.118 C 
ENDROOT
BRANCH   1   2
ATOM      2  N   UNL A   1      36.729  21.554  25.246  1.00  0.00    -0.352 N 
ATOM      3  O   UNL A   1      36.893  19.274  24.951  1.00  0.00    -0.270 OA
ATOM      4  C   UNL A   1      36.241  20.307  24.957  1.00  0.00     0.244 C 
ATOM      5  H   UNL A   1      36.126  22.331  25.180  1.00  0.00     0.163 HD
BRANCH   4   6
ATOM      6  C   UNL A   1      34.779  20.246  24.737  1.00  0.00     0.077 C 
ATOM      7  C   UNL A   1      34.047  21.349  24.545  1.00  0.00     0.078 C 
BRANCH   7   8
ATOM      8  C   UNL A   1      32.582  21.344  24.330  1.00  0.00     0.262 C 
ATOM      9  O   UNL A   1      31.878  20.720  25.121  1.00  0.00    -0.268 OA
ATOM     10  N   UNL A   1      32.009  22.071  23.320  1.00  0.00    -0.264 N 
ATOM     11  H   UNL A   1      31.027  22.051  23.263  1.00  0.00     0.191 HD
BRANCH  10  12
ATOM     12  N   UNL A   1      32.678  22.836  22.367  1.00  0.00    -0.267 N 
ATOM     13  C   UNL A   1      32.719  24.210  22.374  1.00  0.00     0.248 C 
ATOM     14  H   UNL A   1      33.150  22.363  21.645  1.00  0.00     0.191 HD
ATOM     15  O   UNL A   1      33.128  24.808  21.374  1.00  0.00    -0.272 OA
BRANCH  13  16
ATOM     16  C   UNL A   1      32.391  24.971  23.643  1.00  0.00     0.178 C 
BRANCH  16  17
ATOM     17  S   UNL A   1      33.824  25.375  24.673  1.00  0.00    -0.096 SA
BRANCH  17  18
ATOM     18  C   UNL A   1      33.332  26.914  25.412  1.00  0.00     0.097 A 
ATOM     19  C   UNL A   1      32.103  27.506  25.166  1.00  0.00     0.036 A 
ATOM     20  N   UNL A   1      34.295  27.509  26.151  1.00  0.00    -0.241 NA
ATOM     21  C   UNL A   1      31.856  28.769  25.698  1.00  0.00     0.013 A 
ATOM     22  C   UNL A   1      34.061  28.733  26.653  1.00  0.00     0.072 A 
ATOM     23  C   UNL A   1      32.845  29.415  26.449  1.00  0.00     0.000 A 
ATOM     24  C   UNL A   1      35.054  29.366  27.388  1.00  0.00     0.029 A 
ATOM     25  C   UNL A   1      32.659  30.705  26.979  1.00  0.00     0.010 A 
ATOM     26  C   UNL A   1      34.875  30.650  27.914  1.00  0.00     0.002 A 
ATOM     27  C   UNL A   1      33.675  31.321  27.707  1.00  0.00     0.001 A 
ENDBRANCH  17  18
ENDBRANCH  16  17
ENDBRANCH  13  16
ENDBRANCH  10  12
ENDBRANCH   7   8
ENDBRANCH   4   6
ENDBRANCH   1   2
BRANCH   1  28
ATOM     28  C   UNL A   1      38.354  23.134  26.267  1.00  0.00     0.042 C 
BRANCH  28  29
ATOM     29  C   UNL A   1      39.655  23.251  27.056  1.00  0.00     0.118 C 
BRANCH  29  30
ATOM     30  N   UNL A   1      40.804  23.598  26.229  1.00  0.00    -0.352 N 
ATOM     31  C   UNL A   1      41.544  24.758  26.185  1.00  0.00     0.251 C 
ATOM     32  H   UNL A   1      41.096  22.894  25.606  1.00  0.00     0.163 HD
ATOM     33  O   UNL A   1      42.398  24.901  25.319  1.00  0.00    -0.269 OA
BRANCH  31  34
ATOM     34  C   UNL A   1      41.287  25.841  27.160  1.00  0.00     0.039 A 
ATOM     35  C   UNL A   1      40.321  25.645  28.152  1.00  0.00     0.014 A 
ATOM     36  C   UNL A   1      41.999  27.041  27.103  1.00  0.00     0.014 A 
ATOM     37  C   UNL A   1      40.135  26.615  29.141  1.00  0.00     0.010 A 
ATOM     38  C   UNL A   1      41.860  27.975  28.125  1.00  0.00     0.010 A 
ATOM     39  C   UNL A   1      40.938  27.767  29.163  1.00  0.00    -0.014 A 
BRANCH  39  40
ATOM     40  C   UNL A   1      40.856  28.760  30.266  1.00  0.00     0.031 A 
ATOM     41  C   UNL A   1      41.743  28.618  31.471  1.00  0.00     0.074 A 
ATOM     42  C   UNL A   1      39.913  29.724  30.227  1.00  0.00     0.049 A 
ATOM     43  N   UNL A   1      41.712  29.277  32.601  1.00  0.00    -0.248 NA
ATOM     44  C   UNL A   1      42.780  27.578  31.410  1.00  0.00     0.031 C 
ATOM     45  C   UNL A   1      38.970  29.943  29.129  1.00  0.00     0.029 A 
ATOM     46  N   UNL A   1      39.575  30.683  31.149  1.00  0.00    -0.354 N 
ATOM     47  C   UNL A   1      42.707  28.716  33.393  1.00  0.00     0.074 A 
ATOM     48  C   UNL A   1      43.297  27.637  32.629  1.00  0.00     0.031 C 
ATOM     49  C   UNL A   1      38.167  30.974  29.437  1.00  0.00     0.029 A 
ATOM     50  C   UNL A   1      38.504  31.459  30.771  1.00  0.00     0.049 A 
ATOM     51  H   UNL A   1      40.055  30.805  32.001  1.00  0.00     0.167 HD
ATOM     52  C   UNL A   1      43.102  29.077  34.637  1.00  0.00     0.037 A 
ATOM     53  C   UNL A   1      37.852  32.437  31.432  1.00  0.00     0.037 A 
ATOM     54  C   UNL A   1      42.530  30.171  35.379  1.00  0.00     0.049 A 
ATOM     55  C   UNL A   1      38.307  32.819  32.814  1.00  0.00     0.074 A 
ATOM     56  C   UNL A   1      42.896  30.649  36.625  1.00  0.00     0.029 A 
ATOM     57  N   UNL A   1      41.474  30.958  34.943  1.00  0.00    -0.354 N 
ATOM     58  N   UNL A   1      39.279  32.307  33.531  1.00  0.00    -0.248 NA
ATOM     59  C   UNL A   1      37.582  33.912  33.478  1.00  0.00     0.031 C 
ATOM     60  C   UNL A   1      42.038  31.701  36.959  1.00  0.00     0.029 A 
ATOM     61  C   UNL A   1      41.167  31.909  35.901  1.00  0.00     0.049 A 
ATOM     62  H   UNL A   1      41.011  30.855  34.080  1.00  0.00     0.167 HD
ATOM     63  C   UNL A   1      39.304  33.038  34.714  1.00  0.00     0.074 A 
ATOM     64  C   UNL A   1      38.250  34.027  34.618  1.00  0.00     0.031 C 
ATOM     65  C   UNL A   1      40.130  32.904  35.780  1.00  0.00     0.037 A 
BRANCH  52  66
ATOM     66  C   UNL A   1      44.208  28.283  35.276  1.00  0.00     0.058 A 
ATOM     67  C   UNL A   1      45.557  28.631  35.106  1.00  0.00     0.135 A 
ATOM     68  C   UNL A   1      43.914  27.184  36.099  1.00  0.00     0.135 A 
ATOM     69  F   UNL A   1      45.895  29.664  34.319  1.00  0.00    -0.206 F 
ATOM     70  C   UNL A   1      46.578  27.897  35.701  1.00  0.00     0.059 A 
ATOM     71  C   UNL A   1      44.917  26.452  36.727  1.00  0.00     0.059 A 
ATOM     72  F   UNL A   1      42.640  26.808  36.298  1.00  0.00    -0.206 F 
ATOM     73  C   UNL A   1      46.248  26.808  36.509  1.00  0.00     0.060 A 
BRANCH  73  74
ATOM     74  S   UNL A   1      47.583  25.866  37.275  1.00  0.00     0.124 S 
ATOM     75  O   UNL A   1      48.555  26.920  37.557  1.00  0.00    -0.237 OA
ATOM     76  O   UNL A   1      46.927  25.283  38.441  1.00  0.00    -0.237 OA
ATOM     77  O   UNL A   1      47.971  24.917  36.238  1.00  0.00    -0.744 OA
ENDBRANCH  73  74
ENDBRANCH  52  66
BRANCH  53  78
ATOM     78  C   UNL A   1      36.706  33.132  30.787  1.00  0.00     0.058 A 
ATOM     79  C   UNL A   1      35.388  32.869  31.191  1.00  0.00     0.135 A 
ATOM     80  C   UNL A   1      36.902  34.081  29.773  1.00  0.00     0.135 A 
ATOM     81  F   UNL A   1      35.149  31.966  32.153  1.00  0.00    -0.206 F 
ATOM     82  C   UNL A   1      34.304  33.511  30.602  1.00  0.00     0.059 A 
ATOM     83  C   UNL A   1      35.835  34.755  29.184  1.00  0.00     0.059 A 
ATOM     84  F   UNL A   1      38.145  34.380  29.363  1.00  0.00    -0.206 F 
ATOM     85  C   UNL A   1      34.538  34.456  29.600  1.00  0.00     0.060 A 
BRANCH  85  86
ATOM     86  S   UNL A   1      33.126  35.318  28.876  1.00  0.00     0.124 S 
ATOM     87  O   UNL A   1      32.383  35.715  30.066  1.00  0.00    -0.237 OA
ATOM     88  O   UNL A   1      33.772  36.398  28.136  1.00  0.00    -0.237 OA
ATOM     89  O   UNL A   1      32.497  34.292  28.050  1.00  0.00    -0.744 OA
ENDBRANCH  85  86
ENDBRANCH  53  78
BRANCH  65  90
ATOM     90  C   UNL A   1      39.973  33.877  36.914  1.00  0.00     0.058 A 
ATOM     91  C   UNL A   1      40.603  35.130  36.906  1.00  0.00     0.135 A 
ATOM     92  C   UNL A   1      39.106  33.582  37.980  1.00  0.00     0.135 A 
ATOM     93  F   UNL A   1      41.447  35.456  35.915  1.00  0.00    -0.206 F 
ATOM     94  C   UNL A   1      40.383  36.058  37.920  1.00  0.00     0.059 A 
ATOM     95  C   UNL A   1      38.853  34.504  38.991  1.00  0.00     0.059 A 
ATOM     96  F   UNL A   1      38.474  32.399  38.029  1.00  0.00    -0.206 F 
ATOM     97  C   UNL A   1      39.499  35.738  38.954  1.00  0.00     0.060 A 
BRANCH  97  98
ATOM     98  S   UNL A   1      39.167  36.978  40.224  1.00  0.00     0.124 S 
ATOM     99  O   UNL A   1      40.512  37.274  40.705  1.00  0.00    -0.237 OA
ATOM    100  O   UNL A   1      38.519  38.041  39.462  1.00  0.00    -0.237 OA
ATOM    101  O   UNL A   1      38.304  36.275  41.168  1.00  0.00    -0.744 OA
ENDBRANCH  97  98
ENDBRANCH  65  90
ENDBRANCH  39  40
ENDBRANCH  31  34
ENDBRANCH  29  30
ENDBRANCH  28  29
ENDBRANCH   1  28
TORSDOF 18
ENDMDL
MODEL 3
REMARK VINA RESULT:     -12.0      6.521     13.084
REMARK SMILES O=C(/C=C/C(=O)NNC(=O)CSc1ccc2ccccc2n1)NCCCNC(=O)c1ccc(-c2c3nc(c(-c4c(F)cc(S(=O)(=O)[O-])cc4F)c4ccc([nH]4)c(-c4c(F)cc(S(=O)(=O)[O-])cc4F)c4nc(c(-c5c(F)cc(S(=O)(=O)[O-])cc5F)c5ccc2[nH]5)C=C4)C=C3)cc1
REMARK SMILES IDX 24 1 23 2 1 3 2 4 3 6 4 7 5 8 6 9 7 10 8 12 9 13 10 15 11 16
REMARK SMILES IDX 12 17 13 18 14 19 22 20 15 21 21 22 16 23 20 24 17 25 19 26
REMARK SMILES IDX 18 27 25 28 26 29 27 30 28 31 29 33 30 34 31 35 95 36 32 37
REMARK SMILES IDX 94 38 33 39 34 40 35 41 88 42 36 43 93 44 87 45 89 46 37 47
REMARK SMILES IDX 92 48 86 49 85 50 38 52 72 53 51 54 71 55 52 56 55 57 70 58
REMARK SMILES IDX 90 59 53 60 54 61 69 63 91 64 56 65 39 66 40 67 49 68 41 69
REMARK SMILES IDX 42 70 48 71 50 72 43 73 44 74 45 75 46 76 47 77 73 78 74 79
REMARK SMILES IDX 83 80 75 81 76 82 82 83 84 84 77 85 78 86 79 87 80 88 81 89
REMARK SMILES IDX 57 90 58 91 67 92 59 93 60 94 66 95 68 96 61 97 62 98 63 99
REMARK SMILES IDX 64 100 65 101
REMARK H PARENT 23 5 7 11 8 14 27 32 89 51 55 62
REMARK Flexibility Score: inf
ROOT
ATOM      1  C   UNL A   1      39.739  22.184  26.346  1.00  0.00     0.118 C 
ENDROOT
BRANCH   1   2
ATOM      2  N   UNL A   1      41.117  21.737  26.269  1.00  0.00    -0.352 N 
ATOM      3  O   UNL A   1      40.688  19.513  26.699  1.00  0.00    -0.270 OA
ATOM      4  C   UNL A   1      41.461  20.420  26.430  1.00  0.00     0.244 C 
ATOM      5  H   UNL A   1      41.825  22.399  26.094  1.00  0.00     0.163 HD
BRANCH   4   6
ATOM      6  C   UNL A   1      42.879  20.108  26.147  1.00  0.00     0.077 C 
ATOM      7  C   UNL A   1      43.239  19.025  25.448  1.00  0.00     0.078 C 
BRANCH   7   8
ATOM      8  C   UNL A   1      44.641  18.663  25.145  1.00  0.00     0.262 C 
ATOM      9  O   UNL A   1      45.140  17.711  25.742  1.00  0.00    -0.268 OA
ATOM     10  N   UNL A   1      45.351  19.319  24.174  1.00  0.00    -0.264 N 
ATOM     11  H   UNL A   1      46.265  18.997  24.001  1.00  0.00     0.191 HD
BRANCH  10  12
ATOM     12  N   UNL A   1      44.909  20.395  23.409  1.00  0.00    -0.267 N 
ATOM     13  C   UNL A   1      45.024  21.710  23.791  1.00  0.00     0.248 C 
ATOM     14  H   UNL A   1      44.489  20.202  22.540  1.00  0.00     0.191 HD
ATOM     15  O   UNL A   1      44.402  22.577  23.171  1.00  0.00    -0.272 OA
BRANCH  13  16
ATOM     16  C   UNL A   1      46.007  22.099  24.877  1.00  0.00     0.178 C 
BRANCH  16  17
ATOM     17  S   UNL A   1      46.540  23.829  24.829  1.00  0.00    -0.096 SA
BRANCH  17  18
ATOM     18  C   UNL A   1      46.012  24.429  26.415  1.00  0.00     0.097 A 
ATOM     19  C   UNL A   1      46.433  25.643  26.937  1.00  0.00     0.036 A 
ATOM     20  N   UNL A   1      45.250  23.559  27.114  1.00  0.00    -0.241 NA
ATOM     21  C   UNL A   1      46.058  25.973  28.237  1.00  0.00     0.013 A 
ATOM     22  C   UNL A   1      44.900  23.871  28.372  1.00  0.00     0.072 A 
ATOM     23  C   UNL A   1      45.287  25.078  28.988  1.00  0.00     0.000 A 
ATOM     24  C   UNL A   1      44.142  22.971  29.110  1.00  0.00     0.029 A 
ATOM     25  C   UNL A   1      44.911  25.347  30.317  1.00  0.00     0.010 A 
ATOM     26  C   UNL A   1      43.769  23.233  30.432  1.00  0.00     0.002 A 
ATOM     27  C   UNL A   1      44.156  24.424  31.037  1.00  0.00     0.001 A 
ENDBRANCH  17  18
ENDBRANCH  16  17
ENDBRANCH  13  16
ENDBRANCH  10  12
ENDBRANCH   7   8
ENDBRANCH   4   6
ENDBRANCH   1   2
BRANCH   1  28
ATOM     28  C   UNL A   1      39.568  23.481  27.129  1.00  0.00     0.042 C 
BRANCH  28  29
ATOM     29  C   UNL A   1      39.838  24.749  26.324  1.00  0.00     0.118 C 
BRANCH  29  30
ATOM     30  N   UNL A   1      41.178  24.796  25.750  1.00  0.00    -0.352 N 
ATOM     31  C   UNL A   1      42.266  25.560  26.104  1.00  0.00     0.251 C 
ATOM     32  H   UNL A   1      41.326  24.187  24.991  1.00  0.00     0.163 HD
ATOM     33  O   UNL A   1      43.271  25.546  25.406  1.00  0.00    -0.269 OA
BRANCH  31  34
ATOM     34  C   UNL A   1      42.210  26.420  27.307  1.00  0.00     0.039 A 
ATOM     35  C   UNL A   1      42.752  27.708  27.246  1.00  0.00     0.014 A 
ATOM     36  C   UNL A   1      41.621  25.964  28.488  1.00  0.00     0.014 A 
ATOM     37  C   UNL A   1      42.620  28.570  28.338  1.00  0.00     0.010 A 
ATOM     38  C   UNL A   1      41.431  26.844  29.550  1.00  0.00     0.010 A 
ATOM     39  C   UNL A   1      41.915  28.161  29.482  1.00  0.00    -0.014 A 
BRANCH  39  40
ATOM     40  C   UNL A   1      41.646  29.088  30.612  1.00  0.00     0.031 A 
ATOM     41  C   UNL A   1      42.459  28.992  31.872  1.00  0.00     0.074 A 
ATOM     42  C   UNL A   1      40.602  29.939  30.542  1.00  0.00     0.049 A 
ATOM     43  N   UNL A   1      42.277  29.591  33.020  1.00  0.00    -0.248 NA
ATOM     44  C   UNL A   1      43.612  28.079  31.847  1.00  0.00     0.031 C 
ATOM     45  C   UNL A   1      39.715  30.100  29.387  1.00  0.00     0.029 A 
ATOM     46  N   UNL A   1      40.094  30.812  31.472  1.00  0.00    -0.354 N 
ATOM     47  C   UNL A   1      43.274  29.111  33.860  1.00  0.00     0.074 A 
ATOM     48  C   UNL A   1      44.035  28.142  33.101  1.00  0.00     0.031 C 
ATOM     49  C   UNL A   1      38.780  31.018  29.674  1.00  0.00     0.029 A 
ATOM     50  C   UNL A   1      38.968  31.478  31.047  1.00  0.00     0.049 A 
ATOM     51  H   UNL A   1      40.498  30.948  32.359  1.00  0.00     0.167 HD
ATOM     52  C   UNL A   1      43.540  29.458  35.142  1.00  0.00     0.037 A 
ATOM     53  C   UNL A   1      38.164  32.345  31.695  1.00  0.00     0.037 A 
ATOM     54  C   UNL A   1      42.797  30.446  35.881  1.00  0.00     0.049 A 
ATOM     55  C   UNL A   1      38.478  32.714  33.119  1.00  0.00     0.074 A 
ATOM     56  C   UNL A   1      43.021  30.905  37.167  1.00  0.00     0.029 A 
ATOM     57  N   UNL A   1      41.689  31.127  35.400  1.00  0.00    -0.354 N 
ATOM     58  N   UNL A   1      39.452  32.283  33.885  1.00  0.00    -0.248 NA
ATOM     59  C   UNL A   1      37.588  33.686  33.769  1.00  0.00     0.031 C 
ATOM     60  C   UNL A   1      42.026  31.837  37.477  1.00  0.00     0.029 A 
ATOM     61  C   UNL A   1      41.210  31.994  36.368  1.00  0.00     0.049 A 
ATOM     62  H   UNL A   1      41.300  31.012  34.503  1.00  0.00     0.167 HD
ATOM     63  C   UNL A   1      39.313  32.957  35.093  1.00  0.00     0.074 A 
ATOM     64  C   UNL A   1      38.160  33.824  34.958  1.00  0.00     0.031 C 
ATOM     65  C   UNL A   1      40.075  32.869  36.210  1.00  0.00     0.037 A 
BRANCH  52  66
ATOM     66  C   UNL A   1      44.685  28.766  35.830  1.00  0.00     0.058 A 
ATOM     67  C   UNL A   1      44.497  27.586  36.566  1.00  0.00     0.135 A 
ATOM     68  C   UNL A   1      45.992  29.269  35.722  1.00  0.00     0.135 A 
ATOM     69  F   UNL A   1      43.267  27.070  36.713  1.00  0.00    -0.206 F 
ATOM     70  C   UNL A   1      45.558  26.946  37.198  1.00  0.00     0.059 A 
ATOM     71  C   UNL A   1      47.073  28.631  36.323  1.00  0.00     0.059 A 
ATOM     72  F   UNL A   1      46.229  30.394  35.029  1.00  0.00    -0.206 F 
ATOM     73  C   UNL A   1      46.842  27.478  37.073  1.00  0.00     0.060 A 
BRANCH  73  74
ATOM     74  S   UNL A   1      48.209  26.635  37.898  1.00  0.00     0.124 S 
ATOM     75  O   UNL A   1      49.339  27.476  37.516  1.00  0.00    -0.237 OA
ATOM     76  O   UNL A   1      47.816  26.702  39.302  1.00  0.00    -0.237 OA
ATOM     77  O   UNL A   1      48.192  25.300  37.309  1.00  0.00    -0.744 OA
ENDBRANCH  73  74
ENDBRANCH  52  66
BRANCH  53  78
ATOM     78  C   UNL A   1      36.992  32.934  30.996  1.00  0.00     0.058 A 
ATOM     79  C   UNL A   1      37.159  33.961  30.054  1.00  0.00     0.135 A 
ATOM     80  C   UNL A   1      35.688  32.475  31.237  1.00  0.00     0.135 A 
ATOM     81  F   UNL A   1      38.385  34.438  29.794  1.00  0.00    -0.206 F 
ATOM     82  C   UNL A   1      36.075  34.523  29.388  1.00  0.00     0.059 A 
ATOM     83  C   UNL A   1      34.589  33.004  30.565  1.00  0.00     0.059 A 
ATOM     84  F   UNL A   1      35.476  31.483  32.116  1.00  0.00    -0.206 F 
ATOM     85  C   UNL A   1      34.792  34.035  29.649  1.00  0.00     0.060 A 
BRANCH  85  86
ATOM     86  S   UNL A   1      33.397  34.739  28.742  1.00  0.00     0.124 S 
ATOM     87  O   UNL A   1      32.432  34.957  29.813  1.00  0.00    -0.237 OA
ATOM     88  O   UNL A   1      33.986  35.939  28.156  1.00  0.00    -0.237 OA
ATOM     89  O   UNL A   1      33.056  33.688  27.788  1.00  0.00    -0.744 OA
ENDBRANCH  85  86
ENDBRANCH  53  78
BRANCH  65  90
ATOM     90  C   UNL A   1      39.731  33.767  37.365  1.00  0.00     0.058 A 
ATOM     91  C   UNL A   1      38.849  33.363  38.377  1.00  0.00     0.135 A 
ATOM     92  C   UNL A   1      40.366  35.013  37.502  1.00  0.00     0.135 A 
ATOM     93  F   UNL A   1      38.211  32.186  38.289  1.00  0.00    -0.206 F 
ATOM     94  C   UNL A   1      38.604  34.167  39.487  1.00  0.00     0.059 A 
ATOM     95  C   UNL A   1      40.154  35.821  38.614  1.00  0.00     0.059 A 
ATOM     96  F   UNL A   1      41.224  35.440  36.563  1.00  0.00    -0.206 F 
ATOM     97  C   UNL A   1      39.267  35.391  39.600  1.00  0.00     0.060 A 
BRANCH  97  98
ATOM     98  S   UNL A   1      38.995  36.392  41.078  1.00  0.00     0.124 S 
ATOM     99  O   UNL A   1      38.527  37.648  40.501  1.00  0.00    -0.237 OA
ATOM    100  O   UNL A   1      37.992  35.615  41.801  1.00  0.00    -0.237 OA
ATOM    101  O   UNL A   1      40.312  36.440  41.704  1.00  0.00    -0.744 OA
ENDBRANCH  97  98
ENDBRANCH  65  90
ENDBRANCH  39  40
ENDBRANCH  31  34
ENDBRANCH  29  30
ENDBRANCH  28  29
ENDBRANCH   1  28
TORSDOF 18
ENDMDL
