MODEL 1
REMARK VINA RESULT:     -12.7      0.000      0.000
REMARK SMILES O=C(NCCCNC(=O)c1nccnc1C(=O)Nc1ccc2c(c1)OCO2)c1ccc(-c2c3nc(c(-c4c(F)cc(S(=O)(=O)[O-])cc4F)c4ccc([nH]4)c(-c4c(F)cc(S(=O)(=O)[O-])cc4F)c4nc(c(-c5c(F)cc(S(=O)(=O)[O-])cc5F)c5ccc2[nH]5)C=C4)C=C3)cc1
REMARK SMILES IDX 4 1 3 2 1 3 2 4 28 6 29 7 93 8 30 9 92 10 31 11 32 12 33 13
REMARK SMILES IDX 86 14 34 15 91 16 85 17 87 18 35 19 90 20 84 21 83 22 36 24
REMARK SMILES IDX 70 25 49 26 69 27 50 28 53 29 68 30 88 31 51 32 52 33 67 35
REMARK SMILES IDX 89 36 54 37 37 38 38 39 47 40 39 41 40 42 46 43 48 44 41 45
REMARK SMILES IDX 42 46 43 47 44 48 45 49 71 50 72 51 81 52 73 53 74 54 80 55
REMARK SMILES IDX 82 56 75 57 76 58 77 59 78 60 79 61 55 62 56 63 65 64 57 65
REMARK SMILES IDX 58 66 64 67 66 68 59 69 60 70 61 71 62 72 63 73 5 74 6 75
REMARK SMILES IDX 7 76 8 77 9 79 10 80 11 81 15 82 12 83 14 84 13 85 16 86
REMARK SMILES IDX 17 87 18 88 19 90 20 91 24 92 21 93 23 94 22 95 25 96 27 97
REMARK SMILES IDX 26 98
REMARK H PARENT 3 5 87 23 53 34 7 78 18 89
REMARK Flexibility Score: inf
ROOT
ATOM      1  C   UNL A   1      35.113  29.430  27.634  1.00  0.00     0.118 C 
ENDROOT
BRANCH   1   2
ATOM      2  N   UNL A   1      35.097  30.303  28.796  1.00  0.00    -0.352 N 
ATOM      3  O   UNL A   1      35.855  31.342  30.638  1.00  0.00    -0.269 OA
ATOM      4  C   UNL A   1      36.108  30.652  29.656  1.00  0.00     0.251 C 
ATOM      5  H   UNL A   1      34.223  30.708  28.997  1.00  0.00     0.163 HD
BRANCH   4   6
ATOM      6  C   UNL A   1      37.485  30.169  29.427  1.00  0.00     0.039 A 
ATOM      7  C   UNL A   1      38.307  29.779  30.489  1.00  0.00     0.014 A 
ATOM      8  C   UNL A   1      37.950  30.085  28.113  1.00  0.00     0.014 A 
ATOM      9  C   UNL A   1      39.632  29.417  30.245  1.00  0.00     0.010 A 
ATOM     10  C   UNL A   1      39.259  29.670  27.864  1.00  0.00     0.010 A 
ATOM     11  C   UNL A   1      40.121  29.362  28.930  1.00  0.00    -0.014 A 
BRANCH  11  12
ATOM     12  C   UNL A   1      41.522  28.954  28.659  1.00  0.00     0.031 A 
ATOM     13  C   UNL A   1      42.627  29.973  28.649  1.00  0.00     0.074 A 
ATOM     14  C   UNL A   1      41.789  27.666  28.372  1.00  0.00     0.049 A 
ATOM     15  N   UNL A   1      43.891  29.818  28.349  1.00  0.00    -0.248 NA
ATOM     16  C   UNL A   1      42.260  31.350  29.015  1.00  0.00     0.031 C 
ATOM     17  C   UNL A   1      40.797  26.591  28.335  1.00  0.00     0.029 A 
ATOM     18  N   UNL A   1      42.967  27.049  28.037  1.00  0.00    -0.354 N 
ATOM     19  C   UNL A   1      44.468  31.077  28.465  1.00  0.00     0.074 A 
ATOM     20  C   UNL A   1      43.409  31.990  28.845  1.00  0.00     0.031 C 
ATOM     21  C   UNL A   1      41.406  25.447  27.987  1.00  0.00     0.029 A 
ATOM     22  C   UNL A   1      42.817  25.718  27.729  1.00  0.00     0.049 A 
ATOM     23  H   UNL A   1      43.835  27.514  28.016  1.00  0.00     0.167 HD
ATOM     24  C   UNL A   1      45.762  31.435  28.277  1.00  0.00     0.037 A 
ATOM     25  C   UNL A   1      43.705  24.820  27.259  1.00  0.00     0.037 A 
ATOM     26  C   UNL A   1      46.808  30.518  27.904  1.00  0.00     0.049 A 
ATOM     27  C   UNL A   1      45.129  25.240  27.035  1.00  0.00     0.074 A 
ATOM     28  C   UNL A   1      48.158  30.774  27.742  1.00  0.00     0.029 A 
ATOM     29  N   UNL A   1      46.620  29.172  27.621  1.00  0.00    -0.354 N 
ATOM     30  N   UNL A   1      45.673  26.422  27.205  1.00  0.00    -0.248 NA
ATOM     31  C   UNL A   1      46.063  24.209  26.562  1.00  0.00     0.031 C 
ATOM     32  C   UNL A   1      48.779  29.594  27.315  1.00  0.00     0.029 A 
ATOM     33  C   UNL A   1      47.824  28.590  27.259  1.00  0.00     0.049 A 
ATOM     34  H   UNL A   1      45.757  28.700  27.671  1.00  0.00     0.167 HD
ATOM     35  C   UNL A   1      47.015  26.274  26.877  1.00  0.00     0.074 A 
ATOM     36  C   UNL A   1      47.203  24.886  26.503  1.00  0.00     0.031 C 
ATOM     37  C   UNL A   1      48.001  27.205  26.891  1.00  0.00     0.037 A 
BRANCH  24  38
ATOM     38  C   UNL A   1      46.107  32.891  28.438  1.00  0.00     0.058 A 
ATOM     39  C   UNL A   1      46.121  33.776  27.348  1.00  0.00     0.135 A 
ATOM     40  C   UNL A   1      46.424  33.410  29.705  1.00  0.00     0.135 A 
ATOM     41  F   UNL A   1      45.835  33.333  26.114  1.00  0.00    -0.206 F 
ATOM     42  C   UNL A   1      46.486  35.110  27.499  1.00  0.00     0.059 A 
ATOM     43  C   UNL A   1      46.767  34.747  29.883  1.00  0.00     0.059 A 
ATOM     44  F   UNL A   1      46.419  32.611  30.783  1.00  0.00    -0.206 F 
ATOM     45  C   UNL A   1      46.820  35.584  28.769  1.00  0.00     0.060 A 
BRANCH  45  46
ATOM     46  S   UNL A   1      47.343  37.302  28.943  1.00  0.00     0.124 S 
ATOM     47  O   UNL A   1      46.923  37.596  30.310  1.00  0.00    -0.237 OA
ATOM     48  O   UNL A   1      48.784  37.216  28.729  1.00  0.00    -0.237 OA
ATOM     49  O   UNL A   1      46.597  37.993  27.895  1.00  0.00    -0.744 OA
ENDBRANCH  45  46
ENDBRANCH  24  38
BRANCH  25  50
ATOM     50  C   UNL A   1      43.240  23.442  26.963  1.00  0.00     0.058 A 
ATOM     51  C   UNL A   1      43.076  23.001  25.643  1.00  0.00     0.135 A 
ATOM     52  C   UNL A   1      43.044  22.511  27.996  1.00  0.00     0.135 A 
ATOM     53  F   UNL A   1      43.247  23.856  24.624  1.00  0.00    -0.206 F 
ATOM     54  C   UNL A   1      42.747  21.680  25.355  1.00  0.00     0.059 A 
ATOM     55  C   UNL A   1      42.737  21.181  27.733  1.00  0.00     0.059 A 
ATOM     56  F   UNL A   1      43.208  22.884  29.276  1.00  0.00    -0.206 F 
ATOM     57  C   UNL A   1      42.593  20.774  26.407  1.00  0.00     0.060 A 
BRANCH  57  58
ATOM     58  S   UNL A   1      42.275  19.040  26.018  1.00  0.00     0.124 S 
ATOM     59  O   UNL A   1      40.839  19.055  25.761  1.00  0.00    -0.237 OA
ATOM     60  O   UNL A   1      43.130  18.825  24.855  1.00  0.00    -0.237 OA
ATOM     61  O   UNL A   1      42.693  18.343  27.230  1.00  0.00    -0.744 OA
ENDBRANCH  57  58
ENDBRANCH  25  50
BRANCH  37  62
ATOM     62  C   UNL A   1      49.387  26.763  26.520  1.00  0.00     0.058 A 
ATOM     63  C   UNL A   1      50.234  26.139  27.449  1.00  0.00     0.135 A 
ATOM     64  C   UNL A   1      49.835  26.877  25.195  1.00  0.00     0.135 A 
ATOM     65  F   UNL A   1      49.857  26.017  28.731  1.00  0.00    -0.206 F 
ATOM     66  C   UNL A   1      51.478  25.641  27.075  1.00  0.00     0.059 A 
ATOM     67  C   UNL A   1      51.066  26.366  24.793  1.00  0.00     0.059 A 
ATOM     68  F   UNL A   1      49.059  27.460  24.267  1.00  0.00    -0.206 F 
ATOM     69  C   UNL A   1      51.881  25.750  25.742  1.00  0.00     0.060 A 
BRANCH  69  70
ATOM     70  S   UNL A   1      53.462  25.027  25.252  1.00  0.00     0.124 S 
ATOM     71  O   UNL A   1      53.184  23.600  25.373  1.00  0.00    -0.237 OA
ATOM     72  O   UNL A   1      53.627  25.528  23.891  1.00  0.00    -0.237 OA
ATOM     73  O   UNL A   1      54.401  25.570  26.229  1.00  0.00    -0.744 OA
ENDBRANCH  69  70
ENDBRANCH  37  62
ENDBRANCH  11  12
ENDBRANCH   4   6
ENDBRANCH   1   2
BRANCH   1  74
ATOM     74  C   UNL A   1      33.737  28.942  27.195  1.00  0.00     0.042 C 
BRANCH  74  75
ATOM     75  C   UNL A   1      33.468  28.904  25.695  1.00  0.00     0.118 C 
BRANCH  75  76
ATOM     76  N   UNL A   1      33.813  27.658  25.032  1.00  0.00    -0.351 N 
ATOM     77  C   UNL A   1      33.120  26.984  24.048  1.00  0.00     0.272 C 
ATOM     78  H   UNL A   1      34.654  27.237  25.324  1.00  0.00     0.163 HD
ATOM     79  O   UNL A   1      33.705  26.209  23.298  1.00  0.00    -0.267 OA
BRANCH  77  80
ATOM     80  C   UNL A   1      31.700  27.274  23.811  1.00  0.00     0.159 A 
ATOM     81  N   UNL A   1      31.534  28.221  22.824  1.00  0.00    -0.247 NA
ATOM     82  C   UNL A   1      30.632  26.655  24.451  1.00  0.00     0.159 A 
ATOM     83  C   UNL A   1      30.268  28.533  22.498  1.00  0.00     0.132 A 
ATOM     84  N   UNL A   1      29.350  27.007  24.090  1.00  0.00    -0.247 NA
ATOM     85  C   UNL A   1      29.195  27.937  23.120  1.00  0.00     0.132 A 
BRANCH  82  86
ATOM     86  C   UNL A   1      30.619  25.597  25.538  1.00  0.00     0.276 C 
ATOM     87  O   UNL A   1      30.596  25.951  26.719  1.00  0.00    -0.267 OA
ATOM     88  N   UNL A   1      30.280  24.295  25.248  1.00  0.00    -0.320 N 
ATOM     89  H   UNL A   1      29.355  24.033  25.456  1.00  0.00     0.170 HD
BRANCH  88  90
ATOM     90  C   UNL A   1      31.094  23.296  24.693  1.00  0.00     0.045 A 
ATOM     91  C   UNL A   1      31.527  23.325  23.354  1.00  0.00     0.030 A 
ATOM     92  C   UNL A   1      31.411  22.215  25.523  1.00  0.00     0.076 A 
ATOM     93  C   UNL A   1      32.179  22.214  22.803  1.00  0.00     0.053 A 
ATOM     94  C   UNL A   1      31.984  21.112  24.930  1.00  0.00     0.167 A 
ATOM     95  C   UNL A   1      32.340  21.105  23.602  1.00  0.00     0.165 A 
ATOM     96  O   UNL A   1      32.193  19.907  25.528  1.00  0.00    -0.454 OA
ATOM     97  O   UNL A   1      32.804  19.892  23.199  1.00  0.00    -0.454 OA
ATOM     98  C   UNL A   1      32.524  19.105  24.376  1.00  0.00     0.468 C 
ENDBRANCH  88  90
ENDBRANCH  82  86
ENDBRANCH  77  80
ENDBRANCH  75  76
ENDBRANCH  74  75
ENDBRANCH   1  74
TORSDOF 15
ENDMDL
MODEL 2
REMARK VINA RESULT:     -12.6      2.964      4.175
REMARK SMILES O=C(NCCCNC(=O)c1nccnc1C(=O)Nc1ccc2c(c1)OCO2)c1ccc(-c2c3nc(c(-c4c(F)cc(S(=O)(=O)[O-])cc4F)c4ccc([nH]4)c(-c4c(F)cc(S(=O)(=O)[O-])cc4F)c4nc(c(-c5c(F)cc(S(=O)(=O)[O-])cc5F)c5ccc2[nH]5)C=C4)C=C3)cc1
REMARK SMILES IDX 4 1 3 2 1 3 2 4 28 6 29 7 93 8 30 9 92 10 31 11 32 12 33 13
REMARK SMILES IDX 86 14 34 15 91 16 85 17 87 18 35 19 90 20 84 21 83 22 36 24
REMARK SMILES IDX 70 25 49 26 69 27 50 28 53 29 68 30 88 31 51 32 52 33 67 35
REMARK SMILES IDX 89 36 54 37 37 38 38 39 47 40 39 41 40 42 46 43 48 44 41 45
REMARK SMILES IDX 42 46 43 47 44 48 45 49 71 50 72 51 81 52 73 53 74 54 80 55
REMARK SMILES IDX 82 56 75 57 76 58 77 59 78 60 79 61 55 62 56 63 65 64 57 65
REMARK SMILES IDX 58 66 64 67 66 68 59 69 60 70 61 71 62 72 63 73 5 74 6 75
REMARK SMILES IDX 7 76 8 77 9 79 10 80 11 81 15 82 12 83 14 84 13 85 16 86
REMARK SMILES IDX 17 87 18 88 19 90 20 91 24 92 21 93 23 94 22 95 25 96 27 97
REMARK SMILES IDX 26 98
REMARK H PARENT 3 5 87 23 53 34 7 78 18 89
REMARK Flexibility Score: inf
ROOT
ATOM      1  C   UNL A   1      34.042  27.853  26.554  1.00  0.00     0.118 C 
ENDROOT
BRANCH   1   2
ATOM      2  N   UNL A   1      33.692  29.184  27.021  1.00  0.00    -0.352 N 
ATOM      3  O   UNL A   1      33.914  31.150  28.087  1.00  0.00    -0.269 OA
ATOM      4  C   UNL A   1      34.440  30.108  27.708  1.00  0.00     0.251 C 
ATOM      5  H   UNL A   1      32.773  29.468  26.811  1.00  0.00     0.163 HD
BRANCH   4   6
ATOM      6  C   UNL A   1      35.856  29.836  28.027  1.00  0.00     0.039 A 
ATOM      7  C   UNL A   1      36.868  30.043  27.084  1.00  0.00     0.014 A 
ATOM      8  C   UNL A   1      36.174  29.385  29.310  1.00  0.00     0.014 A 
ATOM      9  C   UNL A   1      38.182  29.687  27.387  1.00  0.00     0.010 A 
ATOM     10  C   UNL A   1      37.497  29.081  29.631  1.00  0.00     0.010 A 
ATOM     11  C   UNL A   1      38.509  29.200  28.662  1.00  0.00    -0.014 A 
BRANCH  11  12
ATOM     12  C   UNL A   1      39.908  28.843  29.002  1.00  0.00     0.031 A 
ATOM     13  C   UNL A   1      40.842  29.869  29.582  1.00  0.00     0.074 A 
ATOM     14  C   UNL A   1      40.353  27.600  28.738  1.00  0.00     0.049 A 
ATOM     15  N   UNL A   1      42.116  29.764  29.858  1.00  0.00    -0.248 NA
ATOM     16  C   UNL A   1      40.268  31.190  29.880  1.00  0.00     0.031 C 
ATOM     17  C   UNL A   1      39.546  26.523  28.161  1.00  0.00     0.029 A 
ATOM     18  N   UNL A   1      41.594  27.039  28.901  1.00  0.00    -0.354 N 
ATOM     19  C   UNL A   1      42.505  31.008  30.341  1.00  0.00     0.074 A 
ATOM     20  C   UNL A   1      41.333  31.859  30.299  1.00  0.00     0.031 C 
ATOM     21  C   UNL A   1      40.314  25.435  28.008  1.00  0.00     0.029 A 
ATOM     22  C   UNL A   1      41.676  25.750  28.430  1.00  0.00     0.049 A 
ATOM     23  H   UNL A   1      42.352  27.513  29.312  1.00  0.00     0.167 HD
ATOM     24  C   UNL A   1      43.725  31.401  30.781  1.00  0.00     0.037 A 
ATOM     25  C   UNL A   1      42.734  24.923  28.316  1.00  0.00     0.037 A 
ATOM     26  C   UNL A   1      44.883  30.545  30.823  1.00  0.00     0.049 A 
ATOM     27  C   UNL A   1      44.082  25.382  28.789  1.00  0.00     0.074 A 
ATOM     28  C   UNL A   1      46.149  30.833  31.302  1.00  0.00     0.029 A 
ATOM     29  N   UNL A   1      44.921  29.238  30.356  1.00  0.00    -0.354 N 
ATOM     30  N   UNL A   1      44.423  26.543  29.296  1.00  0.00    -0.248 NA
ATOM     31  C   UNL A   1      45.191  24.423  28.680  1.00  0.00     0.031 C 
ATOM     32  C   UNL A   1      46.965  29.717  31.080  1.00  0.00     0.029 A 
ATOM     33  C   UNL A   1      46.195  28.716  30.509  1.00  0.00     0.049 A 
ATOM     34  H   UNL A   1      44.154  28.753  29.971  1.00  0.00     0.167 HD
ATOM     35  C   UNL A   1      45.779  26.449  29.584  1.00  0.00     0.074 A 
ATOM     36  C   UNL A   1      46.197  25.116  29.199  1.00  0.00     0.031 C 
ATOM     37  C   UNL A   1      46.600  27.384  30.125  1.00  0.00     0.037 A 
BRANCH  24  38
ATOM     38  C   UNL A   1      43.875  32.832  31.220  1.00  0.00     0.058 A 
ATOM     39  C   UNL A   1      43.579  33.242  32.530  1.00  0.00     0.135 A 
ATOM     40  C   UNL A   1      44.325  33.809  30.316  1.00  0.00     0.135 A 
ATOM     41  F   UNL A   1      43.137  32.352  33.433  1.00  0.00    -0.206 F 
ATOM     42  C   UNL A   1      43.675  34.575  32.915  1.00  0.00     0.059 A 
ATOM     43  C   UNL A   1      44.453  35.145  30.686  1.00  0.00     0.059 A 
ATOM     44  F   UNL A   1      44.629  33.473  29.053  1.00  0.00    -0.206 F 
ATOM     45  C   UNL A   1      44.103  35.522  31.982  1.00  0.00     0.060 A 
BRANCH  45  46
ATOM     46  S   UNL A   1      44.173  37.256  32.478  1.00  0.00     0.124 S 
ATOM     47  O   UNL A   1      43.852  37.929  31.223  1.00  0.00    -0.237 OA
ATOM     48  O   UNL A   1      43.147  37.329  33.514  1.00  0.00    -0.237 OA
ATOM     49  O   UNL A   1      45.545  37.421  32.947  1.00  0.00    -0.744 OA
ENDBRANCH  45  46
ENDBRANCH  24  38
BRANCH  25  50
ATOM     50  C   UNL A   1      42.531  23.582  27.712  1.00  0.00     0.058 A 
ATOM     51  C   UNL A   1      42.609  23.393  26.326  1.00  0.00     0.135 A 
ATOM     52  C   UNL A   1      42.352  22.448  28.521  1.00  0.00     0.135 A 
ATOM     53  F   UNL A   1      42.773  24.448  25.513  1.00  0.00    -0.206 F 
ATOM     54  C   UNL A   1      42.529  22.125  25.760  1.00  0.00     0.059 A 
ATOM     55  C   UNL A   1      42.292  21.168  27.981  1.00  0.00     0.059 A 
ATOM     56  F   UNL A   1      42.290  22.578  29.855  1.00  0.00    -0.206 F 
ATOM     57  C   UNL A   1      42.384  21.017  26.599  1.00  0.00     0.060 A 
BRANCH  57  58
ATOM     58  S   UNL A   1      42.393  19.368  25.863  1.00  0.00     0.124 S 
ATOM     59  O   UNL A   1      40.976  19.163  25.582  1.00  0.00    -0.237 OA
ATOM     60  O   UNL A   1      43.254  19.555  24.699  1.00  0.00    -0.237 OA
ATOM     61  O   UNL A   1      42.955  18.532  26.920  1.00  0.00    -0.744 OA
ENDBRANCH  57  58
ENDBRANCH  25  50
BRANCH  37  62
ATOM     62  C   UNL A   1      48.033  27.003  30.365  1.00  0.00     0.058 A 
ATOM     63  C   UNL A   1      49.040  27.304  29.435  1.00  0.00     0.135 A 
ATOM     64  C   UNL A   1      48.415  26.417  31.582  1.00  0.00     0.135 A 
ATOM     65  F   UNL A   1      48.725  27.854  28.252  1.00  0.00    -0.206 F 
ATOM     66  C   UNL A   1      50.378  27.039  29.707  1.00  0.00     0.059 A 
ATOM     67  C   UNL A   1      49.749  26.164  31.884  1.00  0.00     0.059 A 
ATOM     68  F   UNL A   1      47.488  26.115  32.506  1.00  0.00    -0.206 F 
ATOM     69  C   UNL A   1      50.725  26.478  30.938  1.00  0.00     0.060 A 
BRANCH  69  70
ATOM     70  S   UNL A   1      52.472  26.215  31.311  1.00  0.00     0.124 S 
ATOM     71  O   UNL A   1      52.441  24.907  31.957  1.00  0.00    -0.237 OA
ATOM     72  O   UNL A   1      53.084  26.254  29.987  1.00  0.00    -0.237 OA
ATOM     73  O   UNL A   1      52.806  27.338  32.182  1.00  0.00    -0.744 OA
ENDBRANCH  69  70
ENDBRANCH  37  62
ENDBRANCH  11  12
ENDBRANCH   4   6
ENDBRANCH   1   2
BRANCH   1  74
ATOM     74  C   UNL A   1      32.921  27.131  25.816  1.00  0.00     0.042 C 
BRANCH  74  75
ATOM     75  C   UNL A   1      33.077  25.626  25.635  1.00  0.00     0.118 C 
BRANCH  75  76
ATOM     76  N   UNL A   1      33.054  25.158  24.259  1.00  0.00    -0.351 N 
ATOM     77  C   UNL A   1      33.621  24.019  23.726  1.00  0.00     0.272 C 
ATOM     78  H   UNL A   1      32.569  25.730  23.621  1.00  0.00     0.163 HD
ATOM     79  O   UNL A   1      33.182  23.536  22.687  1.00  0.00    -0.267 OA
BRANCH  77  80
ATOM     80  C   UNL A   1      34.679  23.307  24.455  1.00  0.00     0.159 A 
ATOM     81  N   UNL A   1      35.908  23.902  24.272  1.00  0.00    -0.247 NA
ATOM     82  C   UNL A   1      34.491  22.198  25.273  1.00  0.00     0.159 A 
ATOM     83  C   UNL A   1      36.944  23.353  24.929  1.00  0.00     0.132 A 
ATOM     84  N   UNL A   1      35.580  21.664  25.924  1.00  0.00    -0.247 NA
ATOM     85  C   UNL A   1      36.783  22.254  25.740  1.00  0.00     0.132 A 
BRANCH  82  86
ATOM     86  C   UNL A   1      33.227  21.424  25.601  1.00  0.00     0.276 C 
ATOM     87  O   UNL A   1      32.352  21.966  26.280  1.00  0.00    -0.267 OA
ATOM     88  N   UNL A   1      32.887  20.300  24.885  1.00  0.00    -0.320 N 
ATOM     89  H   UNL A   1      32.217  20.426  24.175  1.00  0.00     0.170 HD
BRANCH  88  90
ATOM     90  C   UNL A   1      33.377  18.995  25.044  1.00  0.00     0.045 A 
ATOM     91  C   UNL A   1      34.590  18.564  24.475  1.00  0.00     0.030 A 
ATOM     92  C   UNL A   1      32.564  18.103  25.752  1.00  0.00     0.076 A 
ATOM     93  C   UNL A   1      34.938  17.208  24.510  1.00  0.00     0.053 A 
ATOM     94  C   UNL A   1      32.897  16.768  25.700  1.00  0.00     0.167 A 
ATOM     95  C   UNL A   1      34.043  16.331  25.078  1.00  0.00     0.165 A 
ATOM     96  O   UNL A   1      32.135  15.740  26.163  1.00  0.00    -0.454 OA
ATOM     97  O   UNL A   1      34.136  14.974  25.064  1.00  0.00    -0.454 OA
ATOM     98  C   UNL A   1      32.835  14.621  25.581  1.00  0.00     0.468 C 
ENDBRANCH  88  90
ENDBRANCH  82  86
ENDBRANCH  77  80
ENDBRANCH  75  76
ENDBRANCH  74  75
ENDBRANCH   1  74
TORSDOF 15
ENDMDL
MODEL 3
REMARK VINA RESULT:     -12.6      6.573     11.970
REMARK SMILES O=C(NCCCNC(=O)c1nccnc1C(=O)Nc1ccc2c(c1)OCO2)c1ccc(-c2c3nc(c(-c4c(F)cc(S(=O)(=O)[O-])cc4F)c4ccc([nH]4)c(-c4c(F)cc(S(=O)(=O)[O-])cc4F)c4nc(c(-c5c(F)cc(S(=O)(=O)[O-])cc5F)c5ccc2[nH]5)C=C4)C=C3)cc1
REMARK SMILES IDX 4 1 3 2 1 3 2 4 28 6 29 7 93 8 30 9 92 10 31 11 32 12 33 13
REMARK SMILES IDX 86 14 34 15 91 16 85 17 87 18 35 19 90 20 84 21 83 22 36 24
REMARK SMILES IDX 70 25 49 26 69 27 50 28 53 29 68 30 88 31 51 32 52 33 67 35
REMARK SMILES IDX 89 36 54 37 37 38 38 39 47 40 39 41 40 42 46 43 48 44 41 45
REMARK SMILES IDX 42 46 43 47 44 48 45 49 71 50 72 51 81 52 73 53 74 54 80 55
REMARK SMILES IDX 82 56 75 57 76 58 77 59 78 60 79 61 55 62 56 63 65 64 57 65
REMARK SMILES IDX 58 66 64 67 66 68 59 69 60 70 61 71 62 72 63 73 5 74 6 75
REMARK SMILES IDX 7 76 8 77 9 79 10 80 11 81 15 82 12 83 14 84 13 85 16 86
REMARK SMILES IDX 17 87 18 88 19 90 20 91 24 92 21 93 23 94 22 95 25 96 27 97
REMARK SMILES IDX 26 98
REMARK H PARENT 3 5 87 23 53 34 7 78 18 89
REMARK Flexibility Score: inf
ROOT
ATOM      1  C   UNL A   1      38.251  24.216  26.413  1.00  0.00     0.118 C 
ENDROOT
BRANCH   1   2
ATOM      2  N   UNL A   1      39.636  23.896  26.109  1.00  0.00    -0.352 N 
ATOM      3  O   UNL A   1      41.874  24.101  26.100  1.00  0.00    -0.269 OA
ATOM      4  C   UNL A   1      40.798  24.474  26.557  1.00  0.00     0.251 C 
ATOM      5  H   UNL A   1      39.760  23.147  25.483  1.00  0.00     0.163 HD
BRANCH   4   6
ATOM      6  C   UNL A   1      40.756  25.564  27.553  1.00  0.00     0.039 A 
ATOM      7  C   UNL A   1      41.692  26.603  27.537  1.00  0.00     0.014 A 
ATOM      8  C   UNL A   1      39.738  25.550  28.509  1.00  0.00     0.014 A 
ATOM      9  C   UNL A   1      41.678  27.564  28.548  1.00  0.00     0.010 A 
ATOM     10  C   UNL A   1      39.693  26.544  29.489  1.00  0.00     0.010 A 
ATOM     11  C   UNL A   1      40.681  27.542  29.535  1.00  0.00    -0.014 A 
BRANCH  11  12
ATOM     12  C   UNL A   1      40.645  28.575  30.600  1.00  0.00     0.031 A 
ATOM     13  C   UNL A   1      41.550  28.473  31.796  1.00  0.00     0.074 A 
ATOM     14  C   UNL A   1      39.756  29.582  30.511  1.00  0.00     0.049 A 
ATOM     15  N   UNL A   1      41.598  29.230  32.862  1.00  0.00    -0.248 NA
ATOM     16  C   UNL A   1      42.521  27.368  31.797  1.00  0.00     0.031 C 
ATOM     17  C   UNL A   1      38.815  29.777  29.406  1.00  0.00     0.029 A 
ATOM     18  N   UNL A   1      39.485  30.616  31.370  1.00  0.00    -0.354 N 
ATOM     19  C   UNL A   1      42.586  28.682  33.673  1.00  0.00     0.074 A 
ATOM     20  C   UNL A   1      43.096  27.516  32.983  1.00  0.00     0.031 C 
ATOM     21  C   UNL A   1      38.064  30.859  29.658  1.00  0.00     0.029 A 
ATOM     22  C   UNL A   1      38.435  31.403  30.961  1.00  0.00     0.049 A 
ATOM     23  H   UNL A   1      39.992  30.778  32.198  1.00  0.00     0.167 HD
ATOM     24  C   UNL A   1      43.026  29.117  34.879  1.00  0.00     0.037 A 
ATOM     25  C   UNL A   1      37.814  32.428  31.579  1.00  0.00     0.037 A 
ATOM     26  C   UNL A   1      42.514  30.281  35.554  1.00  0.00     0.049 A 
ATOM     27  C   UNL A   1      38.301  32.882  32.923  1.00  0.00     0.074 A 
ATOM     28  C   UNL A   1      42.932  30.834  36.753  1.00  0.00     0.029 A 
ATOM     29  N   UNL A   1      41.463  31.065  35.099  1.00  0.00    -0.354 N 
ATOM     30  N   UNL A   1      39.274  32.390  33.653  1.00  0.00    -0.248 NA
ATOM     31  C   UNL A   1      37.614  34.030  33.531  1.00  0.00     0.031 C 
ATOM     32  C   UNL A   1      42.102  31.923  37.046  1.00  0.00     0.029 A 
ATOM     33  C   UNL A   1      41.199  32.079  36.005  1.00  0.00     0.049 A 
ATOM     34  H   UNL A   1      40.976  30.921  34.255  1.00  0.00     0.167 HD
ATOM     35  C   UNL A   1      39.329  33.178  34.796  1.00  0.00     0.074 A 
ATOM     36  C   UNL A   1      38.294  34.183  34.661  1.00  0.00     0.031 C 
ATOM     37  C   UNL A   1      40.167  33.078  35.858  1.00  0.00     0.037 A 
BRANCH  24  38
ATOM     38  C   UNL A   1      44.094  28.304  35.559  1.00  0.00     0.058 A 
ATOM     39  C   UNL A   1      43.782  27.246  36.428  1.00  0.00     0.135 A 
ATOM     40  C   UNL A   1      45.452  28.586  35.335  1.00  0.00     0.135 A 
ATOM     41  F   UNL A   1      42.501  26.938  36.685  1.00  0.00    -0.206 F 
ATOM     42  C   UNL A   1      44.774  26.529  37.088  1.00  0.00     0.059 A 
ATOM     43  C   UNL A   1      46.463  27.865  35.965  1.00  0.00     0.059 A 
ATOM     44  F   UNL A   1      45.809  29.581  34.509  1.00  0.00    -0.206 F 
ATOM     45  C   UNL A   1      46.113  26.855  36.859  1.00  0.00     0.060 A 
BRANCH  45  46
ATOM     46  S   UNL A   1      47.390  25.953  37.763  1.00  0.00     0.124 S 
ATOM     47  O   UNL A   1      48.504  26.895  37.705  1.00  0.00    -0.237 OA
ATOM     48  O   UNL A   1      46.780  25.775  39.077  1.00  0.00    -0.237 OA
ATOM     49  O   UNL A   1      47.560  24.731  36.984  1.00  0.00    -0.744 OA
ENDBRANCH  45  46
ENDBRANCH  24  38
BRANCH  25  50
ATOM     50  C   UNL A   1      36.654  33.068  30.910  1.00  0.00     0.058 A 
ATOM     51  C   UNL A   1      35.351  32.895  31.396  1.00  0.00     0.135 A 
ATOM     52  C   UNL A   1      36.840  33.943  29.827  1.00  0.00     0.135 A 
ATOM     53  F   UNL A   1      35.124  32.063  32.425  1.00  0.00    -0.206 F 
ATOM     54  C   UNL A   1      34.273  33.577  30.843  1.00  0.00     0.059 A 
ATOM     55  C   UNL A   1      35.782  34.654  29.272  1.00  0.00     0.059 A 
ATOM     56  F   UNL A   1      38.072  34.155  29.339  1.00  0.00    -0.206 F 
ATOM     57  C   UNL A   1      34.501  34.466  29.789  1.00  0.00     0.060 A 
BRANCH  57  58
ATOM     58  S   UNL A   1      33.113  35.429  29.152  1.00  0.00     0.124 S 
ATOM     59  O   UNL A   1      32.376  35.727  30.375  1.00  0.00    -0.237 OA
ATOM     60  O   UNL A   1      33.787  36.559  28.521  1.00  0.00    -0.237 OA
ATOM     61  O   UNL A   1      32.460  34.505  28.229  1.00  0.00    -0.744 OA
ENDBRANCH  57  58
ENDBRANCH  25  50
BRANCH  37  62
ATOM     62  C   UNL A   1      40.030  34.095  36.955  1.00  0.00     0.058 A 
ATOM     63  C   UNL A   1      40.666  35.344  36.885  1.00  0.00     0.135 A 
ATOM     64  C   UNL A   1      39.176  33.852  38.043  1.00  0.00     0.135 A 
ATOM     65  F   UNL A   1      41.501  35.620  35.872  1.00  0.00    -0.206 F 
ATOM     66  C   UNL A   1      40.455  36.319  37.855  1.00  0.00     0.059 A 
ATOM     67  C   UNL A   1      38.934  34.820  39.012  1.00  0.00     0.059 A 
ATOM     68  F   UNL A   1      38.541  32.674  38.153  1.00  0.00    -0.206 F 
ATOM     69  C   UNL A   1      39.580  36.052  38.909  1.00  0.00     0.060 A 
BRANCH  69  70
ATOM     70  S   UNL A   1      39.253  37.354  40.116  1.00  0.00     0.124 S 
ATOM     71  O   UNL A   1      40.595  37.868  40.368  1.00  0.00    -0.237 OA
ATOM     72  O   UNL A   1      38.360  38.245  39.382  1.00  0.00    -0.237 OA
ATOM     73  O   UNL A   1      38.635  36.639  41.229  1.00  0.00    -0.744 OA
ENDBRANCH  69  70
ENDBRANCH  37  62
ENDBRANCH  11  12
ENDBRANCH   4   6
ENDBRANCH   1   2
BRANCH   1  74
ATOM     74  C   UNL A   1      37.238  23.587  25.464  1.00  0.00     0.042 C 
BRANCH  74  75
ATOM     75  C   UNL A   1      36.303  22.539  26.054  1.00  0.00     0.118 C 
BRANCH  75  76
ATOM     76  N   UNL A   1      35.146  23.064  26.761  1.00  0.00    -0.351 N 
ATOM     77  C   UNL A   1      33.821  22.702  26.634  1.00  0.00     0.272 C 
ATOM     78  H   UNL A   1      35.332  23.773  27.417  1.00  0.00     0.163 HD
ATOM     79  O   UNL A   1      33.033  22.903  27.554  1.00  0.00    -0.267 OA
BRANCH  77  80
ATOM     80  C   UNL A   1      33.363  21.969  25.446  1.00  0.00     0.159 A 
ATOM     81  N   UNL A   1      32.945  20.696  25.767  1.00  0.00    -0.247 NA
ATOM     82  C   UNL A   1      33.301  22.481  24.155  1.00  0.00     0.159 A 
ATOM     83  C   UNL A   1      32.467  19.949  24.757  1.00  0.00     0.132 A 
ATOM     84  N   UNL A   1      32.809  21.681  23.149  1.00  0.00    -0.247 NA
ATOM     85  C   UNL A   1      32.400  20.432  23.471  1.00  0.00     0.132 A 
BRANCH  82  86
ATOM     86  C   UNL A   1      33.699  23.845  23.620  1.00  0.00     0.276 C 
ATOM     87  O   UNL A   1      34.623  23.923  22.807  1.00  0.00    -0.267 OA
ATOM     88  N   UNL A   1      32.851  24.921  23.740  1.00  0.00    -0.320 N 
ATOM     89  H   UNL A   1      32.318  25.142  22.943  1.00  0.00     0.170 HD
BRANCH  88  90
ATOM     90  C   UNL A   1      32.654  25.744  24.860  1.00  0.00     0.045 A 
ATOM     91  C   UNL A   1      31.395  25.912  25.467  1.00  0.00     0.030 A 
ATOM     92  C   UNL A   1      33.770  26.452  25.319  1.00  0.00     0.076 A 
ATOM     93  C   UNL A   1      31.221  26.883  26.461  1.00  0.00     0.053 A 
ATOM     94  C   UNL A   1      33.546  27.449  26.243  1.00  0.00     0.167 A 
ATOM     95  C   UNL A   1      32.303  27.672  26.783  1.00  0.00     0.165 A 
ATOM     96  O   UNL A   1      34.465  28.360  26.665  1.00  0.00    -0.454 OA
ATOM     97  O   UNL A   1      32.283  28.757  27.603  1.00  0.00    -0.454 OA
ATOM     98  C   UNL A   1      33.605  29.284  27.364  1.00  0.00     0.468 C 
ENDBRANCH  88  90
ENDBRANCH  82  86
ENDBRANCH  77  80
ENDBRANCH  75  76
ENDBRANCH  74  75
ENDBRANCH   1  74
TORSDOF 15
ENDMDL
