MODEL 1
REMARK VINA RESULT:     -13.7      0.000      0.000
REMARK SMILES O=C(NCCCNC(=O)[C@H](c1c[nH]c2cc(F)ccc12)[NH+]1CC[NH+](CC(=O)N2CCOCC2)CC1)c1ccc(-c2c3nc(c(-c4c(F)cc(S(=O)(=O)[O-])cc4F)c4ccc([nH]4)c(-c4c(F)cc(S(=O)(=O)[O-])cc4F)c4nc(c(-c5c(F)cc(S(=O)(=O)[O-])cc5F)c5ccc2[nH]5)C=C4)C=C3)cc1
REMARK SMILES IDX 5 1 4 2 3 3 1 4 2 5 36 7 37 8 101 9 38 10 100 11 39 12 40 13
REMARK SMILES IDX 41 14 94 15 42 16 99 17 93 18 95 19 43 20 98 21 92 22 91 23
REMARK SMILES IDX 44 25 78 26 57 27 77 28 58 29 61 30 76 31 96 32 59 33 60 34
REMARK SMILES IDX 75 36 97 37 62 38 45 39 46 40 55 41 47 42 48 43 54 44 56 45
REMARK SMILES IDX 49 46 50 47 51 48 52 49 53 50 79 51 80 52 89 53 81 54 82 55
REMARK SMILES IDX 88 56 90 57 83 58 84 59 85 60 86 61 87 62 63 63 64 64 73 65
REMARK SMILES IDX 65 66 66 67 72 68 74 69 67 70 68 71 69 72 70 73 71 74 6 75
REMARK SMILES IDX 7 76 8 77 9 79 10 80 21 81 22 82 35 83 23 85 34 86 24 87
REMARK SMILES IDX 25 89 26 90 27 91 28 92 29 93 33 94 30 95 32 96 31 97 11 98
REMARK SMILES IDX 12 99 20 100 13 101 14 102 19 103 15 105 18 106 16 107
REMARK SMILES IDX 17 108
REMARK H PARENT 3 6 95 24 61 35 7 78 21 84 24 88 13 104
REMARK Flexibility Score: inf
ROOT
ATOM      1  C   UNL A   1      38.492  22.685  26.150  1.00  0.00     0.042 C 
ENDROOT
BRANCH   1   2
ATOM      2  C   UNL A   1      39.609  23.396  26.894  1.00  0.00     0.118 C 
BRANCH   2   3
ATOM      3  N   UNL A   1      40.428  24.192  26.001  1.00  0.00    -0.352 N 
ATOM      4  O   UNL A   1      41.351  26.003  25.088  1.00  0.00    -0.269 OA
ATOM      5  C   UNL A   1      40.927  25.468  26.113  1.00  0.00     0.251 C 
ATOM      6  H   UNL A   1      40.670  23.736  25.162  1.00  0.00     0.163 HD
BRANCH   5   7
ATOM      7  C   UNL A   1      40.969  26.224  27.397  1.00  0.00     0.039 A 
ATOM      8  C   UNL A   1      41.851  27.279  27.630  1.00  0.00     0.014 A 
ATOM      9  C   UNL A   1      39.980  25.958  28.358  1.00  0.00     0.014 A 
ATOM     10  C   UNL A   1      41.811  27.991  28.833  1.00  0.00     0.010 A 
ATOM     11  C   UNL A   1      39.872  26.740  29.518  1.00  0.00     0.010 A 
ATOM     12  C   UNL A   1      40.790  27.768  29.770  1.00  0.00    -0.014 A 
BRANCH  12  13
ATOM     13  C   UNL A   1      40.632  28.708  30.917  1.00  0.00     0.031 A 
ATOM     14  C   UNL A   1      41.539  28.659  32.116  1.00  0.00     0.074 A 
ATOM     15  C   UNL A   1      39.648  29.631  30.865  1.00  0.00     0.049 A 
ATOM     16  N   UNL A   1      41.547  29.431  33.174  1.00  0.00    -0.248 NA
ATOM     17  C   UNL A   1      42.561  27.602  32.140  1.00  0.00     0.031 C 
ATOM     18  C   UNL A   1      38.671  29.758  29.778  1.00  0.00     0.029 A 
ATOM     19  N   UNL A   1      39.315  30.650  31.722  1.00  0.00    -0.354 N 
ATOM     20  C   UNL A   1      42.553  28.944  34.001  1.00  0.00     0.074 A 
ATOM     21  C   UNL A   1      43.120  27.792  33.328  1.00  0.00     0.031 C 
ATOM     22  C   UNL A   1      37.902  30.834  29.996  1.00  0.00     0.029 A 
ATOM     23  C   UNL A   1      38.282  31.438  31.268  1.00  0.00     0.049 A 
ATOM     24  H   UNL A   1      39.773  30.803  32.580  1.00  0.00     0.167 HD
ATOM     25  C   UNL A   1      42.966  29.413  35.203  1.00  0.00     0.037 A 
ATOM     26  C   UNL A   1      37.696  32.522  31.811  1.00  0.00     0.037 A 
ATOM     27  C   UNL A   1      42.412  30.572  35.860  1.00  0.00     0.049 A 
ATOM     28  C   UNL A   1      38.181  33.028  33.138  1.00  0.00     0.074 A 
ATOM     29  C   UNL A   1      42.797  31.148  37.059  1.00  0.00     0.029 A 
ATOM     30  N   UNL A   1      41.354  31.328  35.379  1.00  0.00    -0.354 N 
ATOM     31  N   UNL A   1      39.157  32.572  33.884  1.00  0.00    -0.248 NA
ATOM     32  C   UNL A   1      37.479  34.188  33.702  1.00  0.00     0.031 C 
ATOM     33  C   UNL A   1      41.947  32.231  37.320  1.00  0.00     0.029 A 
ATOM     34  C   UNL A   1      41.060  32.354  36.264  1.00  0.00     0.049 A 
ATOM     35  H   UNL A   1      40.880  31.161  34.531  1.00  0.00     0.167 HD
ATOM     36  C   UNL A   1      39.198  33.398  35.000  1.00  0.00     0.074 A 
ATOM     37  C   UNL A   1      38.159  34.392  34.822  1.00  0.00     0.031 C 
ATOM     38  C   UNL A   1      40.021  33.336  36.076  1.00  0.00     0.037 A 
BRANCH  25  39
ATOM     39  C   UNL A   1      44.066  28.660  35.903  1.00  0.00     0.058 A 
ATOM     40  C   UNL A   1      45.418  28.996  35.732  1.00  0.00     0.135 A 
ATOM     41  C   UNL A   1      43.761  27.605  36.778  1.00  0.00     0.135 A 
ATOM     42  F   UNL A   1      45.768  29.989  34.899  1.00  0.00    -0.206 F 
ATOM     43  C   UNL A   1      46.431  28.289  36.374  1.00  0.00     0.059 A 
ATOM     44  C   UNL A   1      44.756  26.897  37.449  1.00  0.00     0.059 A 
ATOM     45  F   UNL A   1      42.485  27.244  36.984  1.00  0.00    -0.206 F 
ATOM     46  C   UNL A   1      46.090  27.236  37.224  1.00  0.00     0.060 A 
BRANCH  46  47
ATOM     47  S   UNL A   1      47.415  26.307  38.025  1.00  0.00     0.124 S 
ATOM     48  O   UNL A   1      46.663  25.241  38.680  1.00  0.00    -0.237 OA
ATOM     49  O   UNL A   1      48.239  25.895  36.893  1.00  0.00    -0.237 OA
ATOM     50  O   UNL A   1      48.026  27.286  38.919  1.00  0.00    -0.744 OA
ENDBRANCH  46  47
ENDBRANCH  25  39
BRANCH  26  51
ATOM     51  C   UNL A   1      36.593  33.207  31.086  1.00  0.00     0.058 A 
ATOM     52  C   UNL A   1      35.267  33.107  31.532  1.00  0.00     0.135 A 
ATOM     53  C   UNL A   1      36.846  34.002  29.957  1.00  0.00     0.135 A 
ATOM     54  F   UNL A   1      34.975  32.355  32.604  1.00  0.00    -0.206 F 
ATOM     55  C   UNL A   1      34.228  33.765  30.882  1.00  0.00     0.059 A 
ATOM     56  C   UNL A   1      35.828  34.689  29.305  1.00  0.00     0.059 A 
ATOM     57  F   UNL A   1      38.100  34.143  29.502  1.00  0.00    -0.206 F 
ATOM     58  C   UNL A   1      34.520  34.558  29.770  1.00  0.00     0.060 A 
BRANCH  58  59
ATOM     59  S   UNL A   1      33.176  35.459  28.969  1.00  0.00     0.124 S 
ATOM     60  O   UNL A   1      32.420  35.939  30.111  1.00  0.00    -0.237 OA
ATOM     61  O   UNL A   1      33.900  36.474  28.202  1.00  0.00    -0.237 OA
ATOM     62  O   UNL A   1      32.523  34.429  28.158  1.00  0.00    -0.744 OA
ENDBRANCH  58  59
ENDBRANCH  26  51
BRANCH  38  63
ATOM     63  C   UNL A   1      39.841  34.389  37.132  1.00  0.00     0.058 A 
ATOM     64  C   UNL A   1      39.024  34.176  38.254  1.00  0.00     0.135 A 
ATOM     65  C   UNL A   1      40.509  35.619  37.030  1.00  0.00     0.135 A 
ATOM     66  F   UNL A   1      38.356  33.019  38.393  1.00  0.00    -0.206 F 
ATOM     67  C   UNL A   1      38.853  35.157  39.224  1.00  0.00     0.059 A 
ATOM     68  C   UNL A   1      40.371  36.606  38.001  1.00  0.00     0.059 A 
ATOM     69  F   UNL A   1      41.308  35.871  35.981  1.00  0.00    -0.206 F 
ATOM     70  C   UNL A   1      39.529  36.371  39.087  1.00  0.00     0.060 A 
BRANCH  70  71
ATOM     71  S   UNL A   1      39.315  37.633  40.361  1.00  0.00     0.124 S 
ATOM     72  O   UNL A   1      38.133  38.339  39.878  1.00  0.00    -0.237 OA
ATOM     73  O   UNL A   1      39.126  36.835  41.569  1.00  0.00    -0.237 OA
ATOM     74  O   UNL A   1      40.564  38.386  40.304  1.00  0.00    -0.744 OA
ENDBRANCH  70  71
ENDBRANCH  38  63
ENDBRANCH  12  13
ENDBRANCH   5   7
ENDBRANCH   2   3
ENDBRANCH   1   2
BRANCH   1  75
ATOM     75  C   UNL A   1      37.247  23.537  25.857  1.00  0.00     0.118 C 
BRANCH  75  76
ATOM     76  N   UNL A   1      36.649  23.327  24.534  1.00  0.00    -0.351 N 
ATOM     77  C   UNL A   1      35.396  23.333  23.990  1.00  0.00     0.283 C 
ATOM     78  H   UNL A   1      37.335  23.126  23.856  1.00  0.00     0.163 HD
ATOM     79  O   UNL A   1      35.414  23.206  22.750  1.00  0.00    -0.268 OA
BRANCH  77  80
ATOM     80  C   UNL A   1      33.995  23.419  24.700  1.00  0.00     0.308 C 
BRANCH  80  81
ATOM     81  N   UNL A   1      32.904  24.152  23.937  1.00  0.00    -0.312 N 
ATOM     82  C   UNL A   1      31.559  24.324  24.572  1.00  0.00     0.325 C 
ATOM     83  C   UNL A   1      33.286  25.464  23.440  1.00  0.00     0.325 C 
ATOM     84  H   UNL A   1      32.798  23.465  23.190  1.00  0.00     0.349 HD
ATOM     85  C   UNL A   1      30.985  25.840  24.737  1.00  0.00     0.325 C 
ATOM     86  C   UNL A   1      33.280  26.411  24.625  1.00  0.00     0.325 C 
ATOM     87  N   UNL A   1      31.968  26.944  24.831  1.00  0.00    -0.318 N 
ATOM     88  H   UNL A   1      31.806  27.300  25.773  1.00  0.00     0.348 HD
BRANCH  87  89
ATOM     89  C   UNL A   1      31.782  28.189  24.047  1.00  0.00     0.364 C 
BRANCH  89  90
ATOM     90  C   UNL A   1      30.719  28.191  22.902  1.00  0.00     0.277 C 
ATOM     91  O   UNL A   1      30.857  27.466  21.913  1.00  0.00    -0.268 OA
ATOM     92  N   UNL A   1      29.532  28.924  23.105  1.00  0.00    -0.333 N 
ATOM     93  C   UNL A   1      29.398  30.354  22.785  1.00  0.00     0.148 C 
ATOM     94  C   UNL A   1      28.281  28.238  22.766  1.00  0.00     0.148 C 
ATOM     95  C   UNL A   1      28.217  30.982  23.516  1.00  0.00     0.181 C 
ATOM     96  C   UNL A   1      27.072  28.927  23.427  1.00  0.00     0.181 C 
ATOM     97  O   UNL A   1      27.008  30.333  23.122  1.00  0.00    -0.378 OA
ENDBRANCH  89  90
ENDBRANCH  87  89
ENDBRANCH  80  81
BRANCH  80  98
ATOM     98  C   UNL A   1      33.475  22.138  25.389  1.00  0.00     0.044 A 
ATOM     99  C   UNL A   1      33.425  21.829  26.739  1.00  0.00     0.094 A 
ATOM    100  C   UNL A   1      32.953  20.950  24.728  1.00  0.00     0.009 A 
ATOM    101  N   UNL A   1      33.247  20.476  26.877  1.00  0.00    -0.361 N 
ATOM    102  C   UNL A   1      32.999  19.906  25.655  1.00  0.00     0.049 A 
ATOM    103  C   UNL A   1      32.624  20.632  23.386  1.00  0.00     0.014 A 
ATOM    104  H   UNL A   1      33.292  19.986  27.729  1.00  0.00     0.166 HD
ATOM    105  C   UNL A   1      32.834  18.561  25.297  1.00  0.00     0.065 A 
ATOM    106  C   UNL A   1      32.429  19.296  23.016  1.00  0.00     0.040 A 
ATOM    107  C   UNL A   1      32.558  18.286  23.959  1.00  0.00     0.125 A 
ATOM    108  F   UNL A   1      32.422  17.009  23.573  1.00  0.00    -0.207 F 
ENDBRANCH  80  98
ENDBRANCH  77  80
ENDBRANCH  75  76
ENDBRANCH   1  75
TORSDOF 17
ENDMDL
MODEL 2
REMARK VINA RESULT:     -13.5      5.234     10.619
REMARK SMILES O=C(NCCCNC(=O)[C@H](c1c[nH]c2cc(F)ccc12)[NH+]1CC[NH+](CC(=O)N2CCOCC2)CC1)c1ccc(-c2c3nc(c(-c4c(F)cc(S(=O)(=O)[O-])cc4F)c4ccc([nH]4)c(-c4c(F)cc(S(=O)(=O)[O-])cc4F)c4nc(c(-c5c(F)cc(S(=O)(=O)[O-])cc5F)c5ccc2[nH]5)C=C4)C=C3)cc1
REMARK SMILES IDX 5 1 4 2 3 3 1 4 2 5 36 7 37 8 101 9 38 10 100 11 39 12 40 13
REMARK SMILES IDX 41 14 94 15 42 16 99 17 93 18 95 19 43 20 98 21 92 22 91 23
REMARK SMILES IDX 44 25 78 26 57 27 77 28 58 29 61 30 76 31 96 32 59 33 60 34
REMARK SMILES IDX 75 36 97 37 62 38 45 39 46 40 55 41 47 42 48 43 54 44 56 45
REMARK SMILES IDX 49 46 50 47 51 48 52 49 53 50 79 51 80 52 89 53 81 54 82 55
REMARK SMILES IDX 88 56 90 57 83 58 84 59 85 60 86 61 87 62 63 63 64 64 73 65
REMARK SMILES IDX 65 66 66 67 72 68 74 69 67 70 68 71 69 72 70 73 71 74 6 75
REMARK SMILES IDX 7 76 8 77 9 79 10 80 21 81 22 82 35 83 23 85 34 86 24 87
REMARK SMILES IDX 25 89 26 90 27 91 28 92 29 93 33 94 30 95 32 96 31 97 11 98
REMARK SMILES IDX 12 99 20 100 13 101 14 102 19 103 15 105 18 106 16 107
REMARK SMILES IDX 17 108
REMARK H PARENT 3 6 95 24 61 35 7 78 21 84 24 88 13 104
REMARK Flexibility Score: inf
ROOT
ATOM      1  C   UNL A   1      32.413  28.662  26.537  1.00  0.00     0.042 C 
ENDROOT
BRANCH   1   2
ATOM      2  C   UNL A   1      33.860  29.049  26.792  1.00  0.00     0.118 C 
BRANCH   2   3
ATOM      3  N   UNL A   1      33.960  30.248  27.601  1.00  0.00    -0.352 N 
ATOM      4  O   UNL A   1      34.627  31.595  29.246  1.00  0.00    -0.269 OA
ATOM      5  C   UNL A   1      34.926  30.679  28.479  1.00  0.00     0.251 C 
ATOM      6  H   UNL A   1      33.198  30.864  27.505  1.00  0.00     0.163 HD
BRANCH   5   7
ATOM      7  C   UNL A   1      36.294  30.091  28.549  1.00  0.00     0.039 A 
ATOM      8  C   UNL A   1      37.216  30.182  27.506  1.00  0.00     0.014 A 
ATOM      9  C   UNL A   1      36.723  29.549  29.772  1.00  0.00     0.014 A 
ATOM     10  C   UNL A   1      38.505  29.659  27.645  1.00  0.00     0.010 A 
ATOM     11  C   UNL A   1      38.047  29.120  29.946  1.00  0.00     0.010 A 
ATOM     12  C   UNL A   1      38.956  29.170  28.881  1.00  0.00    -0.014 A 
BRANCH  12  13
ATOM     13  C   UNL A   1      40.403  28.854  29.059  1.00  0.00     0.031 A 
ATOM     14  C   UNL A   1      40.986  27.531  28.641  1.00  0.00     0.074 A 
ATOM     15  C   UNL A   1      41.207  29.792  29.604  1.00  0.00     0.049 A 
ATOM     16  N   UNL A   1      42.229  27.125  28.700  1.00  0.00    -0.248 NA
ATOM     17  C   UNL A   1      40.055  26.532  28.098  1.00  0.00     0.031 C 
ATOM     18  C   UNL A   1      40.760  31.101  30.092  1.00  0.00     0.029 A 
ATOM     19  N   UNL A   1      42.562  29.809  29.820  1.00  0.00    -0.354 N 
ATOM     20  C   UNL A   1      42.231  25.817  28.227  1.00  0.00     0.074 A 
ATOM     21  C   UNL A   1      40.856  25.492  27.905  1.00  0.00     0.031 C 
ATOM     22  C   UNL A   1      41.825  31.818  30.479  1.00  0.00     0.029 A 
ATOM     23  C   UNL A   1      43.024  31.001  30.331  1.00  0.00     0.049 A 
ATOM     24  H   UNL A   1      43.148  29.042  29.628  1.00  0.00     0.167 HD
ATOM     25  C   UNL A   1      43.278  24.970  28.074  1.00  0.00     0.037 A 
ATOM     26  C   UNL A   1      44.270  31.398  30.653  1.00  0.00     0.037 A 
ATOM     27  C   UNL A   1      44.648  25.305  28.377  1.00  0.00     0.049 A 
ATOM     28  C   UNL A   1      45.413  30.445  30.462  1.00  0.00     0.074 A 
ATOM     29  C   UNL A   1      45.782  24.527  28.212  1.00  0.00     0.029 A 
ATOM     30  N   UNL A   1      45.071  26.513  28.912  1.00  0.00    -0.354 N 
ATOM     31  N   UNL A   1      45.395  29.226  29.980  1.00  0.00    -0.248 NA
ATOM     32  C   UNL A   1      46.744  30.916  30.867  1.00  0.00     0.031 C 
ATOM     33  C   UNL A   1      46.885  25.251  28.681  1.00  0.00     0.029 A 
ATOM     34  C   UNL A   1      46.445  26.496  29.101  1.00  0.00     0.049 A 
ATOM     35  H   UNL A   1      44.482  27.273  29.127  1.00  0.00     0.167 HD
ATOM     36  C   UNL A   1      46.713  28.788  30.009  1.00  0.00     0.074 A 
ATOM     37  C   UNL A   1      47.504  29.879  30.542  1.00  0.00     0.031 C 
ATOM     38  C   UNL A   1      47.221  27.588  29.633  1.00  0.00     0.037 A 
BRANCH  25  39
ATOM     39  C   UNL A   1      42.983  23.583  27.568  1.00  0.00     0.058 A 
ATOM     40  C   UNL A   1      42.577  22.552  28.429  1.00  0.00     0.135 A 
ATOM     41  C   UNL A   1      43.084  23.288  26.198  1.00  0.00     0.135 A 
ATOM     42  F   UNL A   1      42.474  22.775  29.749  1.00  0.00    -0.206 F 
ATOM     43  C   UNL A   1      42.316  21.269  27.957  1.00  0.00     0.059 A 
ATOM     44  C   UNL A   1      42.806  22.018  25.700  1.00  0.00     0.059 A 
ATOM     45  F   UNL A   1      43.464  24.238  25.328  1.00  0.00    -0.206 F 
ATOM     46  C   UNL A   1      42.441  21.010  26.591  1.00  0.00     0.060 A 
BRANCH  46  47
ATOM     47  S   UNL A   1      42.131  19.334  25.997  1.00  0.00     0.124 S 
ATOM     48  O   UNL A   1      42.532  18.539  27.154  1.00  0.00    -0.237 OA
ATOM     49  O   UNL A   1      40.699  19.361  25.716  1.00  0.00    -0.237 OA
ATOM     50  O   UNL A   1      42.995  19.221  24.826  1.00  0.00    -0.744 OA
ENDBRANCH  46  47
ENDBRANCH  25  39
BRANCH  26  51
ATOM     51  C   UNL A   1      44.497  32.771  31.177  1.00  0.00     0.058 A 
ATOM     52  C   UNL A   1      44.788  33.833  30.308  1.00  0.00     0.135 A 
ATOM     53  C   UNL A   1      44.393  33.056  32.547  1.00  0.00     0.135 A 
ATOM     54  F   UNL A   1      44.903  33.609  28.990  1.00  0.00    -0.206 F 
ATOM     55  C   UNL A   1      44.975  35.129  30.778  1.00  0.00     0.059 A 
ATOM     56  C   UNL A   1      44.551  34.348  33.039  1.00  0.00     0.059 A 
ATOM     57  F   UNL A   1      44.099  32.077  33.417  1.00  0.00    -0.206 F 
ATOM     58  C   UNL A   1      44.850  35.376  32.147  1.00  0.00     0.060 A 
BRANCH  58  59
ATOM     59  S   UNL A   1      45.032  37.071  32.743  1.00  0.00     0.124 S 
ATOM     60  O   UNL A   1      45.916  37.642  31.744  1.00  0.00    -0.237 OA
ATOM     61  O   UNL A   1      43.650  37.552  32.731  1.00  0.00    -0.237 OA
ATOM     62  O   UNL A   1      45.607  36.894  34.077  1.00  0.00    -0.744 OA
ENDBRANCH  58  59
ENDBRANCH  26  51
BRANCH  38  63
ATOM     63  C   UNL A   1      48.706  27.406  29.764  1.00  0.00     0.058 A 
ATOM     64  C   UNL A   1      49.277  26.795  30.891  1.00  0.00     0.135 A 
ATOM     65  C   UNL A   1      49.567  27.832  28.739  1.00  0.00     0.135 A 
ATOM     66  F   UNL A   1      48.497  26.379  31.902  1.00  0.00    -0.206 F 
ATOM     67  C   UNL A   1      50.654  26.637  31.011  1.00  0.00     0.059 A 
ATOM     68  C   UNL A   1      50.945  27.662  28.829  1.00  0.00     0.059 A 
ATOM     69  F   UNL A   1      49.071  28.415  27.637  1.00  0.00    -0.206 F 
ATOM     70  C   UNL A   1      51.480  27.077  29.976  1.00  0.00     0.060 A 
BRANCH  70  71
ATOM     71  S   UNL A   1      53.265  26.853  30.133  1.00  0.00     0.124 S 
ATOM     72  O   UNL A   1      53.347  25.932  31.262  1.00  0.00    -0.237 OA
ATOM     73  O   UNL A   1      53.628  26.295  28.833  1.00  0.00    -0.237 OA
ATOM     74  O   UNL A   1      53.754  28.204  30.387  1.00  0.00    -0.744 OA
ENDBRANCH  70  71
ENDBRANCH  38  63
ENDBRANCH  12  13
ENDBRANCH   5   7
ENDBRANCH   2   3
ENDBRANCH   1   2
BRANCH   1  75
ATOM     75  C   UNL A   1      31.906  27.446  27.327  1.00  0.00     0.118 C 
BRANCH  75  76
ATOM     76  N   UNL A   1      30.730  26.781  26.753  1.00  0.00    -0.351 N 
ATOM     77  C   UNL A   1      30.389  26.204  25.563  1.00  0.00     0.283 C 
ATOM     78  H   UNL A   1      29.988  26.738  27.400  1.00  0.00     0.163 HD
ATOM     79  O   UNL A   1      29.271  25.653  25.603  1.00  0.00    -0.268 OA
BRANCH  77  80
ATOM     80  C   UNL A   1      31.163  26.196  24.194  1.00  0.00     0.308 C 
BRANCH  80  81
ATOM     81  N   UNL A   1      31.051  24.923  23.370  1.00  0.00    -0.312 N 
ATOM     82  C   UNL A   1      32.048  24.665  22.283  1.00  0.00     0.325 C 
ATOM     83  C   UNL A   1      30.980  23.698  24.151  1.00  0.00     0.325 C 
ATOM     84  H   UNL A   1      30.165  25.151  22.918  1.00  0.00     0.349 HD
ATOM     85  C   UNL A   1      32.903  23.281  22.348  1.00  0.00     0.325 C 
ATOM     86  C   UNL A   1      32.382  23.407  24.655  1.00  0.00     0.325 C 
ATOM     87  N   UNL A   1      33.119  22.665  23.679  1.00  0.00    -0.318 N 
ATOM     88  H   UNL A   1      34.132  22.726  23.785  1.00  0.00     0.348 HD
BRANCH  87  89
ATOM     89  C   UNL A   1      32.925  21.208  23.876  1.00  0.00     0.364 C 
BRANCH  89  90
ATOM     90  C   UNL A   1      33.900  20.454  24.837  1.00  0.00     0.277 C 
ATOM     91  O   UNL A   1      33.616  19.334  25.270  1.00  0.00    -0.268 OA
ATOM     92  N   UNL A   1      35.171  21.021  25.065  1.00  0.00    -0.333 N 
ATOM     93  C   UNL A   1      35.435  22.020  26.113  1.00  0.00     0.148 C 
ATOM     94  C   UNL A   1      36.313  20.108  24.975  1.00  0.00     0.148 C 
ATOM     95  C   UNL A   1      36.724  22.786  25.843  1.00  0.00     0.181 C 
ATOM     96  C   UNL A   1      37.633  20.884  24.796  1.00  0.00     0.181 C 
ATOM     97  O   UNL A   1      37.826  21.880  25.819  1.00  0.00    -0.378 OA
ENDBRANCH  89  90
ENDBRANCH  87  89
ENDBRANCH  80  81
BRANCH  80  98
ATOM     98  C   UNL A   1      31.074  27.471  23.326  1.00  0.00     0.044 A 
ATOM     99  C   UNL A   1      32.092  28.197  22.730  1.00  0.00     0.094 A 
ATOM    100  C   UNL A   1      29.861  28.202  22.984  1.00  0.00     0.009 A 
ATOM    101  N   UNL A   1      31.609  29.432  22.381  1.00  0.00    -0.361 N 
ATOM    102  C   UNL A   1      30.251  29.477  22.567  1.00  0.00     0.049 A 
ATOM    103  C   UNL A   1      28.477  27.957  23.168  1.00  0.00     0.014 A 
ATOM    104  H   UNL A   1      32.156  30.178  22.046  1.00  0.00     0.166 HD
ATOM    105  C   UNL A   1      29.349  30.540  22.422  1.00  0.00     0.065 A 
ATOM    106  C   UNL A   1      27.559  29.001  23.000  1.00  0.00     0.040 A 
ATOM    107  C   UNL A   1      28.002  30.270  22.657  1.00  0.00     0.125 A 
ATOM    108  F   UNL A   1      27.113  31.268  22.556  1.00  0.00    -0.207 F 
ENDBRANCH  80  98
ENDBRANCH  77  80
ENDBRANCH  75  76
ENDBRANCH   1  75
TORSDOF 17
ENDMDL
MODEL 3
REMARK VINA RESULT:     -13.5      1.070      2.032
REMARK SMILES O=C(NCCCNC(=O)[C@H](c1c[nH]c2cc(F)ccc12)[NH+]1CC[NH+](CC(=O)N2CCOCC2)CC1)c1ccc(-c2c3nc(c(-c4c(F)cc(S(=O)(=O)[O-])cc4F)c4ccc([nH]4)c(-c4c(F)cc(S(=O)(=O)[O-])cc4F)c4nc(c(-c5c(F)cc(S(=O)(=O)[O-])cc5F)c5ccc2[nH]5)C=C4)C=C3)cc1
REMARK SMILES IDX 5 1 4 2 3 3 1 4 2 5 36 7 37 8 101 9 38 10 100 11 39 12 40 13
REMARK SMILES IDX 41 14 94 15 42 16 99 17 93 18 95 19 43 20 98 21 92 22 91 23
REMARK SMILES IDX 44 25 78 26 57 27 77 28 58 29 61 30 76 31 96 32 59 33 60 34
REMARK SMILES IDX 75 36 97 37 62 38 45 39 46 40 55 41 47 42 48 43 54 44 56 45
REMARK SMILES IDX 49 46 50 47 51 48 52 49 53 50 79 51 80 52 89 53 81 54 82 55
REMARK SMILES IDX 88 56 90 57 83 58 84 59 85 60 86 61 87 62 63 63 64 64 73 65
REMARK SMILES IDX 65 66 66 67 72 68 74 69 67 70 68 71 69 72 70 73 71 74 6 75
REMARK SMILES IDX 7 76 8 77 9 79 10 80 21 81 22 82 35 83 23 85 34 86 24 87
REMARK SMILES IDX 25 89 26 90 27 91 28 92 29 93 33 94 30 95 32 96 31 97 11 98
REMARK SMILES IDX 12 99 20 100 13 101 14 102 19 103 15 105 18 106 16 107
REMARK SMILES IDX 17 108
REMARK H PARENT 3 6 95 24 61 35 7 78 21 84 24 88 13 104
REMARK Flexibility Score: inf
ROOT
ATOM      1  C   UNL A   1      38.479  22.044  25.823  1.00  0.00     0.042 C 
ENDROOT
BRANCH   1   2
ATOM      2  C   UNL A   1      39.032  23.280  26.513  1.00  0.00     0.118 C 
BRANCH   2   3
ATOM      3  N   UNL A   1      40.445  23.460  26.241  1.00  0.00    -0.352 N 
ATOM      4  O   UNL A   1      42.382  24.516  25.927  1.00  0.00    -0.269 OA
ATOM      5  C   UNL A   1      41.304  24.496  26.522  1.00  0.00     0.251 C 
ATOM      6  H   UNL A   1      40.864  22.705  25.768  1.00  0.00     0.163 HD
BRANCH   5   7
ATOM      7  C   UNL A   1      40.990  25.583  27.492  1.00  0.00     0.039 A 
ATOM      8  C   UNL A   1      39.917  25.522  28.381  1.00  0.00     0.014 A 
ATOM      9  C   UNL A   1      41.898  26.647  27.616  1.00  0.00     0.014 A 
ATOM     10  C   UNL A   1      39.698  26.546  29.308  1.00  0.00     0.010 A 
ATOM     11  C   UNL A   1      41.739  27.620  28.615  1.00  0.00     0.010 A 
ATOM     12  C   UNL A   1      40.633  27.580  29.475  1.00  0.00    -0.014 A 
BRANCH  12  13
ATOM     13  C   UNL A   1      40.498  28.510  30.633  1.00  0.00     0.031 A 
ATOM     14  C   UNL A   1      41.406  28.429  31.830  1.00  0.00     0.074 A 
ATOM     15  C   UNL A   1      39.534  29.455  30.592  1.00  0.00     0.049 A 
ATOM     16  N   UNL A   1      41.432  29.189  32.895  1.00  0.00    -0.248 NA
ATOM     17  C   UNL A   1      42.404  27.350  31.839  1.00  0.00     0.031 C 
ATOM     18  C   UNL A   1      38.558  29.616  29.509  1.00  0.00     0.029 A 
ATOM     19  N   UNL A   1      39.225  30.472  31.461  1.00  0.00    -0.354 N 
ATOM     20  C   UNL A   1      42.429  28.671  33.715  1.00  0.00     0.074 A 
ATOM     21  C   UNL A   1      42.970  27.515  33.029  1.00  0.00     0.031 C 
ATOM     22  C   UNL A   1      37.813  30.706  29.741  1.00  0.00     0.029 A 
ATOM     23  C   UNL A   1      38.208  31.287  31.018  1.00  0.00     0.049 A 
ATOM     24  H   UNL A   1      39.687  30.606  32.320  1.00  0.00     0.167 HD
ATOM     25  C   UNL A   1      42.855  29.118  34.921  1.00  0.00     0.037 A 
ATOM     26  C   UNL A   1      37.646  32.377  31.575  1.00  0.00     0.037 A 
ATOM     27  C   UNL A   1      42.327  30.281  35.592  1.00  0.00     0.049 A 
ATOM     28  C   UNL A   1      38.145  32.858  32.905  1.00  0.00     0.074 A 
ATOM     29  C   UNL A   1      42.726  30.836  36.797  1.00  0.00     0.029 A 
ATOM     30  N   UNL A   1      41.285  31.066  35.121  1.00  0.00    -0.354 N 
ATOM     31  N   UNL A   1      39.113  32.373  33.645  1.00  0.00    -0.248 NA
ATOM     32  C   UNL A   1      37.470  34.027  33.484  1.00  0.00     0.031 C 
ATOM     33  C   UNL A   1      41.901  31.934  37.071  1.00  0.00     0.029 A 
ATOM     34  C   UNL A   1      41.014  32.088  36.018  1.00  0.00     0.049 A 
ATOM     35  H   UNL A   1      40.806  30.918  34.273  1.00  0.00     0.167 HD
ATOM     36  C   UNL A   1      39.174  33.186  34.769  1.00  0.00     0.074 A 
ATOM     37  C   UNL A   1      38.156  34.204  34.605  1.00  0.00     0.031 C 
ATOM     38  C   UNL A   1      39.996  33.094  35.843  1.00  0.00     0.037 A 
BRANCH  25  39
ATOM     39  C   UNL A   1      43.940  28.334  35.611  1.00  0.00     0.058 A 
ATOM     40  C   UNL A   1      43.646  27.313  36.528  1.00  0.00     0.135 A 
ATOM     41  C   UNL A   1      45.292  28.590  35.330  1.00  0.00     0.135 A 
ATOM     42  F   UNL A   1      42.371  27.033  36.842  1.00  0.00    -0.206 F 
ATOM     43  C   UNL A   1      44.653  26.599  37.170  1.00  0.00     0.059 A 
ATOM     44  C   UNL A   1      46.316  27.874  35.943  1.00  0.00     0.059 A 
ATOM     45  F   UNL A   1      45.630  29.552  34.457  1.00  0.00    -0.206 F 
ATOM     46  C   UNL A   1      45.986  26.892  36.877  1.00  0.00     0.060 A 
BRANCH  46  47
ATOM     47  S   UNL A   1      47.283  25.980  37.740  1.00  0.00     0.124 S 
ATOM     48  O   UNL A   1      48.315  27.004  37.873  1.00  0.00    -0.237 OA
ATOM     49  O   UNL A   1      46.619  25.588  38.980  1.00  0.00    -0.237 OA
ATOM     50  O   UNL A   1      47.597  24.886  36.827  1.00  0.00    -0.744 OA
ENDBRANCH  46  47
ENDBRANCH  25  39
BRANCH  26  51
ATOM     51  C   UNL A   1      36.558  33.095  30.859  1.00  0.00     0.058 A 
ATOM     52  C   UNL A   1      35.214  32.893  31.207  1.00  0.00     0.135 A 
ATOM     53  C   UNL A   1      36.839  34.018  29.840  1.00  0.00     0.135 A 
ATOM     54  F   UNL A   1      34.895  32.016  32.171  1.00  0.00    -0.206 F 
ATOM     55  C   UNL A   1      34.185  33.577  30.567  1.00  0.00     0.059 A 
ATOM     56  C   UNL A   1      35.830  34.733  29.203  1.00  0.00     0.059 A 
ATOM     57  F   UNL A   1      38.110  34.258  29.483  1.00  0.00    -0.206 F 
ATOM     58  C   UNL A   1      34.505  34.499  29.568  1.00  0.00     0.060 A 
BRANCH  58  59
ATOM     59  S   UNL A   1      33.170  35.429  28.785  1.00  0.00     0.124 S 
ATOM     60  O   UNL A   1      33.908  36.372  27.965  1.00  0.00    -0.237 OA
ATOM     61  O   UNL A   1      32.445  34.380  28.066  1.00  0.00    -0.237 OA
ATOM     62  O   UNL A   1      32.451  36.000  29.924  1.00  0.00    -0.744 OA
ENDBRANCH  58  59
ENDBRANCH  26  51
BRANCH  38  63
ATOM     63  C   UNL A   1      39.841  34.140  36.911  1.00  0.00     0.058 A 
ATOM     64  C   UNL A   1      40.513  35.370  36.840  1.00  0.00     0.135 A 
ATOM     65  C   UNL A   1      38.995  33.915  38.008  1.00  0.00     0.135 A 
ATOM     66  F   UNL A   1      41.341  35.629  35.815  1.00  0.00    -0.206 F 
ATOM     67  C   UNL A   1      40.373  36.331  37.836  1.00  0.00     0.059 A 
ATOM     68  C   UNL A   1      38.823  34.872  39.003  1.00  0.00     0.059 A 
ATOM     69  F   UNL A   1      38.324  32.757  38.119  1.00  0.00    -0.206 F 
ATOM     70  C   UNL A   1      39.528  36.071  38.915  1.00  0.00     0.060 A 
BRANCH  70  71
ATOM     71  S   UNL A   1      39.339  37.331  40.195  1.00  0.00     0.124 S 
ATOM     72  O   UNL A   1      38.487  38.306  39.524  1.00  0.00    -0.237 OA
ATOM     73  O   UNL A   1      38.713  36.585  41.283  1.00  0.00    -0.237 OA
ATOM     74  O   UNL A   1      40.710  37.764  40.449  1.00  0.00    -0.744 OA
ENDBRANCH  70  71
ENDBRANCH  38  63
ENDBRANCH  12  13
ENDBRANCH   5   7
ENDBRANCH   2   3
ENDBRANCH   1   2
BRANCH   1  75
ATOM     75  C   UNL A   1      36.961  22.043  25.589  1.00  0.00     0.118 C 
BRANCH  75  76
ATOM     76  N   UNL A   1      36.545  22.357  24.217  1.00  0.00    -0.351 N 
ATOM     77  C   UNL A   1      35.399  22.739  23.582  1.00  0.00     0.283 C 
ATOM     78  H   UNL A   1      37.295  22.268  23.584  1.00  0.00     0.163 HD
ATOM     79  O   UNL A   1      35.586  23.004  22.378  1.00  0.00    -0.268 OA
BRANCH  77  80
ATOM     80  C   UNL A   1      33.929  22.830  24.133  1.00  0.00     0.308 C 
BRANCH  80  81
ATOM     81  N   UNL A   1      32.866  23.264  23.137  1.00  0.00    -0.312 N 
ATOM     82  C   UNL A   1      31.437  23.340  23.579  1.00  0.00     0.325 C 
ATOM     83  C   UNL A   1      33.146  24.520  22.459  1.00  0.00     0.325 C 
ATOM     84  H   UNL A   1      32.947  22.458  22.518  1.00  0.00     0.349 HD
ATOM     85  C   UNL A   1      30.664  24.763  23.407  1.00  0.00     0.325 C 
ATOM     86  C   UNL A   1      32.865  25.635  23.449  1.00  0.00     0.325 C 
ATOM     87  N   UNL A   1      31.481  25.999  23.410  1.00  0.00    -0.318 N 
ATOM     88  H   UNL A   1      31.152  26.475  24.251  1.00  0.00     0.348 HD
BRANCH  87  89
ATOM     89  C   UNL A   1      31.249  27.061  22.402  1.00  0.00     0.364 C 
BRANCH  89  90
ATOM     90  C   UNL A   1      31.300  28.550  22.870  1.00  0.00     0.277 C 
ATOM     91  O   UNL A   1      30.669  29.422  22.266  1.00  0.00    -0.268 OA
ATOM     92  N   UNL A   1      31.957  28.839  24.083  1.00  0.00    -0.333 N 
ATOM     93  C   UNL A   1      33.402  29.102  24.179  1.00  0.00     0.148 C 
ATOM     94  C   UNL A   1      31.247  29.724  25.011  1.00  0.00     0.148 C 
ATOM     95  C   UNL A   1      33.910  28.920  25.604  1.00  0.00     0.181 C 
ATOM     96  C   UNL A   1      31.821  29.611  26.437  1.00  0.00     0.181 C 
ATOM     97  O   UNL A   1      33.244  29.833  26.474  1.00  0.00    -0.378 OA
ENDBRANCH  89  90
ENDBRANCH  87  89
ENDBRANCH  80  81
BRANCH  80  98
ATOM     98  C   UNL A   1      33.447  21.680  25.047  1.00  0.00     0.044 A 
ATOM     99  C   UNL A   1      33.397  21.623  26.430  1.00  0.00     0.094 A 
ATOM    100  C   UNL A   1      32.969  20.374  24.614  1.00  0.00     0.009 A 
ATOM    101  N   UNL A   1      33.264  20.314  26.815  1.00  0.00    -0.361 N 
ATOM    102  C   UNL A   1      33.043  19.520  25.718  1.00  0.00     0.049 A 
ATOM    103  C   UNL A   1      32.661  19.804  23.354  1.00  0.00     0.014 A 
ATOM    104  H   UNL A   1      33.319  19.990  27.742  1.00  0.00     0.166 HD
ATOM    105  C   UNL A   1      32.927  18.128  25.614  1.00  0.00     0.065 A 
ATOM    106  C   UNL A   1      32.513  18.416  23.236  1.00  0.00     0.040 A 
ATOM    107  C   UNL A   1      32.670  17.602  24.349  1.00  0.00     0.125 A 
ATOM    108  F   UNL A   1      32.580  16.272  24.204  1.00  0.00    -0.207 F 
ENDBRANCH  80  98
ENDBRANCH  77  80
ENDBRANCH  75  76
ENDBRANCH   1  75
TORSDOF 17
ENDMDL
