MODEL 1
REMARK VINA RESULT:     -12.8      0.000      0.000
REMARK SMILES O=C(NCCCNC(=O)c1ccc2c(c1)C(=O)O[C@H]2c1ccc(F)cc1)c1ccc(-c2c3nc(c(-c4c(F)cc(S(=O)(=O)[O-])cc4F)c4ccc([nH]4)c(-c4c(F)cc(S(=O)(=O)[O-])cc4F)c4nc(c(-c5c(F)cc(S(=O)(=O)[O-])cc5F)c5ccc2[nH]5)C=C4)C=C3)cc1
REMARK SMILES IDX 4 1 3 2 1 3 2 4 27 6 28 7 92 8 29 9 91 10 30 11 31 12 32 13
REMARK SMILES IDX 85 14 33 15 90 16 84 17 86 18 34 19 89 20 83 21 82 22 35 24
REMARK SMILES IDX 69 25 48 26 68 27 49 28 52 29 67 30 87 31 50 32 51 33 66 35
REMARK SMILES IDX 88 36 53 37 36 38 37 39 46 40 38 41 39 42 45 43 47 44 40 45
REMARK SMILES IDX 41 46 42 47 43 48 44 49 70 50 71 51 80 52 72 53 73 54 79 55
REMARK SMILES IDX 81 56 74 57 75 58 76 59 77 60 78 61 54 62 55 63 64 64 56 65
REMARK SMILES IDX 57 66 63 67 65 68 58 69 59 70 60 71 61 72 62 73 5 74 6 75
REMARK SMILES IDX 7 76 8 77 9 79 10 80 11 81 15 82 12 83 14 84 13 85 16 86
REMARK SMILES IDX 19 87 17 88 18 89 20 90 21 91 26 92 22 93 25 94 23 95 24 96
REMARK H PARENT 3 5 86 23 52 34 7 78
REMARK Flexibility Score: inf
ROOT
ATOM      1  C   UNL A   1      38.094  24.016  26.476  1.00  0.00     0.118 C 
ENDROOT
BRANCH   1   2
ATOM      2  N   UNL A   1      39.507  23.970  26.114  1.00  0.00    -0.352 N 
ATOM      3  O   UNL A   1      41.642  24.660  25.949  1.00  0.00    -0.269 OA
ATOM      4  C   UNL A   1      40.556  24.763  26.512  1.00  0.00     0.251 C 
ATOM      5  H   UNL A   1      39.747  23.253  25.482  1.00  0.00     0.163 HD
BRANCH   4   6
ATOM      6  C   UNL A   1      40.368  25.757  27.590  1.00  0.00     0.039 A 
ATOM      7  C   UNL A   1      41.086  26.951  27.585  1.00  0.00     0.014 A 
ATOM      8  C   UNL A   1      39.463  25.494  28.623  1.00  0.00     0.014 A 
ATOM      9  C   UNL A   1      41.065  27.773  28.702  1.00  0.00     0.010 A 
ATOM     10  C   UNL A   1      39.342  26.393  29.687  1.00  0.00     0.010 A 
ATOM     11  C   UNL A   1      40.174  27.521  29.757  1.00  0.00    -0.014 A 
BRANCH  11  12
ATOM     12  C   UNL A   1      40.098  28.492  30.879  1.00  0.00     0.031 A 
ATOM     13  C   UNL A   1      41.060  28.435  32.032  1.00  0.00     0.074 A 
ATOM     14  C   UNL A   1      39.174  29.472  30.815  1.00  0.00     0.049 A 
ATOM     15  N   UNL A   1      41.151  29.235  33.066  1.00  0.00    -0.248 NA
ATOM     16  C   UNL A   1      42.044  27.342  32.037  1.00  0.00     0.031 C 
ATOM     17  C   UNL A   1      38.188  29.626  29.741  1.00  0.00     0.029 A 
ATOM     18  N   UNL A   1      38.931  30.539  31.640  1.00  0.00    -0.354 N 
ATOM     19  C   UNL A   1      42.191  28.741  33.844  1.00  0.00     0.074 A 
ATOM     20  C   UNL A   1      42.675  27.547  33.186  1.00  0.00     0.031 C 
ATOM     21  C   UNL A   1      37.500  30.759  29.933  1.00  0.00     0.029 A 
ATOM     22  C   UNL A   1      37.932  31.368  31.185  1.00  0.00     0.049 A 
ATOM     23  H   UNL A   1      39.424  30.698  32.478  1.00  0.00     0.167 HD
ATOM     24  C   UNL A   1      42.705  29.249  34.991  1.00  0.00     0.037 A 
ATOM     25  C   UNL A   1      37.408  32.487  31.717  1.00  0.00     0.037 A 
ATOM     26  C   UNL A   1      42.211  30.441  35.636  1.00  0.00     0.049 A 
ATOM     27  C   UNL A   1      37.954  32.997  33.016  1.00  0.00     0.074 A 
ATOM     28  C   UNL A   1      42.663  31.038  36.801  1.00  0.00     0.029 A 
ATOM     29  N   UNL A   1      41.154  31.216  35.178  1.00  0.00    -0.354 N 
ATOM     30  N   UNL A   1      38.941  32.518  33.736  1.00  0.00    -0.248 NA
ATOM     31  C   UNL A   1      37.317  34.191  33.580  1.00  0.00     0.031 C 
ATOM     32  C   UNL A   1      41.847  32.140  37.074  1.00  0.00     0.029 A 
ATOM     33  C   UNL A   1      40.925  32.272  36.048  1.00  0.00     0.049 A 
ATOM     34  H   UNL A   1      40.641  31.041  34.356  1.00  0.00     0.167 HD
ATOM     35  C   UNL A   1      39.053  33.362  34.833  1.00  0.00     0.074 A 
ATOM     36  C   UNL A   1      38.045  34.391  34.671  1.00  0.00     0.031 C 
ATOM     37  C   UNL A   1      39.913  33.289  35.879  1.00  0.00     0.037 A 
BRANCH  24  38
ATOM     38  C   UNL A   1      43.855  28.516  35.632  1.00  0.00     0.058 A 
ATOM     39  C   UNL A   1      43.624  27.525  36.601  1.00  0.00     0.135 A 
ATOM     40  C   UNL A   1      45.191  28.824  35.322  1.00  0.00     0.135 A 
ATOM     41  F   UNL A   1      42.370  27.187  36.938  1.00  0.00    -0.206 F 
ATOM     42  C   UNL A   1      44.673  26.872  37.243  1.00  0.00     0.059 A 
ATOM     43  C   UNL A   1      46.255  28.162  35.930  1.00  0.00     0.059 A 
ATOM     44  F   UNL A   1      45.473  29.749  34.391  1.00  0.00    -0.206 F 
ATOM     45  C   UNL A   1      45.986  27.194  36.897  1.00  0.00     0.060 A 
BRANCH  45  46
ATOM     46  S   UNL A   1      47.334  26.296  37.695  1.00  0.00     0.124 S 
ATOM     47  O   UNL A   1      46.621  25.218  38.370  1.00  0.00    -0.237 OA
ATOM     48  O   UNL A   1      48.155  25.902  36.554  1.00  0.00    -0.237 OA
ATOM     49  O   UNL A   1      47.935  27.298  38.570  1.00  0.00    -0.744 OA
ENDBRANCH  45  46
ENDBRANCH  24  38
BRANCH  25  50
ATOM     50  C   UNL A   1      36.316  33.191  30.994  1.00  0.00     0.058 A 
ATOM     51  C   UNL A   1      36.581  33.961  29.849  1.00  0.00     0.135 A 
ATOM     52  C   UNL A   1      35.002  33.177  31.483  1.00  0.00     0.135 A 
ATOM     53  F   UNL A   1      37.824  34.021  29.350  1.00  0.00    -0.206 F 
ATOM     54  C   UNL A   1      35.592  34.727  29.243  1.00  0.00     0.059 A 
ATOM     55  C   UNL A   1      33.988  33.910  30.875  1.00  0.00     0.059 A 
ATOM     56  F   UNL A   1      34.700  32.448  32.569  1.00  0.00    -0.206 F 
ATOM     57  C   UNL A   1      34.300  34.701  29.770  1.00  0.00     0.060 A 
BRANCH  57  58
ATOM     58  S   UNL A   1      33.042  35.736  28.992  1.00  0.00     0.124 S 
ATOM     59  O   UNL A   1      32.271  36.177  30.151  1.00  0.00    -0.237 OA
ATOM     60  O   UNL A   1      33.852  36.760  28.340  1.00  0.00    -0.237 OA
ATOM     61  O   UNL A   1      32.354  34.815  28.095  1.00  0.00    -0.744 OA
ENDBRANCH  57  58
ENDBRANCH  25  50
BRANCH  37  62
ATOM     62  C   UNL A   1      39.821  34.362  36.928  1.00  0.00     0.058 A 
ATOM     63  C   UNL A   1      39.080  34.147  38.102  1.00  0.00     0.135 A 
ATOM     64  C   UNL A   1      40.410  35.623  36.749  1.00  0.00     0.135 A 
ATOM     65  F   UNL A   1      38.493  32.959  38.324  1.00  0.00    -0.206 F 
ATOM     66  C   UNL A   1      38.911  35.149  39.051  1.00  0.00     0.059 A 
ATOM     67  C   UNL A   1      40.280  36.632  37.700  1.00  0.00     0.059 A 
ATOM     68  F   UNL A   1      41.140  35.878  35.651  1.00  0.00    -0.206 F 
ATOM     69  C   UNL A   1      39.515  36.389  38.840  1.00  0.00     0.060 A 
BRANCH  69  70
ATOM     70  S   UNL A   1      39.297  37.671  40.092  1.00  0.00     0.124 S 
ATOM     71  O   UNL A   1      38.181  38.435  39.547  1.00  0.00    -0.237 OA
ATOM     72  O   UNL A   1      39.007  36.886  41.288  1.00  0.00    -0.237 OA
ATOM     73  O   UNL A   1      40.585  38.359  40.100  1.00  0.00    -0.744 OA
ENDBRANCH  69  70
ENDBRANCH  37  62
ENDBRANCH  11  12
ENDBRANCH   4   6
ENDBRANCH   1   2
BRANCH   1  74
ATOM     74  C   UNL A   1      37.183  23.534  25.362  1.00  0.00     0.042 C 
BRANCH  74  75
ATOM     75  C   UNL A   1      35.926  22.847  25.865  1.00  0.00     0.118 C 
BRANCH  75  76
ATOM     76  N   UNL A   1      35.157  22.238  24.786  1.00  0.00    -0.352 N 
ATOM     77  C   UNL A   1      34.024  22.684  24.154  1.00  0.00     0.251 C 
ATOM     78  H   UNL A   1      35.502  21.375  24.462  1.00  0.00     0.163 HD
ATOM     79  O   UNL A   1      33.404  21.951  23.391  1.00  0.00    -0.269 OA
BRANCH  77  80
ATOM     80  C   UNL A   1      33.543  24.055  24.403  1.00  0.00     0.040 A 
ATOM     81  C   UNL A   1      34.252  25.137  23.844  1.00  0.00     0.014 A 
ATOM     82  C   UNL A   1      32.410  24.271  25.189  1.00  0.00     0.030 A 
ATOM     83  C   UNL A   1      33.790  26.447  24.014  1.00  0.00     0.009 A 
ATOM     84  C   UNL A   1      31.953  25.567  25.291  1.00  0.00     0.068 A 
ATOM     85  C   UNL A   1      32.621  26.637  24.734  1.00  0.00     0.012 A 
ATOM     86  C   UNL A   1      30.755  26.042  25.961  1.00  0.00     0.339 C 
ATOM     87  C   UNL A   1      31.898  27.882  25.098  1.00  0.00     0.238 C 
ATOM     88  O   UNL A   1      29.932  25.354  26.533  1.00  0.00    -0.246 OA
ATOM     89  O   UNL A   1      30.738  27.398  25.818  1.00  0.00    -0.449 OA
BRANCH  87  90
ATOM     90  C   UNL A   1      32.690  28.803  26.001  1.00  0.00    -0.003 A 
ATOM     91  C   UNL A   1      33.995  28.468  26.416  1.00  0.00     0.011 A 
ATOM     92  C   UNL A   1      32.139  30.023  26.419  1.00  0.00     0.011 A 
ATOM     93  C   UNL A   1      34.734  29.340  27.213  1.00  0.00     0.039 A 
ATOM     94  C   UNL A   1      32.880  30.891  27.223  1.00  0.00     0.039 A 
ATOM     95  C   UNL A   1      34.170  30.545  27.608  1.00  0.00     0.123 A 
ATOM     96  F   UNL A   1      34.880  31.386  28.370  1.00  0.00    -0.207 F 
ENDBRANCH  87  90
ENDBRANCH  77  80
ENDBRANCH  75  76
ENDBRANCH  74  75
ENDBRANCH   1  74
TORSDOF 14
ENDMDL
MODEL 2
REMARK VINA RESULT:     -12.7      6.850     12.222
REMARK SMILES O=C(NCCCNC(=O)c1ccc2c(c1)C(=O)O[C@H]2c1ccc(F)cc1)c1ccc(-c2c3nc(c(-c4c(F)cc(S(=O)(=O)[O-])cc4F)c4ccc([nH]4)c(-c4c(F)cc(S(=O)(=O)[O-])cc4F)c4nc(c(-c5c(F)cc(S(=O)(=O)[O-])cc5F)c5ccc2[nH]5)C=C4)C=C3)cc1
REMARK SMILES IDX 4 1 3 2 1 3 2 4 27 6 28 7 92 8 29 9 91 10 30 11 31 12 32 13
REMARK SMILES IDX 85 14 33 15 90 16 84 17 86 18 34 19 89 20 83 21 82 22 35 24
REMARK SMILES IDX 69 25 48 26 68 27 49 28 52 29 67 30 87 31 50 32 51 33 66 35
REMARK SMILES IDX 88 36 53 37 36 38 37 39 46 40 38 41 39 42 45 43 47 44 40 45
REMARK SMILES IDX 41 46 42 47 43 48 44 49 70 50 71 51 80 52 72 53 73 54 79 55
REMARK SMILES IDX 81 56 74 57 75 58 76 59 77 60 78 61 54 62 55 63 64 64 56 65
REMARK SMILES IDX 57 66 63 67 65 68 58 69 59 70 60 71 61 72 62 73 5 74 6 75
REMARK SMILES IDX 7 76 8 77 9 79 10 80 11 81 15 82 12 83 14 84 13 85 16 86
REMARK SMILES IDX 19 87 17 88 18 89 20 90 21 91 26 92 22 93 25 94 23 95 24 96
REMARK H PARENT 3 5 86 23 52 34 7 78
REMARK Flexibility Score: inf
ROOT
ATOM      1  C   UNL A   1      35.074  29.297  27.717  1.00  0.00     0.118 C 
ENDROOT
BRANCH   1   2
ATOM      2  N   UNL A   1      35.202  30.067  28.949  1.00  0.00    -0.352 N 
ATOM      3  O   UNL A   1      36.141  30.821  30.850  1.00  0.00    -0.269 OA
ATOM      4  C   UNL A   1      36.292  30.278  29.759  1.00  0.00     0.251 C 
ATOM      5  H   UNL A   1      34.374  30.507  29.248  1.00  0.00     0.163 HD
BRANCH   4   6
ATOM      6  C   UNL A   1      37.633  29.826  29.332  1.00  0.00     0.039 A 
ATOM      7  C   UNL A   1      38.532  29.303  30.260  1.00  0.00     0.014 A 
ATOM      8  C   UNL A   1      38.001  29.928  27.987  1.00  0.00     0.014 A 
ATOM      9  C   UNL A   1      39.852  29.085  29.894  1.00  0.00     0.010 A 
ATOM     10  C   UNL A   1      39.297  29.578  27.593  1.00  0.00     0.010 A 
ATOM     11  C   UNL A   1      40.247  29.194  28.551  1.00  0.00    -0.014 A 
BRANCH  11  12
ATOM     12  C   UNL A   1      41.641  28.835  28.183  1.00  0.00     0.031 A 
ATOM     13  C   UNL A   1      42.758  29.839  28.265  1.00  0.00     0.074 A 
ATOM     14  C   UNL A   1      41.900  27.561  27.823  1.00  0.00     0.049 A 
ATOM     15  N   UNL A   1      44.033  29.670  28.020  1.00  0.00    -0.248 NA
ATOM     16  C   UNL A   1      42.405  31.209  28.668  1.00  0.00     0.031 C 
ATOM     17  C   UNL A   1      40.895  26.501  27.709  1.00  0.00     0.029 A 
ATOM     18  N   UNL A   1      43.079  26.931  27.522  1.00  0.00    -0.354 N 
ATOM     19  C   UNL A   1      44.632  30.906  28.230  1.00  0.00     0.074 A 
ATOM     20  C   UNL A   1      43.574  31.829  28.582  1.00  0.00     0.031 C 
ATOM     21  C   UNL A   1      41.506  25.341  27.437  1.00  0.00     0.029 A 
ATOM     22  C   UNL A   1      42.933  25.586  27.272  1.00  0.00     0.049 A 
ATOM     23  H   UNL A   1      43.947  27.395  27.487  1.00  0.00     0.167 HD
ATOM     24  C   UNL A   1      45.944  31.235  28.152  1.00  0.00     0.037 A 
ATOM     25  C   UNL A   1      43.840  24.651  26.934  1.00  0.00     0.037 A 
ATOM     26  C   UNL A   1      46.988  30.304  27.797  1.00  0.00     0.049 A 
ATOM     27  C   UNL A   1      45.278  25.052  26.797  1.00  0.00     0.074 A 
ATOM     28  C   UNL A   1      48.349  30.538  27.692  1.00  0.00     0.029 A 
ATOM     29  N   UNL A   1      46.791  28.965  27.488  1.00  0.00    -0.354 N 
ATOM     30  N   UNL A   1      45.826  26.226  27.004  1.00  0.00    -0.248 NA
ATOM     31  C   UNL A   1      46.220  24.008  26.379  1.00  0.00     0.031 C 
ATOM     32  C   UNL A   1      48.965  29.357  27.267  1.00  0.00     0.029 A 
ATOM     33  C   UNL A   1      48.001  28.366  27.169  1.00  0.00     0.049 A 
ATOM     34  H   UNL A   1      45.920  28.508  27.493  1.00  0.00     0.167 HD
ATOM     35  C   UNL A   1      47.182  26.059  26.753  1.00  0.00     0.074 A 
ATOM     36  C   UNL A   1      47.372  24.666  26.398  1.00  0.00     0.031 C 
ATOM     37  C   UNL A   1      48.177  26.978  26.812  1.00  0.00     0.037 A 
BRANCH  24  38
ATOM     38  C   UNL A   1      46.332  32.662  28.446  1.00  0.00     0.058 A 
ATOM     39  C   UNL A   1      46.390  33.616  27.417  1.00  0.00     0.135 A 
ATOM     40  C   UNL A   1      46.690  33.078  29.740  1.00  0.00     0.135 A 
ATOM     41  F   UNL A   1      46.059  33.279  26.161  1.00  0.00    -0.206 F 
ATOM     42  C   UNL A   1      46.795  34.926  27.657  1.00  0.00     0.059 A 
ATOM     43  C   UNL A   1      47.069  34.391  30.008  1.00  0.00     0.059 A 
ATOM     44  F   UNL A   1      46.635  32.215  30.766  1.00  0.00    -0.206 F 
ATOM     45  C   UNL A   1      47.128  35.306  28.958  1.00  0.00     0.060 A 
BRANCH  45  46
ATOM     46  S   UNL A   1      47.593  37.024  29.264  1.00  0.00     0.124 S 
ATOM     47  O   UNL A   1      48.189  36.944  30.592  1.00  0.00    -0.237 OA
ATOM     48  O   UNL A   1      48.516  37.289  28.165  1.00  0.00    -0.237 OA
ATOM     49  O   UNL A   1      46.321  37.737  29.186  1.00  0.00    -0.744 OA
ENDBRANCH  45  46
ENDBRANCH  24  38
BRANCH  25  50
ATOM     50  C   UNL A   1      43.391  23.250  26.721  1.00  0.00     0.058 A 
ATOM     51  C   UNL A   1      43.060  22.420  27.805  1.00  0.00     0.135 A 
ATOM     52  C   UNL A   1      43.369  22.688  25.436  1.00  0.00     0.135 A 
ATOM     53  F   UNL A   1      43.081  22.905  29.055  1.00  0.00    -0.206 F 
ATOM     54  C   UNL A   1      42.766  21.073  27.627  1.00  0.00     0.059 A 
ATOM     55  C   UNL A   1      43.047  21.350  25.230  1.00  0.00     0.059 A 
ATOM     56  F   UNL A   1      43.669  23.444  24.369  1.00  0.00    -0.206 F 
ATOM     57  C   UNL A   1      42.771  20.546  26.335  1.00  0.00     0.060 A 
BRANCH  57  58
ATOM     58  S   UNL A   1      42.428  18.785  26.132  1.00  0.00     0.124 S 
ATOM     59  O   UNL A   1      42.676  18.283  27.480  1.00  0.00    -0.237 OA
ATOM     60  O   UNL A   1      41.032  18.795  25.704  1.00  0.00    -0.237 OA
ATOM     61  O   UNL A   1      43.391  18.368  25.119  1.00  0.00    -0.744 OA
ENDBRANCH  57  58
ENDBRANCH  25  50
BRANCH  37  62
ATOM     62  C   UNL A   1      49.573  26.509  26.504  1.00  0.00     0.058 A 
ATOM     63  C   UNL A   1      50.077  26.589  25.196  1.00  0.00     0.135 A 
ATOM     64  C   UNL A   1      50.388  25.922  27.484  1.00  0.00     0.135 A 
ATOM     65  F   UNL A   1      49.338  27.138  24.217  1.00  0.00    -0.206 F 
ATOM     66  C   UNL A   1      51.332  26.089  24.867  1.00  0.00     0.059 A 
ATOM     67  C   UNL A   1      51.660  25.443  27.185  1.00  0.00     0.059 A 
ATOM     68  F   UNL A   1      49.959  25.833  28.754  1.00  0.00    -0.206 F 
ATOM     69  C   UNL A   1      52.116  25.517  25.869  1.00  0.00     0.060 A 
BRANCH  69  70
ATOM     70  S   UNL A   1      53.749  24.889  25.426  1.00  0.00     0.124 S 
ATOM     71  O   UNL A   1      54.010  25.590  24.173  1.00  0.00    -0.237 OA
ATOM     72  O   UNL A   1      54.558  25.304  26.568  1.00  0.00    -0.237 OA
ATOM     73  O   UNL A   1      53.538  23.449  25.307  1.00  0.00    -0.744 OA
ENDBRANCH  69  70
ENDBRANCH  37  62
ENDBRANCH  11  12
ENDBRANCH   4   6
ENDBRANCH   1   2
BRANCH   1  74
ATOM     74  C   UNL A   1      33.655  29.275  27.180  1.00  0.00     0.042 C 
BRANCH  74  75
ATOM     75  C   UNL A   1      33.583  29.200  25.665  1.00  0.00     0.118 C 
BRANCH  75  76
ATOM     76  N   UNL A   1      32.233  29.421  25.161  1.00  0.00    -0.352 N 
ATOM     77  C   UNL A   1      31.455  28.628  24.355  1.00  0.00     0.251 C 
ATOM     78  H   UNL A   1      31.816  30.267  25.441  1.00  0.00     0.163 HD
ATOM     79  O   UNL A   1      30.410  29.058  23.878  1.00  0.00    -0.269 OA
BRANCH  77  80
ATOM     80  C   UNL A   1      31.885  27.251  24.053  1.00  0.00     0.040 A 
ATOM     81  C   UNL A   1      31.866  26.291  25.084  1.00  0.00     0.014 A 
ATOM     82  C   UNL A   1      32.313  26.914  22.768  1.00  0.00     0.030 A 
ATOM     83  C   UNL A   1      32.214  24.962  24.818  1.00  0.00     0.009 A 
ATOM     84  C   UNL A   1      32.597  25.588  22.529  1.00  0.00     0.068 A 
ATOM     85  C   UNL A   1      32.565  24.628  23.519  1.00  0.00     0.012 A 
ATOM     86  C   UNL A   1      32.966  24.966  21.268  1.00  0.00     0.339 C 
ATOM     87  C   UNL A   1      32.994  23.334  22.932  1.00  0.00     0.238 C 
ATOM     88  O   UNL A   1      33.062  25.525  20.194  1.00  0.00    -0.246 OA
ATOM     89  O   UNL A   1      33.175  23.645  21.530  1.00  0.00    -0.449 OA
BRANCH  87  90
ATOM     90  C   UNL A   1      34.299  22.815  23.496  1.00  0.00    -0.003 A 
ATOM     91  C   UNL A   1      34.321  21.747  24.415  1.00  0.00     0.011 A 
ATOM     92  C   UNL A   1      35.516  23.382  23.088  1.00  0.00     0.011 A 
ATOM     93  C   UNL A   1      35.529  21.248  24.898  1.00  0.00     0.039 A 
ATOM     94  C   UNL A   1      36.724  22.884  23.579  1.00  0.00     0.039 A 
ATOM     95  C   UNL A   1      36.720  21.820  24.473  1.00  0.00     0.123 A 
ATOM     96  F   UNL A   1      37.882  21.340  24.933  1.00  0.00    -0.207 F 
ENDBRANCH  87  90
ENDBRANCH  77  80
ENDBRANCH  75  76
ENDBRANCH  74  75
ENDBRANCH   1  74
TORSDOF 14
ENDMDL
MODEL 3
REMARK VINA RESULT:     -12.6      0.873      1.561
REMARK SMILES O=C(NCCCNC(=O)c1ccc2c(c1)C(=O)O[C@H]2c1ccc(F)cc1)c1ccc(-c2c3nc(c(-c4c(F)cc(S(=O)(=O)[O-])cc4F)c4ccc([nH]4)c(-c4c(F)cc(S(=O)(=O)[O-])cc4F)c4nc(c(-c5c(F)cc(S(=O)(=O)[O-])cc5F)c5ccc2[nH]5)C=C4)C=C3)cc1
REMARK SMILES IDX 4 1 3 2 1 3 2 4 27 6 28 7 92 8 29 9 91 10 30 11 31 12 32 13
REMARK SMILES IDX 85 14 33 15 90 16 84 17 86 18 34 19 89 20 83 21 82 22 35 24
REMARK SMILES IDX 69 25 48 26 68 27 49 28 52 29 67 30 87 31 50 32 51 33 66 35
REMARK SMILES IDX 88 36 53 37 36 38 37 39 46 40 38 41 39 42 45 43 47 44 40 45
REMARK SMILES IDX 41 46 42 47 43 48 44 49 70 50 71 51 80 52 72 53 73 54 79 55
REMARK SMILES IDX 81 56 74 57 75 58 76 59 77 60 78 61 54 62 55 63 64 64 56 65
REMARK SMILES IDX 57 66 63 67 65 68 58 69 59 70 60 71 61 72 62 73 5 74 6 75
REMARK SMILES IDX 7 76 8 77 9 79 10 80 11 81 15 82 12 83 14 84 13 85 16 86
REMARK SMILES IDX 19 87 17 88 18 89 20 90 21 91 26 92 22 93 25 94 23 95 24 96
REMARK H PARENT 3 5 86 23 52 34 7 78
REMARK Flexibility Score: inf
ROOT
ATOM      1  C   UNL A   1      38.336  24.102  26.337  1.00  0.00     0.118 C 
ENDROOT
BRANCH   1   2
ATOM      2  N   UNL A   1      39.750  24.094  25.978  1.00  0.00    -0.352 N 
ATOM      3  O   UNL A   1      41.869  24.836  25.832  1.00  0.00    -0.269 OA
ATOM      4  C   UNL A   1      40.779  24.905  26.393  1.00  0.00     0.251 C 
ATOM      5  H   UNL A   1      40.008  23.394  25.336  1.00  0.00     0.163 HD
BRANCH   4   6
ATOM      6  C   UNL A   1      40.565  25.876  27.487  1.00  0.00     0.039 A 
ATOM      7  C   UNL A   1      41.205  27.114  27.470  1.00  0.00     0.014 A 
ATOM      8  C   UNL A   1      39.716  25.546  28.547  1.00  0.00     0.014 A 
ATOM      9  C   UNL A   1      41.170  27.923  28.595  1.00  0.00     0.010 A 
ATOM     10  C   UNL A   1      39.574  26.427  29.624  1.00  0.00     0.010 A 
ATOM     11  C   UNL A   1      40.334  27.606  29.677  1.00  0.00    -0.014 A 
BRANCH  11  12
ATOM     12  C   UNL A   1      40.235  28.560  30.811  1.00  0.00     0.031 A 
ATOM     13  C   UNL A   1      41.191  28.505  31.970  1.00  0.00     0.074 A 
ATOM     14  C   UNL A   1      39.295  29.526  30.753  1.00  0.00     0.049 A 
ATOM     15  N   UNL A   1      41.262  29.292  33.014  1.00  0.00    -0.248 NA
ATOM     16  C   UNL A   1      42.193  27.428  31.967  1.00  0.00     0.031 C 
ATOM     17  C   UNL A   1      38.313  29.678  29.676  1.00  0.00     0.029 A 
ATOM     18  N   UNL A   1      39.030  30.578  31.591  1.00  0.00    -0.354 N 
ATOM     19  C   UNL A   1      42.305  28.806  33.792  1.00  0.00     0.074 A 
ATOM     20  C   UNL A   1      42.813  27.628  33.122  1.00  0.00     0.031 C 
ATOM     21  C   UNL A   1      37.606  30.796  29.878  1.00  0.00     0.029 A 
ATOM     22  C   UNL A   1      38.020  31.396  31.140  1.00  0.00     0.049 A 
ATOM     23  H   UNL A   1      39.514  30.734  32.434  1.00  0.00     0.167 HD
ATOM     24  C   UNL A   1      42.803  29.307  34.949  1.00  0.00     0.037 A 
ATOM     25  C   UNL A   1      37.474  32.500  31.683  1.00  0.00     0.037 A 
ATOM     26  C   UNL A   1      42.285  30.482  35.607  1.00  0.00     0.049 A 
ATOM     27  C   UNL A   1      38.004  33.001  32.993  1.00  0.00     0.074 A 
ATOM     28  C   UNL A   1      42.720  31.071  36.782  1.00  0.00     0.029 A 
ATOM     29  N   UNL A   1      41.219  31.245  35.152  1.00  0.00    -0.354 N 
ATOM     30  N   UNL A   1      38.994  32.530  33.713  1.00  0.00    -0.248 NA
ATOM     31  C   UNL A   1      37.343  34.178  33.568  1.00  0.00     0.031 C 
ATOM     32  C   UNL A   1      41.885  32.156  37.064  1.00  0.00     0.029 A 
ATOM     33  C   UNL A   1      40.967  32.286  36.033  1.00  0.00     0.049 A 
ATOM     34  H   UNL A   1      40.714  31.073  34.325  1.00  0.00     0.167 HD
ATOM     35  C   UNL A   1      39.085  33.361  34.821  1.00  0.00     0.074 A 
ATOM     36  C   UNL A   1      38.061  34.376  34.666  1.00  0.00     0.031 C 
ATOM     37  C   UNL A   1      39.940  33.288  35.871  1.00  0.00     0.037 A 
BRANCH  24  38
ATOM     38  C   UNL A   1      43.961  28.585  35.588  1.00  0.00     0.058 A 
ATOM     39  C   UNL A   1      45.285  28.894  35.233  1.00  0.00     0.135 A 
ATOM     40  C   UNL A   1      43.763  27.552  36.521  1.00  0.00     0.135 A 
ATOM     41  F   UNL A   1      45.537  29.871  34.347  1.00  0.00    -0.206 F 
ATOM     42  C   UNL A   1      46.367  28.205  35.772  1.00  0.00     0.059 A 
ATOM     43  C   UNL A   1      44.832  26.869  37.097  1.00  0.00     0.059 A 
ATOM     44  F   UNL A   1      42.522  27.225  36.913  1.00  0.00    -0.206 F 
ATOM     45  C   UNL A   1      46.131  27.197  36.708  1.00  0.00     0.060 A 
BRANCH  45  46
ATOM     46  S   UNL A   1      47.548  26.352  37.443  1.00  0.00     0.124 S 
ATOM     47  O   UNL A   1      48.666  27.131  36.925  1.00  0.00    -0.237 OA
ATOM     48  O   UNL A   1      47.279  26.494  38.871  1.00  0.00    -0.237 OA
ATOM     49  O   UNL A   1      47.435  24.991  36.927  1.00  0.00    -0.744 OA
ENDBRANCH  45  46
ENDBRANCH  24  38
BRANCH  25  50
ATOM     50  C   UNL A   1      36.376  33.195  30.962  1.00  0.00     0.058 A 
ATOM     51  C   UNL A   1      36.638  34.012  29.850  1.00  0.00     0.135 A 
ATOM     52  C   UNL A   1      35.053  33.124  31.424  1.00  0.00     0.135 A 
ATOM     53  F   UNL A   1      37.889  34.126  29.379  1.00  0.00    -0.206 F 
ATOM     54  C   UNL A   1      35.638  34.768  29.250  1.00  0.00     0.059 A 
ATOM     55  C   UNL A   1      34.029  33.848  30.820  1.00  0.00     0.059 A 
ATOM     56  F   UNL A   1      34.752  32.350  32.478  1.00  0.00    -0.206 F 
ATOM     57  C   UNL A   1      34.338  34.685  29.749  1.00  0.00     0.060 A 
BRANCH  57  58
ATOM     58  S   UNL A   1      33.064  35.708  28.981  1.00  0.00     0.124 S 
ATOM     59  O   UNL A   1      33.871  36.724  28.312  1.00  0.00    -0.237 OA
ATOM     60  O   UNL A   1      32.393  34.752  28.106  1.00  0.00    -0.237 OA
ATOM     61  O   UNL A   1      32.278  36.178  30.117  1.00  0.00    -0.744 OA
ENDBRANCH  57  58
ENDBRANCH  25  50
BRANCH  37  62
ATOM     62  C   UNL A   1      39.824  34.346  36.934  1.00  0.00     0.058 A 
ATOM     63  C   UNL A   1      39.048  34.117  38.082  1.00  0.00     0.135 A 
ATOM     64  C   UNL A   1      40.423  35.607  36.790  1.00  0.00     0.135 A 
ATOM     65  F   UNL A   1      38.449  32.930  38.270  1.00  0.00    -0.206 F 
ATOM     66  C   UNL A   1      38.857  35.106  39.041  1.00  0.00     0.059 A 
ATOM     67  C   UNL A   1      40.272  36.601  37.753  1.00  0.00     0.059 A 
ATOM     68  F   UNL A   1      41.185  35.874  35.717  1.00  0.00    -0.206 F 
ATOM     69  C   UNL A   1      39.473  36.346  38.867  1.00  0.00     0.060 A 
BRANCH  69  70
ATOM     70  S   UNL A   1      39.227  37.610  40.132  1.00  0.00     0.124 S 
ATOM     71  O   UNL A   1      38.150  38.407  39.552  1.00  0.00    -0.237 OA
ATOM     72  O   UNL A   1      38.868  36.811  41.299  1.00  0.00    -0.237 OA
ATOM     73  O   UNL A   1      40.526  38.270  40.208  1.00  0.00    -0.744 OA
ENDBRANCH  69  70
ENDBRANCH  37  62
ENDBRANCH  11  12
ENDBRANCH   4   6
ENDBRANCH   1   2
BRANCH   1  74
ATOM     74  C   UNL A   1      37.500  23.187  25.460  1.00  0.00     0.042 C 
BRANCH  74  75
ATOM     75  C   UNL A   1      36.195  22.757  26.107  1.00  0.00     0.118 C 
BRANCH  75  76
ATOM     76  N   UNL A   1      35.580  21.628  25.420  1.00  0.00    -0.352 N 
ATOM     77  C   UNL A   1      34.288  21.459  24.990  1.00  0.00     0.251 C 
ATOM     78  H   UNL A   1      36.182  20.872  25.235  1.00  0.00     0.163 HD
ATOM     79  O   UNL A   1      33.899  20.366  24.593  1.00  0.00    -0.269 OA
BRANCH  77  80
ATOM     80  C   UNL A   1      33.356  22.601  25.016  1.00  0.00     0.040 A 
ATOM     81  C   UNL A   1      33.495  23.614  24.046  1.00  0.00     0.014 A 
ATOM     82  C   UNL A   1      32.363  22.677  25.993  1.00  0.00     0.030 A 
ATOM     83  C   UNL A   1      32.592  24.683  24.007  1.00  0.00     0.009 A 
ATOM     84  C   UNL A   1      31.461  23.712  25.894  1.00  0.00     0.068 A 
ATOM     85  C   UNL A   1      31.566  24.703  24.940  1.00  0.00     0.012 A 
ATOM     86  C   UNL A   1      30.290  23.961  26.718  1.00  0.00     0.339 C 
ATOM     87  C   UNL A   1      30.481  25.691  25.167  1.00  0.00     0.238 C 
ATOM     88  O   UNL A   1      29.897  23.265  27.634  1.00  0.00    -0.246 OA
ATOM     89  O   UNL A   1      29.726  25.114  26.260  1.00  0.00    -0.449 OA
BRANCH  87  90
ATOM     90  C   UNL A   1      30.982  27.058  25.579  1.00  0.00    -0.003 A 
ATOM     91  C   UNL A   1      31.398  27.311  26.902  1.00  0.00     0.011 A 
ATOM     92  C   UNL A   1      31.060  28.093  24.635  1.00  0.00     0.011 A 
ATOM     93  C   UNL A   1      31.897  28.561  27.264  1.00  0.00     0.039 A 
ATOM     94  C   UNL A   1      31.554  29.346  25.003  1.00  0.00     0.039 A 
ATOM     95  C   UNL A   1      31.972  29.566  26.310  1.00  0.00     0.123 A 
ATOM     96  F   UNL A   1      32.454  30.767  26.655  1.00  0.00    -0.207 F 
ENDBRANCH  87  90
ENDBRANCH  77  80
ENDBRANCH  75  76
ENDBRANCH  74  75
ENDBRANCH   1  74
TORSDOF 14
ENDMDL
