MODEL 1
REMARK VINA RESULT:     -13.0      0.000      0.000
REMARK SMILES C[C@@H](C(=O)NCCCNC(=O)c1ccc(-c2c3nc(c(-c4c(F)cc(S(=O)(=O)[O-])cc4F)c4ccc([nH]4)c(-c4c(F)cc(S(=O)(=O)[O-])cc4F)c4nc(c(-c5c(F)cc(S(=O)(=O)[O-])cc5F)c5ccc2[nH]5)C=C4)C=C3)cc1)N1C(=O)/C(=C/c2ccc(-c3ccc([N+](=O)[O-])cc3Cl)o2)SC1=S
REMARK SMILES IDX 6 1 5 2 3 3 4 4 2 6 1 7 78 8 79 9 99 10 80 11 81 12 98 13
REMARK SMILES IDX 100 14 82 15 83 16 84 17 97 18 85 19 86 20 87 21 88 22 95 23
REMARK SMILES IDX 89 24 94 25 96 26 90 27 91 28 92 29 93 30 7 31 8 32 9 33
REMARK SMILES IDX 10 34 11 36 12 37 13 38 77 39 14 40 76 41 15 42 16 43 17 44
REMARK SMILES IDX 70 45 18 46 75 47 69 48 71 49 19 50 74 51 68 52 67 53 20 55
REMARK SMILES IDX 54 56 33 57 53 58 34 59 37 60 52 61 72 62 35 63 36 64 51 66
REMARK SMILES IDX 73 67 38 68 21 69 22 70 31 71 23 72 24 73 30 74 32 75 25 76
REMARK SMILES IDX 26 77 27 78 28 79 29 80 55 81 56 82 65 83 57 84 58 85 64 86
REMARK SMILES IDX 66 87 59 88 60 89 61 90 62 91 63 92 39 93 40 94 49 95 41 96
REMARK SMILES IDX 42 97 48 98 50 99 43 100 44 101 45 102 46 103 47 104
REMARK H PARENT 5 5 9 35 71 54 37 65
REMARK Flexibility Score: inf
ROOT
ATOM      1  C   UNL A   1      33.784  30.832  27.025  1.00  0.00     0.117 C 
ENDROOT
BRANCH   1   2
ATOM      2  N   UNL A   1      32.899  29.784  27.509  1.00  0.00    -0.354 N 
ATOM      3  C   UNL A   1      32.046  28.977  26.808  1.00  0.00     0.242 C 
ATOM      4  O   UNL A   1      31.144  28.405  27.423  1.00  0.00    -0.273 OA
ATOM      5  H   UNL A   1      32.916  29.634  28.482  1.00  0.00     0.163 HD
BRANCH   3   6
ATOM      6  C   UNL A   1      32.209  28.846  25.279  1.00  0.00     0.178 C 
ATOM      7  C   UNL A   1      31.245  29.909  24.717  1.00  0.00     0.042 C 
BRANCH   6   8
ATOM      8  N   UNL A   1      31.898  27.474  24.796  1.00  0.00    -0.281 N 
ATOM      9  C   UNL A   1      32.560  26.393  25.345  1.00  0.00     0.267 C 
ATOM     10  C   UNL A   1      30.741  27.096  24.140  1.00  0.00     0.149 C 
ATOM     11  O   UNL A   1      33.286  26.401  26.337  1.00  0.00    -0.268 OA
ATOM     12  C   UNL A   1      32.198  25.136  24.652  1.00  0.00     0.084 C 
ATOM     13  S   UNL A   1      30.927  25.442  23.546  1.00  0.00    -0.054 SA
ATOM     14  S   UNL A   1      29.301  27.920  23.950  1.00  0.00    -0.052 S 
ATOM     15  C   UNL A   1      32.817  23.985  24.940  1.00  0.00     0.068 C 
BRANCH  15  16
ATOM     16  C   UNL A   1      32.601  22.793  24.207  1.00  0.00     0.128 A 
ATOM     17  C   UNL A   1      32.193  22.662  22.885  1.00  0.00     0.051 A 
ATOM     18  O   UNL A   1      32.821  21.531  24.708  1.00  0.00    -0.457 OA
ATOM     19  C   UNL A   1      32.142  21.285  22.584  1.00  0.00     0.051 A 
ATOM     20  C   UNL A   1      32.501  20.629  23.740  1.00  0.00     0.136 A 
BRANCH  20  21
ATOM     21  C   UNL A   1      32.623  19.220  24.079  1.00  0.00     0.036 A 
ATOM     22  C   UNL A   1      32.815  18.879  25.430  1.00  0.00     0.020 A 
ATOM     23  C   UNL A   1      32.637  18.195  23.114  1.00  0.00     0.058 A 
ATOM     24  C   UNL A   1      33.040  17.554  25.814  1.00  0.00     0.086 A 
ATOM     25  C   UNL A   1      32.862  16.864  23.491  1.00  0.00     0.106 A 
ATOM     26  Cl  UNL A   1      32.456  18.506  21.421  1.00  0.00    -0.083 Cl
ATOM     27  C   UNL A   1      33.073  16.553  24.839  1.00  0.00     0.270 A 
BRANCH  27  28
ATOM     28  N   UNL A   1      33.363  15.168  25.230  1.00  0.00     0.062 N 
ATOM     29  O   UNL A   1      32.402  14.426  25.475  1.00  0.00    -0.258 OA
ATOM     30  O   UNL A   1      34.551  14.826  25.302  1.00  0.00    -0.258 OA
ENDBRANCH  27  28
ENDBRANCH  20  21
ENDBRANCH  15  16
ENDBRANCH   6   8
ENDBRANCH   3   6
ENDBRANCH   1   2
BRANCH   1  31
ATOM     31  C   UNL A   1      34.367  31.640  28.186  1.00  0.00     0.042 C 
BRANCH  31  32
ATOM     32  C   UNL A   1      35.659  31.065  28.759  1.00  0.00     0.118 C 
BRANCH  32  33
ATOM     33  N   UNL A   1      35.618  30.942  30.207  1.00  0.00    -0.352 N 
ATOM     34  C   UNL A   1      36.534  30.368  31.055  1.00  0.00     0.251 C 
ATOM     35  H   UNL A   1      34.821  31.324  30.641  1.00  0.00     0.163 HD
ATOM     36  O   UNL A   1      36.240  30.203  32.236  1.00  0.00    -0.269 OA
BRANCH  34  37
ATOM     37  C   UNL A   1      37.854  29.927  30.549  1.00  0.00     0.039 A 
ATOM     38  C   UNL A   1      38.117  30.031  29.180  1.00  0.00     0.014 A 
ATOM     39  C   UNL A   1      38.820  29.391  31.407  1.00  0.00     0.014 A 
ATOM     40  C   UNL A   1      39.365  29.653  28.681  1.00  0.00     0.010 A 
ATOM     41  C   UNL A   1      40.085  29.072  30.917  1.00  0.00     0.010 A 
ATOM     42  C   UNL A   1      40.371  29.198  29.549  1.00  0.00    -0.014 A 
BRANCH  42  43
ATOM     43  C   UNL A   1      41.726  28.857  29.043  1.00  0.00     0.031 A 
ATOM     44  C   UNL A   1      42.790  29.916  28.950  1.00  0.00     0.074 A 
ATOM     45  C   UNL A   1      41.982  27.605  28.615  1.00  0.00     0.049 A 
ATOM     46  N   UNL A   1      44.003  29.828  28.466  1.00  0.00    -0.248 NA
ATOM     47  C   UNL A   1      42.438  31.255  29.446  1.00  0.00     0.031 C 
ATOM     48  C   UNL A   1      41.024  26.498  28.618  1.00  0.00     0.029 A 
ATOM     49  N   UNL A   1      43.121  27.056  28.083  1.00  0.00    -0.354 N 
ATOM     50  C   UNL A   1      44.554  31.097  28.587  1.00  0.00     0.074 A 
ATOM     51  C   UNL A   1      43.529  31.949  29.151  1.00  0.00     0.031 C 
ATOM     52  C   UNL A   1      41.620  25.398  28.129  1.00  0.00     0.029 A 
ATOM     53  C   UNL A   1      42.989  25.729  27.745  1.00  0.00     0.049 A 
ATOM     54  H   UNL A   1      43.954  27.564  27.954  1.00  0.00     0.167 HD
ATOM     55  C   UNL A   1      45.806  31.512  28.277  1.00  0.00     0.037 A 
ATOM     56  C   UNL A   1      43.868  24.877  27.185  1.00  0.00     0.037 A 
ATOM     57  C   UNL A   1      46.832  30.657  27.737  1.00  0.00     0.049 A 
ATOM     58  C   UNL A   1      45.252  25.358  26.850  1.00  0.00     0.074 A 
ATOM     59  C   UNL A   1      48.143  30.975  27.428  1.00  0.00     0.029 A 
ATOM     60  N   UNL A   1      46.664  29.315  27.430  1.00  0.00    -0.354 N 
ATOM     61  N   UNL A   1      45.768  26.553  27.007  1.00  0.00    -0.248 NA
ATOM     62  C   UNL A   1      46.175  24.375  26.265  1.00  0.00     0.031 C 
ATOM     63  C   UNL A   1      48.761  29.833  26.907  1.00  0.00     0.029 A 
ATOM     64  C   UNL A   1      47.845  28.793  26.924  1.00  0.00     0.049 A 
ATOM     65  H   UNL A   1      45.830  28.807  27.552  1.00  0.00     0.167 HD
ATOM     66  C   UNL A   1      47.081  26.461  26.562  1.00  0.00     0.074 A 
ATOM     67  C   UNL A   1      47.285  25.092  26.138  1.00  0.00     0.031 C 
ATOM     68  C   UNL A   1      48.033  27.426  26.512  1.00  0.00     0.037 A 
BRANCH  55  69
ATOM     69  C   UNL A   1      46.137  32.958  28.519  1.00  0.00     0.058 A 
ATOM     70  C   UNL A   1      45.944  33.930  27.524  1.00  0.00     0.135 A 
ATOM     71  C   UNL A   1      46.626  33.383  29.765  1.00  0.00     0.135 A 
ATOM     72  F   UNL A   1      45.492  33.575  26.311  1.00  0.00    -0.206 F 
ATOM     73  C   UNL A   1      46.253  35.267  27.745  1.00  0.00     0.059 A 
ATOM     74  C   UNL A   1      46.919  34.720  30.016  1.00  0.00     0.059 A 
ATOM     75  F   UNL A   1      46.829  32.494  30.750  1.00  0.00    -0.206 F 
ATOM     76  C   UNL A   1      46.743  35.652  28.994  1.00  0.00     0.060 A 
BRANCH  76  77
ATOM     77  S   UNL A   1      47.143  37.392  29.266  1.00  0.00     0.124 S 
ATOM     78  O   UNL A   1      48.080  37.302  30.382  1.00  0.00    -0.237 OA
ATOM     79  O   UNL A   1      47.721  37.786  27.985  1.00  0.00    -0.237 OA
ATOM     80  O   UNL A   1      45.851  37.992  29.578  1.00  0.00    -0.744 OA
ENDBRANCH  76  77
ENDBRANCH  55  69
BRANCH  56  81
ATOM     81  C   UNL A   1      43.468  23.469  26.928  1.00  0.00     0.058 A 
ATOM     82  C   UNL A   1      43.334  22.556  27.985  1.00  0.00     0.135 A 
ATOM     83  C   UNL A   1      43.185  23.016  25.630  1.00  0.00     0.135 A 
ATOM     84  F   UNL A   1      43.601  22.943  29.241  1.00  0.00    -0.206 F 
ATOM     85  C   UNL A   1      42.942  21.240  27.764  1.00  0.00     0.059 A 
ATOM     86  C   UNL A   1      42.770  21.710  25.387  1.00  0.00     0.059 A 
ATOM     87  F   UNL A   1      43.282  23.857  24.588  1.00  0.00    -0.206 F 
ATOM     88  C   UNL A   1      42.659  20.828  26.462  1.00  0.00     0.060 A 
BRANCH  88  89
ATOM     89  S   UNL A   1      42.086  19.135  26.192  1.00  0.00     0.124 S 
ATOM     90  O   UNL A   1      42.943  18.708  25.093  1.00  0.00    -0.237 OA
ATOM     91  O   UNL A   1      42.347  18.513  27.487  1.00  0.00    -0.237 OA
ATOM     92  O   UNL A   1      40.674  19.310  25.865  1.00  0.00    -0.744 OA
ENDBRANCH  88  89
ENDBRANCH  56  81
BRANCH  68  93
ATOM     93  C   UNL A   1      49.390  27.029  26.004  1.00  0.00     0.058 A 
ATOM     94  C   UNL A   1      50.374  26.513  26.860  1.00  0.00     0.135 A 
ATOM     95  C   UNL A   1      49.690  27.117  24.634  1.00  0.00     0.135 A 
ATOM     96  F   UNL A   1      50.139  26.414  28.178  1.00  0.00    -0.206 F 
ATOM     97  C   UNL A   1      51.617  26.113  26.379  1.00  0.00     0.059 A 
ATOM     98  C   UNL A   1      50.918  26.704  24.129  1.00  0.00     0.059 A 
ATOM     99  F   UNL A   1      48.779  27.596  23.772  1.00  0.00    -0.206 F 
ATOM    100  C   UNL A   1      51.880  26.213  25.011  1.00  0.00     0.060 A 
BRANCH 100 101
ATOM    101  S   UNL A   1      53.483  25.658  24.392  1.00  0.00     0.124 S 
ATOM    102  O   UNL A   1      54.399  26.508  25.148  1.00  0.00    -0.237 OA
ATOM    103  O   UNL A   1      53.487  24.244  24.753  1.00  0.00    -0.237 OA
ATOM    104  O   UNL A   1      53.407  25.933  22.961  1.00  0.00    -0.744 OA
ENDBRANCH 100 101
ENDBRANCH  68  93
ENDBRANCH  42  43
ENDBRANCH  34  37
ENDBRANCH  32  33
ENDBRANCH  31  32
ENDBRANCH   1  31
TORSDOF 17
ENDMDL
MODEL 2
REMARK VINA RESULT:     -12.5      5.947     10.479
REMARK SMILES C[C@@H](C(=O)NCCCNC(=O)c1ccc(-c2c3nc(c(-c4c(F)cc(S(=O)(=O)[O-])cc4F)c4ccc([nH]4)c(-c4c(F)cc(S(=O)(=O)[O-])cc4F)c4nc(c(-c5c(F)cc(S(=O)(=O)[O-])cc5F)c5ccc2[nH]5)C=C4)C=C3)cc1)N1C(=O)/C(=C/c2ccc(-c3ccc([N+](=O)[O-])cc3Cl)o2)SC1=S
REMARK SMILES IDX 6 1 5 2 3 3 4 4 2 6 1 7 78 8 79 9 99 10 80 11 81 12 98 13
REMARK SMILES IDX 100 14 82 15 83 16 84 17 97 18 85 19 86 20 87 21 88 22 95 23
REMARK SMILES IDX 89 24 94 25 96 26 90 27 91 28 92 29 93 30 7 31 8 32 9 33
REMARK SMILES IDX 10 34 11 36 12 37 13 38 77 39 14 40 76 41 15 42 16 43 17 44
REMARK SMILES IDX 70 45 18 46 75 47 69 48 71 49 19 50 74 51 68 52 67 53 20 55
REMARK SMILES IDX 54 56 33 57 53 58 34 59 37 60 52 61 72 62 35 63 36 64 51 66
REMARK SMILES IDX 73 67 38 68 21 69 22 70 31 71 23 72 24 73 30 74 32 75 25 76
REMARK SMILES IDX 26 77 27 78 28 79 29 80 55 81 56 82 65 83 57 84 58 85 64 86
REMARK SMILES IDX 66 87 59 88 60 89 61 90 62 91 63 92 39 93 40 94 49 95 41 96
REMARK SMILES IDX 42 97 48 98 50 99 43 100 44 101 45 102 46 103 47 104
REMARK H PARENT 5 5 9 35 71 54 37 65
REMARK Flexibility Score: inf
ROOT
ATOM      1  C   UNL A   1      32.732  30.055  26.294  1.00  0.00     0.117 C 
ENDROOT
BRANCH   1   2
ATOM      2  N   UNL A   1      32.201  28.914  27.024  1.00  0.00    -0.354 N 
ATOM      3  C   UNL A   1      31.519  27.825  26.555  1.00  0.00     0.242 C 
ATOM      4  O   UNL A   1      30.862  27.156  27.356  1.00  0.00    -0.273 OA
ATOM      5  H   UNL A   1      32.355  28.927  27.996  1.00  0.00     0.163 HD
BRANCH   3   6
ATOM      6  C   UNL A   1      31.554  27.499  25.047  1.00  0.00     0.178 C 
ATOM      7  C   UNL A   1      30.076  27.240  24.694  1.00  0.00     0.042 C 
BRANCH   6   8
ATOM      8  N   UNL A   1      32.431  26.335  24.744  1.00  0.00    -0.281 N 
ATOM      9  C   UNL A   1      32.074  25.079  25.194  1.00  0.00     0.267 C 
ATOM     10  C   UNL A   1      33.366  26.277  23.727  1.00  0.00     0.149 C 
ATOM     11  O   UNL A   1      30.998  24.754  25.692  1.00  0.00    -0.268 OA
ATOM     12  C   UNL A   1      33.129  24.085  24.895  1.00  0.00     0.084 C 
ATOM     13  S   UNL A   1      34.330  24.808  23.913  1.00  0.00    -0.054 SA
ATOM     14  S   UNL A   1      33.596  27.297  22.425  1.00  0.00    -0.052 S 
ATOM     15  C   UNL A   1      33.044  22.829  25.351  1.00  0.00     0.068 C 
BRANCH  15  16
ATOM     16  C   UNL A   1      34.093  21.889  25.208  1.00  0.00     0.128 A 
ATOM     17  C   UNL A   1      34.010  20.573  24.766  1.00  0.00     0.051 A 
ATOM     18  O   UNL A   1      35.417  22.169  25.452  1.00  0.00    -0.457 OA
ATOM     19  C   UNL A   1      35.313  20.036  24.765  1.00  0.00     0.051 A 
ATOM     20  C   UNL A   1      36.138  21.038  25.225  1.00  0.00     0.136 A 
BRANCH  20  21
ATOM     21  C   UNL A   1      37.571  21.104  25.466  1.00  0.00     0.036 A 
ATOM     22  C   UNL A   1      38.314  19.913  25.370  1.00  0.00     0.020 A 
ATOM     23  C   UNL A   1      38.231  22.281  25.868  1.00  0.00     0.058 A 
ATOM     24  C   UNL A   1      39.674  19.884  25.686  1.00  0.00     0.086 A 
ATOM     25  C   UNL A   1      39.595  22.260  26.188  1.00  0.00     0.106 A 
ATOM     26  Cl  UNL A   1      37.406  23.790  26.064  1.00  0.00    -0.083 Cl
ATOM     27  C   UNL A   1      40.306  21.058  26.106  1.00  0.00     0.270 A 
BRANCH  27  28
ATOM     28  N   UNL A   1      41.722  21.022  26.493  1.00  0.00     0.062 N 
ATOM     29  O   UNL A   1      41.996  21.177  27.692  1.00  0.00    -0.258 OA
ATOM     30  O   UNL A   1      42.560  20.850  25.598  1.00  0.00    -0.258 OA
ENDBRANCH  27  28
ENDBRANCH  20  21
ENDBRANCH  15  16
ENDBRANCH   6   8
ENDBRANCH   3   6
ENDBRANCH   1   2
BRANCH   1  31
ATOM     31  C   UNL A   1      32.280  31.372  26.928  1.00  0.00     0.042 C 
BRANCH  31  32
ATOM     32  C   UNL A   1      33.422  32.329  27.257  1.00  0.00     0.118 C 
BRANCH  32  33
ATOM     33  N   UNL A   1      32.949  33.607  27.762  1.00  0.00    -0.352 N 
ATOM     34  C   UNL A   1      33.373  34.317  28.859  1.00  0.00     0.251 C 
ATOM     35  H   UNL A   1      32.221  34.022  27.246  1.00  0.00     0.163 HD
ATOM     36  O   UNL A   1      32.730  35.296  29.228  1.00  0.00    -0.269 OA
BRANCH  34  37
ATOM     37  C   UNL A   1      34.579  33.895  29.607  1.00  0.00     0.039 A 
ATOM     38  C   UNL A   1      34.423  33.059  30.716  1.00  0.00     0.014 A 
ATOM     39  C   UNL A   1      35.855  34.334  29.239  1.00  0.00     0.014 A 
ATOM     40  C   UNL A   1      35.546  32.619  31.420  1.00  0.00     0.010 A 
ATOM     41  C   UNL A   1      36.978  33.846  29.904  1.00  0.00     0.010 A 
ATOM     42  C   UNL A   1      36.836  32.985  31.002  1.00  0.00    -0.014 A 
BRANCH  42  43
ATOM     43  C   UNL A   1      38.044  32.470  31.698  1.00  0.00     0.031 A 
ATOM     44  C   UNL A   1      38.913  31.432  31.042  1.00  0.00     0.074 A 
ATOM     45  C   UNL A   1      38.327  32.896  32.945  1.00  0.00     0.049 A 
ATOM     46  N   UNL A   1      39.960  30.810  31.522  1.00  0.00    -0.248 NA
ATOM     47  C   UNL A   1      38.545  31.025  29.678  1.00  0.00     0.031 C 
ATOM     48  C   UNL A   1      37.541  33.872  33.704  1.00  0.00     0.029 A 
ATOM     49  N   UNL A   1      39.346  32.556  33.798  1.00  0.00    -0.354 N 
ATOM     50  C   UNL A   1      40.369  29.931  30.526  1.00  0.00     0.074 A 
ATOM     51  C   UNL A   1      39.431  30.069  29.433  1.00  0.00     0.031 C 
ATOM     52  C   UNL A   1      38.117  34.063  34.902  1.00  0.00     0.029 A 
ATOM     53  C   UNL A   1      39.290  33.202  35.011  1.00  0.00     0.049 A 
ATOM     54  H   UNL A   1      40.050  31.909  33.565  1.00  0.00     0.167 HD
ATOM     55  C   UNL A   1      41.438  29.100  30.515  1.00  0.00     0.037 A 
ATOM     56  C   UNL A   1      40.089  33.106  36.092  1.00  0.00     0.037 A 
ATOM     57  C   UNL A   1      42.383  28.981  31.596  1.00  0.00     0.049 A 
ATOM     58  C   UNL A   1      41.270  32.179  36.056  1.00  0.00     0.074 A 
ATOM     59  C   UNL A   1      43.522  28.196  31.661  1.00  0.00     0.029 A 
ATOM     60  N   UNL A   1      42.303  29.668  32.798  1.00  0.00    -0.354 N 
ATOM     61  N   UNL A   1      41.663  31.383  35.090  1.00  0.00    -0.248 NA
ATOM     62  C   UNL A   1      42.120  32.137  37.254  1.00  0.00     0.031 C 
ATOM     63  C   UNL A   1      44.114  28.386  32.914  1.00  0.00     0.029 A 
ATOM     64  C   UNL A   1      43.365  29.317  33.616  1.00  0.00     0.049 A 
ATOM     65  H   UNL A   1      41.595  30.309  33.035  1.00  0.00     0.167 HD
ATOM     66  C   UNL A   1      42.817  30.763  35.555  1.00  0.00     0.074 A 
ATOM     67  C   UNL A   1      43.065  31.282  36.884  1.00  0.00     0.031 C 
ATOM     68  C   UNL A   1      43.601  29.847  34.934  1.00  0.00     0.037 A 
BRANCH  55  69
ATOM     69  C   UNL A   1      41.646  28.255  29.289  1.00  0.00     0.058 A 
ATOM     70  C   UNL A   1      42.623  28.578  28.334  1.00  0.00     0.135 A 
ATOM     71  C   UNL A   1      40.882  27.096  29.079  1.00  0.00     0.135 A 
ATOM     72  F   UNL A   1      43.372  29.684  28.480  1.00  0.00    -0.206 F 
ATOM     73  C   UNL A   1      42.815  27.800  27.198  1.00  0.00     0.059 A 
ATOM     74  C   UNL A   1      41.074  26.289  27.961  1.00  0.00     0.059 A 
ATOM     75  F   UNL A   1      39.934  26.741  29.960  1.00  0.00    -0.206 F 
ATOM     76  C   UNL A   1      42.032  26.659  27.018  1.00  0.00     0.060 A 
BRANCH  76  77
ATOM     77  S   UNL A   1      42.289  25.659  25.537  1.00  0.00     0.124 S 
ATOM     78  O   UNL A   1      42.964  26.611  24.659  1.00  0.00    -0.237 OA
ATOM     79  O   UNL A   1      43.115  24.564  26.035  1.00  0.00    -0.237 OA
ATOM     80  O   UNL A   1      40.935  25.289  25.138  1.00  0.00    -0.744 OA
ENDBRANCH  76  77
ENDBRANCH  55  69
BRANCH  56  81
ATOM     81  C   UNL A   1      39.806  33.936  37.292  1.00  0.00     0.058 A 
ATOM     82  C   UNL A   1      40.323  35.234  37.405  1.00  0.00     0.135 A 
ATOM     83  C   UNL A   1      38.994  33.459  38.333  1.00  0.00     0.135 A 
ATOM     84  F   UNL A   1      41.109  35.729  36.437  1.00  0.00    -0.206 F 
ATOM     85  C   UNL A   1      40.053  36.031  38.513  1.00  0.00     0.059 A 
ATOM     86  C   UNL A   1      38.693  34.245  39.441  1.00  0.00     0.059 A 
ATOM     87  F   UNL A   1      38.463  32.228  38.262  1.00  0.00    -0.206 F 
ATOM     88  C   UNL A   1      39.233  35.528  39.524  1.00  0.00     0.060 A 
BRANCH  88  89
ATOM     89  S   UNL A   1      38.833  36.593  40.928  1.00  0.00     0.124 S 
ATOM     90  O   UNL A   1      37.822  35.801  41.618  1.00  0.00    -0.237 OA
ATOM     91  O   UNL A   1      40.124  36.712  41.601  1.00  0.00    -0.237 OA
ATOM     92  O   UNL A   1      38.355  37.816  40.291  1.00  0.00    -0.744 OA
ENDBRANCH  88  89
ENDBRANCH  56  81
BRANCH  68  93
ATOM     93  C   UNL A   1      44.817  29.366  35.674  1.00  0.00     0.058 A 
ATOM     94  C   UNL A   1      44.746  28.316  36.602  1.00  0.00     0.135 A 
ATOM     95  C   UNL A   1      46.077  29.929  35.413  1.00  0.00     0.135 A 
ATOM     96  F   UNL A   1      43.564  27.749  36.892  1.00  0.00    -0.206 F 
ATOM     97  C   UNL A   1      45.881  27.851  37.259  1.00  0.00     0.059 A 
ATOM     98  C   UNL A   1      47.227  29.465  36.043  1.00  0.00     0.059 A 
ATOM     99  F   UNL A   1      46.200  30.931  34.527  1.00  0.00    -0.206 F 
ATOM    100  C   UNL A   1      47.118  28.432  36.973  1.00  0.00     0.060 A 
BRANCH 100 101
ATOM    101  S   UNL A   1      48.590  27.797  37.804  1.00  0.00     0.124 S 
ATOM    102  O   UNL A   1      49.654  28.487  37.082  1.00  0.00    -0.237 OA
ATOM    103  O   UNL A   1      48.380  28.223  39.184  1.00  0.00    -0.237 OA
ATOM    104  O   UNL A   1      48.510  26.357  37.579  1.00  0.00    -0.744 OA
ENDBRANCH 100 101
ENDBRANCH  68  93
ENDBRANCH  42  43
ENDBRANCH  34  37
ENDBRANCH  32  33
ENDBRANCH  31  32
ENDBRANCH   1  31
TORSDOF 17
ENDMDL
MODEL 3
REMARK VINA RESULT:     -12.4      9.322     16.471
REMARK SMILES C[C@@H](C(=O)NCCCNC(=O)c1ccc(-c2c3nc(c(-c4c(F)cc(S(=O)(=O)[O-])cc4F)c4ccc([nH]4)c(-c4c(F)cc(S(=O)(=O)[O-])cc4F)c4nc(c(-c5c(F)cc(S(=O)(=O)[O-])cc5F)c5ccc2[nH]5)C=C4)C=C3)cc1)N1C(=O)/C(=C/c2ccc(-c3ccc([N+](=O)[O-])cc3Cl)o2)SC1=S
REMARK SMILES IDX 6 1 5 2 3 3 4 4 2 6 1 7 78 8 79 9 99 10 80 11 81 12 98 13
REMARK SMILES IDX 100 14 82 15 83 16 84 17 97 18 85 19 86 20 87 21 88 22 95 23
REMARK SMILES IDX 89 24 94 25 96 26 90 27 91 28 92 29 93 30 7 31 8 32 9 33
REMARK SMILES IDX 10 34 11 36 12 37 13 38 77 39 14 40 76 41 15 42 16 43 17 44
REMARK SMILES IDX 70 45 18 46 75 47 69 48 71 49 19 50 74 51 68 52 67 53 20 55
REMARK SMILES IDX 54 56 33 57 53 58 34 59 37 60 52 61 72 62 35 63 36 64 51 66
REMARK SMILES IDX 73 67 38 68 21 69 22 70 31 71 23 72 24 73 30 74 32 75 25 76
REMARK SMILES IDX 26 77 27 78 28 79 29 80 55 81 56 82 65 83 57 84 58 85 64 86
REMARK SMILES IDX 66 87 59 88 60 89 61 90 62 91 63 92 39 93 40 94 49 95 41 96
REMARK SMILES IDX 42 97 48 98 50 99 43 100 44 101 45 102 46 103 47 104
REMARK H PARENT 5 5 9 35 71 54 37 65
REMARK Flexibility Score: inf
ROOT
ATOM      1  C   UNL A   1      49.532  23.434  35.351  1.00  0.00     0.117 C 
ENDROOT
BRANCH   1   2
ATOM      2  N   UNL A   1      49.172  22.345  34.456  1.00  0.00    -0.354 N 
ATOM      3  C   UNL A   1      49.386  21.001  34.595  1.00  0.00     0.242 C 
ATOM      4  O   UNL A   1      49.323  20.292  33.588  1.00  0.00    -0.273 OA
ATOM      5  H   UNL A   1      48.707  22.614  33.631  1.00  0.00     0.163 HD
BRANCH   3   6
ATOM      6  C   UNL A   1      49.743  20.429  35.983  1.00  0.00     0.178 C 
ATOM      7  C   UNL A   1      50.558  19.161  35.656  1.00  0.00     0.042 C 
BRANCH   6   8
ATOM      8  N   UNL A   1      48.533  20.141  36.800  1.00  0.00    -0.281 N 
ATOM      9  C   UNL A   1      48.555  20.388  38.158  1.00  0.00     0.267 C 
ATOM     10  C   UNL A   1      47.244  20.026  36.313  1.00  0.00     0.149 C 
ATOM     11  O   UNL A   1      49.424  20.993  38.782  1.00  0.00    -0.268 OA
ATOM     12  C   UNL A   1      47.306  19.927  38.806  1.00  0.00     0.084 C 
ATOM     13  S   UNL A   1      46.190  19.437  37.603  1.00  0.00    -0.054 SA
ATOM     14  S   UNL A   1      46.626  20.430  34.815  1.00  0.00    -0.052 S 
ATOM     15  C   UNL A   1      47.166  19.956  40.136  1.00  0.00     0.068 C 
BRANCH  15  16
ATOM     16  C   UNL A   1      46.048  19.398  40.802  1.00  0.00     0.128 A 
ATOM     17  C   UNL A   1      45.257  19.981  41.785  1.00  0.00     0.051 A 
ATOM     18  O   UNL A   1      45.529  18.155  40.525  1.00  0.00    -0.457 OA
ATOM     19  C   UNL A   1      44.247  19.058  42.130  1.00  0.00     0.051 A 
ATOM     20  C   UNL A   1      44.473  17.941  41.357  1.00  0.00     0.136 A 
BRANCH  20  21
ATOM     21  C   UNL A   1      43.799  16.656  41.258  1.00  0.00     0.036 A 
ATOM     22  C   UNL A   1      43.377  16.227  39.986  1.00  0.00     0.020 A 
ATOM     23  C   UNL A   1      43.479  15.866  42.379  1.00  0.00     0.058 A 
ATOM     24  C   UNL A   1      42.636  15.053  39.831  1.00  0.00     0.086 A 
ATOM     25  C   UNL A   1      42.736  14.688  42.231  1.00  0.00     0.106 A 
ATOM     26  Cl  UNL A   1      43.908  16.322  43.992  1.00  0.00    -0.083 Cl
ATOM     27  C   UNL A   1      42.308  14.294  40.959  1.00  0.00     0.270 A 
BRANCH  27  28
ATOM     28  N   UNL A   1      41.483  13.089  40.808  1.00  0.00     0.062 N 
ATOM     29  O   UNL A   1      41.258  12.685  39.658  1.00  0.00    -0.258 OA
ATOM     30  O   UNL A   1      41.052  12.553  41.838  1.00  0.00    -0.258 OA
ENDBRANCH  27  28
ENDBRANCH  20  21
ENDBRANCH  15  16
ENDBRANCH   6   8
ENDBRANCH   3   6
ENDBRANCH   1   2
BRANCH   1  31
ATOM     31  C   UNL A   1      48.296  24.002  36.051  1.00  0.00     0.042 C 
BRANCH  31  32
ATOM     32  C   UNL A   1      48.283  25.525  36.155  1.00  0.00     0.118 C 
BRANCH  32  33
ATOM     33  N   UNL A   1      48.185  25.987  37.529  1.00  0.00    -0.352 N 
ATOM     34  C   UNL A   1      47.352  26.939  38.067  1.00  0.00     0.251 C 
ATOM     35  H   UNL A   1      48.803  25.559  38.165  1.00  0.00     0.163 HD
ATOM     36  O   UNL A   1      47.539  27.320  39.219  1.00  0.00    -0.269 OA
BRANCH  34  37
ATOM     37  C   UNL A   1      46.256  27.521  37.260  1.00  0.00     0.039 A 
ATOM     38  C   UNL A   1      44.982  26.955  37.351  1.00  0.00     0.014 A 
ATOM     39  C   UNL A   1      46.480  28.602  36.400  1.00  0.00     0.014 A 
ATOM     40  C   UNL A   1      43.922  27.505  36.626  1.00  0.00     0.010 A 
ATOM     41  C   UNL A   1      45.410  29.187  35.724  1.00  0.00     0.010 A 
ATOM     42  C   UNL A   1      44.121  28.644  35.829  1.00  0.00    -0.014 A 
BRANCH  42  43
ATOM     43  C   UNL A   1      42.991  29.282  35.105  1.00  0.00     0.031 A 
ATOM     44  C   UNL A   1      42.638  28.844  33.710  1.00  0.00     0.074 A 
ATOM     45  C   UNL A   1      42.316  30.295  35.684  1.00  0.00     0.049 A 
ATOM     46  N   UNL A   1      41.739  29.331  32.894  1.00  0.00    -0.248 NA
ATOM     47  C   UNL A   1      43.413  27.726  33.150  1.00  0.00     0.031 C 
ATOM     48  C   UNL A   1      42.584  30.837  37.017  1.00  0.00     0.029 A 
ATOM     49  N   UNL A   1      41.274  31.057  35.220  1.00  0.00    -0.354 N 
ATOM     50  C   UNL A   1      41.846  28.591  31.724  1.00  0.00     0.074 A 
ATOM     51  C   UNL A   1      42.928  27.649  31.920  1.00  0.00     0.031 C 
ATOM     52  C   UNL A   1      41.718  31.832  37.271  1.00  0.00     0.029 A 
ATOM     53  C   UNL A   1      40.857  32.022  36.107  1.00  0.00     0.049 A 
ATOM     54  H   UNL A   1      40.863  30.927  34.335  1.00  0.00     0.167 HD
ATOM     55  C   UNL A   1      41.100  28.672  30.596  1.00  0.00     0.037 A 
ATOM     56  C   UNL A   1      39.895  32.958  35.995  1.00  0.00     0.037 A 
ATOM     57  C   UNL A   1      40.009  29.595  30.412  1.00  0.00     0.049 A 
ATOM     58  C   UNL A   1      39.079  33.030  34.736  1.00  0.00     0.074 A 
ATOM     59  C   UNL A   1      39.167  29.726  29.321  1.00  0.00     0.029 A 
ATOM     60  N   UNL A   1      39.606  30.541  31.343  1.00  0.00    -0.354 N 
ATOM     61  N   UNL A   1      39.169  32.295  33.653  1.00  0.00    -0.248 NA
ATOM     62  C   UNL A   1      38.026  34.054  34.682  1.00  0.00     0.031 C 
ATOM     63  C   UNL A   1      38.273  30.771  29.579  1.00  0.00     0.029 A 
ATOM     64  C   UNL A   1      38.534  31.267  30.846  1.00  0.00     0.049 A 
ATOM     65  H   UNL A   1      40.020  30.677  32.225  1.00  0.00     0.167 HD
ATOM     66  C   UNL A   1      38.173  32.753  32.799  1.00  0.00     0.074 A 
ATOM     67  C   UNL A   1      37.485  33.821  33.493  1.00  0.00     0.031 C 
ATOM     68  C   UNL A   1      37.856  32.324  31.552  1.00  0.00     0.037 A 
BRANCH  55  69
ATOM     69  C   UNL A   1      41.437  27.732  29.472  1.00  0.00     0.058 A 
ATOM     70  C   UNL A   1      42.596  27.903  28.697  1.00  0.00     0.135 A 
ATOM     71  C   UNL A   1      40.610  26.635  29.182  1.00  0.00     0.135 A 
ATOM     72  F   UNL A   1      43.413  28.944  28.923  1.00  0.00    -0.206 F 
ATOM     73  C   UNL A   1      42.907  27.037  27.655  1.00  0.00     0.059 A 
ATOM     74  C   UNL A   1      40.916  25.742  28.160  1.00  0.00     0.059 A 
ATOM     75  F   UNL A   1      39.490  26.426  29.892  1.00  0.00    -0.206 F 
ATOM     76  C   UNL A   1      42.059  25.961  27.391  1.00  0.00     0.060 A 
BRANCH  76  77
ATOM     77  S   UNL A   1      42.474  24.846  26.034  1.00  0.00     0.124 S 
ATOM     78  O   UNL A   1      43.833  24.449  26.390  1.00  0.00    -0.237 OA
ATOM     79  O   UNL A   1      41.458  23.806  26.158  1.00  0.00    -0.237 OA
ATOM     80  O   UNL A   1      42.358  25.693  24.851  1.00  0.00    -0.744 OA
ENDBRANCH  76  77
ENDBRANCH  55  69
BRANCH  56  81
ATOM     81  C   UNL A   1      39.638  33.889  37.125  1.00  0.00     0.058 A 
ATOM     82  C   UNL A   1      38.834  33.501  38.206  1.00  0.00     0.135 A 
ATOM     83  C   UNL A   1      40.211  35.170  37.159  1.00  0.00     0.135 A 
ATOM     84  F   UNL A   1      38.261  32.289  38.213  1.00  0.00    -0.206 F 
ATOM     85  C   UNL A   1      38.599  34.353  39.280  1.00  0.00     0.059 A 
ATOM     86  C   UNL A   1      40.007  36.032  38.232  1.00  0.00     0.059 A 
ATOM     87  F   UNL A   1      41.002  35.580  36.154  1.00  0.00    -0.206 F 
ATOM     88  C   UNL A   1      39.193  35.615  39.285  1.00  0.00     0.060 A 
BRANCH  88  89
ATOM     89  S   UNL A   1      38.936  36.690  40.715  1.00  0.00     0.124 S 
ATOM     90  O   UNL A   1      38.058  35.872  41.542  1.00  0.00    -0.237 OA
ATOM     91  O   UNL A   1      40.297  36.872  41.211  1.00  0.00    -0.237 OA
ATOM     92  O   UNL A   1      38.329  37.882  40.130  1.00  0.00    -0.744 OA
ENDBRANCH  88  89
ENDBRANCH  56  81
BRANCH  68  93
ATOM     93  C   UNL A   1      36.699  32.992  30.867  1.00  0.00     0.058 A 
ATOM     94  C   UNL A   1      35.376  32.780  31.282  1.00  0.00     0.135 A 
ATOM     95  C   UNL A   1      36.921  33.897  29.816  1.00  0.00     0.135 A 
ATOM     96  F   UNL A   1      35.109  31.920  32.278  1.00  0.00    -0.206 F 
ATOM     97  C   UNL A   1      34.309  33.429  30.667  1.00  0.00     0.059 A 
ATOM     98  C   UNL A   1      35.872  34.572  29.201  1.00  0.00     0.059 A 
ATOM     99  F   UNL A   1      38.169  34.142  29.387  1.00  0.00    -0.206 F 
ATOM    100  C   UNL A   1      34.567  34.324  29.626  1.00  0.00     0.060 A 
BRANCH 100 101
ATOM    101  S   UNL A   1      33.180  35.187  28.859  1.00  0.00     0.124 S 
ATOM    102  O   UNL A   1      32.317  35.435  30.010  1.00  0.00    -0.237 OA
ATOM    103  O   UNL A   1      33.822  36.365  28.284  1.00  0.00    -0.237 OA
ATOM    104  O   UNL A   1      32.674  34.220  27.890  1.00  0.00    -0.744 OA
ENDBRANCH 100 101
ENDBRANCH  68  93
ENDBRANCH  42  43
ENDBRANCH  34  37
ENDBRANCH  32  33
ENDBRANCH  31  32
ENDBRANCH   1  31
TORSDOF 17
ENDMDL
