MODEL 1
REMARK VINA RESULT:     -11.5      0.000      0.000
REMARK SMILES Cc1ccc2oc(CCCC(=O)NCCCNC(=O)c3ccc(-c4c5nc(c(-c6c(F)cc(S(=O)(=O)[O-])cc6F)c6ccc([nH]6)c(-c6c(F)cc(S(=O)(=O)[O-])cc6F)c6nc(c(-c7c(F)cc(S(=O)(=O)[O-])cc7F)c7ccc4[nH]7)C=C6)C=C5)cc3)cc(=O)c2c1
REMARK SMILES IDX 15 1 14 2 13 3 11 4 12 5 10 7 9 8 8 9 7 10 1 11 2 12 3 13
REMARK SMILES IDX 90 14 4 15 89 16 5 17 87 18 6 19 86 20 88 21 16 22 17 23
REMARK SMILES IDX 18 24 19 26 20 27 21 28 85 29 22 30 84 31 23 32 24 33 25 34
REMARK SMILES IDX 78 35 26 36 83 37 77 38 79 39 27 40 82 41 76 42 75 43 28 45
REMARK SMILES IDX 62 46 41 47 61 48 42 49 45 50 60 51 80 52 43 53 44 54 59 56
REMARK SMILES IDX 81 57 46 58 29 59 30 60 39 61 31 62 32 63 38 64 40 65 33 66
REMARK SMILES IDX 34 67 35 68 36 69 37 70 63 71 64 72 73 73 65 74 66 75 72 76
REMARK SMILES IDX 74 77 67 78 68 79 69 80 70 81 71 82 47 83 48 84 57 85 49 86
REMARK SMILES IDX 50 87 56 88 58 89 51 90 52 91 53 92 54 93 55 94
REMARK H PARENT 13 6 17 25 79 44 45 55
REMARK Flexibility Score: inf
ROOT
ATOM      1  C   UNL A   1      32.782  27.065  26.142  1.00  0.00     0.042 C 
ENDROOT
BRANCH   1   2
ATOM      2  C   UNL A   1      32.987  25.561  26.274  1.00  0.00     0.117 C 
BRANCH   2   3
ATOM      3  N   UNL A   1      31.833  24.933  26.886  1.00  0.00    -0.356 N 
ATOM      4  C   UNL A   1      31.437  23.631  26.868  1.00  0.00     0.220 C 
ATOM      5  O   UNL A   1      30.360  23.344  27.391  1.00  0.00    -0.275 OA
ATOM      6  H   UNL A   1      31.247  25.541  27.392  1.00  0.00     0.163 HD
BRANCH   4   7
ATOM      7  C   UNL A   1      32.332  22.552  26.291  1.00  0.00     0.100 C 
BRANCH   7   8
ATOM      8  C   UNL A   1      31.799  21.785  25.073  1.00  0.00     0.018 C 
BRANCH   8   9
ATOM      9  C   UNL A   1      32.179  22.232  23.646  1.00  0.00     0.076 C 
BRANCH   9  10
ATOM     10  C   UNL A   1      32.070  23.694  23.268  1.00  0.00     0.108 A 
ATOM     11  C   UNL A   1      29.636  29.636  22.311  1.00  0.00     0.044 C 
ATOM     12  C   UNL A   1      29.971  28.211  22.640  1.00  0.00    -0.050 A 
ATOM     13  C   UNL A   1      29.126  27.452  23.461  1.00  0.00     0.007 A 
ATOM     14  C   UNL A   1      31.158  27.639  22.156  1.00  0.00     0.019 A 
ATOM     15  C   UNL A   1      29.485  26.158  23.835  1.00  0.00     0.048 A 
ATOM     16  C   UNL A   1      31.505  26.335  22.524  1.00  0.00     0.065 A 
ATOM     17  C   UNL A   1      30.686  25.615  23.383  1.00  0.00     0.138 A 
ATOM     18  C   UNL A   1      32.722  25.684  22.018  1.00  0.00     0.192 A 
ATOM     19  O   UNL A   1      31.010  24.367  23.839  1.00  0.00    -0.461 OA
ATOM     20  C   UNL A   1      32.925  24.273  22.408  1.00  0.00     0.095 A 
ATOM     21  O   UNL A   1      33.516  26.264  21.287  1.00  0.00    -0.289 OA
ENDBRANCH   9  10
ENDBRANCH   8   9
ENDBRANCH   7   8
ENDBRANCH   4   7
ENDBRANCH   2   3
ENDBRANCH   1   2
BRANCH   1  22
ATOM     22  C   UNL A   1      33.991  27.874  26.573  1.00  0.00     0.118 C 
BRANCH  22  23
ATOM     23  N   UNL A   1      33.637  29.228  26.964  1.00  0.00    -0.352 N 
ATOM     24  C   UNL A   1      34.351  30.145  27.699  1.00  0.00     0.251 C 
ATOM     25  H   UNL A   1      32.753  29.535  26.657  1.00  0.00     0.163 HD
ATOM     26  O   UNL A   1      33.794  31.171  28.080  1.00  0.00    -0.269 OA
BRANCH  24  27
ATOM     27  C   UNL A   1      35.767  29.890  28.048  1.00  0.00     0.039 A 
ATOM     28  C   UNL A   1      36.076  29.438  29.334  1.00  0.00     0.014 A 
ATOM     29  C   UNL A   1      36.793  30.108  27.125  1.00  0.00     0.014 A 
ATOM     30  C   UNL A   1      37.402  29.152  29.671  1.00  0.00     0.010 A 
ATOM     31  C   UNL A   1      38.095  29.723  27.427  1.00  0.00     0.010 A 
ATOM     32  C   UNL A   1      38.419  29.259  28.709  1.00  0.00    -0.014 A 
BRANCH  32  33
ATOM     33  C   UNL A   1      39.831  28.919  29.029  1.00  0.00     0.031 A 
ATOM     34  C   UNL A   1      40.728  29.955  29.655  1.00  0.00     0.074 A 
ATOM     35  C   UNL A   1      40.320  27.708  28.699  1.00  0.00     0.049 A 
ATOM     36  N   UNL A   1      42.004  29.881  29.936  1.00  0.00    -0.248 NA
ATOM     37  C   UNL A   1      40.121  31.257  29.978  1.00  0.00     0.031 C 
ATOM     38  C   UNL A   1      39.563  26.637  28.044  1.00  0.00     0.029 A 
ATOM     39  N   UNL A   1      41.573  27.173  28.859  1.00  0.00    -0.354 N 
ATOM     40  C   UNL A   1      42.352  31.126  30.449  1.00  0.00     0.074 A 
ATOM     41  C   UNL A   1      41.170  31.956  30.383  1.00  0.00     0.031 C 
ATOM     42  C   UNL A   1      40.358  25.568  27.886  1.00  0.00     0.029 A 
ATOM     43  C   UNL A   1      41.692  25.886  28.384  1.00  0.00     0.049 A 
ATOM     44  H   UNL A   1      42.319  27.662  29.276  1.00  0.00     0.167 HD
ATOM     45  C   UNL A   1      43.541  31.533  30.953  1.00  0.00     0.037 A 
ATOM     46  C   UNL A   1      42.756  25.062  28.346  1.00  0.00     0.037 A 
ATOM     47  C   UNL A   1      44.704  30.689  31.044  1.00  0.00     0.049 A 
ATOM     48  C   UNL A   1      44.069  25.537  28.910  1.00  0.00     0.074 A 
ATOM     49  C   UNL A   1      45.938  30.984  31.596  1.00  0.00     0.029 A 
ATOM     50  N   UNL A   1      44.777  29.387  30.570  1.00  0.00    -0.354 N 
ATOM     51  N   UNL A   1      44.361  26.697  29.451  1.00  0.00    -0.248 NA
ATOM     52  C   UNL A   1      45.193  24.593  28.866  1.00  0.00     0.031 C 
ATOM     53  C   UNL A   1      46.774  29.878  31.408  1.00  0.00     0.029 A 
ATOM     54  C   UNL A   1      46.043  28.874  30.795  1.00  0.00     0.049 A 
ATOM     55  H   UNL A   1      44.038  28.902  30.137  1.00  0.00     0.167 HD
ATOM     56  C   UNL A   1      45.695  26.609  29.840  1.00  0.00     0.074 A 
ATOM     57  C   UNL A   1      46.146  25.280  29.482  1.00  0.00     0.031 C 
ATOM     58  C   UNL A   1      46.473  27.543  30.441  1.00  0.00     0.037 A 
BRANCH  45  59
ATOM     59  C   UNL A   1      43.645  32.952  31.448  1.00  0.00     0.058 A 
ATOM     60  C   UNL A   1      44.020  34.007  30.601  1.00  0.00     0.135 A 
ATOM     61  C   UNL A   1      43.329  33.266  32.781  1.00  0.00     0.135 A 
ATOM     62  F   UNL A   1      44.350  33.765  29.322  1.00  0.00    -0.206 F 
ATOM     63  C   UNL A   1      44.109  35.317  31.063  1.00  0.00     0.059 A 
ATOM     64  C   UNL A   1      43.379  34.574  33.256  1.00  0.00     0.059 A 
ATOM     65  F   UNL A   1      42.965  32.298  33.636  1.00  0.00    -0.206 F 
ATOM     66  C   UNL A   1      43.785  35.590  32.392  1.00  0.00     0.060 A 
BRANCH  66  67
ATOM     67  S   UNL A   1      43.896  37.296  32.972  1.00  0.00     0.124 S 
ATOM     68  O   UNL A   1      45.216  37.306  33.595  1.00  0.00    -0.237 OA
ATOM     69  O   UNL A   1      43.776  38.054  31.731  1.00  0.00    -0.237 OA
ATOM     70  O   UNL A   1      42.769  37.418  33.891  1.00  0.00    -0.744 OA
ENDBRANCH  66  67
ENDBRANCH  45  59
BRANCH  46  71
ATOM     71  C   UNL A   1      42.621  23.696  27.770  1.00  0.00     0.058 A 
ATOM     72  C   UNL A   1      42.683  23.487  26.384  1.00  0.00     0.135 A 
ATOM     73  C   UNL A   1      42.437  22.571  28.590  1.00  0.00     0.135 A 
ATOM     74  F   UNL A   1      42.851  24.531  25.556  1.00  0.00    -0.206 F 
ATOM     75  C   UNL A   1      42.549  22.219  25.829  1.00  0.00     0.059 A 
ATOM     76  C   UNL A   1      42.329  21.289  28.062  1.00  0.00     0.059 A 
ATOM     77  F   UNL A   1      42.388  22.713  29.924  1.00  0.00    -0.206 F 
ATOM     78  C   UNL A   1      42.375  21.124  26.678  1.00  0.00     0.060 A 
BRANCH  78  79
ATOM     79  S   UNL A   1      42.244  19.477  25.950  1.00  0.00     0.124 S 
ATOM     80  O   UNL A   1      43.110  19.601  24.784  1.00  0.00    -0.237 OA
ATOM     81  O   UNL A   1      42.740  18.627  27.028  1.00  0.00    -0.237 OA
ATOM     82  O   UNL A   1      40.817  19.347  25.666  1.00  0.00    -0.744 OA
ENDBRANCH  78  79
ENDBRANCH  46  71
BRANCH  58  83
ATOM     83  C   UNL A   1      47.883  27.153  30.790  1.00  0.00     0.058 A 
ATOM     84  C   UNL A   1      48.184  26.413  31.943  1.00  0.00     0.135 A 
ATOM     85  C   UNL A   1      48.941  27.474  29.923  1.00  0.00     0.135 A 
ATOM     86  F   UNL A   1      47.212  26.084  32.809  1.00  0.00    -0.206 F 
ATOM     87  C   UNL A   1      49.487  26.024  32.237  1.00  0.00     0.059 A 
ATOM     88  C   UNL A   1      50.246  27.070  30.180  1.00  0.00     0.059 A 
ATOM     89  F   UNL A   1      48.706  28.172  28.799  1.00  0.00    -0.206 F 
ATOM     90  C   UNL A   1      50.512  26.354  31.347  1.00  0.00     0.060 A 
BRANCH  90  91
ATOM     91  S   UNL A   1      52.191  25.808  31.720  1.00  0.00     0.124 S 
ATOM     92  O   UNL A   1      52.558  26.710  32.807  1.00  0.00    -0.237 OA
ATOM     93  O   UNL A   1      51.988  24.412  32.095  1.00  0.00    -0.237 OA
ATOM     94  O   UNL A   1      52.904  26.017  30.463  1.00  0.00    -0.744 OA
ENDBRANCH  90  91
ENDBRANCH  58  83
ENDBRANCH  32  33
ENDBRANCH  24  27
ENDBRANCH  22  23
ENDBRANCH   1  22
TORSDOF 16
ENDMDL
MODEL 2
REMARK VINA RESULT:     -11.5      4.658     11.015
REMARK SMILES Cc1ccc2oc(CCCC(=O)NCCCNC(=O)c3ccc(-c4c5nc(c(-c6c(F)cc(S(=O)(=O)[O-])cc6F)c6ccc([nH]6)c(-c6c(F)cc(S(=O)(=O)[O-])cc6F)c6nc(c(-c7c(F)cc(S(=O)(=O)[O-])cc7F)c7ccc4[nH]7)C=C6)C=C5)cc3)cc(=O)c2c1
REMARK SMILES IDX 15 1 14 2 13 3 11 4 12 5 10 7 9 8 8 9 7 10 1 11 2 12 3 13
REMARK SMILES IDX 90 14 4 15 89 16 5 17 87 18 6 19 86 20 88 21 16 22 17 23
REMARK SMILES IDX 18 24 19 26 20 27 21 28 85 29 22 30 84 31 23 32 24 33 25 34
REMARK SMILES IDX 78 35 26 36 83 37 77 38 79 39 27 40 82 41 76 42 75 43 28 45
REMARK SMILES IDX 62 46 41 47 61 48 42 49 45 50 60 51 80 52 43 53 44 54 59 56
REMARK SMILES IDX 81 57 46 58 29 59 30 60 39 61 31 62 32 63 38 64 40 65 33 66
REMARK SMILES IDX 34 67 35 68 36 69 37 70 63 71 64 72 73 73 65 74 66 75 72 76
REMARK SMILES IDX 74 77 67 78 68 79 69 80 70 81 71 82 47 83 48 84 57 85 49 86
REMARK SMILES IDX 50 87 56 88 58 89 51 90 52 91 53 92 54 93 55 94
REMARK H PARENT 13 6 17 25 79 44 45 55
REMARK Flexibility Score: inf
ROOT
ATOM      1  C   UNL A   1      42.162  21.544  25.763  1.00  0.00     0.042 C 
ENDROOT
BRANCH   1   2
ATOM      2  C   UNL A   1      43.000  20.332  26.152  1.00  0.00     0.117 C 
BRANCH   2   3
ATOM      3  N   UNL A   1      43.421  19.595  24.979  1.00  0.00    -0.356 N 
ATOM      4  C   UNL A   1      44.646  19.520  24.389  1.00  0.00     0.220 C 
ATOM      5  O   UNL A   1      44.745  18.892  23.334  1.00  0.00    -0.275 OA
ATOM      6  H   UNL A   1      42.714  19.068  24.541  1.00  0.00     0.163 HD
BRANCH   4   7
ATOM      7  C   UNL A   1      45.868  20.122  25.052  1.00  0.00     0.100 C 
BRANCH   7   8
ATOM      8  C   UNL A   1      46.385  21.450  24.480  1.00  0.00     0.018 C 
BRANCH   8   9
ATOM      9  C   UNL A   1      45.413  22.623  24.240  1.00  0.00     0.076 C 
BRANCH   9  10
ATOM     10  C   UNL A   1      45.461  23.832  25.151  1.00  0.00     0.108 A 
ATOM     11  C   UNL A   1      44.335  29.737  27.602  1.00  0.00     0.044 C 
ATOM     12  C   UNL A   1      44.415  28.434  26.863  1.00  0.00    -0.050 A 
ATOM     13  C   UNL A   1      43.467  28.112  25.882  1.00  0.00     0.007 A 
ATOM     14  C   UNL A   1      45.425  27.509  27.176  1.00  0.00     0.019 A 
ATOM     15  C   UNL A   1      43.495  26.864  25.260  1.00  0.00     0.048 A 
ATOM     16  C   UNL A   1      45.454  26.266  26.538  1.00  0.00     0.065 A 
ATOM     17  C   UNL A   1      44.475  25.938  25.610  1.00  0.00     0.138 A 
ATOM     18  C   UNL A   1      46.508  25.278  26.811  1.00  0.00     0.192 A 
ATOM     19  O   UNL A   1      44.408  24.711  25.011  1.00  0.00    -0.461 OA
ATOM     20  C   UNL A   1      46.479  24.042  26.002  1.00  0.00     0.095 A 
ATOM     21  O   UNL A   1      47.385  25.475  27.643  1.00  0.00    -0.289 OA
ENDBRANCH   9  10
ENDBRANCH   8   9
ENDBRANCH   7   8
ENDBRANCH   4   7
ENDBRANCH   2   3
ENDBRANCH   1   2
BRANCH   1  22
ATOM     22  C   UNL A   1      40.973  21.768  26.678  1.00  0.00     0.118 C 
BRANCH  22  23
ATOM     23  N   UNL A   1      39.746  22.012  25.937  1.00  0.00    -0.352 N 
ATOM     24  C   UNL A   1      38.892  23.089  25.984  1.00  0.00     0.251 C 
ATOM     25  H   UNL A   1      39.488  21.301  25.308  1.00  0.00     0.163 HD
ATOM     26  O   UNL A   1      37.806  23.017  25.414  1.00  0.00    -0.269 OA
BRANCH  24  27
ATOM     27  C   UNL A   1      39.263  24.312  26.732  1.00  0.00     0.039 A 
ATOM     28  C   UNL A   1      38.826  24.457  28.051  1.00  0.00     0.014 A 
ATOM     29  C   UNL A   1      40.024  25.322  26.139  1.00  0.00     0.014 A 
ATOM     30  C   UNL A   1      39.199  25.584  28.788  1.00  0.00     0.010 A 
ATOM     31  C   UNL A   1      40.482  26.389  26.905  1.00  0.00     0.010 A 
ATOM     32  C   UNL A   1      40.060  26.544  28.232  1.00  0.00    -0.014 A 
BRANCH  32  33
ATOM     33  C   UNL A   1      40.508  27.730  29.008  1.00  0.00     0.031 A 
ATOM     34  C   UNL A   1      41.857  27.720  29.680  1.00  0.00     0.074 A 
ATOM     35  C   UNL A   1      39.682  28.783  29.161  1.00  0.00     0.049 A 
ATOM     36  N   UNL A   1      42.396  28.619  30.464  1.00  0.00    -0.248 NA
ATOM     37  C   UNL A   1      42.698  26.529  29.472  1.00  0.00     0.031 C 
ATOM     38  C   UNL A   1      38.332  28.890  28.599  1.00  0.00     0.029 A 
ATOM     39  N   UNL A   1      39.849  29.963  29.842  1.00  0.00    -0.354 N 
ATOM     40  C   UNL A   1      43.624  28.095  30.853  1.00  0.00     0.074 A 
ATOM     41  C   UNL A   1      43.725  26.776  30.271  1.00  0.00     0.031 C 
ATOM     42  C   UNL A   1      37.808  30.079  28.935  1.00  0.00     0.029 A 
ATOM     43  C   UNL A   1      38.760  30.802  29.771  1.00  0.00     0.049 A 
ATOM     44  H   UNL A   1      40.670  30.188  30.335  1.00  0.00     0.167 HD
ATOM     45  C   UNL A   1      44.591  28.671  31.606  1.00  0.00     0.037 A 
ATOM     46  C   UNL A   1      38.551  32.013  30.324  1.00  0.00     0.037 A 
ATOM     47  C   UNL A   1      44.496  29.999  32.154  1.00  0.00     0.049 A 
ATOM     48  C   UNL A   1      39.640  32.632  31.159  1.00  0.00     0.074 A 
ATOM     49  C   UNL A   1      45.445  30.701  32.876  1.00  0.00     0.029 A 
ATOM     50  N   UNL A   1      43.386  30.824  32.043  1.00  0.00    -0.354 N 
ATOM     51  N   UNL A   1      40.822  32.149  31.462  1.00  0.00    -0.248 NA
ATOM     52  C   UNL A   1      39.372  33.963  31.720  1.00  0.00     0.031 C 
ATOM     53  C   UNL A   1      44.889  31.930  33.246  1.00  0.00     0.029 A 
ATOM     54  C   UNL A   1      43.617  32.018  32.704  1.00  0.00     0.049 A 
ATOM     55  H   UNL A   1      42.557  30.594  31.564  1.00  0.00     0.167 HD
ATOM     56  C   UNL A   1      41.450  33.130  32.223  1.00  0.00     0.074 A 
ATOM     57  C   UNL A   1      40.521  34.237  32.324  1.00  0.00     0.031 C 
ATOM     58  C   UNL A   1      42.684  33.116  32.785  1.00  0.00     0.037 A 
BRANCH  45  59
ATOM     59  C   UNL A   1      45.839  27.872  31.877  1.00  0.00     0.058 A 
ATOM     60  C   UNL A   1      46.958  27.935  31.031  1.00  0.00     0.135 A 
ATOM     61  C   UNL A   1      45.930  27.060  33.020  1.00  0.00     0.135 A 
ATOM     62  F   UNL A   1      46.922  28.682  29.915  1.00  0.00    -0.206 F 
ATOM     63  C   UNL A   1      48.110  27.200  31.289  1.00  0.00     0.059 A 
ATOM     64  C   UNL A   1      47.085  26.341  33.316  1.00  0.00     0.059 A 
ATOM     65  F   UNL A   1      44.892  26.960  33.864  1.00  0.00    -0.206 F 
ATOM     66  C   UNL A   1      48.164  26.406  32.435  1.00  0.00     0.060 A 
BRANCH  66  67
ATOM     67  S   UNL A   1      49.670  25.465  32.760  1.00  0.00     0.124 S 
ATOM     68  O   UNL A   1      50.507  26.469  33.409  1.00  0.00    -0.237 OA
ATOM     69  O   UNL A   1      49.186  24.391  33.621  1.00  0.00    -0.237 OA
ATOM     70  O   UNL A   1      50.107  25.051  31.430  1.00  0.00    -0.744 OA
ENDBRANCH  66  67
ENDBRANCH  45  59
BRANCH  46  71
ATOM     71  C   UNL A   1      37.266  32.726  30.091  1.00  0.00     0.058 A 
ATOM     72  C   UNL A   1      37.128  33.639  29.033  1.00  0.00     0.135 A 
ATOM     73  C   UNL A   1      36.147  32.505  30.910  1.00  0.00     0.135 A 
ATOM     74  F   UNL A   1      38.170  33.890  28.225  1.00  0.00    -0.206 F 
ATOM     75  C   UNL A   1      35.937  34.320  28.806  1.00  0.00     0.059 A 
ATOM     76  C   UNL A   1      34.936  33.153  30.686  1.00  0.00     0.059 A 
ATOM     77  F   UNL A   1      36.219  31.630  31.924  1.00  0.00    -0.206 F 
ATOM     78  C   UNL A   1      34.844  34.069  29.639  1.00  0.00     0.060 A 
BRANCH  78  79
ATOM     79  S   UNL A   1      33.291  34.927  29.311  1.00  0.00     0.124 S 
ATOM     80  O   UNL A   1      32.675  34.936  30.632  1.00  0.00    -0.237 OA
ATOM     81  O   UNL A   1      33.754  36.218  28.813  1.00  0.00    -0.237 OA
ATOM     82  O   UNL A   1      32.640  34.078  28.317  1.00  0.00    -0.744 OA
ENDBRANCH  78  79
ENDBRANCH  46  71
BRANCH  58  83
ATOM     83  C   UNL A   1      43.124  34.348  33.527  1.00  0.00     0.058 A 
ATOM     84  C   UNL A   1      42.901  34.504  34.903  1.00  0.00     0.135 A 
ATOM     85  C   UNL A   1      43.834  35.360  32.859  1.00  0.00     0.135 A 
ATOM     86  F   UNL A   1      42.222  33.570  35.589  1.00  0.00    -0.206 F 
ATOM     87  C   UNL A   1      43.346  35.630  35.588  1.00  0.00     0.059 A 
ATOM     88  C   UNL A   1      44.315  36.480  33.529  1.00  0.00     0.059 A 
ATOM     89  F   UNL A   1      44.084  35.255  31.544  1.00  0.00    -0.206 F 
ATOM     90  C   UNL A   1      44.056  36.611  34.893  1.00  0.00     0.060 A 
BRANCH  90  91
ATOM     91  S   UNL A   1      44.663  38.047  35.802  1.00  0.00     0.124 S 
ATOM     92  O   UNL A   1      43.999  39.141  35.101  1.00  0.00    -0.237 OA
ATOM     93  O   UNL A   1      44.189  37.781  37.157  1.00  0.00    -0.237 OA
ATOM     94  O   UNL A   1      46.111  37.976  35.625  1.00  0.00    -0.744 OA
ENDBRANCH  90  91
ENDBRANCH  58  83
ENDBRANCH  32  33
ENDBRANCH  24  27
ENDBRANCH  22  23
ENDBRANCH   1  22
TORSDOF 16
ENDMDL
MODEL 3
REMARK VINA RESULT:     -11.4      1.445      3.176
REMARK SMILES Cc1ccc2oc(CCCC(=O)NCCCNC(=O)c3ccc(-c4c5nc(c(-c6c(F)cc(S(=O)(=O)[O-])cc6F)c6ccc([nH]6)c(-c6c(F)cc(S(=O)(=O)[O-])cc6F)c6nc(c(-c7c(F)cc(S(=O)(=O)[O-])cc7F)c7ccc4[nH]7)C=C6)C=C5)cc3)cc(=O)c2c1
REMARK SMILES IDX 15 1 14 2 13 3 11 4 12 5 10 7 9 8 8 9 7 10 1 11 2 12 3 13
REMARK SMILES IDX 90 14 4 15 89 16 5 17 87 18 6 19 86 20 88 21 16 22 17 23
REMARK SMILES IDX 18 24 19 26 20 27 21 28 85 29 22 30 84 31 23 32 24 33 25 34
REMARK SMILES IDX 78 35 26 36 83 37 77 38 79 39 27 40 82 41 76 42 75 43 28 45
REMARK SMILES IDX 62 46 41 47 61 48 42 49 45 50 60 51 80 52 43 53 44 54 59 56
REMARK SMILES IDX 81 57 46 58 29 59 30 60 39 61 31 62 32 63 38 64 40 65 33 66
REMARK SMILES IDX 34 67 35 68 36 69 37 70 63 71 64 72 73 73 65 74 66 75 72 76
REMARK SMILES IDX 74 77 67 78 68 79 69 80 70 81 71 82 47 83 48 84 57 85 49 86
REMARK SMILES IDX 50 87 56 88 58 89 51 90 52 91 53 92 54 93 55 94
REMARK H PARENT 13 6 17 25 79 44 45 55
REMARK Flexibility Score: inf
ROOT
ATOM      1  C   UNL A   1      33.653  27.957  25.267  1.00  0.00     0.042 C 
ENDROOT
BRANCH   1   2
ATOM      2  C   UNL A   1      33.043  26.602  24.933  1.00  0.00     0.117 C 
BRANCH   2   3
ATOM      3  N   UNL A   1      33.428  26.173  23.604  1.00  0.00    -0.356 N 
ATOM      4  C   UNL A   1      32.722  25.472  22.675  1.00  0.00     0.220 C 
ATOM      5  O   UNL A   1      33.296  25.143  21.636  1.00  0.00    -0.275 OA
ATOM      6  H   UNL A   1      34.339  26.428  23.331  1.00  0.00     0.163 HD
BRANCH   4   7
ATOM      7  C   UNL A   1      31.250  25.173  22.876  1.00  0.00     0.100 C 
BRANCH   7   8
ATOM      8  C   UNL A   1      30.879  23.734  23.258  1.00  0.00     0.018 C 
BRANCH   8   9
ATOM      9  C   UNL A   1      31.215  23.191  24.662  1.00  0.00     0.076 C 
BRANCH   9  10
ATOM     10  C   UNL A   1      32.575  22.575  24.918  1.00  0.00     0.108 A 
ATOM     11  C   UNL A   1      38.967  21.957  25.869  1.00  0.00     0.044 C 
ATOM     12  C   UNL A   1      37.536  22.353  25.653  1.00  0.00    -0.050 A 
ATOM     13  C   UNL A   1      37.139  23.690  25.786  1.00  0.00     0.007 A 
ATOM     14  C   UNL A   1      36.575  21.375  25.350  1.00  0.00     0.019 A 
ATOM     15  C   UNL A   1      35.794  24.040  25.671  1.00  0.00     0.048 A 
ATOM     16  C   UNL A   1      35.230  21.735  25.221  1.00  0.00     0.065 A 
ATOM     17  C   UNL A   1      34.843  23.055  25.413  1.00  0.00     0.138 A 
ATOM     18  C   UNL A   1      34.193  20.752  24.876  1.00  0.00     0.192 A 
ATOM     19  O   UNL A   1      33.535  23.453  25.376  1.00  0.00    -0.461 OA
ATOM     20  C   UNL A   1      32.826  21.278  24.679  1.00  0.00     0.095 A 
ATOM     21  O   UNL A   1      34.446  19.563  24.729  1.00  0.00    -0.289 OA
ENDBRANCH   9  10
ENDBRANCH   8   9
ENDBRANCH   7   8
ENDBRANCH   4   7
ENDBRANCH   2   3
ENDBRANCH   1   2
BRANCH   1  22
ATOM     22  C   UNL A   1      33.833  28.182  26.757  1.00  0.00     0.118 C 
BRANCH  22  23
ATOM     23  N   UNL A   1      33.688  29.581  27.124  1.00  0.00    -0.352 N 
ATOM     24  C   UNL A   1      34.552  30.404  27.806  1.00  0.00     0.251 C 
ATOM     25  H   UNL A   1      32.844  30.003  26.843  1.00  0.00     0.163 HD
ATOM     26  O   UNL A   1      34.161  31.506  28.181  1.00  0.00    -0.269 OA
BRANCH  24  27
ATOM     27  C   UNL A   1      35.933  29.960  28.108  1.00  0.00     0.039 A 
ATOM     28  C   UNL A   1      36.908  30.062  27.113  1.00  0.00     0.014 A 
ATOM     29  C   UNL A   1      36.269  29.431  29.357  1.00  0.00     0.014 A 
ATOM     30  C   UNL A   1      38.226  29.687  27.390  1.00  0.00     0.010 A 
ATOM     31  C   UNL A   1      37.598  29.160  29.663  1.00  0.00     0.010 A 
ATOM     32  C   UNL A   1      38.590  29.266  28.678  1.00  0.00    -0.014 A 
BRANCH  32  33
ATOM     33  C   UNL A   1      39.993  28.903  29.012  1.00  0.00     0.031 A 
ATOM     34  C   UNL A   1      40.900  29.924  29.649  1.00  0.00     0.074 A 
ATOM     35  C   UNL A   1      40.466  27.685  28.686  1.00  0.00     0.049 A 
ATOM     36  N   UNL A   1      42.171  29.830  29.944  1.00  0.00    -0.248 NA
ATOM     37  C   UNL A   1      40.309  31.235  29.967  1.00  0.00     0.031 C 
ATOM     38  C   UNL A   1      39.699  26.627  28.023  1.00  0.00     0.029 A 
ATOM     39  N   UNL A   1      41.709  27.130  28.859  1.00  0.00    -0.354 N 
ATOM     40  C   UNL A   1      42.533  31.069  30.461  1.00  0.00     0.074 A 
ATOM     41  C   UNL A   1      41.365  31.918  30.384  1.00  0.00     0.031 C 
ATOM     42  C   UNL A   1      40.480  25.545  27.871  1.00  0.00     0.029 A 
ATOM     43  C   UNL A   1      41.813  25.843  28.384  1.00  0.00     0.049 A 
ATOM     44  H   UNL A   1      42.458  27.608  29.284  1.00  0.00     0.167 HD
ATOM     45  C   UNL A   1      43.723  31.458  30.978  1.00  0.00     0.037 A 
ATOM     46  C   UNL A   1      42.865  25.001  28.356  1.00  0.00     0.037 A 
ATOM     47  C   UNL A   1      44.871  30.595  31.081  1.00  0.00     0.049 A 
ATOM     48  C   UNL A   1      44.179  25.456  28.934  1.00  0.00     0.074 A 
ATOM     49  C   UNL A   1      46.104  30.870  31.646  1.00  0.00     0.029 A 
ATOM     50  N   UNL A   1      44.929  29.293  30.606  1.00  0.00    -0.354 N 
ATOM     51  N   UNL A   1      44.483  26.610  29.479  1.00  0.00    -0.248 NA
ATOM     52  C   UNL A   1      45.288  24.494  28.901  1.00  0.00     0.031 C 
ATOM     53  C   UNL A   1      46.924  29.752  31.466  1.00  0.00     0.029 A 
ATOM     54  C   UNL A   1      46.184  28.759  30.844  1.00  0.00     0.049 A 
ATOM     55  H   UNL A   1      44.187  28.819  30.165  1.00  0.00     0.167 HD
ATOM     56  C   UNL A   1      45.811  26.501  29.883  1.00  0.00     0.074 A 
ATOM     57  C   UNL A   1      46.245  25.166  29.528  1.00  0.00     0.031 C 
ATOM     58  C   UNL A   1      46.597  27.422  30.493  1.00  0.00     0.037 A 
BRANCH  45  59
ATOM     59  C   UNL A   1      43.843  32.874  31.477  1.00  0.00     0.058 A 
ATOM     60  C   UNL A   1      43.510  33.226  32.795  1.00  0.00     0.135 A 
ATOM     61  C   UNL A   1      44.334  33.886  30.635  1.00  0.00     0.135 A 
ATOM     62  F   UNL A   1      43.020  32.303  33.639  1.00  0.00    -0.206 F 
ATOM     63  C   UNL A   1      43.628  34.534  33.252  1.00  0.00     0.059 A 
ATOM     64  C   UNL A   1      44.492  35.196  31.082  1.00  0.00     0.059 A 
ATOM     65  F   UNL A   1      44.668  33.608  29.366  1.00  0.00    -0.206 F 
ATOM     66  C   UNL A   1      44.122  35.513  32.388  1.00  0.00     0.060 A 
BRANCH  66  67
ATOM     67  S   UNL A   1      44.278  37.203  33.000  1.00  0.00     0.124 S 
ATOM     68  O   UNL A   1      43.348  37.192  34.126  1.00  0.00    -0.237 OA
ATOM     69  O   UNL A   1      45.693  37.278  33.349  1.00  0.00    -0.237 OA
ATOM     70  O   UNL A   1      43.871  38.018  31.860  1.00  0.00    -0.744 OA
ENDBRANCH  66  67
ENDBRANCH  45  59
BRANCH  46  71
ATOM     71  C   UNL A   1      42.714  23.638  27.777  1.00  0.00     0.058 A 
ATOM     72  C   UNL A   1      42.907  23.411  26.406  1.00  0.00     0.135 A 
ATOM     73  C   UNL A   1      42.385  22.535  28.580  1.00  0.00     0.135 A 
ATOM     74  F   UNL A   1      43.217  24.434  25.594  1.00  0.00    -0.206 F 
ATOM     75  C   UNL A   1      42.762  22.145  25.848  1.00  0.00     0.059 A 
ATOM     76  C   UNL A   1      42.262  21.255  28.051  1.00  0.00     0.059 A 
ATOM     77  F   UNL A   1      42.207  22.695  29.901  1.00  0.00    -0.206 F 
ATOM     78  C   UNL A   1      42.440  21.071  26.680  1.00  0.00     0.060 A 
BRANCH  78  79
ATOM     79  S   UNL A   1      42.294  19.425  25.953  1.00  0.00     0.124 S 
ATOM     80  O   UNL A   1      43.073  19.574  24.729  1.00  0.00    -0.237 OA
ATOM     81  O   UNL A   1      42.883  18.581  26.987  1.00  0.00    -0.237 OA
ATOM     82  O   UNL A   1      40.854  19.266  25.769  1.00  0.00    -0.744 OA
ENDBRANCH  78  79
ENDBRANCH  46  71
BRANCH  58  83
ATOM     83  C   UNL A   1      47.998  27.010  30.856  1.00  0.00     0.058 A 
ATOM     84  C   UNL A   1      48.318  26.517  32.130  1.00  0.00     0.135 A 
ATOM     85  C   UNL A   1      49.020  27.054  29.893  1.00  0.00     0.135 A 
ATOM     86  F   UNL A   1      47.380  26.459  33.088  1.00  0.00    -0.206 F 
ATOM     87  C   UNL A   1      49.609  26.102  32.444  1.00  0.00     0.059 A 
ATOM     88  C   UNL A   1      50.309  26.616  30.176  1.00  0.00     0.059 A 
ATOM     89  F   UNL A   1      48.764  27.508  28.656  1.00  0.00    -0.206 F 
ATOM     90  C   UNL A   1      50.597  26.151  31.458  1.00  0.00     0.060 A 
BRANCH  90  91
ATOM     91  S   UNL A   1      52.256  25.572  31.868  1.00  0.00     0.124 S 
ATOM     92  O   UNL A   1      52.994  25.912  30.655  1.00  0.00    -0.237 OA
ATOM     93  O   UNL A   1      52.579  26.364  33.051  1.00  0.00    -0.237 OA
ATOM     94  O   UNL A   1      52.069  24.144  32.108  1.00  0.00    -0.744 OA
ENDBRANCH  90  91
ENDBRANCH  58  83
ENDBRANCH  32  33
ENDBRANCH  24  27
ENDBRANCH  22  23
ENDBRANCH   1  22
TORSDOF 16
ENDMDL
