MODEL 1
REMARK VINA RESULT:     -11.7      0.000      0.000
REMARK SMILES O=C(NCCCNC(=O)[C@H]1C=C[C@H](NS(=O)(=O)c2ccc3c(c2)CCO3)C1)c1ccc(-c2c3nc(c(-c4c(F)cc(S(=O)(=O)[O-])cc4F)c4ccc([nH]4)c(-c4c(F)cc(S(=O)(=O)[O-])cc4F)c4nc(c(-c5c(F)cc(S(=O)(=O)[O-])cc5F)c5ccc2[nH]5)C=C4)C=C3)cc1
REMARK SMILES IDX 5 1 4 2 3 3 1 4 2 5 28 7 29 8 93 9 30 10 92 11 31 12 32 13
REMARK SMILES IDX 33 14 86 15 34 16 91 17 85 18 87 19 35 20 90 21 84 22 83 23
REMARK SMILES IDX 36 25 70 26 49 27 69 28 50 29 53 30 68 31 88 32 51 33 52 34
REMARK SMILES IDX 67 36 89 37 54 38 37 39 38 40 47 41 39 42 40 43 46 44 48 45
REMARK SMILES IDX 41 46 42 47 43 48 44 49 45 50 71 51 72 52 81 53 73 54 74 55
REMARK SMILES IDX 80 56 82 57 75 58 76 59 77 60 78 61 79 62 55 63 56 64 65 65
REMARK SMILES IDX 57 66 58 67 64 68 66 69 59 70 60 71 61 72 62 73 63 74 6 75
REMARK SMILES IDX 7 76 8 77 9 79 10 80 11 81 27 82 12 83 13 84 14 85 15 87
REMARK SMILES IDX 16 88 17 89 18 90 19 91 23 92 20 93 22 94 21 95 24 96 26 97
REMARK SMILES IDX 25 98
REMARK H PARENT 3 6 87 24 53 35 7 78 14 86
REMARK Flexibility Score: inf
ROOT
ATOM      1  C   UNL A   1      40.883  21.653  26.403  1.00  0.00     0.042 C 
ENDROOT
BRANCH   1   2
ATOM      2  C   UNL A   1      40.972  23.094  26.906  1.00  0.00     0.118 C 
BRANCH   2   3
ATOM      3  N   UNL A   1      41.565  23.987  25.922  1.00  0.00    -0.352 N 
ATOM      4  O   UNL A   1      42.009  25.920  24.882  1.00  0.00    -0.269 OA
ATOM      5  C   UNL A   1      41.745  25.347  25.936  1.00  0.00     0.251 C 
ATOM      6  H   UNL A   1      41.891  23.540  25.108  1.00  0.00     0.163 HD
BRANCH   5   7
ATOM      7  C   UNL A   1      41.637  26.123  27.192  1.00  0.00     0.039 A 
ATOM      8  C   UNL A   1      42.625  27.037  27.566  1.00  0.00     0.014 A 
ATOM      9  C   UNL A   1      40.466  26.014  27.951  1.00  0.00     0.014 A 
ATOM     10  C   UNL A   1      42.484  27.774  28.740  1.00  0.00     0.010 A 
ATOM     11  C   UNL A   1      40.297  26.799  29.095  1.00  0.00     0.010 A 
ATOM     12  C   UNL A   1      41.310  27.679  29.503  1.00  0.00    -0.014 A 
BRANCH  12  13
ATOM     13  C   UNL A   1      41.116  28.578  30.669  1.00  0.00     0.031 A 
ATOM     14  C   UNL A   1      41.973  28.451  31.895  1.00  0.00     0.074 A 
ATOM     15  C   UNL A   1      40.146  29.511  30.609  1.00  0.00     0.049 A 
ATOM     16  N   UNL A   1      41.934  29.151  33.000  1.00  0.00    -0.248 NA
ATOM     17  C   UNL A   1      43.001  27.400  31.887  1.00  0.00     0.031 C 
ATOM     18  C   UNL A   1      39.231  29.703  29.480  1.00  0.00     0.029 A 
ATOM     19  N   UNL A   1      39.764  30.471  31.511  1.00  0.00    -0.354 N 
ATOM     20  C   UNL A   1      42.915  28.618  33.826  1.00  0.00     0.074 A 
ATOM     21  C   UNL A   1      43.525  27.522  33.101  1.00  0.00     0.031 C 
ATOM     22  C   UNL A   1      38.412  30.732  29.747  1.00  0.00     0.029 A 
ATOM     23  C   UNL A   1      38.711  31.241  31.080  1.00  0.00     0.049 A 
ATOM     24  H   UNL A   1      40.203  30.595  32.384  1.00  0.00     0.167 HD
ATOM     25  C   UNL A   1      43.275  29.012  35.070  1.00  0.00     0.037 A 
ATOM     26  C   UNL A   1      38.045  32.236  31.696  1.00  0.00     0.037 A 
ATOM     27  C   UNL A   1      42.678  30.118  35.774  1.00  0.00     0.049 A 
ATOM     28  C   UNL A   1      38.462  32.650  33.077  1.00  0.00     0.074 A 
ATOM     29  C   UNL A   1      43.024  30.640  37.008  1.00  0.00     0.029 A 
ATOM     30  N   UNL A   1      41.606  30.866  35.311  1.00  0.00    -0.354 N 
ATOM     31  N   UNL A   1      39.434  32.172  33.817  1.00  0.00    -0.248 NA
ATOM     32  C   UNL A   1      37.692  33.728  33.710  1.00  0.00     0.031 C 
ATOM     33  C   UNL A   1      42.137  31.680  37.308  1.00  0.00     0.029 A 
ATOM     34  C   UNL A   1      41.259  31.827  36.247  1.00  0.00     0.049 A 
ATOM     35  H   UNL A   1      41.157  30.734  34.444  1.00  0.00     0.167 HD
ATOM     36  C   UNL A   1      39.394  32.893  35.004  1.00  0.00     0.074 A 
ATOM     37  C   UNL A   1      38.315  33.853  34.875  1.00  0.00     0.031 C 
ATOM     38  C   UNL A   1      40.176  32.767  36.103  1.00  0.00     0.037 A 
BRANCH  25  39
ATOM     39  C   UNL A   1      44.361  28.239  35.763  1.00  0.00     0.058 A 
ATOM     40  C   UNL A   1      44.072  27.145  36.593  1.00  0.00     0.135 A 
ATOM     41  C   UNL A   1      45.711  28.564  35.551  1.00  0.00     0.135 A 
ATOM     42  F   UNL A   1      42.798  26.802  36.839  1.00  0.00    -0.206 F 
ATOM     43  C   UNL A   1      45.083  26.410  37.204  1.00  0.00     0.059 A 
ATOM     44  C   UNL A   1      46.739  27.831  36.137  1.00  0.00     0.059 A 
ATOM     45  F   UNL A   1      46.040  29.602  34.767  1.00  0.00    -0.206 F 
ATOM     46  C   UNL A   1      46.413  26.761  36.971  1.00  0.00     0.060 A 
BRANCH  46  47
ATOM     47  S   UNL A   1      47.716  25.794  37.764  1.00  0.00     0.124 S 
ATOM     48  O   UNL A   1      48.900  26.588  37.448  1.00  0.00    -0.237 OA
ATOM     49  O   UNL A   1      47.306  25.802  39.165  1.00  0.00    -0.237 OA
ATOM     50  O   UNL A   1      47.632  24.500  37.097  1.00  0.00    -0.744 OA
ENDBRANCH  46  47
ENDBRANCH  25  39
BRANCH  26  51
ATOM     51  C   UNL A   1      36.903  32.892  31.008  1.00  0.00     0.058 A 
ATOM     52  C   UNL A   1      35.580  32.603  31.367  1.00  0.00     0.135 A 
ATOM     53  C   UNL A   1      37.118  33.847  30.003  1.00  0.00     0.135 A 
ATOM     54  F   UNL A   1      35.327  31.693  32.320  1.00  0.00    -0.206 F 
ATOM     55  C   UNL A   1      34.505  33.236  30.750  1.00  0.00     0.059 A 
ATOM     56  C   UNL A   1      36.062  34.508  29.387  1.00  0.00     0.059 A 
ATOM     57  F   UNL A   1      38.369  34.169  29.637  1.00  0.00    -0.206 F 
ATOM     58  C   UNL A   1      34.757  34.189  29.761  1.00  0.00     0.060 A 
BRANCH  58  59
ATOM     59  S   UNL A   1      33.363  35.055  29.006  1.00  0.00     0.124 S 
ATOM     60  O   UNL A   1      32.849  34.040  28.094  1.00  0.00    -0.237 OA
ATOM     61  O   UNL A   1      32.524  35.360  30.161  1.00  0.00    -0.237 OA
ATOM     62  O   UNL A   1      33.993  36.213  28.378  1.00  0.00    -0.744 OA
ENDBRANCH  58  59
ENDBRANCH  26  51
BRANCH  38  63
ATOM     63  C   UNL A   1      39.892  33.687  37.253  1.00  0.00     0.058 A 
ATOM     64  C   UNL A   1      40.605  34.884  37.420  1.00  0.00     0.135 A 
ATOM     65  C   UNL A   1      38.868  33.396  38.167  1.00  0.00     0.135 A 
ATOM     66  F   UNL A   1      41.600  35.200  36.577  1.00  0.00    -0.206 F 
ATOM     67  C   UNL A   1      40.319  35.758  38.463  1.00  0.00     0.059 A 
ATOM     68  C   UNL A   1      38.552  34.264  39.207  1.00  0.00     0.059 A 
ATOM     69  F   UNL A   1      38.155  32.265  38.045  1.00  0.00    -0.206 F 
ATOM     70  C   UNL A   1      39.291  35.438  39.352  1.00  0.00     0.060 A 
BRANCH  70  71
ATOM     71  S   UNL A   1      38.898  36.599  40.678  1.00  0.00     0.124 S 
ATOM     72  O   UNL A   1      38.068  35.775  41.551  1.00  0.00    -0.237 OA
ATOM     73  O   UNL A   1      40.217  36.944  41.199  1.00  0.00    -0.237 OA
ATOM     74  O   UNL A   1      38.203  37.680  39.986  1.00  0.00    -0.744 OA
ENDBRANCH  70  71
ENDBRANCH  38  63
ENDBRANCH  12  13
ENDBRANCH   5   7
ENDBRANCH   2   3
ENDBRANCH   1   2
BRANCH   1  75
ATOM     75  C   UNL A   1      41.473  20.623  27.362  1.00  0.00     0.117 C 
BRANCH  75  76
ATOM     76  N   UNL A   1      41.690  19.337  26.736  1.00  0.00    -0.356 N 
ATOM     77  C   UNL A   1      42.766  18.774  26.143  1.00  0.00     0.226 C 
ATOM     78  H   UNL A   1      40.896  18.756  26.743  1.00  0.00     0.163 HD
ATOM     79  O   UNL A   1      42.615  17.611  25.747  1.00  0.00    -0.274 OA
BRANCH  77  80
ATOM     80  C   UNL A   1      44.110  19.477  25.909  1.00  0.00     0.103 C 
ATOM     81  C   UNL A   1      45.373  18.821  25.445  1.00  0.00    -0.016 C 
ATOM     82  C   UNL A   1      43.902  20.505  24.778  1.00  0.00     0.042 C 
ATOM     83  C   UNL A   1      46.016  19.581  24.546  1.00  0.00    -0.011 C 
ATOM     84  C   UNL A   1      45.292  20.865  24.269  1.00  0.00     0.093 C 
BRANCH  84  85
ATOM     85  N   UNL A   1      45.980  21.891  25.051  1.00  0.00    -0.204 NA
ATOM     86  H   UNL A   1      46.972  21.805  24.832  1.00  0.00     0.142 HD
BRANCH  85  87
ATOM     87  S   UNL A   1      45.592  23.513  24.878  1.00  0.00     0.241 S 
ATOM     88  O   UNL A   1      46.786  24.169  24.394  1.00  0.00    -0.207 OA
ATOM     89  O   UNL A   1      44.336  23.593  24.168  1.00  0.00    -0.207 OA
BRANCH  87  90
ATOM     90  C   UNL A   1      45.350  24.048  26.555  1.00  0.00     0.083 A 
ATOM     91  C   UNL A   1      46.089  25.147  27.035  1.00  0.00     0.025 A 
ATOM     92  C   UNL A   1      44.534  23.292  27.406  1.00  0.00     0.029 A 
ATOM     93  C   UNL A   1      46.052  25.473  28.392  1.00  0.00     0.048 A 
ATOM     94  C   UNL A   1      44.510  23.639  28.746  1.00  0.00    -0.001 A 
ATOM     95  C   UNL A   1      45.264  24.701  29.222  1.00  0.00     0.122 A 
ATOM     96  C   UNL A   1      43.844  22.959  29.878  1.00  0.00     0.081 C 
ATOM     97  O   UNL A   1      45.186  24.873  30.577  1.00  0.00    -0.493 OA
ATOM     98  C   UNL A   1      44.153  23.954  30.999  1.00  0.00     0.234 C 
ENDBRANCH  87  90
ENDBRANCH  85  87
ENDBRANCH  84  85
ENDBRANCH  77  80
ENDBRANCH  75  76
ENDBRANCH   1  75
TORSDOF 16
ENDMDL
MODEL 2
REMARK VINA RESULT:     -11.6      4.343     12.175
REMARK SMILES O=C(NCCCNC(=O)[C@H]1C=C[C@H](NS(=O)(=O)c2ccc3c(c2)CCO3)C1)c1ccc(-c2c3nc(c(-c4c(F)cc(S(=O)(=O)[O-])cc4F)c4ccc([nH]4)c(-c4c(F)cc(S(=O)(=O)[O-])cc4F)c4nc(c(-c5c(F)cc(S(=O)(=O)[O-])cc5F)c5ccc2[nH]5)C=C4)C=C3)cc1
REMARK SMILES IDX 5 1 4 2 3 3 1 4 2 5 28 7 29 8 93 9 30 10 92 11 31 12 32 13
REMARK SMILES IDX 33 14 86 15 34 16 91 17 85 18 87 19 35 20 90 21 84 22 83 23
REMARK SMILES IDX 36 25 70 26 49 27 69 28 50 29 53 30 68 31 88 32 51 33 52 34
REMARK SMILES IDX 67 36 89 37 54 38 37 39 38 40 47 41 39 42 40 43 46 44 48 45
REMARK SMILES IDX 41 46 42 47 43 48 44 49 45 50 71 51 72 52 81 53 73 54 74 55
REMARK SMILES IDX 80 56 82 57 75 58 76 59 77 60 78 61 79 62 55 63 56 64 65 65
REMARK SMILES IDX 57 66 58 67 64 68 66 69 59 70 60 71 61 72 62 73 63 74 6 75
REMARK SMILES IDX 7 76 8 77 9 79 10 80 11 81 27 82 12 83 13 84 14 85 15 87
REMARK SMILES IDX 16 88 17 89 18 90 19 91 23 92 20 93 22 94 21 95 24 96 26 97
REMARK SMILES IDX 25 98
REMARK H PARENT 3 6 87 24 53 35 7 78 14 86
REMARK Flexibility Score: inf
ROOT
ATOM      1  C   UNL A   1      34.057  33.934  27.959  1.00  0.00     0.042 C 
ENDROOT
BRANCH   1   2
ATOM      2  C   UNL A   1      34.597  32.712  28.703  1.00  0.00     0.118 C 
BRANCH   2   3
ATOM      3  N   UNL A   1      33.870  31.496  28.370  1.00  0.00    -0.352 N 
ATOM      4  O   UNL A   1      33.527  29.461  27.502  1.00  0.00    -0.269 OA
ATOM      5  C   UNL A   1      34.319  30.251  28.011  1.00  0.00     0.251 C 
ATOM      6  H   UNL A   1      32.890  31.583  28.409  1.00  0.00     0.163 HD
BRANCH   5   7
ATOM      7  C   UNL A   1      35.725  29.848  28.233  1.00  0.00     0.039 A 
ATOM      8  C   UNL A   1      36.703  30.063  27.259  1.00  0.00     0.014 A 
ATOM      9  C   UNL A   1      36.091  29.350  29.489  1.00  0.00     0.014 A 
ATOM     10  C   UNL A   1      38.025  29.698  27.506  1.00  0.00     0.010 A 
ATOM     11  C   UNL A   1      37.427  29.043  29.758  1.00  0.00     0.010 A 
ATOM     12  C   UNL A   1      38.404  29.206  28.765  1.00  0.00    -0.014 A 
BRANCH  12  13
ATOM     13  C   UNL A   1      39.839  28.962  29.056  1.00  0.00     0.031 A 
ATOM     14  C   UNL A   1      40.498  27.670  28.668  1.00  0.00     0.074 A 
ATOM     15  C   UNL A   1      40.542  29.923  29.686  1.00  0.00     0.049 A 
ATOM     16  N   UNL A   1      41.738  27.293  28.852  1.00  0.00    -0.248 NA
ATOM     17  C   UNL A   1      39.660  26.666  27.996  1.00  0.00     0.031 C 
ATOM     18  C   UNL A   1      39.996  31.206  30.139  1.00  0.00     0.029 A 
ATOM     19  N   UNL A   1      41.861  29.977  30.057  1.00  0.00    -0.354 N 
ATOM     20  C   UNL A   1      41.828  26.006  28.336  1.00  0.00     0.074 A 
ATOM     21  C   UNL A   1      40.510  25.658  27.845  1.00  0.00     0.031 C 
ATOM     22  C   UNL A   1      40.976  31.927  30.703  1.00  0.00     0.029 A 
ATOM     23  C   UNL A   1      42.206  31.144  30.694  1.00  0.00     0.049 A 
ATOM     24  H   UNL A   1      42.500  29.248  29.881  1.00  0.00     0.167 HD
ATOM     25  C   UNL A   1      42.911  25.197  28.274  1.00  0.00     0.037 A 
ATOM     26  C   UNL A   1      43.377  31.536  31.230  1.00  0.00     0.037 A 
ATOM     27  C   UNL A   1      44.223  25.561  28.745  1.00  0.00     0.049 A 
ATOM     28  C   UNL A   1      44.561  30.616  31.151  1.00  0.00     0.074 A 
ATOM     29  C   UNL A   1      45.399  24.838  28.659  1.00  0.00     0.029 A 
ATOM     30  N   UNL A   1      44.530  26.747  29.395  1.00  0.00    -0.354 N 
ATOM     31  N   UNL A   1      44.640  29.427  30.605  1.00  0.00    -0.248 NA
ATOM     32  C   UNL A   1      45.809  31.085  31.767  1.00  0.00     0.031 C 
ATOM     33  C   UNL A   1      46.411  25.570  29.293  1.00  0.00     0.029 A 
ATOM     34  C   UNL A   1      45.871  26.763  29.744  1.00  0.00     0.049 A 
ATOM     35  H   UNL A   1      43.890  27.471  29.584  1.00  0.00     0.167 HD
ATOM     36  C   UNL A   1      45.947  29.004  30.808  1.00  0.00     0.074 A 
ATOM     37  C   UNL A   1      46.629  30.073  31.510  1.00  0.00     0.031 C 
ATOM     38  C   UNL A   1      46.528  27.834  30.450  1.00  0.00     0.037 A 
BRANCH  25  39
ATOM     39  C   UNL A   1      42.729  23.827  27.686  1.00  0.00     0.058 A 
ATOM     40  C   UNL A   1      42.808  23.603  26.303  1.00  0.00     0.135 A 
ATOM     41  C   UNL A   1      42.526  22.715  28.521  1.00  0.00     0.135 A 
ATOM     42  F   UNL A   1      42.987  24.632  25.461  1.00  0.00    -0.206 F 
ATOM     43  C   UNL A   1      42.676  22.326  25.766  1.00  0.00     0.059 A 
ATOM     44  C   UNL A   1      42.409  21.427  28.006  1.00  0.00     0.059 A 
ATOM     45  F   UNL A   1      42.441  22.877  29.850  1.00  0.00    -0.206 F 
ATOM     46  C   UNL A   1      42.475  21.245  26.625  1.00  0.00     0.060 A 
BRANCH  46  47
ATOM     47  S   UNL A   1      42.311  19.593  25.915  1.00  0.00     0.124 S 
ATOM     48  O   UNL A   1      42.635  18.751  27.063  1.00  0.00    -0.237 OA
ATOM     49  O   UNL A   1      40.916  19.570  25.488  1.00  0.00    -0.237 OA
ATOM     50  O   UNL A   1      43.294  19.588  24.837  1.00  0.00    -0.744 OA
ENDBRANCH  46  47
ENDBRANCH  25  39
BRANCH  26  51
ATOM     51  C   UNL A   1      43.472  32.857  31.902  1.00  0.00     0.058 A 
ATOM     52  C   UNL A   1      43.618  34.037  31.161  1.00  0.00     0.135 A 
ATOM     53  C   UNL A   1      43.382  32.965  33.298  1.00  0.00     0.135 A 
ATOM     54  F   UNL A   1      43.712  33.982  29.824  1.00  0.00    -0.206 F 
ATOM     55  C   UNL A   1      43.676  35.282  31.781  1.00  0.00     0.059 A 
ATOM     56  C   UNL A   1      43.416  34.198  33.939  1.00  0.00     0.059 A 
ATOM     57  F   UNL A   1      43.226  31.863  34.050  1.00  0.00    -0.206 F 
ATOM     58  C   UNL A   1      43.572  35.351  33.171  1.00  0.00     0.060 A 
BRANCH  58  59
ATOM     59  S   UNL A   1      43.584  36.973  33.968  1.00  0.00     0.124 S 
ATOM     60  O   UNL A   1      42.219  37.059  34.474  1.00  0.00    -0.237 OA
ATOM     61  O   UNL A   1      44.629  36.817  34.975  1.00  0.00    -0.237 OA
ATOM     62  O   UNL A   1      43.913  37.879  32.871  1.00  0.00    -0.744 OA
ENDBRANCH  58  59
ENDBRANCH  26  51
BRANCH  38  63
ATOM     63  C   UNL A   1      47.971  27.648  30.815  1.00  0.00     0.058 A 
ATOM     64  C   UNL A   1      48.345  27.025  32.015  1.00  0.00     0.135 A 
ATOM     65  C   UNL A   1      48.989  28.051  29.936  1.00  0.00     0.135 A 
ATOM     66  F   UNL A   1      47.406  26.632  32.891  1.00  0.00    -0.206 F 
ATOM     67  C   UNL A   1      49.680  26.817  32.339  1.00  0.00     0.059 A 
ATOM     68  C   UNL A   1      50.332  27.836  30.231  1.00  0.00     0.059 A 
ATOM     69  F   UNL A   1      48.682  28.646  28.774  1.00  0.00    -0.206 F 
ATOM     70  C   UNL A   1      50.667  27.227  31.440  1.00  0.00     0.060 A 
BRANCH  70  71
ATOM     71  S   UNL A   1      52.398  26.914  31.849  1.00  0.00     0.124 S 
ATOM     72  O   UNL A   1      52.929  28.271  31.925  1.00  0.00    -0.237 OA
ATOM     73  O   UNL A   1      52.300  26.199  33.117  1.00  0.00    -0.237 OA
ATOM     74  O   UNL A   1      52.871  26.116  30.722  1.00  0.00    -0.744 OA
ENDBRANCH  70  71
ENDBRANCH  38  63
ENDBRANCH  12  13
ENDBRANCH   5   7
ENDBRANCH   2   3
ENDBRANCH   1   2
BRANCH   1  75
ATOM     75  C   UNL A   1      34.318  35.260  28.669  1.00  0.00     0.117 C 
BRANCH  75  76
ATOM     76  N   UNL A   1      33.168  35.735  29.405  1.00  0.00    -0.356 N 
ATOM     77  C   UNL A   1      32.990  36.105  30.693  1.00  0.00     0.226 C 
ATOM     78  H   UNL A   1      32.351  35.803  28.860  1.00  0.00     0.163 HD
ATOM     79  O   UNL A   1      31.859  36.517  30.983  1.00  0.00    -0.274 OA
BRANCH  77  80
ATOM     80  C   UNL A   1      34.061  36.019  31.789  1.00  0.00     0.103 C 
ATOM     81  C   UNL A   1      34.017  36.716  33.113  1.00  0.00    -0.016 C 
ATOM     82  C   UNL A   1      34.128  34.550  32.253  1.00  0.00     0.042 C 
ATOM     83  C   UNL A   1      34.444  35.914  34.101  1.00  0.00    -0.011 C 
ATOM     84  C   UNL A   1      34.846  34.560  33.597  1.00  0.00     0.093 C 
BRANCH  84  85
ATOM     85  N   UNL A   1      36.304  34.580  33.508  1.00  0.00    -0.204 NA
ATOM     86  H   UNL A   1      36.575  35.559  33.412  1.00  0.00     0.142 HD
BRANCH  85  87
ATOM     87  S   UNL A   1      37.254  33.941  34.734  1.00  0.00     0.241 S 
ATOM     88  O   UNL A   1      38.400  34.814  34.860  1.00  0.00    -0.207 OA
ATOM     89  O   UNL A   1      36.390  33.649  35.854  1.00  0.00    -0.207 OA
BRANCH  87  90
ATOM     90  C   UNL A   1      37.839  32.416  34.033  1.00  0.00     0.083 A 
ATOM     91  C   UNL A   1      36.931  31.587  33.347  1.00  0.00     0.025 A 
ATOM     92  C   UNL A   1      39.153  32.003  34.290  1.00  0.00     0.029 A 
ATOM     93  C   UNL A   1      37.322  30.308  32.946  1.00  0.00     0.048 A 
ATOM     94  C   UNL A   1      39.517  30.733  33.877  1.00  0.00    -0.001 A 
ATOM     95  C   UNL A   1      38.611  29.906  33.230  1.00  0.00     0.122 A 
ATOM     96  C   UNL A   1      40.777  29.997  34.112  1.00  0.00     0.081 C 
ATOM     97  O   UNL A   1      39.101  28.659  32.948  1.00  0.00    -0.493 OA
ATOM     98  C   UNL A   1      40.505  28.739  33.283  1.00  0.00     0.234 C 
ENDBRANCH  87  90
ENDBRANCH  85  87
ENDBRANCH  84  85
ENDBRANCH  77  80
ENDBRANCH  75  76
ENDBRANCH   1  75
TORSDOF 16
ENDMDL
MODEL 3
REMARK VINA RESULT:     -11.6      5.591     14.206
REMARK SMILES O=C(NCCCNC(=O)[C@H]1C=C[C@H](NS(=O)(=O)c2ccc3c(c2)CCO3)C1)c1ccc(-c2c3nc(c(-c4c(F)cc(S(=O)(=O)[O-])cc4F)c4ccc([nH]4)c(-c4c(F)cc(S(=O)(=O)[O-])cc4F)c4nc(c(-c5c(F)cc(S(=O)(=O)[O-])cc5F)c5ccc2[nH]5)C=C4)C=C3)cc1
REMARK SMILES IDX 5 1 4 2 3 3 1 4 2 5 28 7 29 8 93 9 30 10 92 11 31 12 32 13
REMARK SMILES IDX 33 14 86 15 34 16 91 17 85 18 87 19 35 20 90 21 84 22 83 23
REMARK SMILES IDX 36 25 70 26 49 27 69 28 50 29 53 30 68 31 88 32 51 33 52 34
REMARK SMILES IDX 67 36 89 37 54 38 37 39 38 40 47 41 39 42 40 43 46 44 48 45
REMARK SMILES IDX 41 46 42 47 43 48 44 49 45 50 71 51 72 52 81 53 73 54 74 55
REMARK SMILES IDX 80 56 82 57 75 58 76 59 77 60 78 61 79 62 55 63 56 64 65 65
REMARK SMILES IDX 57 66 58 67 64 68 66 69 59 70 60 71 61 72 62 73 63 74 6 75
REMARK SMILES IDX 7 76 8 77 9 79 10 80 11 81 27 82 12 83 13 84 14 85 15 87
REMARK SMILES IDX 16 88 17 89 18 90 19 91 23 92 20 93 22 94 21 95 24 96 26 97
REMARK SMILES IDX 25 98
REMARK H PARENT 3 6 87 24 53 35 7 78 14 86
REMARK Flexibility Score: inf
ROOT
ATOM      1  C   UNL A   1      34.735  33.026  28.460  1.00  0.00     0.042 C 
ENDROOT
BRANCH   1   2
ATOM      2  C   UNL A   1      36.070  32.522  29.011  1.00  0.00     0.118 C 
BRANCH   2   3
ATOM      3  N   UNL A   1      35.907  31.750  30.233  1.00  0.00    -0.352 N 
ATOM      4  O   UNL A   1      36.181  30.043  31.656  1.00  0.00    -0.269 OA
ATOM      5  C   UNL A   1      36.663  30.734  30.762  1.00  0.00     0.251 C 
ATOM      6  H   UNL A   1      35.122  31.998  30.772  1.00  0.00     0.163 HD
BRANCH   5   7
ATOM      7  C   UNL A   1      38.037  30.469  30.281  1.00  0.00     0.039 A 
ATOM      8  C   UNL A   1      39.118  30.429  31.164  1.00  0.00     0.014 A 
ATOM      9  C   UNL A   1      38.226  30.141  28.934  1.00  0.00     0.014 A 
ATOM     10  C   UNL A   1      40.397  30.151  30.688  1.00  0.00     0.010 A 
ATOM     11  C   UNL A   1      39.499  29.800  28.468  1.00  0.00     0.010 A 
ATOM     12  C   UNL A   1      40.597  29.811  29.341  1.00  0.00    -0.014 A 
BRANCH  12  13
ATOM     13  C   UNL A   1      41.940  29.375  28.884  1.00  0.00     0.031 A 
ATOM     14  C   UNL A   1      43.085  30.344  28.810  1.00  0.00     0.074 A 
ATOM     15  C   UNL A   1      42.114  28.088  28.527  1.00  0.00     0.049 A 
ATOM     16  N   UNL A   1      44.319  30.130  28.430  1.00  0.00    -0.248 NA
ATOM     17  C   UNL A   1      42.811  31.734  29.205  1.00  0.00     0.031 C 
ATOM     18  C   UNL A   1      41.064  27.065  28.528  1.00  0.00     0.029 A 
ATOM     19  N   UNL A   1      43.229  27.416  28.094  1.00  0.00    -0.354 N 
ATOM     20  C   UNL A   1      44.966  31.356  28.521  1.00  0.00     0.074 A 
ATOM     21  C   UNL A   1      43.982  32.316  28.978  1.00  0.00     0.031 C 
ATOM     22  C   UNL A   1      41.589  25.893  28.139  1.00  0.00     0.029 A 
ATOM     23  C   UNL A   1      42.998  26.090  27.819  1.00  0.00     0.049 A 
ATOM     24  H   UNL A   1      44.110  27.844  27.992  1.00  0.00     0.167 HD
ATOM     25  C   UNL A   1      46.260  31.648  28.253  1.00  0.00     0.037 A 
ATOM     26  C   UNL A   1      43.824  25.138  27.343  1.00  0.00     0.037 A 
ATOM     27  C   UNL A   1      47.236  30.681  27.821  1.00  0.00     0.049 A 
ATOM     28  C   UNL A   1      45.253  25.491  27.051  1.00  0.00     0.074 A 
ATOM     29  C   UNL A   1      48.589  30.865  27.596  1.00  0.00     0.029 A 
ATOM     30  N   UNL A   1      46.963  29.350  27.542  1.00  0.00    -0.354 N 
ATOM     31  N   UNL A   1      45.861  26.643  27.202  1.00  0.00    -0.248 NA
ATOM     32  C   UNL A   1      46.106  24.421  26.517  1.00  0.00     0.031 C 
ATOM     33  C   UNL A   1      49.126  29.654  27.142  1.00  0.00     0.029 A 
ATOM     34  C   UNL A   1      48.115  28.708  27.117  1.00  0.00     0.049 A 
ATOM     35  H   UNL A   1      46.080  28.923  27.631  1.00  0.00     0.167 HD
ATOM     36  C   UNL A   1      47.169  26.438  26.784  1.00  0.00     0.074 A 
ATOM     37  C   UNL A   1      47.271  25.046  26.393  1.00  0.00     0.031 C 
ATOM     38  C   UNL A   1      48.192  27.324  26.724  1.00  0.00     0.037 A 
BRANCH  25  39
ATOM     39  C   UNL A   1      46.703  33.075  28.409  1.00  0.00     0.058 A 
ATOM     40  C   UNL A   1      47.182  33.569  29.631  1.00  0.00     0.135 A 
ATOM     41  C   UNL A   1      46.699  33.945  27.305  1.00  0.00     0.135 A 
ATOM     42  F   UNL A   1      47.195  32.783  30.719  1.00  0.00    -0.206 F 
ATOM     43  C   UNL A   1      47.626  34.881  29.760  1.00  0.00     0.059 A 
ATOM     44  C   UNL A   1      47.155  35.256  27.407  1.00  0.00     0.059 A 
ATOM     45  F   UNL A   1      46.249  33.521  26.114  1.00  0.00    -0.206 F 
ATOM     46  C   UNL A   1      47.607  35.718  28.643  1.00  0.00     0.060 A 
BRANCH  46  47
ATOM     47  S   UNL A   1      48.192  37.417  28.823  1.00  0.00     0.124 S 
ATOM     48  O   UNL A   1      48.897  37.346  30.100  1.00  0.00    -0.237 OA
ATOM     49  O   UNL A   1      49.036  37.585  27.644  1.00  0.00    -0.237 OA
ATOM     50  O   UNL A   1      46.962  38.201  28.829  1.00  0.00    -0.744 OA
ENDBRANCH  46  47
ENDBRANCH  25  39
BRANCH  26  51
ATOM     51  C   UNL A   1      43.304  23.769  27.100  1.00  0.00     0.058 A 
ATOM     52  C   UNL A   1      42.995  23.331  25.805  1.00  0.00     0.135 A 
ATOM     53  C   UNL A   1      43.140  22.860  28.157  1.00  0.00     0.135 A 
ATOM     54  F   UNL A   1      43.132  24.166  24.764  1.00  0.00    -0.206 F 
ATOM     55  C   UNL A   1      42.537  22.039  25.565  1.00  0.00     0.059 A 
ATOM     56  C   UNL A   1      42.705  21.558  27.940  1.00  0.00     0.059 A 
ATOM     57  F   UNL A   1      43.439  23.229  29.413  1.00  0.00    -0.206 F 
ATOM     58  C   UNL A   1      42.397  21.159  26.640  1.00  0.00     0.060 A 
BRANCH  58  59
ATOM     59  S   UNL A   1      41.863  19.464  26.317  1.00  0.00     0.124 S 
ATOM     60  O   UNL A   1      40.420  19.630  26.198  1.00  0.00    -0.237 OA
ATOM     61  O   UNL A   1      42.574  19.143  25.083  1.00  0.00    -0.237 OA
ATOM     62  O   UNL A   1      42.323  18.741  27.500  1.00  0.00    -0.744 OA
ENDBRANCH  58  59
ENDBRANCH  26  51
BRANCH  38  63
ATOM     63  C   UNL A   1      49.508  26.815  26.215  1.00  0.00     0.058 A 
ATOM     64  C   UNL A   1      49.900  27.013  24.882  1.00  0.00     0.135 A 
ATOM     65  C   UNL A   1      50.407  26.166  27.077  1.00  0.00     0.135 A 
ATOM     66  F   UNL A   1      49.069  27.619  24.019  1.00  0.00    -0.206 F 
ATOM     67  C   UNL A   1      51.134  26.576  24.416  1.00  0.00     0.059 A 
ATOM     68  C   UNL A   1      51.655  25.737  26.638  1.00  0.00     0.059 A 
ATOM     69  F   UNL A   1      50.080  25.958  28.362  1.00  0.00    -0.206 F 
ATOM     70  C   UNL A   1      52.005  25.938  25.302  1.00  0.00     0.060 A 
BRANCH  70  71
ATOM     71  S   UNL A   1      53.624  25.412  24.700  1.00  0.00     0.124 S 
ATOM     72  O   UNL A   1      53.621  25.951  23.344  1.00  0.00    -0.237 OA
ATOM     73  O   UNL A   1      54.537  26.060  25.638  1.00  0.00    -0.237 OA
ATOM     74  O   UNL A   1      53.564  23.957  24.800  1.00  0.00    -0.744 OA
ENDBRANCH  70  71
ENDBRANCH  38  63
ENDBRANCH  12  13
ENDBRANCH   5   7
ENDBRANCH   2   3
ENDBRANCH   1   2
BRANCH   1  75
ATOM     75  C   UNL A   1      34.762  34.482  28.003  1.00  0.00     0.117 C 
BRANCH  75  76
ATOM     76  N   UNL A   1      33.508  35.164  28.239  1.00  0.00    -0.356 N 
ATOM     77  C   UNL A   1      33.047  35.909  29.268  1.00  0.00     0.226 C 
ATOM     78  H   UNL A   1      32.862  35.066  27.503  1.00  0.00     0.163 HD
ATOM     79  O   UNL A   1      31.918  36.394  29.117  1.00  0.00    -0.274 OA
BRANCH  77  80
ATOM     80  C   UNL A   1      33.800  36.155  30.582  1.00  0.00     0.103 C 
ATOM     81  C   UNL A   1      33.500  37.234  31.575  1.00  0.00    -0.016 C 
ATOM     82  C   UNL A   1      33.605  34.906  31.465  1.00  0.00     0.042 C 
ATOM     83  C   UNL A   1      33.588  36.778  32.834  1.00  0.00    -0.011 C 
ATOM     84  C   UNL A   1      33.966  35.328  32.885  1.00  0.00     0.093 C 
BRANCH  84  85
ATOM     85  N   UNL A   1      35.395  35.295  33.185  1.00  0.00    -0.204 NA
ATOM     86  H   UNL A   1      35.560  36.011  33.892  1.00  0.00     0.142 HD
BRANCH  85  87
ATOM     87  S   UNL A   1      36.129  33.895  33.744  1.00  0.00     0.241 S 
ATOM     88  O   UNL A   1      36.422  34.117  35.142  1.00  0.00    -0.207 OA
ATOM     89  O   UNL A   1      35.334  32.772  33.300  1.00  0.00    -0.207 OA
BRANCH  87  90
ATOM     90  C   UNL A   1      37.685  33.886  32.884  1.00  0.00     0.083 A 
ATOM     91  C   UNL A   1      38.865  33.638  33.610  1.00  0.00     0.025 A 
ATOM     92  C   UNL A   1      37.724  34.255  31.533  1.00  0.00     0.029 A 
ATOM     93  C   UNL A   1      40.109  33.802  32.997  1.00  0.00     0.048 A 
ATOM     94  C   UNL A   1      38.968  34.405  30.946  1.00  0.00    -0.001 A 
ATOM     95  C   UNL A   1      40.130  34.193  31.673  1.00  0.00     0.122 A 
ATOM     96  C   UNL A   1      39.314  34.893  29.594  1.00  0.00     0.081 C 
ATOM     97  O   UNL A   1      41.278  34.449  30.972  1.00  0.00    -0.493 OA
ATOM     98  C   UNL A   1      40.829  34.678  29.617  1.00  0.00     0.234 C 
ENDBRANCH  87  90
ENDBRANCH  85  87
ENDBRANCH  84  85
ENDBRANCH  77  80
ENDBRANCH  75  76
ENDBRANCH   1  75
TORSDOF 16
ENDMDL
