MODEL 1
REMARK VINA RESULT:     -12.4      0.000      0.000
REMARK SMILES O=C(Cn1cccc1C(=O)N1CC[N@H+]2CCC[C@@H]2C1)NCCCNC(=O)c1ccc(-c2c3nc(c(-c4c(F)cc(S(=O)(=O)[O-])cc4F)c4ccc([nH]4)c(-c4c(F)cc(S(=O)(=O)[O-])cc4F)c4nc(c(-c5c(F)cc(S(=O)(=O)[O-])cc5F)c5ccc2[nH]5)C=C4)C=C3)cc1
REMARK SMILES IDX 22 1 21 2 20 3 1 4 2 5 3 7 4 8 5 9 8 10 6 11 7 12 9 13 10 14
REMARK SMILES IDX 11 15 12 16 19 17 13 18 18 19 14 20 17 21 15 22 16 24 23 25
REMARK SMILES IDX 24 26 25 27 26 29 27 30 28 31 92 32 29 33 91 34 30 35 31 36
REMARK SMILES IDX 32 37 85 38 33 39 90 40 84 41 86 42 34 43 89 44 83 45 82 46
REMARK SMILES IDX 35 48 69 49 48 50 68 51 49 52 52 53 67 54 87 55 50 56 51 57
REMARK SMILES IDX 66 59 88 60 53 61 36 62 37 63 46 64 38 65 39 66 45 67 47 68
REMARK SMILES IDX 40 69 41 70 42 71 43 72 44 73 70 74 71 75 80 76 72 77 73 78
REMARK SMILES IDX 79 79 81 80 74 81 75 82 76 83 77 84 78 85 54 86 55 87 64 88
REMARK SMILES IDX 56 89 57 90 63 91 65 92 58 93 59 94 60 95 61 96 62 97
REMARK H PARENT 20 6 14 23 24 28 86 47 52 58
REMARK Flexibility Score: inf
ROOT
ATOM      1  C   UNL A   1      33.853  28.562  25.082  1.00  0.00     0.042 C 
ENDROOT
BRANCH   1   2
ATOM      2  C   UNL A   1      32.325  28.733  25.073  1.00  0.00     0.117 C 
BRANCH   2   3
ATOM      3  N   UNL A   1      31.528  27.525  24.899  1.00  0.00    -0.354 N 
ATOM      4  O   UNL A   1      31.337  27.102  27.124  1.00  0.00    -0.273 OA
ATOM      5  C   UNL A   1      31.032  26.803  25.965  1.00  0.00     0.239 C 
ATOM      6  H   UNL A   1      31.335  27.212  23.986  1.00  0.00     0.163 HD
BRANCH   5   7
ATOM      7  C   UNL A   1      30.161  25.574  25.724  1.00  0.00     0.222 C 
BRANCH   7   8
ATOM      8  N   UNL A   1      30.677  24.479  24.906  1.00  0.00    -0.334 N 
ATOM      9  C   UNL A   1      30.398  24.374  23.558  1.00  0.00     0.087 A 
ATOM     10  C   UNL A   1      31.462  23.404  25.294  1.00  0.00     0.107 A 
ATOM     11  C   UNL A   1      31.121  23.327  23.043  1.00  0.00     0.020 A 
ATOM     12  C   UNL A   1      31.805  22.737  24.122  1.00  0.00     0.033 A 
BRANCH  10  13
ATOM     13  C   UNL A   1      32.077  23.160  26.586  1.00  0.00     0.270 C 
ATOM     14  O   UNL A   1      31.402  23.276  27.608  1.00  0.00    -0.267 OA
BRANCH  13  15
ATOM     15  N   UNL A   1      33.320  22.556  26.628  1.00  0.00    -0.326 N 
ATOM     16  C   UNL A   1      33.603  21.120  26.439  1.00  0.00     0.181 C 
ATOM     17  C   UNL A   1      34.462  23.435  26.792  1.00  0.00     0.185 C 
ATOM     18  C   UNL A   1      34.929  20.843  25.657  1.00  0.00     0.284 C 
ATOM     19  C   UNL A   1      35.611  23.118  25.863  1.00  0.00     0.204 C 
ATOM     20  N   UNL A   1      36.012  21.731  26.117  1.00  0.00    -0.330 N 
ATOM     21  C   UNL A   1      36.894  23.872  26.159  1.00  0.00     0.073 C 
ATOM     22  C   UNL A   1      37.300  21.576  25.449  1.00  0.00     0.262 C 
ATOM     23  H   UNL A   1      36.142  21.484  27.099  1.00  0.00     0.348 HD
ATOM     24  C   UNL A   1      37.974  22.943  25.621  1.00  0.00     0.068 C 
ENDBRANCH  13  15
ENDBRANCH  10  13
ENDBRANCH   7   8
ENDBRANCH   5   7
ENDBRANCH   2   3
ENDBRANCH   1   2
BRANCH   1  25
ATOM     25  C   UNL A   1      34.606  28.624  26.423  1.00  0.00     0.118 C 
BRANCH  25  26
ATOM     26  N   UNL A   1      34.671  29.921  27.062  1.00  0.00    -0.352 N 
ATOM     27  C   UNL A   1      35.538  30.338  28.054  1.00  0.00     0.251 C 
ATOM     28  H   UNL A   1      34.017  30.587  26.752  1.00  0.00     0.163 HD
ATOM     29  O   UNL A   1      35.191  31.275  28.772  1.00  0.00    -0.269 OA
BRANCH  27  30
ATOM     30  C   UNL A   1      36.857  29.688  28.306  1.00  0.00     0.039 A 
ATOM     31  C   UNL A   1      37.039  28.981  29.502  1.00  0.00     0.014 A 
ATOM     32  C   UNL A   1      37.961  29.898  27.476  1.00  0.00     0.014 A 
ATOM     33  C   UNL A   1      38.293  28.448  29.832  1.00  0.00     0.010 A 
ATOM     34  C   UNL A   1      39.216  29.345  27.792  1.00  0.00     0.010 A 
ATOM     35  C   UNL A   1      39.392  28.612  28.975  1.00  0.00    -0.014 A 
BRANCH  35  36
ATOM     36  C   UNL A   1      40.690  27.940  29.324  1.00  0.00     0.031 A 
ATOM     37  C   UNL A   1      40.960  26.659  28.503  1.00  0.00     0.074 A 
ATOM     38  C   UNL A   1      41.441  28.471  30.338  1.00  0.00     0.049 A 
ATOM     39  N   UNL A   1      41.605  25.571  28.807  1.00  0.00    -0.248 NA
ATOM     40  C   UNL A   1      40.337  26.545  27.160  1.00  0.00     0.031 C 
ATOM     41  C   UNL A   1      41.113  29.723  31.048  1.00  0.00     0.029 A 
ATOM     42  N   UNL A   1      42.607  28.091  30.986  1.00  0.00    -0.354 N 
ATOM     43  C   UNL A   1      41.601  24.726  27.668  1.00  0.00     0.074 A 
ATOM     44  C   UNL A   1      40.732  25.349  26.716  1.00  0.00     0.031 C 
ATOM     45  C   UNL A   1      41.991  29.958  32.046  1.00  0.00     0.029 A 
ATOM     46  C   UNL A   1      42.976  28.896  32.102  1.00  0.00     0.049 A 
ATOM     47  H   UNL A   1      43.145  27.320  30.693  1.00  0.00     0.167 HD
ATOM     48  C   UNL A   1      42.372  23.602  27.542  1.00  0.00     0.037 A 
ATOM     49  C   UNL A   1      43.955  28.698  33.043  1.00  0.00     0.037 A 
ATOM     50  C   UNL A   1      43.155  23.413  28.714  1.00  0.00     0.049 A 
ATOM     51  C   UNL A   1      44.661  27.471  32.633  1.00  0.00     0.074 A 
ATOM     52  C   UNL A   1      42.880  22.924  29.962  1.00  0.00     0.029 A 
ATOM     53  N   UNL A   1      44.404  23.977  28.722  1.00  0.00    -0.354 N 
ATOM     54  N   UNL A   1      45.508  27.374  31.654  1.00  0.00    -0.248 NA
ATOM     55  C   UNL A   1      44.352  26.228  33.355  1.00  0.00     0.031 C 
ATOM     56  C   UNL A   1      43.811  23.573  30.801  1.00  0.00     0.029 A 
ATOM     57  C   UNL A   1      44.667  24.353  30.016  1.00  0.00     0.049 A 
ATOM     58  H   UNL A   1      45.000  24.091  27.946  1.00  0.00     0.167 HD
ATOM     59  C   UNL A   1      45.589  26.016  31.460  1.00  0.00     0.074 A 
ATOM     60  C   UNL A   1      45.131  25.390  32.679  1.00  0.00     0.031 C 
ATOM     61  C   UNL A   1      45.515  25.506  30.209  1.00  0.00     0.037 A 
BRANCH  48  62
ATOM     62  C   UNL A   1      42.695  22.679  26.386  1.00  0.00     0.058 A 
ATOM     63  C   UNL A   1      42.346  21.307  26.513  1.00  0.00     0.135 A 
ATOM     64  C   UNL A   1      43.617  22.981  25.375  1.00  0.00     0.135 A 
ATOM     65  F   UNL A   1      41.407  20.915  27.390  1.00  0.00    -0.206 F 
ATOM     66  C   UNL A   1      42.993  20.293  25.812  1.00  0.00     0.059 A 
ATOM     67  C   UNL A   1      44.248  21.977  24.624  1.00  0.00     0.059 A 
ATOM     68  F   UNL A   1      43.987  24.250  25.143  1.00  0.00    -0.206 F 
ATOM     69  C   UNL A   1      43.978  20.636  24.899  1.00  0.00     0.060 A 
BRANCH  69  70
ATOM     70  S   UNL A   1      44.917  19.302  24.118  1.00  0.00     0.124 S 
ATOM     71  O   UNL A   1      46.289  19.694  24.409  1.00  0.00    -0.237 OA
ATOM     72  O   UNL A   1      44.433  18.121  24.823  1.00  0.00    -0.237 OA
ATOM     73  O   UNL A   1      44.515  19.389  22.714  1.00  0.00    -0.744 OA
ENDBRANCH  69  70
ENDBRANCH  48  62
BRANCH  49  74
ATOM     74  C   UNL A   1      44.359  29.271  34.399  1.00  0.00     0.058 A 
ATOM     75  C   UNL A   1      43.528  29.440  35.514  1.00  0.00     0.135 A 
ATOM     76  C   UNL A   1      45.731  29.573  34.662  1.00  0.00     0.135 A 
ATOM     77  F   UNL A   1      42.197  29.382  35.404  1.00  0.00    -0.206 F 
ATOM     78  C   UNL A   1      44.032  29.685  36.807  1.00  0.00     0.059 A 
ATOM     79  C   UNL A   1      46.261  29.771  35.936  1.00  0.00     0.059 A 
ATOM     80  F   UNL A   1      46.638  29.658  33.679  1.00  0.00    -0.206 F 
ATOM     81  C   UNL A   1      45.405  29.785  37.017  1.00  0.00     0.060 A 
BRANCH  81  82
ATOM     82  S   UNL A   1      46.092  29.800  38.688  1.00  0.00     0.124 S 
ATOM     83  O   UNL A   1      45.082  29.067  39.441  1.00  0.00    -0.237 OA
ATOM     84  O   UNL A   1      47.373  29.121  38.510  1.00  0.00    -0.237 OA
ATOM     85  O   UNL A   1      46.193  31.226  38.989  1.00  0.00    -0.744 OA
ENDBRANCH  81  82
ENDBRANCH  49  74
BRANCH  61  86
ATOM     86  C   UNL A   1      45.980  26.445  29.120  1.00  0.00     0.058 A 
ATOM     87  C   UNL A   1      47.352  26.620  28.893  1.00  0.00     0.135 A 
ATOM     88  C   UNL A   1      45.111  27.228  28.340  1.00  0.00     0.135 A 
ATOM     89  F   UNL A   1      48.243  25.923  29.616  1.00  0.00    -0.206 F 
ATOM     90  C   UNL A   1      47.836  27.501  27.923  1.00  0.00     0.059 A 
ATOM     91  C   UNL A   1      45.565  28.103  27.352  1.00  0.00     0.059 A 
ATOM     92  F   UNL A   1      43.790  27.164  28.527  1.00  0.00    -0.206 F 
ATOM     93  C   UNL A   1      46.935  28.233  27.149  1.00  0.00     0.060 A 
BRANCH  93  94
ATOM     94  S   UNL A   1      47.576  29.335  25.868  1.00  0.00     0.124 S 
ATOM     95  O   UNL A   1      48.784  29.865  26.489  1.00  0.00    -0.237 OA
ATOM     96  O   UNL A   1      47.790  28.417  24.754  1.00  0.00    -0.237 OA
ATOM     97  O   UNL A   1      46.500  30.305  25.673  1.00  0.00    -0.744 OA
ENDBRANCH  93  94
ENDBRANCH  61  86
ENDBRANCH  35  36
ENDBRANCH  27  30
ENDBRANCH  25  26
ENDBRANCH   1  25
TORSDOF 16
ENDMDL
MODEL 2
REMARK VINA RESULT:     -12.0      3.546      7.011
REMARK SMILES O=C(Cn1cccc1C(=O)N1CC[N@H+]2CCC[C@@H]2C1)NCCCNC(=O)c1ccc(-c2c3nc(c(-c4c(F)cc(S(=O)(=O)[O-])cc4F)c4ccc([nH]4)c(-c4c(F)cc(S(=O)(=O)[O-])cc4F)c4nc(c(-c5c(F)cc(S(=O)(=O)[O-])cc5F)c5ccc2[nH]5)C=C4)C=C3)cc1
REMARK SMILES IDX 22 1 21 2 20 3 1 4 2 5 3 7 4 8 5 9 8 10 6 11 7 12 9 13 10 14
REMARK SMILES IDX 11 15 12 16 19 17 13 18 18 19 14 20 17 21 15 22 16 24 23 25
REMARK SMILES IDX 24 26 25 27 26 29 27 30 28 31 92 32 29 33 91 34 30 35 31 36
REMARK SMILES IDX 32 37 85 38 33 39 90 40 84 41 86 42 34 43 89 44 83 45 82 46
REMARK SMILES IDX 35 48 69 49 48 50 68 51 49 52 52 53 67 54 87 55 50 56 51 57
REMARK SMILES IDX 66 59 88 60 53 61 36 62 37 63 46 64 38 65 39 66 45 67 47 68
REMARK SMILES IDX 40 69 41 70 42 71 43 72 44 73 70 74 71 75 80 76 72 77 73 78
REMARK SMILES IDX 79 79 81 80 74 81 75 82 76 83 77 84 78 85 54 86 55 87 64 88
REMARK SMILES IDX 56 89 57 90 63 91 65 92 58 93 59 94 60 95 61 96 62 97
REMARK H PARENT 20 6 14 23 24 28 86 47 52 58
REMARK Flexibility Score: inf
ROOT
ATOM      1  C   UNL A   1      36.932  32.833  29.412  1.00  0.00     0.042 C 
ENDROOT
BRANCH   1   2
ATOM      2  C   UNL A   1      37.995  33.931  29.581  1.00  0.00     0.117 C 
BRANCH   2   3
ATOM      3  N   UNL A   1      38.087  34.564  30.890  1.00  0.00    -0.354 N 
ATOM      4  O   UNL A   1      39.391  32.938  31.797  1.00  0.00    -0.273 OA
ATOM      5  C   UNL A   1      38.840  34.037  31.919  1.00  0.00     0.239 C 
ATOM      6  H   UNL A   1      37.592  35.401  31.048  1.00  0.00     0.163 HD
BRANCH   5   7
ATOM      7  C   UNL A   1      38.941  34.769  33.253  1.00  0.00     0.222 C 
BRANCH   7   8
ATOM      8  N   UNL A   1      38.372  34.155  34.452  1.00  0.00    -0.334 N 
ATOM      9  C   UNL A   1      38.922  34.343  35.704  1.00  0.00     0.087 A 
ATOM     10  C   UNL A   1      37.276  33.314  34.557  1.00  0.00     0.107 A 
ATOM     11  C   UNL A   1      38.100  33.755  36.635  1.00  0.00     0.020 A 
ATOM     12  C   UNL A   1      37.059  33.134  35.920  1.00  0.00     0.033 A 
BRANCH  10  13
ATOM     13  C   UNL A   1      36.336  32.928  33.520  1.00  0.00     0.270 C 
ATOM     14  O   UNL A   1      36.336  31.770  33.105  1.00  0.00    -0.267 OA
BRANCH  13  15
ATOM     15  N   UNL A   1      35.298  33.787  33.208  1.00  0.00    -0.326 N 
ATOM     16  C   UNL A   1      34.851  34.945  34.005  1.00  0.00     0.181 C 
ATOM     17  C   UNL A   1      34.643  33.575  31.932  1.00  0.00     0.185 C 
ATOM     18  C   UNL A   1      34.405  36.168  33.136  1.00  0.00     0.284 C 
ATOM     19  C   UNL A   1      34.408  34.847  31.150  1.00  0.00     0.204 C 
ATOM     20  N   UNL A   1      33.590  35.732  31.987  1.00  0.00    -0.330 N 
ATOM     21  C   UNL A   1      33.533  34.685  29.922  1.00  0.00     0.073 C 
ATOM     22  C   UNL A   1      33.126  36.785  31.090  1.00  0.00     0.262 C 
ATOM     23  H   UNL A   1      32.768  35.300  32.408  1.00  0.00     0.348 HD
ATOM     24  C   UNL A   1      32.915  36.067  29.752  1.00  0.00     0.068 C 
ENDBRANCH  13  15
ENDBRANCH  10  13
ENDBRANCH   7   8
ENDBRANCH   5   7
ENDBRANCH   2   3
ENDBRANCH   1   2
BRANCH   1  25
ATOM     25  C   UNL A   1      36.235  32.667  28.050  1.00  0.00     0.118 C 
BRANCH  25  26
ATOM     26  N   UNL A   1      35.289  31.576  27.944  1.00  0.00    -0.352 N 
ATOM     27  C   UNL A   1      35.554  30.238  27.725  1.00  0.00     0.251 C 
ATOM     28  H   UNL A   1      34.340  31.819  28.038  1.00  0.00     0.163 HD
ATOM     29  O   UNL A   1      34.666  29.543  27.236  1.00  0.00    -0.269 OA
BRANCH  27  30
ATOM     30  C   UNL A   1      36.872  29.611  28.032  1.00  0.00     0.039 A 
ATOM     31  C   UNL A   1      37.034  28.954  29.258  1.00  0.00     0.014 A 
ATOM     32  C   UNL A   1      37.994  29.797  27.217  1.00  0.00     0.014 A 
ATOM     33  C   UNL A   1      38.284  28.446  29.637  1.00  0.00     0.010 A 
ATOM     34  C   UNL A   1      39.245  29.269  27.583  1.00  0.00     0.010 A 
ATOM     35  C   UNL A   1      39.401  28.585  28.798  1.00  0.00    -0.014 A 
BRANCH  35  36
ATOM     36  C   UNL A   1      40.696  27.939  29.202  1.00  0.00     0.031 A 
ATOM     37  C   UNL A   1      41.025  26.663  28.395  1.00  0.00     0.074 A 
ATOM     38  C   UNL A   1      41.394  28.486  30.246  1.00  0.00     0.049 A 
ATOM     39  N   UNL A   1      41.679  25.589  28.727  1.00  0.00    -0.248 NA
ATOM     40  C   UNL A   1      40.462  26.537  27.027  1.00  0.00     0.031 C 
ATOM     41  C   UNL A   1      41.011  29.732  30.940  1.00  0.00     0.029 A 
ATOM     42  N   UNL A   1      42.539  28.129  30.943  1.00  0.00    -0.354 N 
ATOM     43  C   UNL A   1      41.739  24.743  27.591  1.00  0.00     0.074 A 
ATOM     44  C   UNL A   1      40.899  25.348  26.602  1.00  0.00     0.031 C 
ATOM     45  C   UNL A   1      41.841  29.984  31.974  1.00  0.00     0.029 A 
ATOM     46  C   UNL A   1      42.844  28.942  32.072  1.00  0.00     0.049 A 
ATOM     47  H   UNL A   1      43.103  27.369  30.674  1.00  0.00     0.167 HD
ATOM     48  C   UNL A   1      42.537  23.634  27.498  1.00  0.00     0.037 A 
ATOM     49  C   UNL A   1      43.787  28.764  33.054  1.00  0.00     0.037 A 
ATOM     50  C   UNL A   1      43.274  23.461  28.703  1.00  0.00     0.049 A 
ATOM     51  C   UNL A   1      44.533  27.551  32.676  1.00  0.00     0.074 A 
ATOM     52  C   UNL A   1      42.957  22.968  29.939  1.00  0.00     0.029 A 
ATOM     53  N   UNL A   1      44.510  24.051  28.762  1.00  0.00    -0.354 N 
ATOM     54  N   UNL A   1      45.422  27.471  31.733  1.00  0.00    -0.248 NA
ATOM     55  C   UNL A   1      44.219  26.302  33.385  1.00  0.00     0.031 C 
ATOM     56  C   UNL A   1      43.838  23.636  30.815  1.00  0.00     0.029 A 
ATOM     57  C   UNL A   1      44.711  24.432  30.065  1.00  0.00     0.049 A 
ATOM     58  H   UNL A   1      45.136  24.176  28.011  1.00  0.00     0.167 HD
ATOM     59  C   UNL A   1      45.539  26.114  31.545  1.00  0.00     0.074 A 
ATOM     60  C   UNL A   1      45.042  25.480  32.744  1.00  0.00     0.031 C 
ATOM     61  C   UNL A   1      45.528  25.602  30.292  1.00  0.00     0.037 A 
BRANCH  48  62
ATOM     62  C   UNL A   1      42.926  22.718  26.358  1.00  0.00     0.058 A 
ATOM     63  C   UNL A   1      42.518  21.358  26.429  1.00  0.00     0.135 A 
ATOM     64  C   UNL A   1      43.945  23.000  25.438  1.00  0.00     0.135 A 
ATOM     65  F   UNL A   1      41.491  20.990  27.213  1.00  0.00    -0.206 F 
ATOM     66  C   UNL A   1      43.186  20.331  25.769  1.00  0.00     0.059 A 
ATOM     67  C   UNL A   1      44.602  21.983  24.727  1.00  0.00     0.059 A 
ATOM     68  F   UNL A   1      44.380  24.256  25.263  1.00  0.00    -0.206 F 
ATOM     69  C   UNL A   1      44.260  20.650  24.951  1.00  0.00     0.060 A 
BRANCH  69  70
ATOM     70  S   UNL A   1      45.214  19.293  24.231  1.00  0.00     0.124 S 
ATOM     71  O   UNL A   1      44.676  19.235  22.879  1.00  0.00    -0.237 OA
ATOM     72  O   UNL A   1      46.586  19.777  24.347  1.00  0.00    -0.237 OA
ATOM     73  O   UNL A   1      44.887  18.159  25.096  1.00  0.00    -0.744 OA
ENDBRANCH  69  70
ENDBRANCH  48  62
BRANCH  49  74
ATOM     74  C   UNL A   1      44.122  29.346  34.424  1.00  0.00     0.058 A 
ATOM     75  C   UNL A   1      45.239  30.126  34.749  1.00  0.00     0.135 A 
ATOM     76  C   UNL A   1      43.187  29.220  35.497  1.00  0.00     0.135 A 
ATOM     77  F   UNL A   1      46.297  30.199  33.935  1.00  0.00    -0.206 F 
ATOM     78  C   UNL A   1      45.324  30.874  35.941  1.00  0.00     0.059 A 
ATOM     79  C   UNL A   1      43.223  29.982  36.664  1.00  0.00     0.059 A 
ATOM     80  F   UNL A   1      42.159  28.360  35.443  1.00  0.00    -0.206 F 
ATOM     81  C   UNL A   1      44.281  30.844  36.863  1.00  0.00     0.060 A 
BRANCH  81  82
ATOM     82  S   UNL A   1      44.226  32.007  38.244  1.00  0.00     0.124 S 
ATOM     83  O   UNL A   1      45.637  32.319  38.438  1.00  0.00    -0.237 OA
ATOM     84  O   UNL A   1      43.401  33.090  37.713  1.00  0.00    -0.237 OA
ATOM     85  O   UNL A   1      43.599  31.226  39.307  1.00  0.00    -0.744 OA
ENDBRANCH  81  82
ENDBRANCH  49  74
BRANCH  61  86
ATOM     86  C   UNL A   1      46.019  26.550  29.223  1.00  0.00     0.058 A 
ATOM     87  C   UNL A   1      47.395  26.704  29.011  1.00  0.00     0.135 A 
ATOM     88  C   UNL A   1      45.171  27.360  28.447  1.00  0.00     0.135 A 
ATOM     89  F   UNL A   1      48.268  25.979  29.730  1.00  0.00    -0.206 F 
ATOM     90  C   UNL A   1      47.904  27.590  28.059  1.00  0.00     0.059 A 
ATOM     91  C   UNL A   1      45.650  28.243  27.477  1.00  0.00     0.059 A 
ATOM     92  F   UNL A   1      43.847  27.317  28.622  1.00  0.00    -0.206 F 
ATOM     93  C   UNL A   1      47.023  28.351  27.288  1.00  0.00     0.060 A 
BRANCH  93  94
ATOM     94  S   UNL A   1      47.696  29.461  26.031  1.00  0.00     0.124 S 
ATOM     95  O   UNL A   1      46.542  29.688  25.168  1.00  0.00    -0.237 OA
ATOM     96  O   UNL A   1      48.122  30.605  26.829  1.00  0.00    -0.237 OA
ATOM     97  O   UNL A   1      48.780  28.687  25.427  1.00  0.00    -0.744 OA
ENDBRANCH  93  94
ENDBRANCH  61  86
ENDBRANCH  35  36
ENDBRANCH  27  30
ENDBRANCH  25  26
ENDBRANCH   1  25
TORSDOF 16
ENDMDL
MODEL 3
REMARK VINA RESULT:     -11.9      4.456      9.804
REMARK SMILES O=C(Cn1cccc1C(=O)N1CC[N@H+]2CCC[C@@H]2C1)NCCCNC(=O)c1ccc(-c2c3nc(c(-c4c(F)cc(S(=O)(=O)[O-])cc4F)c4ccc([nH]4)c(-c4c(F)cc(S(=O)(=O)[O-])cc4F)c4nc(c(-c5c(F)cc(S(=O)(=O)[O-])cc5F)c5ccc2[nH]5)C=C4)C=C3)cc1
REMARK SMILES IDX 22 1 21 2 20 3 1 4 2 5 3 7 4 8 5 9 8 10 6 11 7 12 9 13 10 14
REMARK SMILES IDX 11 15 12 16 19 17 13 18 18 19 14 20 17 21 15 22 16 24 23 25
REMARK SMILES IDX 24 26 25 27 26 29 27 30 28 31 92 32 29 33 91 34 30 35 31 36
REMARK SMILES IDX 32 37 85 38 33 39 90 40 84 41 86 42 34 43 89 44 83 45 82 46
REMARK SMILES IDX 35 48 69 49 48 50 68 51 49 52 52 53 67 54 87 55 50 56 51 57
REMARK SMILES IDX 66 59 88 60 53 61 36 62 37 63 46 64 38 65 39 66 45 67 47 68
REMARK SMILES IDX 40 69 41 70 42 71 43 72 44 73 70 74 71 75 80 76 72 77 73 78
REMARK SMILES IDX 79 79 81 80 74 81 75 82 76 83 77 84 78 85 54 86 55 87 64 88
REMARK SMILES IDX 56 89 57 90 63 91 65 92 58 93 59 94 60 95 61 96 62 97
REMARK H PARENT 20 6 14 23 24 28 86 47 52 58
REMARK Flexibility Score: inf
ROOT
ATOM      1  C   UNL A   1      35.897  23.374  25.111  1.00  0.00     0.042 C 
ENDROOT
BRANCH   1   2
ATOM      2  C   UNL A   1      35.195  24.025  23.908  1.00  0.00     0.117 C 
BRANCH   2   3
ATOM      3  N   UNL A   1      34.422  25.232  24.171  1.00  0.00    -0.354 N 
ATOM      4  O   UNL A   1      33.687  25.458  22.032  1.00  0.00    -0.273 OA
ATOM      5  C   UNL A   1      33.660  25.852  23.203  1.00  0.00     0.239 C 
ATOM      6  H   UNL A   1      34.444  25.620  25.076  1.00  0.00     0.163 HD
BRANCH   5   7
ATOM      7  C   UNL A   1      32.830  27.085  23.548  1.00  0.00     0.222 C 
BRANCH   7   8
ATOM      8  N   UNL A   1      32.561  27.398  24.950  1.00  0.00    -0.334 N 
ATOM      9  C   UNL A   1      33.278  28.355  25.640  1.00  0.00     0.087 A 
ATOM     10  C   UNL A   1      31.627  26.828  25.800  1.00  0.00     0.107 A 
ATOM     11  C   UNL A   1      32.714  28.513  26.881  1.00  0.00     0.020 A 
ATOM     12  C   UNL A   1      31.666  27.578  26.972  1.00  0.00     0.033 A 
BRANCH  10  13
ATOM     13  C   UNL A   1      30.592  25.861  25.481  1.00  0.00     0.270 C 
ATOM     14  O   UNL A   1      29.536  26.249  24.983  1.00  0.00    -0.267 OA
BRANCH  13  15
ATOM     15  N   UNL A   1      30.909  24.515  25.501  1.00  0.00    -0.326 N 
ATOM     16  C   UNL A   1      30.836  23.583  24.360  1.00  0.00     0.181 C 
ATOM     17  C   UNL A   1      31.442  23.994  26.744  1.00  0.00     0.185 C 
ATOM     18  C   UNL A   1      31.993  22.529  24.340  1.00  0.00     0.284 C 
ATOM     19  C   UNL A   1      32.648  23.100  26.561  1.00  0.00     0.204 C 
ATOM     20  N   UNL A   1      32.244  21.992  25.690  1.00  0.00    -0.330 N 
ATOM     21  C   UNL A   1      33.091  22.367  27.812  1.00  0.00     0.073 C 
ATOM     22  C   UNL A   1      33.315  21.007  25.802  1.00  0.00     0.262 C 
ATOM     23  H   UNL A   1      31.372  21.528  25.945  1.00  0.00     0.348 HD
ATOM     24  C   UNL A   1      33.773  21.122  27.261  1.00  0.00     0.068 C 
ENDBRANCH  13  15
ENDBRANCH  10  13
ENDBRANCH   7   8
ENDBRANCH   5   7
ENDBRANCH   2   3
ENDBRANCH   1   2
BRANCH   1  25
ATOM     25  C   UNL A   1      37.035  24.133  25.818  1.00  0.00     0.118 C 
BRANCH  25  26
ATOM     26  N   UNL A   1      38.141  23.331  26.294  1.00  0.00    -0.352 N 
ATOM     27  C   UNL A   1      39.343  23.767  26.820  1.00  0.00     0.251 C 
ATOM     28  H   UNL A   1      38.023  22.356  26.236  1.00  0.00     0.163 HD
ATOM     29  O   UNL A   1      40.309  23.008  26.763  1.00  0.00    -0.269 OA
BRANCH  27  30
ATOM     30  C   UNL A   1      39.522  25.118  27.426  1.00  0.00     0.039 A 
ATOM     31  C   UNL A   1      40.110  26.128  26.654  1.00  0.00     0.014 A 
ATOM     32  C   UNL A   1      39.279  25.365  28.781  1.00  0.00     0.014 A 
ATOM     33  C   UNL A   1      40.399  27.380  27.215  1.00  0.00     0.010 A 
ATOM     34  C   UNL A   1      39.546  26.627  29.342  1.00  0.00     0.010 A 
ATOM     35  C   UNL A   1      40.108  27.648  28.562  1.00  0.00    -0.014 A 
BRANCH  35  36
ATOM     36  C   UNL A   1      40.345  29.034  29.091  1.00  0.00     0.031 A 
ATOM     37  C   UNL A   1      39.045  29.841  29.307  1.00  0.00     0.074 A 
ATOM     38  C   UNL A   1      41.640  29.449  29.261  1.00  0.00     0.049 A 
ATOM     39  N   UNL A   1      38.812  31.118  29.231  1.00  0.00    -0.248 NA
ATOM     40  C   UNL A   1      37.791  29.090  29.567  1.00  0.00     0.031 C 
ATOM     41  C   UNL A   1      42.822  28.589  29.055  1.00  0.00     0.029 A 
ATOM     42  N   UNL A   1      42.236  30.646  29.627  1.00  0.00    -0.354 N 
ATOM     43  C   UNL A   1      37.455  31.338  29.577  1.00  0.00     0.074 A 
ATOM     44  C   UNL A   1      36.860  30.040  29.692  1.00  0.00     0.031 C 
ATOM     45  C   UNL A   1      43.964  29.289  29.223  1.00  0.00     0.029 A 
ATOM     46  C   UNL A   1      43.658  30.668  29.550  1.00  0.00     0.049 A 
ATOM     47  H   UNL A   1      41.713  31.426  29.922  1.00  0.00     0.167 HD
ATOM     48  C   UNL A   1      36.914  32.570  29.827  1.00  0.00     0.037 A 
ATOM     49  C   UNL A   1      44.529  31.721  29.675  1.00  0.00     0.037 A 
ATOM     50  C   UNL A   1      37.906  33.578  29.677  1.00  0.00     0.049 A 
ATOM     51  C   UNL A   1      43.696  32.892  30.000  1.00  0.00     0.074 A 
ATOM     52  C   UNL A   1      38.470  34.192  28.591  1.00  0.00     0.029 A 
ATOM     53  N   UNL A   1      38.611  33.926  30.800  1.00  0.00    -0.354 N 
ATOM     54  N   UNL A   1      43.150  33.138  31.152  1.00  0.00    -0.248 NA
ATOM     55  C   UNL A   1      43.406  33.850  28.923  1.00  0.00     0.031 C 
ATOM     56  C   UNL A   1      39.755  34.569  29.036  1.00  0.00     0.029 A 
ATOM     57  C   UNL A   1      39.880  34.254  30.393  1.00  0.00     0.049 A 
ATOM     58  H   UNL A   1      38.270  33.938  31.724  1.00  0.00     0.167 HD
ATOM     59  C   UNL A   1      42.220  34.102  30.844  1.00  0.00     0.074 A 
ATOM     60  C   UNL A   1      42.627  34.693  29.591  1.00  0.00     0.031 C 
ATOM     61  C   UNL A   1      40.957  33.999  31.320  1.00  0.00     0.037 A 
BRANCH  48  62
ATOM     62  C   UNL A   1      35.592  33.037  30.399  1.00  0.00     0.058 A 
ATOM     63  C   UNL A   1      34.779  33.879  29.592  1.00  0.00     0.135 A 
ATOM     64  C   UNL A   1      35.275  33.010  31.763  1.00  0.00     0.135 A 
ATOM     65  F   UNL A   1      34.938  33.914  28.259  1.00  0.00    -0.206 F 
ATOM     66  C   UNL A   1      33.840  34.759  30.123  1.00  0.00     0.059 A 
ATOM     67  C   UNL A   1      34.300  33.857  32.313  1.00  0.00     0.059 A 
ATOM     68  F   UNL A   1      35.954  32.221  32.608  1.00  0.00    -0.206 F 
ATOM     69  C   UNL A   1      33.639  34.773  31.494  1.00  0.00     0.060 A 
BRANCH  69  70
ATOM     70  S   UNL A   1      32.536  36.032  32.180  1.00  0.00     0.124 S 
ATOM     71  O   UNL A   1      32.281  36.871  31.017  1.00  0.00    -0.237 OA
ATOM     72  O   UNL A   1      31.405  35.239  32.650  1.00  0.00    -0.237 OA
ATOM     73  O   UNL A   1      33.343  36.640  33.239  1.00  0.00    -0.744 OA
ENDBRANCH  69  70
ENDBRANCH  48  62
BRANCH  49  74
ATOM     74  C   UNL A   1      46.003  32.013  29.407  1.00  0.00     0.058 A 
ATOM     75  C   UNL A   1      46.645  31.993  28.162  1.00  0.00     0.135 A 
ATOM     76  C   UNL A   1      46.840  32.475  30.469  1.00  0.00     0.135 A 
ATOM     77  F   UNL A   1      46.077  31.420  27.096  1.00  0.00    -0.206 F 
ATOM     78  C   UNL A   1      47.917  32.564  27.952  1.00  0.00     0.059 A 
ATOM     79  C   UNL A   1      48.080  33.085  30.283  1.00  0.00     0.059 A 
ATOM     80  F   UNL A   1      46.469  32.382  31.754  1.00  0.00    -0.206 F 
ATOM     81  C   UNL A   1      48.598  33.164  29.007  1.00  0.00     0.060 A 
BRANCH  81  82
ATOM     82  S   UNL A   1      50.079  34.156  28.715  1.00  0.00     0.124 S 
ATOM     83  O   UNL A   1      50.718  33.435  27.620  1.00  0.00    -0.237 OA
ATOM     84  O   UNL A   1      49.523  35.464  28.378  1.00  0.00    -0.237 OA
ATOM     85  O   UNL A   1      50.773  34.099  29.999  1.00  0.00    -0.744 OA
ENDBRANCH  81  82
ENDBRANCH  49  74
BRANCH  61  86
ATOM     86  C   UNL A   1      40.836  33.230  32.615  1.00  0.00     0.058 A 
ATOM     87  C   UNL A   1      41.132  33.864  33.830  1.00  0.00     0.135 A 
ATOM     88  C   UNL A   1      40.501  31.865  32.686  1.00  0.00     0.135 A 
ATOM     89  F   UNL A   1      41.481  35.160  33.839  1.00  0.00    -0.206 F 
ATOM     90  C   UNL A   1      41.068  33.190  35.052  1.00  0.00     0.059 A 
ATOM     91  C   UNL A   1      40.415  31.171  33.894  1.00  0.00     0.059 A 
ATOM     92  F   UNL A   1      40.258  31.170  31.572  1.00  0.00    -0.206 F 
ATOM     93  C   UNL A   1      40.699  31.844  35.077  1.00  0.00     0.060 A 
BRANCH  93  94
ATOM     94  S   UNL A   1      40.579  31.000  36.669  1.00  0.00     0.124 S 
ATOM     95  O   UNL A   1      39.827  31.956  37.473  1.00  0.00    -0.237 OA
ATOM     96  O   UNL A   1      39.868  29.776  36.314  1.00  0.00    -0.237 OA
ATOM     97  O   UNL A   1      41.973  30.812  37.070  1.00  0.00    -0.744 OA
ENDBRANCH  93  94
ENDBRANCH  61  86
ENDBRANCH  35  36
ENDBRANCH  27  30
ENDBRANCH  25  26
ENDBRANCH   1  25
TORSDOF 16
ENDMDL
