MODEL 1
REMARK VINA RESULT:     -12.0      0.000      0.000
REMARK SMILES CC(C)[C@H](NC(=O)[C@H](C)NC(=O)CNC(=O)OCc1ccccc1)C(=O)NCCCNC(=O)c1ccc(-c2c3nc(c(-c4c(F)cc(S(=O)(=O)[O-])cc4F)c4ccc([nH]4)c(-c4c(F)cc(S(=O)(=O)[O-])cc4F)c4nc(c(-c5c(F)cc(S(=O)(=O)[O-])cc5F)c5ccc2[nH]5)C=C4)C=C3)cc1
REMARK SMILES IDX 25 1 26 2 27 3 4 5 2 6 1 7 3 8 5 9 6 10 7 12 8 13 9 14 10 15
REMARK SMILES IDX 11 16 12 18 13 19 14 20 15 21 16 23 17 24 18 25 19 26 20 27
REMARK SMILES IDX 24 28 21 29 23 30 22 31 28 32 29 33 30 34 31 35 32 36 33 38
REMARK SMILES IDX 34 39 35 40 99 41 36 42 98 43 37 44 38 45 39 46 92 47 40 48
REMARK SMILES IDX 97 49 91 50 93 51 41 52 96 53 90 54 89 55 42 57 76 58 55 59
REMARK SMILES IDX 75 60 56 61 59 62 74 63 94 64 57 65 58 66 73 68 95 69 60 70
REMARK SMILES IDX 43 71 44 72 53 73 45 74 46 75 52 76 54 77 47 78 48 79 49 80
REMARK SMILES IDX 50 81 51 82 77 83 78 84 87 85 79 86 80 87 86 88 88 89 81 90
REMARK SMILES IDX 82 91 83 92 84 93 85 94 61 95 62 96 71 97 63 98 64 99 70 100
REMARK SMILES IDX 72 101 65 102 66 103 67 104 68 105 69 106
REMARK H PARENT 27 4 5 11 10 17 14 22 31 37 93 56 59 67
REMARK Flexibility Score: inf
ROOT
ATOM      1  C   UNL A   1      31.746  28.277  27.241  1.00  0.00     0.242 C 
ATOM      2  O   UNL A   1      31.423  27.857  28.355  1.00  0.00    -0.273 OA
ATOM      3  N   UNL A   1      32.263  29.551  27.187  1.00  0.00    -0.354 N 
ATOM      4  H   UNL A   1      31.747  30.268  27.621  1.00  0.00     0.163 HD
ENDROOT
BRANCH   1   5
ATOM      5  C   UNL A   1      31.321  27.540  25.934  1.00  0.00     0.173 C 
BRANCH   5   6
ATOM      6  C   UNL A   1      31.923  26.164  25.567  1.00  0.00     0.015 C 
ATOM      7  C   UNL A   1      33.345  25.866  26.021  1.00  0.00     0.010 C 
ATOM      8  C   UNL A   1      30.977  25.016  25.948  1.00  0.00     0.010 C 
ENDBRANCH   5   6
BRANCH   5   9
ATOM      9  N   UNL A   1      31.145  28.362  24.735  1.00  0.00    -0.342 N 
ATOM     10  C   UNL A   1      31.614  28.387  23.466  1.00  0.00     0.242 C 
ATOM     11  H   UNL A   1      30.511  29.098  24.895  1.00  0.00     0.164 HD
ATOM     12  O   UNL A   1      31.021  29.221  22.767  1.00  0.00    -0.273 OA
BRANCH  10  13
ATOM     13  C   UNL A   1      32.921  27.692  22.929  1.00  0.00     0.168 C 
ATOM     14  C   UNL A   1      34.048  28.746  22.874  1.00  0.00     0.041 C 
BRANCH  13  15
ATOM     15  N   UNL A   1      32.928  26.937  21.676  1.00  0.00    -0.343 N 
ATOM     16  C   UNL A   1      32.864  25.610  21.365  1.00  0.00     0.240 C 
ATOM     17  H   UNL A   1      32.995  27.514  20.880  1.00  0.00     0.164 HD
ATOM     18  O   UNL A   1      33.028  25.314  20.176  1.00  0.00    -0.273 OA
BRANCH  16  19
ATOM     19  C   UNL A   1      32.657  24.505  22.408  1.00  0.00     0.219 C 
BRANCH  19  20
ATOM     20  N   UNL A   1      33.872  23.752  22.599  1.00  0.00    -0.312 N 
ATOM     21  C   UNL A   1      34.181  22.850  23.573  1.00  0.00     0.407 C 
ATOM     22  H   UNL A   1      34.578  23.911  21.931  1.00  0.00     0.167 HD
ATOM     23  O   UNL A   1      35.296  22.366  23.600  1.00  0.00    -0.225 OA
BRANCH  21  24
ATOM     24  O   UNL A   1      33.186  22.625  24.465  1.00  0.00    -0.445 OA
BRANCH  24  25
ATOM     25  C   UNL A   1      32.186  21.658  24.087  1.00  0.00     0.270 C 
BRANCH  25  26
ATOM     26  C   UNL A   1      32.533  20.203  23.886  1.00  0.00    -0.011 A 
ATOM     27  C   UNL A   1      32.179  19.549  22.693  1.00  0.00     0.007 A 
ATOM     28  C   UNL A   1      33.310  19.507  24.819  1.00  0.00     0.007 A 
ATOM     29  C   UNL A   1      32.558  18.230  22.449  1.00  0.00     0.000 A 
ATOM     30  C   UNL A   1      33.702  18.188  24.569  1.00  0.00     0.000 A 
ATOM     31  C   UNL A   1      33.321  17.549  23.390  1.00  0.00     0.000 A 
ENDBRANCH  25  26
ENDBRANCH  24  25
ENDBRANCH  21  24
ENDBRANCH  19  20
ENDBRANCH  16  19
ENDBRANCH  13  15
ENDBRANCH  10  13
ENDBRANCH   5   9
ENDBRANCH   1   5
BRANCH   3  32
ATOM     32  C   UNL A   1      33.506  29.919  26.540  1.00  0.00     0.117 C 
BRANCH  32  33
ATOM     33  C   UNL A   1      34.539  30.674  27.363  1.00  0.00     0.042 C 
BRANCH  33  34
ATOM     34  C   UNL A   1      35.589  29.721  27.948  1.00  0.00     0.118 C 
BRANCH  34  35
ATOM     35  N   UNL A   1      35.588  29.598  29.405  1.00  0.00    -0.352 N 
ATOM     36  C   UNL A   1      36.631  29.600  30.310  1.00  0.00     0.251 C 
ATOM     37  H   UNL A   1      34.694  29.495  29.807  1.00  0.00     0.163 HD
ATOM     38  O   UNL A   1      36.397  29.286  31.474  1.00  0.00    -0.269 OA
BRANCH  36  39
ATOM     39  C   UNL A   1      38.018  29.895  29.881  1.00  0.00     0.039 A 
ATOM     40  C   UNL A   1      38.996  30.090  30.862  1.00  0.00     0.014 A 
ATOM     41  C   UNL A   1      38.383  29.908  28.538  1.00  0.00     0.014 A 
ATOM     42  C   UNL A   1      40.343  30.095  30.499  1.00  0.00     0.010 A 
ATOM     43  C   UNL A   1      39.712  29.789  28.183  1.00  0.00     0.010 A 
ATOM     44  C   UNL A   1      40.698  29.824  29.169  1.00  0.00    -0.014 A 
BRANCH  44  45
ATOM     45  C   UNL A   1      42.058  29.382  28.802  1.00  0.00     0.031 A 
ATOM     46  C   UNL A   1      43.175  30.371  28.672  1.00  0.00     0.074 A 
ATOM     47  C   UNL A   1      42.203  28.098  28.416  1.00  0.00     0.049 A 
ATOM     48  N   UNL A   1      44.405  30.167  28.287  1.00  0.00    -0.248 NA
ATOM     49  C   UNL A   1      42.862  31.778  28.970  1.00  0.00     0.031 C 
ATOM     50  C   UNL A   1      41.124  27.101  28.380  1.00  0.00     0.029 A 
ATOM     51  N   UNL A   1      43.295  27.411  27.960  1.00  0.00    -0.354 N 
ATOM     52  C   UNL A   1      45.016  31.414  28.302  1.00  0.00     0.074 A 
ATOM     53  C   UNL A   1      44.001  32.380  28.660  1.00  0.00     0.031 C 
ATOM     54  C   UNL A   1      41.618  25.925  27.969  1.00  0.00     0.029 A 
ATOM     55  C   UNL A   1      43.033  26.090  27.671  1.00  0.00     0.049 A 
ATOM     56  H   UNL A   1      44.183  27.820  27.850  1.00  0.00     0.167 HD
ATOM     57  C   UNL A   1      46.316  31.710  28.065  1.00  0.00     0.037 A 
ATOM     58  C   UNL A   1      43.848  25.122  27.218  1.00  0.00     0.037 A 
ATOM     59  C   UNL A   1      47.294  30.718  27.701  1.00  0.00     0.049 A 
ATOM     60  C   UNL A   1      45.290  25.470  26.989  1.00  0.00     0.074 A 
ATOM     61  C   UNL A   1      48.653  30.878  27.500  1.00  0.00     0.029 A 
ATOM     62  N   UNL A   1      47.012  29.377  27.470  1.00  0.00    -0.354 N 
ATOM     63  N   UNL A   1      45.884  26.634  27.123  1.00  0.00    -0.248 NA
ATOM     64  C   UNL A   1      46.177  24.382  26.565  1.00  0.00     0.031 C 
ATOM     65  C   UNL A   1      49.180  29.648  27.095  1.00  0.00     0.029 A 
ATOM     66  C   UNL A   1      48.165  28.703  27.106  1.00  0.00     0.049 A 
ATOM     67  H   UNL A   1      46.120  28.965  27.554  1.00  0.00     0.167 HD
ATOM     68  C   UNL A   1      47.224  26.412  26.828  1.00  0.00     0.074 A 
ATOM     69  C   UNL A   1      47.350  24.999  26.525  1.00  0.00     0.031 C 
ATOM     70  C   UNL A   1      48.255  27.293  26.810  1.00  0.00     0.037 A 
BRANCH  57  71
ATOM     71  C   UNL A   1      46.746  33.145  28.211  1.00  0.00     0.058 A 
ATOM     72  C   UNL A   1      47.281  33.634  29.416  1.00  0.00     0.135 A 
ATOM     73  C   UNL A   1      46.660  34.038  27.131  1.00  0.00     0.135 A 
ATOM     74  F   UNL A   1      47.376  32.832  30.489  1.00  0.00    -0.206 F 
ATOM     75  C   UNL A   1      47.683  34.958  29.553  1.00  0.00     0.059 A 
ATOM     76  C   UNL A   1      47.086  35.360  27.236  1.00  0.00     0.059 A 
ATOM     77  F   UNL A   1      46.153  33.631  25.956  1.00  0.00    -0.206 F 
ATOM     78  C   UNL A   1      47.585  35.814  28.456  1.00  0.00     0.060 A 
BRANCH  78  79
ATOM     79  S   UNL A   1      48.126  37.525  28.650  1.00  0.00     0.124 S 
ATOM     80  O   UNL A   1      46.861  38.247  28.525  1.00  0.00    -0.237 OA
ATOM     81  O   UNL A   1      48.717  37.515  29.984  1.00  0.00    -0.237 OA
ATOM     82  O   UNL A   1      49.065  37.714  27.550  1.00  0.00    -0.744 OA
ENDBRANCH  78  79
ENDBRANCH  57  71
BRANCH  58  83
ATOM     83  C   UNL A   1      43.330  23.743  27.016  1.00  0.00     0.058 A 
ATOM     84  C   UNL A   1      43.081  23.250  25.727  1.00  0.00     0.135 A 
ATOM     85  C   UNL A   1      43.112  22.874  28.098  1.00  0.00     0.135 A 
ATOM     86  F   UNL A   1      43.280  24.037  24.659  1.00  0.00    -0.206 F 
ATOM     87  C   UNL A   1      42.611  21.957  25.516  1.00  0.00     0.059 A 
ATOM     88  C   UNL A   1      42.672  21.567  27.912  1.00  0.00     0.059 A 
ATOM     89  F   UNL A   1      43.365  23.284  29.351  1.00  0.00    -0.206 F 
ATOM     90  C   UNL A   1      42.411  21.122  26.617  1.00  0.00     0.060 A 
BRANCH  90  91
ATOM     91  S   UNL A   1      41.833  19.436  26.327  1.00  0.00     0.124 S 
ATOM     92  O   UNL A   1      40.394  19.637  26.199  1.00  0.00    -0.237 OA
ATOM     93  O   UNL A   1      42.540  19.077  25.102  1.00  0.00    -0.237 OA
ATOM     94  O   UNL A   1      42.267  18.722  27.525  1.00  0.00    -0.744 OA
ENDBRANCH  90  91
ENDBRANCH  58  83
BRANCH  70  95
ATOM     95  C   UNL A   1      49.613  26.741  26.484  1.00  0.00     0.058 A 
ATOM     96  C   UNL A   1      50.127  26.770  25.178  1.00  0.00     0.135 A 
ATOM     97  C   UNL A   1      50.428  26.223  27.502  1.00  0.00     0.135 A 
ATOM     98  F   UNL A   1      49.382  27.247  24.167  1.00  0.00    -0.206 F 
ATOM     99  C   UNL A   1      51.393  26.277  24.889  1.00  0.00     0.059 A 
ATOM    100  C   UNL A   1      51.711  25.758  27.242  1.00  0.00     0.059 A 
ATOM    101  F   UNL A   1      49.986  26.183  28.770  1.00  0.00    -0.206 F 
ATOM    102  C   UNL A   1      52.181  25.778  25.929  1.00  0.00     0.060 A 
BRANCH 102 103
ATOM    103  S   UNL A   1      53.838  25.180  25.544  1.00  0.00     0.124 S 
ATOM    104  O   UNL A   1      54.380  26.296  24.775  1.00  0.00    -0.237 OA
ATOM    105  O   UNL A   1      54.414  24.985  26.871  1.00  0.00    -0.237 OA
ATOM    106  O   UNL A   1      53.591  23.958  24.787  1.00  0.00    -0.744 OA
ENDBRANCH 102 103
ENDBRANCH  70  95
ENDBRANCH  44  45
ENDBRANCH  36  39
ENDBRANCH  34  35
ENDBRANCH  33  34
ENDBRANCH  32  33
ENDBRANCH   3  32
TORSDOF 22
ENDMDL
MODEL 2
REMARK VINA RESULT:     -11.8      0.783      8.047
REMARK SMILES CC(C)[C@H](NC(=O)[C@H](C)NC(=O)CNC(=O)OCc1ccccc1)C(=O)NCCCNC(=O)c1ccc(-c2c3nc(c(-c4c(F)cc(S(=O)(=O)[O-])cc4F)c4ccc([nH]4)c(-c4c(F)cc(S(=O)(=O)[O-])cc4F)c4nc(c(-c5c(F)cc(S(=O)(=O)[O-])cc5F)c5ccc2[nH]5)C=C4)C=C3)cc1
REMARK SMILES IDX 25 1 26 2 27 3 4 5 2 6 1 7 3 8 5 9 6 10 7 12 8 13 9 14 10 15
REMARK SMILES IDX 11 16 12 18 13 19 14 20 15 21 16 23 17 24 18 25 19 26 20 27
REMARK SMILES IDX 24 28 21 29 23 30 22 31 28 32 29 33 30 34 31 35 32 36 33 38
REMARK SMILES IDX 34 39 35 40 99 41 36 42 98 43 37 44 38 45 39 46 92 47 40 48
REMARK SMILES IDX 97 49 91 50 93 51 41 52 96 53 90 54 89 55 42 57 76 58 55 59
REMARK SMILES IDX 75 60 56 61 59 62 74 63 94 64 57 65 58 66 73 68 95 69 60 70
REMARK SMILES IDX 43 71 44 72 53 73 45 74 46 75 52 76 54 77 47 78 48 79 49 80
REMARK SMILES IDX 50 81 51 82 77 83 78 84 87 85 79 86 80 87 86 88 88 89 81 90
REMARK SMILES IDX 82 91 83 92 84 93 85 94 61 95 62 96 71 97 63 98 64 99 70 100
REMARK SMILES IDX 72 101 65 102 66 103 67 104 68 105 69 106
REMARK H PARENT 27 4 5 11 10 17 14 22 31 37 93 56 59 67
REMARK Flexibility Score: inf
ROOT
ATOM      1  C   UNL A   1      31.885  28.017  27.267  1.00  0.00     0.242 C 
ATOM      2  O   UNL A   1      31.282  27.806  28.322  1.00  0.00    -0.273 OA
ATOM      3  N   UNL A   1      32.774  29.067  27.263  1.00  0.00    -0.354 N 
ATOM      4  H   UNL A   1      32.448  29.939  27.582  1.00  0.00     0.163 HD
ENDROOT
BRANCH   1   5
ATOM      5  C   UNL A   1      31.455  27.340  25.930  1.00  0.00     0.173 C 
BRANCH   5   6
ATOM      6  C   UNL A   1      32.063  25.988  25.494  1.00  0.00     0.015 C 
ATOM      7  C   UNL A   1      33.498  25.688  25.903  1.00  0.00     0.010 C 
ATOM      8  C   UNL A   1      31.138  24.813  25.851  1.00  0.00     0.010 C 
ENDBRANCH   5   6
BRANCH   5   9
ATOM      9  N   UNL A   1      31.265  28.217  24.772  1.00  0.00    -0.342 N 
ATOM     10  C   UNL A   1      31.717  28.298  23.499  1.00  0.00     0.242 C 
ATOM     11  H   UNL A   1      30.636  28.946  24.974  1.00  0.00     0.164 HD
ATOM     12  O   UNL A   1      31.117  29.166  22.847  1.00  0.00    -0.273 OA
BRANCH  10  13
ATOM     13  C   UNL A   1      33.015  27.626  22.913  1.00  0.00     0.168 C 
ATOM     14  C   UNL A   1      34.154  28.668  22.925  1.00  0.00     0.041 C 
BRANCH  13  15
ATOM     15  N   UNL A   1      33.010  26.956  21.613  1.00  0.00    -0.343 N 
ATOM     16  C   UNL A   1      32.870  25.659  21.212  1.00  0.00     0.240 C 
ATOM     17  H   UNL A   1      33.136  27.578  20.859  1.00  0.00     0.164 HD
ATOM     18  O   UNL A   1      33.049  25.432  20.010  1.00  0.00    -0.273 OA
BRANCH  16  19
ATOM     19  C   UNL A   1      32.563  24.504  22.172  1.00  0.00     0.219 C 
BRANCH  19  20
ATOM     20  N   UNL A   1      33.784  23.932  22.685  1.00  0.00    -0.312 N 
ATOM     21  C   UNL A   1      33.960  22.790  23.408  1.00  0.00     0.407 C 
ATOM     22  H   UNL A   1      34.605  24.436  22.485  1.00  0.00     0.167 HD
ATOM     23  O   UNL A   1      35.074  22.509  23.810  1.00  0.00    -0.225 OA
BRANCH  21  24
ATOM     24  O   UNL A   1      32.821  22.096  23.650  1.00  0.00    -0.445 OA
BRANCH  24  25
ATOM     25  C   UNL A   1      32.910  21.024  24.610  1.00  0.00     0.270 C 
BRANCH  25  26
ATOM     26  C   UNL A   1      33.188  19.604  24.182  1.00  0.00    -0.011 A 
ATOM     27  C   UNL A   1      32.388  18.990  23.203  1.00  0.00     0.007 A 
ATOM     28  C   UNL A   1      34.306  18.909  24.656  1.00  0.00     0.007 A 
ATOM     29  C   UNL A   1      32.673  17.710  22.731  1.00  0.00     0.000 A 
ATOM     30  C   UNL A   1      34.600  17.629  24.175  1.00  0.00     0.000 A 
ATOM     31  C   UNL A   1      33.780  17.028  23.220  1.00  0.00     0.000 A 
ENDBRANCH  25  26
ENDBRANCH  24  25
ENDBRANCH  21  24
ENDBRANCH  19  20
ENDBRANCH  16  19
ENDBRANCH  13  15
ENDBRANCH  10  13
ENDBRANCH   5   9
ENDBRANCH   1   5
BRANCH   3  32
ATOM     32  C   UNL A   1      34.153  28.988  26.825  1.00  0.00     0.117 C 
BRANCH  32  33
ATOM     33  C   UNL A   1      35.121  30.046  27.333  1.00  0.00     0.042 C 
BRANCH  33  34
ATOM     34  C   UNL A   1      36.202  29.428  28.228  1.00  0.00     0.118 C 
BRANCH  34  35
ATOM     35  N   UNL A   1      35.966  29.531  29.668  1.00  0.00    -0.352 N 
ATOM     36  C   UNL A   1      36.850  29.672  30.718  1.00  0.00     0.251 C 
ATOM     37  H   UNL A   1      35.017  29.491  29.931  1.00  0.00     0.163 HD
ATOM     38  O   UNL A   1      36.427  29.541  31.864  1.00  0.00    -0.269 OA
BRANCH  36  39
ATOM     39  C   UNL A   1      38.295  29.897  30.479  1.00  0.00     0.039 A 
ATOM     40  C   UNL A   1      39.219  29.304  31.346  1.00  0.00     0.014 A 
ATOM     41  C   UNL A   1      38.753  30.616  29.379  1.00  0.00     0.014 A 
ATOM     42  C   UNL A   1      40.568  29.268  30.994  1.00  0.00     0.010 A 
ATOM     43  C   UNL A   1      40.063  30.481  28.962  1.00  0.00     0.010 A 
ATOM     44  C   UNL A   1      40.965  29.756  29.740  1.00  0.00    -0.014 A 
BRANCH  44  45
ATOM     45  C   UNL A   1      42.249  29.364  29.124  1.00  0.00     0.031 A 
ATOM     46  C   UNL A   1      42.473  27.963  28.647  1.00  0.00     0.074 A 
ATOM     47  C   UNL A   1      43.255  30.260  29.180  1.00  0.00     0.049 A 
ATOM     48  N   UNL A   1      43.558  27.431  28.155  1.00  0.00    -0.248 NA
ATOM     49  C   UNL A   1      41.347  27.023  28.779  1.00  0.00     0.031 C 
ATOM     50  C   UNL A   1      43.155  31.607  29.761  1.00  0.00     0.029 A 
ATOM     51  N   UNL A   1      44.559  30.180  28.772  1.00  0.00    -0.354 N 
ATOM     52  C   UNL A   1      43.249  26.100  27.911  1.00  0.00     0.074 A 
ATOM     53  C   UNL A   1      41.898  25.884  28.381  1.00  0.00     0.031 C 
ATOM     54  C   UNL A   1      44.331  32.236  29.632  1.00  0.00     0.029 A 
ATOM     55  C   UNL A   1      45.280  31.331  29.001  1.00  0.00     0.049 A 
ATOM     56  H   UNL A   1      44.944  29.378  28.353  1.00  0.00     0.167 HD
ATOM     57  C   UNL A   1      44.021  25.158  27.321  1.00  0.00     0.037 A 
ATOM     58  C   UNL A   1      46.564  31.619  28.729  1.00  0.00     0.037 A 
ATOM     59  C   UNL A   1      45.367  25.410  26.876  1.00  0.00     0.049 A 
ATOM     60  C   UNL A   1      47.391  30.566  28.050  1.00  0.00     0.074 A 
ATOM     61  C   UNL A   1      46.228  24.561  26.205  1.00  0.00     0.029 A 
ATOM     62  N   UNL A   1      46.053  26.603  27.071  1.00  0.00    -0.354 N 
ATOM     63  N   UNL A   1      47.048  29.344  27.715  1.00  0.00    -0.248 NA
ATOM     64  C   UNL A   1      48.767  30.928  27.697  1.00  0.00     0.031 C 
ATOM     65  C   UNL A   1      47.450  25.221  26.043  1.00  0.00     0.029 A 
ATOM     66  C   UNL A   1      47.334  26.506  26.555  1.00  0.00     0.049 A 
ATOM     67  H   UNL A   1      45.682  27.402  27.512  1.00  0.00     0.167 HD
ATOM     68  C   UNL A   1      48.158  28.798  27.083  1.00  0.00     0.074 A 
ATOM     69  C   UNL A   1      49.175  29.832  27.071  1.00  0.00     0.031 C 
ATOM     70  C   UNL A   1      48.323  27.558  26.560  1.00  0.00     0.037 A 
BRANCH  57  71
ATOM     71  C   UNL A   1      43.423  23.792  27.111  1.00  0.00     0.058 A 
ATOM     72  C   UNL A   1      42.998  23.362  25.842  1.00  0.00     0.135 A 
ATOM     73  C   UNL A   1      43.303  22.884  28.176  1.00  0.00     0.135 A 
ATOM     74  F   UNL A   1      43.074  24.189  24.786  1.00  0.00    -0.206 F 
ATOM     75  C   UNL A   1      42.450  22.099  25.643  1.00  0.00     0.059 A 
ATOM     76  C   UNL A   1      42.786  21.604  27.994  1.00  0.00     0.059 A 
ATOM     77  F   UNL A   1      43.687  23.239  29.413  1.00  0.00    -0.206 F 
ATOM     78  C   UNL A   1      42.350  21.226  26.726  1.00  0.00     0.060 A 
BRANCH  78  79
ATOM     79  S   UNL A   1      41.648  19.586  26.444  1.00  0.00     0.124 S 
ATOM     80  O   UNL A   1      42.239  19.234  25.156  1.00  0.00    -0.237 OA
ATOM     81  O   UNL A   1      42.143  18.835  27.593  1.00  0.00    -0.237 OA
ATOM     82  O   UNL A   1      40.210  19.828  26.427  1.00  0.00    -0.744 OA
ENDBRANCH  78  79
ENDBRANCH  57  71
BRANCH  58  83
ATOM     83  C   UNL A   1      47.110  32.967  29.044  1.00  0.00     0.058 A 
ATOM     84  C   UNL A   1      47.010  34.017  28.120  1.00  0.00     0.135 A 
ATOM     85  C   UNL A   1      47.701  33.248  30.286  1.00  0.00     0.135 A 
ATOM     86  F   UNL A   1      46.446  33.803  26.921  1.00  0.00    -0.206 F 
ATOM     87  C   UNL A   1      47.499  35.288  28.401  1.00  0.00     0.059 A 
ATOM     88  C   UNL A   1      48.171  34.518  30.604  1.00  0.00     0.059 A 
ATOM     89  F   UNL A   1      47.793  32.287  31.220  1.00  0.00    -0.206 F 
ATOM     90  C   UNL A   1      48.078  35.530  29.649  1.00  0.00     0.060 A 
BRANCH  90  91
ATOM     91  S   UNL A   1      48.678  37.193  30.015  1.00  0.00     0.124 S 
ATOM     92  O   UNL A   1      49.033  37.676  28.685  1.00  0.00    -0.237 OA
ATOM     93  O   UNL A   1      47.507  37.812  30.627  1.00  0.00    -0.237 OA
ATOM     94  O   UNL A   1      49.799  36.954  30.920  1.00  0.00    -0.744 OA
ENDBRANCH  90  91
ENDBRANCH  58  83
BRANCH  70  95
ATOM     95  C   UNL A   1      49.641  27.268  25.902  1.00  0.00     0.058 A 
ATOM     96  C   UNL A   1      50.769  26.885  26.644  1.00  0.00     0.135 A 
ATOM     97  C   UNL A   1      49.761  27.329  24.504  1.00  0.00     0.135 A 
ATOM     98  F   UNL A   1      50.707  26.821  27.984  1.00  0.00    -0.206 F 
ATOM     99  C   UNL A   1      51.979  26.598  26.025  1.00  0.00     0.059 A 
ATOM    100  C   UNL A   1      50.951  27.012  23.861  1.00  0.00     0.059 A 
ATOM    101  F   UNL A   1      48.708  27.681  23.749  1.00  0.00    -0.206 F 
ATOM    102  C   UNL A   1      52.058  26.659  24.631  1.00  0.00     0.060 A 
BRANCH 102 103
ATOM    103  S   UNL A   1      53.625  26.244  23.840  1.00  0.00     0.124 S 
ATOM    104  O   UNL A   1      53.952  24.976  24.485  1.00  0.00    -0.237 OA
ATOM    105  O   UNL A   1      53.249  26.161  22.433  1.00  0.00    -0.237 OA
ATOM    106  O   UNL A   1      54.490  27.366  24.188  1.00  0.00    -0.744 OA
ENDBRANCH 102 103
ENDBRANCH  70  95
ENDBRANCH  44  45
ENDBRANCH  36  39
ENDBRANCH  34  35
ENDBRANCH  33  34
ENDBRANCH  32  33
ENDBRANCH   3  32
TORSDOF 22
ENDMDL
MODEL 3
REMARK VINA RESULT:     -11.6      1.384      2.966
REMARK SMILES CC(C)[C@H](NC(=O)[C@H](C)NC(=O)CNC(=O)OCc1ccccc1)C(=O)NCCCNC(=O)c1ccc(-c2c3nc(c(-c4c(F)cc(S(=O)(=O)[O-])cc4F)c4ccc([nH]4)c(-c4c(F)cc(S(=O)(=O)[O-])cc4F)c4nc(c(-c5c(F)cc(S(=O)(=O)[O-])cc5F)c5ccc2[nH]5)C=C4)C=C3)cc1
REMARK SMILES IDX 25 1 26 2 27 3 4 5 2 6 1 7 3 8 5 9 6 10 7 12 8 13 9 14 10 15
REMARK SMILES IDX 11 16 12 18 13 19 14 20 15 21 16 23 17 24 18 25 19 26 20 27
REMARK SMILES IDX 24 28 21 29 23 30 22 31 28 32 29 33 30 34 31 35 32 36 33 38
REMARK SMILES IDX 34 39 35 40 99 41 36 42 98 43 37 44 38 45 39 46 92 47 40 48
REMARK SMILES IDX 97 49 91 50 93 51 41 52 96 53 90 54 89 55 42 57 76 58 55 59
REMARK SMILES IDX 75 60 56 61 59 62 74 63 94 64 57 65 58 66 73 68 95 69 60 70
REMARK SMILES IDX 43 71 44 72 53 73 45 74 46 75 52 76 54 77 47 78 48 79 49 80
REMARK SMILES IDX 50 81 51 82 77 83 78 84 87 85 79 86 80 87 86 88 88 89 81 90
REMARK SMILES IDX 82 91 83 92 84 93 85 94 61 95 62 96 71 97 63 98 64 99 70 100
REMARK SMILES IDX 72 101 65 102 66 103 67 104 68 105 69 106
REMARK H PARENT 27 4 5 11 10 17 14 22 31 37 93 56 59 67
REMARK Flexibility Score: inf
ROOT
ATOM      1  C   UNL A   1      31.921  27.897  27.323  1.00  0.00     0.242 C 
ATOM      2  O   UNL A   1      30.966  28.217  28.034  1.00  0.00    -0.273 OA
ATOM      3  N   UNL A   1      32.914  28.836  27.163  1.00  0.00    -0.354 N 
ATOM      4  H   UNL A   1      32.643  29.739  26.883  1.00  0.00     0.163 HD
ENDROOT
BRANCH   1   5
ATOM      5  C   UNL A   1      31.877  26.631  26.414  1.00  0.00     0.173 C 
BRANCH   5   6
ATOM      6  C   UNL A   1      32.015  26.751  24.879  1.00  0.00     0.015 C 
ATOM      7  C   UNL A   1      31.348  27.935  24.194  1.00  0.00     0.010 C 
ATOM      8  C   UNL A   1      33.480  26.619  24.434  1.00  0.00     0.010 C 
ENDBRANCH   5   6
BRANCH   5   9
ATOM      9  N   UNL A   1      30.901  25.595  26.763  1.00  0.00    -0.342 N 
ATOM     10  C   UNL A   1      30.716  24.278  26.519  1.00  0.00     0.242 C 
ATOM     11  H   UNL A   1      30.185  25.957  27.333  1.00  0.00     0.164 HD
ATOM     12  O   UNL A   1      29.788  23.806  27.192  1.00  0.00    -0.273 OA
BRANCH  10  13
ATOM     13  C   UNL A   1      31.350  23.436  25.348  1.00  0.00     0.168 C 
ATOM     14  C   UNL A   1      30.653  23.830  24.028  1.00  0.00     0.041 C 
BRANCH  13  15
ATOM     15  N   UNL A   1      31.435  21.977  25.413  1.00  0.00    -0.343 N 
ATOM     16  C   UNL A   1      32.325  21.055  24.945  1.00  0.00     0.240 C 
ATOM     17  H   UNL A   1      30.683  21.570  25.903  1.00  0.00     0.164 HD
ATOM     18  O   UNL A   1      32.009  19.867  25.077  1.00  0.00    -0.273 OA
BRANCH  16  19
ATOM     19  C   UNL A   1      33.634  21.424  24.236  1.00  0.00     0.219 C 
BRANCH  19  20
ATOM     20  N   UNL A   1      33.400  22.432  23.230  1.00  0.00    -0.312 N 
ATOM     21  C   UNL A   1      34.283  23.304  22.666  1.00  0.00     0.407 C 
ATOM     22  H   UNL A   1      32.473  22.499  22.905  1.00  0.00     0.167 HD
ATOM     23  O   UNL A   1      33.873  24.132  21.875  1.00  0.00    -0.225 OA
BRANCH  21  24
ATOM     24  O   UNL A   1      35.558  23.176  23.107  1.00  0.00    -0.445 OA
BRANCH  24  25
ATOM     25  C   UNL A   1      35.828  23.647  24.443  1.00  0.00     0.270 C 
BRANCH  25  26
ATOM     26  C   UNL A   1      37.108  23.290  25.160  1.00  0.00    -0.011 A 
ATOM     27  C   UNL A   1      37.726  24.221  26.011  1.00  0.00     0.007 A 
ATOM     28  C   UNL A   1      37.642  21.998  25.091  1.00  0.00     0.007 A 
ATOM     29  C   UNL A   1      38.861  23.890  26.748  1.00  0.00     0.000 A 
ATOM     30  C   UNL A   1      38.775  21.660  25.839  1.00  0.00     0.000 A 
ATOM     31  C   UNL A   1      39.387  22.606  26.660  1.00  0.00     0.000 A 
ENDBRANCH  25  26
ENDBRANCH  24  25
ENDBRANCH  21  24
ENDBRANCH  19  20
ENDBRANCH  16  19
ENDBRANCH  13  15
ENDBRANCH  10  13
ENDBRANCH   5   9
ENDBRANCH   1   5
BRANCH   3  32
ATOM     32  C   UNL A   1      34.328  28.598  27.374  1.00  0.00     0.117 C 
BRANCH  32  33
ATOM     33  C   UNL A   1      35.302  29.691  26.962  1.00  0.00     0.042 C 
BRANCH  33  34
ATOM     34  C   UNL A   1      35.571  30.662  28.119  1.00  0.00     0.118 C 
BRANCH  34  35
ATOM     35  N   UNL A   1      35.640  30.057  29.449  1.00  0.00    -0.352 N 
ATOM     36  C   UNL A   1      36.725  29.652  30.199  1.00  0.00     0.251 C 
ATOM     37  H   UNL A   1      34.765  29.914  29.879  1.00  0.00     0.163 HD
ATOM     38  O   UNL A   1      36.523  28.990  31.213  1.00  0.00    -0.269 OA
BRANCH  36  39
ATOM     39  C   UNL A   1      38.112  29.935  29.758  1.00  0.00     0.039 A 
ATOM     40  C   UNL A   1      39.087  30.182  30.729  1.00  0.00     0.014 A 
ATOM     41  C   UNL A   1      38.478  29.887  28.416  1.00  0.00     0.014 A 
ATOM     42  C   UNL A   1      40.434  30.177  30.367  1.00  0.00     0.010 A 
ATOM     43  C   UNL A   1      39.808  29.759  28.067  1.00  0.00     0.010 A 
ATOM     44  C   UNL A   1      40.793  29.847  29.051  1.00  0.00    -0.014 A 
BRANCH  44  45
ATOM     45  C   UNL A   1      42.155  29.396  28.706  1.00  0.00     0.031 A 
ATOM     46  C   UNL A   1      43.273  30.381  28.559  1.00  0.00     0.074 A 
ATOM     47  C   UNL A   1      42.304  28.102  28.355  1.00  0.00     0.049 A 
ATOM     48  N   UNL A   1      44.506  30.169  28.189  1.00  0.00    -0.248 NA
ATOM     49  C   UNL A   1      42.957  31.796  28.818  1.00  0.00     0.031 C 
ATOM     50  C   UNL A   1      41.226  27.104  28.336  1.00  0.00     0.029 A 
ATOM     51  N   UNL A   1      43.399  27.404  27.925  1.00  0.00    -0.354 N 
ATOM     52  C   UNL A   1      45.117  31.416  28.177  1.00  0.00     0.074 A 
ATOM     53  C   UNL A   1      44.099  32.391  28.502  1.00  0.00     0.031 C 
ATOM     54  C   UNL A   1      41.723  25.918  27.959  1.00  0.00     0.029 A 
ATOM     55  C   UNL A   1      43.140  26.076  27.668  1.00  0.00     0.049 A 
ATOM     56  H   UNL A   1      44.288  27.811  27.811  1.00  0.00     0.167 HD
ATOM     57  C   UNL A   1      46.418  31.706  27.943  1.00  0.00     0.037 A 
ATOM     58  C   UNL A   1      43.960  25.097  27.247  1.00  0.00     0.037 A 
ATOM     59  C   UNL A   1      47.400  30.706  27.611  1.00  0.00     0.049 A 
ATOM     60  C   UNL A   1      45.403  25.441  27.020  1.00  0.00     0.074 A 
ATOM     61  C   UNL A   1      48.760  30.862  27.417  1.00  0.00     0.029 A 
ATOM     62  N   UNL A   1      47.119  29.359  27.413  1.00  0.00    -0.354 N 
ATOM     63  N   UNL A   1      45.996  26.607  27.128  1.00  0.00    -0.248 NA
ATOM     64  C   UNL A   1      46.293  24.342  26.632  1.00  0.00     0.031 C 
ATOM     65  C   UNL A   1      49.291  29.622  27.048  1.00  0.00     0.029 A 
ATOM     66  C   UNL A   1      48.275  28.677  27.076  1.00  0.00     0.049 A 
ATOM     67  H   UNL A   1      46.228  28.949  27.500  1.00  0.00     0.167 HD
ATOM     68  C   UNL A   1      47.337  26.379  26.850  1.00  0.00     0.074 A 
ATOM     69  C   UNL A   1      47.467  24.959  26.584  1.00  0.00     0.031 C 
ATOM     70  C   UNL A   1      48.368  27.259  26.817  1.00  0.00     0.037 A 
BRANCH  57  71
ATOM     71  C   UNL A   1      46.847  33.145  28.055  1.00  0.00     0.058 A 
ATOM     72  C   UNL A   1      46.762  34.025  26.962  1.00  0.00     0.135 A 
ATOM     73  C   UNL A   1      47.315  33.666  29.272  1.00  0.00     0.135 A 
ATOM     74  F   UNL A   1      46.336  33.583  25.768  1.00  0.00    -0.206 F 
ATOM     75  C   UNL A   1      47.154  35.356  27.064  1.00  0.00     0.059 A 
ATOM     76  C   UNL A   1      47.682  35.003  29.405  1.00  0.00     0.059 A 
ATOM     77  F   UNL A   1      47.423  32.873  30.350  1.00  0.00    -0.206 F 
ATOM     78  C   UNL A   1      47.611  35.837  28.291  1.00  0.00     0.060 A 
BRANCH  78  79
ATOM     79  S   UNL A   1      48.100  37.571  28.405  1.00  0.00     0.124 S 
ATOM     80  O   UNL A   1      49.018  37.690  27.275  1.00  0.00    -0.237 OA
ATOM     81  O   UNL A   1      46.824  38.264  28.259  1.00  0.00    -0.237 OA
ATOM     82  O   UNL A   1      48.716  37.666  29.724  1.00  0.00    -0.744 OA
ENDBRANCH  78  79
ENDBRANCH  57  71
BRANCH  58  83
ATOM     83  C   UNL A   1      43.443  23.713  27.077  1.00  0.00     0.058 A 
ATOM     84  C   UNL A   1      43.191  23.191  25.799  1.00  0.00     0.135 A 
ATOM     85  C   UNL A   1      43.231  22.868  28.178  1.00  0.00     0.135 A 
ATOM     86  F   UNL A   1      43.385  23.956  24.714  1.00  0.00    -0.206 F 
ATOM     87  C   UNL A   1      42.724  21.894  25.618  1.00  0.00     0.059 A 
ATOM     88  C   UNL A   1      42.792  21.556  28.022  1.00  0.00     0.059 A 
ATOM     89  F   UNL A   1      43.486  23.305  29.421  1.00  0.00    -0.206 F 
ATOM     90  C   UNL A   1      42.528  21.083  26.737  1.00  0.00     0.060 A 
BRANCH  90  91
ATOM     91  S   UNL A   1      41.953  19.389  26.486  1.00  0.00     0.124 S 
ATOM     92  O   UNL A   1      40.888  19.291  27.478  1.00  0.00    -0.237 OA
ATOM     93  O   UNL A   1      41.525  19.416  25.091  1.00  0.00    -0.237 OA
ATOM     94  O   UNL A   1      43.143  18.587  26.755  1.00  0.00    -0.744 OA
ENDBRANCH  90  91
ENDBRANCH  58  83
BRANCH  70  95
ATOM     95  C   UNL A   1      49.729  26.700  26.515  1.00  0.00     0.058 A 
ATOM     96  C   UNL A   1      50.574  26.224  27.530  1.00  0.00     0.135 A 
ATOM     97  C   UNL A   1      50.171  26.596  25.187  1.00  0.00     0.135 A 
ATOM     98  F   UNL A   1      50.200  26.311  28.818  1.00  0.00    -0.206 F 
ATOM     99  C   UNL A   1      51.822  25.689  27.240  1.00  0.00     0.059 A 
ATOM    100  C   UNL A   1      51.400  26.031  24.871  1.00  0.00     0.059 A 
ATOM    101  F   UNL A   1      49.396  27.028  24.179  1.00  0.00    -0.206 F 
ATOM    102  C   UNL A   1      52.225  25.591  25.906  1.00  0.00     0.060 A 
BRANCH 102 103
ATOM    103  S   UNL A   1      53.831  24.856  25.543  1.00  0.00     0.124 S 
ATOM    104  O   UNL A   1      53.448  23.517  25.107  1.00  0.00    -0.237 OA
ATOM    105  O   UNL A   1      54.348  25.738  24.502  1.00  0.00    -0.237 OA
ATOM    106  O   UNL A   1      54.532  24.923  26.821  1.00  0.00    -0.744 OA
ENDBRANCH 102 103
ENDBRANCH  70  95
ENDBRANCH  44  45
ENDBRANCH  36  39
ENDBRANCH  34  35
ENDBRANCH  33  34
ENDBRANCH  32  33
ENDBRANCH   3  32
TORSDOF 22
ENDMDL
