MODEL 1
REMARK VINA RESULT:     -13.6      0.000      0.000
REMARK SMILES O=C(C[C@]12CSc3[nH]c(=O)sc3[C@H]1c1cc(Cl)ccc1OC2=O)NCCCNC(=O)c1ccc(-c2c3nc(c(-c4c(F)cc(S(=O)(=O)[O-])cc4F)c4ccc([nH]4)c(-c4c(F)cc(S(=O)(=O)[O-])cc4F)c4nc(c(-c5c(F)cc(S(=O)(=O)[O-])cc5F)c5ccc2[nH]5)C=C4)C=C3)cc1
REMARK SMILES IDX 27 1 26 2 25 3 24 4 1 5 2 6 3 8 4 9 5 10 13 11 22 12 6 13
REMARK SMILES IDX 12 14 14 15 21 16 23 17 7 18 11 19 15 20 20 21 8 22 9 23
REMARK SMILES IDX 16 24 19 25 10 27 17 28 18 29 28 30 29 31 30 33 31 34 32 35
REMARK SMILES IDX 96 36 33 37 95 38 34 39 35 40 36 41 89 42 37 43 94 44 88 45
REMARK SMILES IDX 90 46 38 47 93 48 87 49 86 50 39 52 73 53 52 54 72 55 53 56
REMARK SMILES IDX 56 57 71 58 91 59 54 60 55 61 70 63 92 64 57 65 40 66 41 67
REMARK SMILES IDX 50 68 42 69 43 70 49 71 51 72 44 73 45 74 46 75 47 76 48 77
REMARK SMILES IDX 74 78 75 79 84 80 76 81 77 82 83 83 85 84 78 85 79 86 80 87
REMARK SMILES IDX 81 88 82 89 58 90 59 91 68 92 60 93 61 94 67 95 69 96 62 97
REMARK SMILES IDX 63 98 64 99 65 100 66 101
REMARK H PARENT 24 7 8 26 28 32 90 51 56 62
REMARK Flexibility Score: inf
ROOT
ATOM      1  C   UNL A   1      40.290  22.300  26.755  1.00  0.00     0.118 C 
ENDROOT
BRANCH   1   2
ATOM      2  C   UNL A   1      38.855  22.533  26.236  1.00  0.00     0.042 C 
BRANCH   2   3
ATOM      3  C   UNL A   1      38.271  21.363  25.451  1.00  0.00     0.117 C 
BRANCH   3   4
ATOM      4  N   UNL A   1      37.166  21.850  24.682  1.00  0.00    -0.356 N 
ATOM      5  O   UNL A   1      35.488  21.750  26.260  1.00  0.00    -0.275 OA
ATOM      6  C   UNL A   1      35.877  21.797  25.104  1.00  0.00     0.221 C 
ATOM      7  H   UNL A   1      37.351  22.243  23.798  1.00  0.00     0.163 HD
BRANCH   6   8
ATOM      8  C   UNL A   1      34.948  21.786  23.935  1.00  0.00     0.120 C 
BRANCH   8   9
ATOM      9  C   UNL A   1      34.057  23.053  23.771  1.00  0.00     0.098 C 
ATOM     10  C   UNL A   1      34.903  24.344  23.858  1.00  0.00     0.097 C 
ATOM     11  C   UNL A   1      32.927  22.979  24.852  1.00  0.00     0.085 C 
ATOM     12  C   UNL A   1      33.428  23.040  22.359  1.00  0.00     0.319 C 
ATOM     13  S   UNL A   1      33.964  25.882  23.735  1.00  0.00    -0.106 SA
ATOM     14  C   UNL A   1      32.220  24.283  25.117  1.00  0.00     0.049 A 
ATOM     15  C   UNL A   1      32.158  21.676  24.505  1.00  0.00     0.006 A 
ATOM     16  O   UNL A   1      32.214  22.398  22.216  1.00  0.00    -0.426 OA
ATOM     17  O   UNL A   1      33.965  23.555  21.382  1.00  0.00    -0.251 OA
ATOM     18  C   UNL A   1      32.671  25.497  24.762  1.00  0.00     0.090 A 
ATOM     19  S   UNL A   1      30.976  24.462  26.346  1.00  0.00    -0.077 S 
ATOM     20  C   UNL A   1      32.215  20.589  25.402  1.00  0.00     0.028 A 
ATOM     21  C   UNL A   1      32.063  21.371  23.139  1.00  0.00     0.134 A 
ATOM     22  N   UNL A   1      32.119  26.540  25.436  1.00  0.00    -0.307 N 
ATOM     23  C   UNL A   1      31.208  26.220  26.389  1.00  0.00     0.305 A 
ATOM     24  C   UNL A   1      32.419  19.286  24.906  1.00  0.00     0.041 A 
ATOM     25  C   UNL A   1      32.183  20.067  22.642  1.00  0.00     0.049 A 
ATOM     26  H   UNL A   1      32.365  27.474  25.243  1.00  0.00     0.171 HD
ATOM     27  O   UNL A   1      30.660  26.990  27.175  1.00  0.00    -0.257 OA
ATOM     28  Cl  UNL A   1      32.895  18.031  25.987  1.00  0.00    -0.084 Cl
ATOM     29  C   UNL A   1      32.431  19.029  23.533  1.00  0.00     0.024 A 
ENDBRANCH   8   9
ENDBRANCH   6   8
ENDBRANCH   3   4
ENDBRANCH   2   3
ENDBRANCH   1   2
BRANCH   1  30
ATOM     30  N   UNL A   1      41.352  22.416  25.769  1.00  0.00    -0.352 N 
ATOM     31  C   UNL A   1      42.329  23.349  25.543  1.00  0.00     0.251 C 
ATOM     32  H   UNL A   1      41.373  21.668  25.129  1.00  0.00     0.163 HD
ATOM     33  O   UNL A   1      43.182  23.063  24.700  1.00  0.00    -0.269 OA
BRANCH  31  34
ATOM     34  C   UNL A   1      42.354  24.688  26.180  1.00  0.00     0.039 A 
ATOM     35  C   UNL A   1      43.089  24.999  27.317  1.00  0.00     0.014 A 
ATOM     36  C   UNL A   1      41.494  25.660  25.642  1.00  0.00     0.014 A 
ATOM     37  C   UNL A   1      42.813  26.142  28.033  1.00  0.00     0.010 A 
ATOM     38  C   UNL A   1      41.276  26.857  26.311  1.00  0.00     0.010 A 
ATOM     39  C   UNL A   1      41.879  27.054  27.547  1.00  0.00    -0.014 A 
BRANCH  39  40
ATOM     40  C   UNL A   1      41.666  28.240  28.360  1.00  0.00     0.031 A 
ATOM     41  C   UNL A   1      42.788  29.218  28.319  1.00  0.00     0.074 A 
ATOM     42  C   UNL A   1      40.553  28.450  29.084  1.00  0.00     0.049 A 
ATOM     43  N   UNL A   1      43.594  29.537  29.278  1.00  0.00    -0.248 NA
ATOM     44  C   UNL A   1      43.172  29.768  27.010  1.00  0.00     0.031 C 
ATOM     45  C   UNL A   1      39.292  27.709  29.070  1.00  0.00     0.029 A 
ATOM     46  N   UNL A   1      40.299  29.467  29.949  1.00  0.00    -0.354 N 
ATOM     47  C   UNL A   1      44.467  30.484  28.751  1.00  0.00     0.074 A 
ATOM     48  C   UNL A   1      44.261  30.470  27.325  1.00  0.00     0.031 C 
ATOM     49  C   UNL A   1      38.341  28.448  29.684  1.00  0.00     0.029 A 
ATOM     50  C   UNL A   1      38.956  29.641  30.243  1.00  0.00     0.049 A 
ATOM     51  H   UNL A   1      41.008  30.033  30.332  1.00  0.00     0.167 HD
ATOM     52  C   UNL A   1      45.158  31.343  29.549  1.00  0.00     0.037 A 
ATOM     53  C   UNL A   1      38.400  30.740  30.812  1.00  0.00     0.037 A 
ATOM     54  C   UNL A   1      45.201  30.876  30.910  1.00  0.00     0.049 A 
ATOM     55  C   UNL A   1      39.485  31.430  31.570  1.00  0.00     0.074 A 
ATOM     56  C   UNL A   1      45.700  29.743  31.525  1.00  0.00     0.029 A 
ATOM     57  N   UNL A   1      44.343  31.445  31.821  1.00  0.00    -0.354 N 
ATOM     58  N   UNL A   1      40.069  30.913  32.620  1.00  0.00    -0.248 NA
ATOM     59  C   UNL A   1      40.256  32.453  30.876  1.00  0.00     0.031 C 
ATOM     60  C   UNL A   1      44.745  29.421  32.531  1.00  0.00     0.029 A 
ATOM     61  C   UNL A   1      43.762  30.412  32.516  1.00  0.00     0.049 A 
ATOM     62  H   UNL A   1      44.176  32.407  31.951  1.00  0.00     0.167 HD
ATOM     63  C   UNL A   1      41.416  31.219  32.470  1.00  0.00     0.074 A 
ATOM     64  C   UNL A   1      41.458  32.231  31.415  1.00  0.00     0.031 C 
ATOM     65  C   UNL A   1      42.400  30.432  33.001  1.00  0.00     0.037 A 
BRANCH  52  66
ATOM     66  C   UNL A   1      45.502  32.762  29.172  1.00  0.00     0.058 A 
ATOM     67  C   UNL A   1      44.466  33.671  28.873  1.00  0.00     0.135 A 
ATOM     68  C   UNL A   1      46.801  33.179  28.808  1.00  0.00     0.135 A 
ATOM     69  F   UNL A   1      43.190  33.380  29.176  1.00  0.00    -0.206 F 
ATOM     70  C   UNL A   1      44.695  34.863  28.185  1.00  0.00     0.059 A 
ATOM     71  C   UNL A   1      47.058  34.386  28.169  1.00  0.00     0.059 A 
ATOM     72  F   UNL A   1      47.874  32.393  28.961  1.00  0.00    -0.206 F 
ATOM     73  C   UNL A   1      45.994  35.200  27.821  1.00  0.00     0.060 A 
BRANCH  73  74
ATOM     74  S   UNL A   1      46.278  36.670  26.820  1.00  0.00     0.124 S 
ATOM     75  O   UNL A   1      46.873  36.094  25.620  1.00  0.00    -0.237 OA
ATOM     76  O   UNL A   1      44.926  37.199  26.674  1.00  0.00    -0.237 OA
ATOM     77  O   UNL A   1      47.173  37.472  27.648  1.00  0.00    -0.744 OA
ENDBRANCH  73  74
ENDBRANCH  52  66
BRANCH  53  78
ATOM     78  C   UNL A   1      37.142  31.406  30.363  1.00  0.00     0.058 A 
ATOM     79  C   UNL A   1      36.190  31.885  31.281  1.00  0.00     0.135 A 
ATOM     80  C   UNL A   1      36.954  31.807  29.021  1.00  0.00     0.135 A 
ATOM     81  F   UNL A   1      36.303  31.588  32.584  1.00  0.00    -0.206 F 
ATOM     82  C   UNL A   1      35.138  32.730  30.897  1.00  0.00     0.059 A 
ATOM     83  C   UNL A   1      35.908  32.632  28.614  1.00  0.00     0.059 A 
ATOM     84  F   UNL A   1      37.835  31.483  28.064  1.00  0.00    -0.206 F 
ATOM     85  C   UNL A   1      35.015  33.110  29.560  1.00  0.00     0.060 A 
BRANCH  85  86
ATOM     86  S   UNL A   1      33.752  34.310  29.073  1.00  0.00     0.124 S 
ATOM     87  O   UNL A   1      33.125  34.626  30.353  1.00  0.00    -0.237 OA
ATOM     88  O   UNL A   1      34.554  35.372  28.475  1.00  0.00    -0.237 OA
ATOM     89  O   UNL A   1      32.915  33.563  28.138  1.00  0.00    -0.744 OA
ENDBRANCH  85  86
ENDBRANCH  53  78
BRANCH  65  90
ATOM     90  C   UNL A   1      42.027  29.337  33.970  1.00  0.00     0.058 A 
ATOM     91  C   UNL A   1      41.750  28.010  33.595  1.00  0.00     0.135 A 
ATOM     92  C   UNL A   1      42.160  29.594  35.345  1.00  0.00     0.135 A 
ATOM     93  F   UNL A   1      41.715  27.651  32.305  1.00  0.00    -0.206 F 
ATOM     94  C   UNL A   1      41.586  26.995  34.540  1.00  0.00     0.059 A 
ATOM     95  C   UNL A   1      42.033  28.592  36.303  1.00  0.00     0.059 A 
ATOM     96  F   UNL A   1      42.489  30.826  35.769  1.00  0.00    -0.206 F 
ATOM     97  C   UNL A   1      41.738  27.295  35.894  1.00  0.00     0.060 A 
BRANCH  97  98
ATOM     98  S   UNL A   1      41.623  25.960  37.106  1.00  0.00     0.124 S 
ATOM     99  O   UNL A   1      42.709  26.287  38.025  1.00  0.00    -0.237 OA
ATOM    100  O   UNL A   1      40.272  26.130  37.634  1.00  0.00    -0.237 OA
ATOM    101  O   UNL A   1      41.823  24.755  36.307  1.00  0.00    -0.744 OA
ENDBRANCH  97  98
ENDBRANCH  65  90
ENDBRANCH  39  40
ENDBRANCH  31  34
ENDBRANCH   1  30
TORSDOF 14
ENDMDL
MODEL 2
REMARK VINA RESULT:     -13.5      1.718      2.878
REMARK SMILES O=C(C[C@]12CSc3[nH]c(=O)sc3[C@H]1c1cc(Cl)ccc1OC2=O)NCCCNC(=O)c1ccc(-c2c3nc(c(-c4c(F)cc(S(=O)(=O)[O-])cc4F)c4ccc([nH]4)c(-c4c(F)cc(S(=O)(=O)[O-])cc4F)c4nc(c(-c5c(F)cc(S(=O)(=O)[O-])cc5F)c5ccc2[nH]5)C=C4)C=C3)cc1
REMARK SMILES IDX 27 1 26 2 25 3 24 4 1 5 2 6 3 8 4 9 5 10 13 11 22 12 6 13
REMARK SMILES IDX 12 14 14 15 21 16 23 17 7 18 11 19 15 20 20 21 8 22 9 23
REMARK SMILES IDX 16 24 19 25 10 27 17 28 18 29 28 30 29 31 30 33 31 34 32 35
REMARK SMILES IDX 96 36 33 37 95 38 34 39 35 40 36 41 89 42 37 43 94 44 88 45
REMARK SMILES IDX 90 46 38 47 93 48 87 49 86 50 39 52 73 53 52 54 72 55 53 56
REMARK SMILES IDX 56 57 71 58 91 59 54 60 55 61 70 63 92 64 57 65 40 66 41 67
REMARK SMILES IDX 50 68 42 69 43 70 49 71 51 72 44 73 45 74 46 75 47 76 48 77
REMARK SMILES IDX 74 78 75 79 84 80 76 81 77 82 83 83 85 84 78 85 79 86 80 87
REMARK SMILES IDX 81 88 82 89 58 90 59 91 68 92 60 93 61 94 67 95 69 96 62 97
REMARK SMILES IDX 63 98 64 99 65 100 66 101
REMARK H PARENT 24 7 8 26 28 32 90 51 56 62
REMARK Flexibility Score: inf
ROOT
ATOM      1  C   UNL A   1      40.140  22.367  26.686  1.00  0.00     0.118 C 
ENDROOT
BRANCH   1   2
ATOM      2  C   UNL A   1      38.758  22.534  26.018  1.00  0.00     0.042 C 
BRANCH   2   3
ATOM      3  C   UNL A   1      38.023  23.814  26.402  1.00  0.00     0.117 C 
BRANCH   3   4
ATOM      4  N   UNL A   1      36.618  23.541  26.393  1.00  0.00    -0.356 N 
ATOM      5  O   UNL A   1      36.143  23.890  24.163  1.00  0.00    -0.275 OA
ATOM      6  C   UNL A   1      35.810  23.803  25.334  1.00  0.00     0.221 C 
ATOM      7  H   UNL A   1      36.215  23.142  27.198  1.00  0.00     0.163 HD
BRANCH   6   8
ATOM      8  C   UNL A   1      34.402  24.000  25.792  1.00  0.00     0.120 C 
BRANCH   8   9
ATOM      9  C   UNL A   1      33.496  22.733  25.747  1.00  0.00     0.098 C 
ATOM     10  C   UNL A   1      34.213  21.513  26.370  1.00  0.00     0.097 C 
ATOM     11  C   UNL A   1      33.071  22.509  24.258  1.00  0.00     0.085 C 
ATOM     12  C   UNL A   1      32.241  22.988  26.613  1.00  0.00     0.319 C 
ATOM     13  S   UNL A   1      33.276  19.970  26.323  1.00  0.00    -0.106 SA
ATOM     14  C   UNL A   1      32.539  21.133  23.953  1.00  0.00     0.049 A 
ATOM     15  C   UNL A   1      32.290  23.799  23.890  1.00  0.00     0.006 A 
ATOM     16  O   UNL A   1      31.150  23.560  25.990  1.00  0.00    -0.426 OA
ATOM     17  O   UNL A   1      32.188  22.720  27.811  1.00  0.00    -0.251 OA
ATOM     18  C   UNL A   1      32.696  20.050  24.731  1.00  0.00     0.090 A 
ATOM     19  S   UNL A   1      32.080  20.623  22.335  1.00  0.00    -0.077 S 
ATOM     20  C   UNL A   1      32.839  24.684  22.938  1.00  0.00     0.028 A 
ATOM     21  C   UNL A   1      31.531  24.366  24.924  1.00  0.00     0.134 A 
ATOM     22  N   UNL A   1      32.516  18.856  24.107  1.00  0.00    -0.307 N 
ATOM     23  C   UNL A   1      32.226  18.913  22.783  1.00  0.00     0.305 A 
ATOM     24  C   UNL A   1      32.821  26.070  23.184  1.00  0.00     0.041 A 
ATOM     25  C   UNL A   1      31.439  25.749  25.129  1.00  0.00     0.049 A 
ATOM     26  H   UNL A   1      32.590  18.000  24.588  1.00  0.00     0.171 HD
ATOM     27  O   UNL A   1      32.116  17.964  22.009  1.00  0.00    -0.257 OA
ATOM     28  Cl  UNL A   1      33.831  27.111  22.254  1.00  0.00    -0.084 Cl
ATOM     29  C   UNL A   1      32.149  26.600  24.289  1.00  0.00     0.024 A 
ENDBRANCH   8   9
ENDBRANCH   6   8
ENDBRANCH   3   4
ENDBRANCH   2   3
ENDBRANCH   1   2
BRANCH   1  30
ATOM     30  N   UNL A   1      41.289  22.427  25.797  1.00  0.00    -0.352 N 
ATOM     31  C   UNL A   1      42.321  23.316  25.651  1.00  0.00     0.251 C 
ATOM     32  H   UNL A   1      41.335  21.671  25.169  1.00  0.00     0.163 HD
ATOM     33  O   UNL A   1      43.231  22.985  24.890  1.00  0.00    -0.269 OA
BRANCH  31  34
ATOM     34  C   UNL A   1      42.344  24.661  26.274  1.00  0.00     0.039 A 
ATOM     35  C   UNL A   1      43.082  24.984  27.408  1.00  0.00     0.014 A 
ATOM     36  C   UNL A   1      41.482  25.627  25.728  1.00  0.00     0.014 A 
ATOM     37  C   UNL A   1      42.805  26.134  28.113  1.00  0.00     0.010 A 
ATOM     38  C   UNL A   1      41.264  26.830  26.386  1.00  0.00     0.010 A 
ATOM     39  C   UNL A   1      41.869  27.040  27.619  1.00  0.00    -0.014 A 
BRANCH  39  40
ATOM     40  C   UNL A   1      41.656  28.233  28.421  1.00  0.00     0.031 A 
ATOM     41  C   UNL A   1      42.777  29.211  28.370  1.00  0.00     0.074 A 
ATOM     42  C   UNL A   1      40.543  28.450  29.144  1.00  0.00     0.049 A 
ATOM     43  N   UNL A   1      43.584  29.540  29.325  1.00  0.00    -0.248 NA
ATOM     44  C   UNL A   1      43.160  29.749  27.055  1.00  0.00     0.031 C 
ATOM     45  C   UNL A   1      39.283  27.709  29.137  1.00  0.00     0.029 A 
ATOM     46  N   UNL A   1      40.289  29.475  29.998  1.00  0.00    -0.354 N 
ATOM     47  C   UNL A   1      44.456  30.482  28.789  1.00  0.00     0.074 A 
ATOM     48  C   UNL A   1      44.249  30.454  27.363  1.00  0.00     0.031 C 
ATOM     49  C   UNL A   1      38.331  28.453  29.744  1.00  0.00     0.029 A 
ATOM     50  C   UNL A   1      38.947  29.651  30.291  1.00  0.00     0.049 A 
ATOM     51  H   UNL A   1      40.998  30.045  30.376  1.00  0.00     0.167 HD
ATOM     52  C   UNL A   1      45.147  31.349  29.578  1.00  0.00     0.037 A 
ATOM     53  C   UNL A   1      38.389  30.756  30.850  1.00  0.00     0.037 A 
ATOM     54  C   UNL A   1      45.190  30.896  30.944  1.00  0.00     0.049 A 
ATOM     55  C   UNL A   1      39.475  31.453  31.601  1.00  0.00     0.074 A 
ATOM     56  C   UNL A   1      45.691  29.768  31.569  1.00  0.00     0.029 A 
ATOM     57  N   UNL A   1      44.333  31.472  31.850  1.00  0.00    -0.354 N 
ATOM     58  N   UNL A   1      40.060  30.946  32.655  1.00  0.00    -0.248 NA
ATOM     59  C   UNL A   1      40.245  32.470  30.897  1.00  0.00     0.031 C 
ATOM     60  C   UNL A   1      44.737  29.456  32.579  1.00  0.00     0.029 A 
ATOM     61  C   UNL A   1      43.753  30.446  32.555  1.00  0.00     0.049 A 
ATOM     62  H   UNL A   1      44.165  32.435  31.971  1.00  0.00     0.167 HD
ATOM     63  C   UNL A   1      41.406  31.251  32.503  1.00  0.00     0.074 A 
ATOM     64  C   UNL A   1      41.448  32.254  31.438  1.00  0.00     0.031 C 
ATOM     65  C   UNL A   1      42.391  30.470  33.041  1.00  0.00     0.037 A 
BRANCH  52  66
ATOM     66  C   UNL A   1      45.490  32.765  29.188  1.00  0.00     0.058 A 
ATOM     67  C   UNL A   1      44.471  33.625  28.730  1.00  0.00     0.135 A 
ATOM     68  C   UNL A   1      46.811  33.214  28.966  1.00  0.00     0.135 A 
ATOM     69  F   UNL A   1      43.177  33.299  28.888  1.00  0.00    -0.206 F 
ATOM     70  C   UNL A   1      44.745  34.798  28.026  1.00  0.00     0.059 A 
ATOM     71  C   UNL A   1      47.106  34.405  28.314  1.00  0.00     0.059 A 
ATOM     72  F   UNL A   1      47.881  32.473  29.280  1.00  0.00    -0.206 F 
ATOM     73  C   UNL A   1      46.068  35.167  27.808  1.00  0.00     0.060 A 
BRANCH  73  74
ATOM     74  S   UNL A   1      46.426  36.608  26.789  1.00  0.00     0.124 S 
ATOM     75  O   UNL A   1      45.150  37.314  26.825  1.00  0.00    -0.237 OA
ATOM     76  O   UNL A   1      47.523  37.230  27.523  1.00  0.00    -0.237 OA
ATOM     77  O   UNL A   1      46.790  36.027  25.501  1.00  0.00    -0.744 OA
ENDBRANCH  73  74
ENDBRANCH  52  66
BRANCH  53  78
ATOM     78  C   UNL A   1      37.132  31.416  30.396  1.00  0.00     0.058 A 
ATOM     79  C   UNL A   1      36.196  31.934  31.309  1.00  0.00     0.135 A 
ATOM     80  C   UNL A   1      36.929  31.774  29.043  1.00  0.00     0.135 A 
ATOM     81  F   UNL A   1      36.323  31.679  32.620  1.00  0.00    -0.206 F 
ATOM     82  C   UNL A   1      35.145  32.774  30.911  1.00  0.00     0.059 A 
ATOM     83  C   UNL A   1      35.884  32.594  28.622  1.00  0.00     0.059 A 
ATOM     84  F   UNL A   1      37.794  31.411  28.087  1.00  0.00    -0.206 F 
ATOM     85  C   UNL A   1      35.008  33.111  29.564  1.00  0.00     0.060 A 
BRANCH  85  86
ATOM     86  S   UNL A   1      33.748  34.305  29.053  1.00  0.00     0.124 S 
ATOM     87  O   UNL A   1      33.090  34.611  30.319  1.00  0.00    -0.237 OA
ATOM     88  O   UNL A   1      34.556  35.374  28.478  1.00  0.00    -0.237 OA
ATOM     89  O   UNL A   1      32.938  33.556  28.095  1.00  0.00    -0.744 OA
ENDBRANCH  85  86
ENDBRANCH  53  78
BRANCH  65  90
ATOM     90  C   UNL A   1      42.018  29.384  34.020  1.00  0.00     0.058 A 
ATOM     91  C   UNL A   1      41.639  28.081  33.650  1.00  0.00     0.135 A 
ATOM     92  C   UNL A   1      42.258  29.612  35.385  1.00  0.00     0.135 A 
ATOM     93  F   UNL A   1      41.496  27.745  32.361  1.00  0.00    -0.206 F 
ATOM     94  C   UNL A   1      41.478  27.064  34.592  1.00  0.00     0.059 A 
ATOM     95  C   UNL A   1      42.136  28.605  36.338  1.00  0.00     0.059 A 
ATOM     96  F   UNL A   1      42.688  30.816  35.800  1.00  0.00    -0.206 F 
ATOM     97  C   UNL A   1      41.737  27.334  35.936  1.00  0.00     0.060 A 
BRANCH  97  98
ATOM     98  S   UNL A   1      41.625  25.990  37.138  1.00  0.00     0.124 S 
ATOM     99  O   UNL A   1      42.722  26.300  38.049  1.00  0.00    -0.237 OA
ATOM    100  O   UNL A   1      40.280  26.165  37.680  1.00  0.00    -0.237 OA
ATOM    101  O   UNL A   1      41.808  24.789  36.327  1.00  0.00    -0.744 OA
ENDBRANCH  97  98
ENDBRANCH  65  90
ENDBRANCH  39  40
ENDBRANCH  31  34
ENDBRANCH   1  30
TORSDOF 14
ENDMDL
MODEL 3
REMARK VINA RESULT:     -13.4      1.845      3.156
REMARK SMILES O=C(C[C@]12CSc3[nH]c(=O)sc3[C@H]1c1cc(Cl)ccc1OC2=O)NCCCNC(=O)c1ccc(-c2c3nc(c(-c4c(F)cc(S(=O)(=O)[O-])cc4F)c4ccc([nH]4)c(-c4c(F)cc(S(=O)(=O)[O-])cc4F)c4nc(c(-c5c(F)cc(S(=O)(=O)[O-])cc5F)c5ccc2[nH]5)C=C4)C=C3)cc1
REMARK SMILES IDX 27 1 26 2 25 3 24 4 1 5 2 6 3 8 4 9 5 10 13 11 22 12 6 13
REMARK SMILES IDX 12 14 14 15 21 16 23 17 7 18 11 19 15 20 20 21 8 22 9 23
REMARK SMILES IDX 16 24 19 25 10 27 17 28 18 29 28 30 29 31 30 33 31 34 32 35
REMARK SMILES IDX 96 36 33 37 95 38 34 39 35 40 36 41 89 42 37 43 94 44 88 45
REMARK SMILES IDX 90 46 38 47 93 48 87 49 86 50 39 52 73 53 52 54 72 55 53 56
REMARK SMILES IDX 56 57 71 58 91 59 54 60 55 61 70 63 92 64 57 65 40 66 41 67
REMARK SMILES IDX 50 68 42 69 43 70 49 71 51 72 44 73 45 74 46 75 47 76 48 77
REMARK SMILES IDX 74 78 75 79 84 80 76 81 77 82 83 83 85 84 78 85 79 86 80 87
REMARK SMILES IDX 81 88 82 89 58 90 59 91 68 92 60 93 61 94 67 95 69 96 62 97
REMARK SMILES IDX 63 98 64 99 65 100 66 101
REMARK H PARENT 24 7 8 26 28 32 90 51 56 62
REMARK Flexibility Score: inf
ROOT
ATOM      1  C   UNL A   1      39.306  22.400  26.575  1.00  0.00     0.118 C 
ENDROOT
BRANCH   1   2
ATOM      2  C   UNL A   1      38.330  23.513  26.137  1.00  0.00     0.042 C 
BRANCH   2   3
ATOM      3  C   UNL A   1      36.961  23.010  25.690  1.00  0.00     0.117 C 
BRANCH   3   4
ATOM      4  N   UNL A   1      35.981  23.975  26.088  1.00  0.00    -0.356 N 
ATOM      5  O   UNL A   1      34.578  22.645  27.345  1.00  0.00    -0.275 OA
ATOM      6  C   UNL A   1      34.809  23.649  26.690  1.00  0.00     0.221 C 
ATOM      7  H   UNL A   1      36.166  24.926  25.913  1.00  0.00     0.163 HD
BRANCH   6   8
ATOM      8  C   UNL A   1      33.782  24.702  26.433  1.00  0.00     0.120 C 
BRANCH   8   9
ATOM      9  C   UNL A   1      32.912  24.497  25.158  1.00  0.00     0.098 C 
ATOM     10  C   UNL A   1      33.203  23.130  24.498  1.00  0.00     0.097 C 
ATOM     11  C   UNL A   1      33.174  25.713  24.207  1.00  0.00     0.085 C 
ATOM     12  C   UNL A   1      31.422  24.472  25.571  1.00  0.00     0.319 C 
ATOM     13  S   UNL A   1      32.288  22.806  22.975  1.00  0.00    -0.106 SA
ATOM     14  C   UNL A   1      32.746  25.501  22.778  1.00  0.00     0.049 A 
ATOM     15  C   UNL A   1      32.717  26.944  25.034  1.00  0.00     0.006 A 
ATOM     16  O   UNL A   1      30.755  25.681  25.602  1.00  0.00    -0.426 OA
ATOM     17  O   UNL A   1      30.830  23.441  25.878  1.00  0.00    -0.251 OA
ATOM     18  C   UNL A   1      32.476  24.311  22.217  1.00  0.00     0.090 A 
ATOM     19  S   UNL A   1      33.016  26.692  21.514  1.00  0.00    -0.077 S 
ATOM     20  C   UNL A   1      33.683  27.880  25.460  1.00  0.00     0.028 A 
ATOM     21  C   UNL A   1      31.617  26.735  25.879  1.00  0.00     0.134 A 
ATOM     22  N   UNL A   1      32.515  24.289  20.859  1.00  0.00    -0.307 N 
ATOM     23  C   UNL A   1      32.842  25.457  20.252  1.00  0.00     0.305 A 
ATOM     24  C   UNL A   1      33.645  28.370  26.780  1.00  0.00     0.041 A 
ATOM     25  C   UNL A   1      31.531  27.286  27.165  1.00  0.00     0.049 A 
ATOM     26  H   UNL A   1      32.316  23.472  20.345  1.00  0.00     0.171 HD
ATOM     27  O   UNL A   1      33.026  25.639  19.050  1.00  0.00    -0.257 OA
ATOM     28  Cl  UNL A   1      35.025  29.174  27.427  1.00  0.00    -0.084 Cl
ATOM     29  C   UNL A   1      32.590  28.053  27.639  1.00  0.00     0.024 A 
ENDBRANCH   8   9
ENDBRANCH   6   8
ENDBRANCH   3   4
ENDBRANCH   2   3
ENDBRANCH   1   2
BRANCH   1  30
ATOM     30  N   UNL A   1      40.534  22.289  25.803  1.00  0.00    -0.352 N 
ATOM     31  C   UNL A   1      41.685  23.030  25.754  1.00  0.00     0.251 C 
ATOM     32  H   UNL A   1      40.538  21.522  25.187  1.00  0.00     0.163 HD
ATOM     33  O   UNL A   1      42.613  22.565  25.088  1.00  0.00    -0.269 OA
BRANCH  31  34
ATOM     34  C   UNL A   1      41.829  24.371  26.369  1.00  0.00     0.039 A 
ATOM     35  C   UNL A   1      42.371  24.598  27.630  1.00  0.00     0.014 A 
ATOM     36  C   UNL A   1      41.286  25.455  25.659  1.00  0.00     0.014 A 
ATOM     37  C   UNL A   1      42.174  25.805  28.263  1.00  0.00     0.010 A 
ATOM     38  C   UNL A   1      41.165  26.701  26.259  1.00  0.00     0.010 A 
ATOM     39  C   UNL A   1      41.538  26.845  27.589  1.00  0.00    -0.014 A 
BRANCH  39  40
ATOM     40  C   UNL A   1      41.390  28.086  28.331  1.00  0.00     0.031 A 
ATOM     41  C   UNL A   1      42.530  29.031  28.172  1.00  0.00     0.074 A 
ATOM     42  C   UNL A   1      40.319  28.371  29.091  1.00  0.00     0.049 A 
ATOM     43  N   UNL A   1      43.389  29.391  29.069  1.00  0.00    -0.248 NA
ATOM     44  C   UNL A   1      42.862  29.485  26.813  1.00  0.00     0.031 C 
ATOM     45  C   UNL A   1      39.043  27.663  29.185  1.00  0.00     0.029 A 
ATOM     46  N   UNL A   1      40.129  29.448  29.897  1.00  0.00    -0.354 N 
ATOM     47  C   UNL A   1      44.255  30.280  28.440  1.00  0.00     0.074 A 
ATOM     48  C   UNL A   1      43.981  30.178  27.029  1.00  0.00     0.031 C 
ATOM     49  C   UNL A   1      38.139  28.464  29.792  1.00  0.00     0.029 A 
ATOM     50  C   UNL A   1      38.807  29.674  30.241  1.00  0.00     0.049 A 
ATOM     51  H   UNL A   1      40.869  30.020  30.208  1.00  0.00     0.167 HD
ATOM     52  C   UNL A   1      45.003  31.172  29.146  1.00  0.00     0.037 A 
ATOM     53  C   UNL A   1      38.302  30.822  30.762  1.00  0.00     0.037 A 
ATOM     54  C   UNL A   1      45.101  30.794  30.532  1.00  0.00     0.049 A 
ATOM     55  C   UNL A   1      39.438  31.532  31.421  1.00  0.00     0.074 A 
ATOM     56  C   UNL A   1      45.605  29.691  31.197  1.00  0.00     0.029 A 
ATOM     57  N   UNL A   1      44.301  31.442  31.443  1.00  0.00    -0.354 N 
ATOM     58  N   UNL A   1      40.061  31.070  32.474  1.00  0.00    -0.248 NA
ATOM     59  C   UNL A   1      40.196  32.488  30.625  1.00  0.00     0.031 C 
ATOM     60  C   UNL A   1      44.693  29.460  32.266  1.00  0.00     0.029 A 
ATOM     61  C   UNL A   1      43.733  30.472  32.231  1.00  0.00     0.049 A 
ATOM     62  H   UNL A   1      44.162  32.414  31.516  1.00  0.00     0.167 HD
ATOM     63  C   UNL A   1      41.405  31.332  32.242  1.00  0.00     0.074 A 
ATOM     64  C   UNL A   1      41.419  32.272  31.121  1.00  0.00     0.031 C 
ATOM     65  C   UNL A   1      42.396  30.557  32.777  1.00  0.00     0.037 A 
BRANCH  52  66
ATOM     66  C   UNL A   1      45.359  32.554  28.660  1.00  0.00     0.058 A 
ATOM     67  C   UNL A   1      46.710  32.959  28.646  1.00  0.00     0.135 A 
ATOM     68  C   UNL A   1      44.412  33.588  28.490  1.00  0.00     0.135 A 
ATOM     69  F   UNL A   1      47.697  32.059  28.798  1.00  0.00    -0.206 F 
ATOM     70  C   UNL A   1      47.087  34.299  28.559  1.00  0.00     0.059 A 
ATOM     71  C   UNL A   1      44.767  34.924  28.349  1.00  0.00     0.059 A 
ATOM     72  F   UNL A   1      43.094  33.369  28.555  1.00  0.00    -0.206 F 
ATOM     73  C   UNL A   1      46.103  35.275  28.431  1.00  0.00     0.060 A 
BRANCH  73  74
ATOM     74  S   UNL A   1      46.576  37.013  28.450  1.00  0.00     0.124 S 
ATOM     75  O   UNL A   1      46.191  37.434  27.108  1.00  0.00    -0.237 OA
ATOM     76  O   UNL A   1      45.762  37.533  29.544  1.00  0.00    -0.237 OA
ATOM     77  O   UNL A   1      48.011  36.967  28.711  1.00  0.00    -0.744 OA
ENDBRANCH  73  74
ENDBRANCH  52  66
BRANCH  53  78
ATOM     78  C   UNL A   1      37.040  31.488  30.329  1.00  0.00     0.058 A 
ATOM     79  C   UNL A   1      36.089  31.948  31.259  1.00  0.00     0.135 A 
ATOM     80  C   UNL A   1      36.844  31.910  28.995  1.00  0.00     0.135 A 
ATOM     81  F   UNL A   1      36.209  31.630  32.557  1.00  0.00    -0.206 F 
ATOM     82  C   UNL A   1      35.031  32.793  30.893  1.00  0.00     0.059 A 
ATOM     83  C   UNL A   1      35.791  32.735  28.605  1.00  0.00     0.059 A 
ATOM     84  F   UNL A   1      37.721  31.606  28.029  1.00  0.00    -0.206 F 
ATOM     85  C   UNL A   1      34.900  33.194  29.563  1.00  0.00     0.060 A 
BRANCH  85  86
ATOM     86  S   UNL A   1      33.629  34.395  29.101  1.00  0.00     0.124 S 
ATOM     87  O   UNL A   1      33.044  34.730  30.395  1.00  0.00    -0.237 OA
ATOM     88  O   UNL A   1      34.417  35.445  28.465  1.00  0.00    -0.237 OA
ATOM     89  O   UNL A   1      32.759  33.642  28.201  1.00  0.00    -0.744 OA
ENDBRANCH  85  86
ENDBRANCH  53  78
BRANCH  65  90
ATOM     90  C   UNL A   1      42.046  29.537  33.833  1.00  0.00     0.058 A 
ATOM     91  C   UNL A   1      41.567  28.245  33.555  1.00  0.00     0.135 A 
ATOM     92  C   UNL A   1      42.409  29.809  35.162  1.00  0.00     0.135 A 
ATOM     93  F   UNL A   1      41.301  27.863  32.299  1.00  0.00    -0.206 F 
ATOM     94  C   UNL A   1      41.428  27.279  34.554  1.00  0.00     0.059 A 
ATOM     95  C   UNL A   1      42.311  28.852  36.168  1.00  0.00     0.059 A 
ATOM     96  F   UNL A   1      42.937  31.002  35.485  1.00  0.00    -0.206 F 
ATOM     97  C   UNL A   1      41.811  27.590  35.859  1.00  0.00     0.060 A 
BRANCH  97  98
ATOM     98  S   UNL A   1      41.724  26.307  37.128  1.00  0.00     0.124 S 
ATOM     99  O   UNL A   1      41.830  25.085  36.337  1.00  0.00    -0.237 OA
ATOM    100  O   UNL A   1      42.875  26.619  37.970  1.00  0.00    -0.237 OA
ATOM    101  O   UNL A   1      40.425  26.534  37.755  1.00  0.00    -0.744 OA
ENDBRANCH  97  98
ENDBRANCH  65  90
ENDBRANCH  39  40
ENDBRANCH  31  34
ENDBRANCH   1  30
TORSDOF 14
ENDMDL
