MODEL 1
REMARK VINA RESULT:     -11.7      0.000      0.000
REMARK SMILES O=C(C[C@@H](C(=O)N(c1ccccc1)c1ccccc1)[NH+]1CCOCC1)NCCCNC(=O)c1ccc(-c2c3nc(c(-c4c(F)cc(S(=O)(=O)[O-])cc4F)c4ccc([nH]4)c(-c4c(F)cc(S(=O)(=O)[O-])cc4F)c4nc(c(-c5c(F)cc(S(=O)(=O)[O-])cc5F)c5ccc2[nH]5)C=C4)C=C3)cc1
REMARK SMILES IDX 28 1 27 2 26 3 1 4 2 5 3 7 4 8 5 9 6 10 7 11 8 12 9 13 13 14
REMARK SMILES IDX 10 15 12 16 11 17 14 18 15 19 19 20 16 21 18 22 17 23 20 24
REMARK SMILES IDX 21 25 25 26 22 28 24 29 23 30 29 31 30 32 31 33 32 35 33 36
REMARK SMILES IDX 34 37 98 38 35 39 97 40 36 41 37 42 38 43 91 44 39 45 96 46
REMARK SMILES IDX 90 47 92 48 40 49 95 50 89 51 88 52 41 54 75 55 54 56 74 57
REMARK SMILES IDX 55 58 58 59 73 60 93 61 56 62 57 63 72 65 94 66 59 67 42 68
REMARK SMILES IDX 43 69 52 70 44 71 45 72 51 73 53 74 46 75 47 76 48 77 49 78
REMARK SMILES IDX 50 79 76 80 77 81 86 82 78 83 79 84 85 85 87 86 80 87 81 88
REMARK SMILES IDX 82 89 83 90 84 91 60 92 61 93 70 94 62 95 63 96 69 97 71 98
REMARK SMILES IDX 64 99 65 100 66 101 67 102 68 103
REMARK H PARENT 26 6 20 27 30 34 92 53 58 64
REMARK Flexibility Score: inf
ROOT
ATOM      1  C   UNL A   1      32.590  29.294  25.551  1.00  0.00     0.042 C 
ENDROOT
BRANCH   1   2
ATOM      2  C   UNL A   1      33.181  28.796  24.239  1.00  0.00     0.117 C 
BRANCH   2   3
ATOM      3  N   UNL A   1      33.180  27.351  24.041  1.00  0.00    -0.356 N 
ATOM      4  O   UNL A   1      30.959  27.243  23.449  1.00  0.00    -0.275 OA
ATOM      5  C   UNL A   1      32.062  26.708  23.539  1.00  0.00     0.226 C 
ATOM      6  H   UNL A   1      33.982  26.827  24.268  1.00  0.00     0.163 HD
BRANCH   5   7
ATOM      7  C   UNL A   1      32.293  25.318  22.971  1.00  0.00     0.175 C 
BRANCH   7   8
ATOM      8  C   UNL A   1      32.259  24.246  24.089  1.00  0.00     0.284 C 
BRANCH   8   9
ATOM      9  C   UNL A   1      33.698  23.733  24.246  1.00  0.00     0.290 C 
ATOM     10  O   UNL A   1      34.601  24.497  23.852  1.00  0.00    -0.267 OA
ATOM     11  N   UNL A   1      34.031  22.472  24.778  1.00  0.00    -0.276 N 
BRANCH  11  12
ATOM     12  C   UNL A   1      33.339  21.189  24.647  1.00  0.00     0.049 A 
ATOM     13  C   UNL A   1      33.280  20.298  25.749  1.00  0.00     0.027 A 
ATOM     14  C   UNL A   1      32.828  20.665  23.452  1.00  0.00     0.027 A 
ATOM     15  C   UNL A   1      32.867  18.960  25.626  1.00  0.00     0.002 A 
ATOM     16  C   UNL A   1      32.407  19.328  23.320  1.00  0.00     0.002 A 
ATOM     17  C   UNL A   1      32.452  18.467  24.401  1.00  0.00     0.000 A 
ENDBRANCH  11  12
BRANCH  11  18
ATOM     18  C   UNL A   1      35.421  22.374  25.138  1.00  0.00     0.049 A 
ATOM     19  C   UNL A   1      36.227  21.398  24.536  1.00  0.00     0.027 A 
ATOM     20  C   UNL A   1      36.007  23.334  25.966  1.00  0.00     0.027 A 
ATOM     21  C   UNL A   1      37.599  21.367  24.765  1.00  0.00     0.002 A 
ATOM     22  C   UNL A   1      37.389  23.311  26.181  1.00  0.00     0.002 A 
ATOM     23  C   UNL A   1      38.181  22.328  25.583  1.00  0.00     0.000 A 
ENDBRANCH  11  18
ENDBRANCH   8   9
BRANCH   8  24
ATOM     24  N   UNL A   1      31.654  24.883  25.316  1.00  0.00    -0.320 N 
ATOM     25  C   UNL A   1      32.431  24.878  26.574  1.00  0.00     0.291 C 
ATOM     26  C   UNL A   1      30.298  24.376  25.617  1.00  0.00     0.291 C 
ATOM     27  H   UNL A   1      31.645  25.855  25.010  1.00  0.00     0.348 HD
ATOM     28  C   UNL A   1      32.377  23.549  27.353  1.00  0.00     0.221 C 
ATOM     29  C   UNL A   1      30.303  23.029  26.351  1.00  0.00     0.221 C 
ATOM     30  O   UNL A   1      31.026  23.122  27.585  1.00  0.00    -0.370 OA
ENDBRANCH   8  24
ENDBRANCH   7   8
ENDBRANCH   5   7
ENDBRANCH   2   3
ENDBRANCH   1   2
BRANCH   1  31
ATOM     31  C   UNL A   1      33.525  29.223  26.752  1.00  0.00     0.118 C 
BRANCH  31  32
ATOM     32  N   UNL A   1      33.569  30.425  27.577  1.00  0.00    -0.352 N 
ATOM     33  C   UNL A   1      34.600  30.925  28.345  1.00  0.00     0.251 C 
ATOM     34  H   UNL A   1      32.741  30.957  27.589  1.00  0.00     0.163 HD
ATOM     35  O   UNL A   1      34.432  31.973  28.966  1.00  0.00    -0.269 OA
BRANCH  33  36
ATOM     36  C   UNL A   1      35.880  30.182  28.485  1.00  0.00     0.039 A 
ATOM     37  C   UNL A   1      36.760  30.168  27.397  1.00  0.00     0.014 A 
ATOM     38  C   UNL A   1      36.254  29.554  29.673  1.00  0.00     0.014 A 
ATOM     39  C   UNL A   1      38.051  29.656  27.550  1.00  0.00     0.010 A 
ATOM     40  C   UNL A   1      37.568  29.131  29.856  1.00  0.00     0.010 A 
ATOM     41  C   UNL A   1      38.491  29.207  28.806  1.00  0.00    -0.014 A 
BRANCH  41  42
ATOM     42  C   UNL A   1      39.924  28.904  29.054  1.00  0.00     0.031 A 
ATOM     43  C   UNL A   1      40.848  29.942  29.627  1.00  0.00     0.074 A 
ATOM     44  C   UNL A   1      40.408  27.705  28.670  1.00  0.00     0.049 A 
ATOM     45  N   UNL A   1      42.128  29.854  29.883  1.00  0.00    -0.248 NA
ATOM     46  C   UNL A   1      40.269  31.263  29.919  1.00  0.00     0.031 C 
ATOM     47  C   UNL A   1      39.630  26.648  28.013  1.00  0.00     0.029 A 
ATOM     48  N   UNL A   1      41.667  27.167  28.770  1.00  0.00    -0.354 N 
ATOM     49  C   UNL A   1      42.509  31.103  30.357  1.00  0.00     0.074 A 
ATOM     50  C   UNL A   1      41.337  31.951  30.297  1.00  0.00     0.031 C 
ATOM     51  C   UNL A   1      40.416  25.582  27.805  1.00  0.00     0.029 A 
ATOM     52  C   UNL A   1      41.760  25.882  28.284  1.00  0.00     0.049 A 
ATOM     53  H   UNL A   1      42.432  27.654  29.152  1.00  0.00     0.167 HD
ATOM     54  C   UNL A   1      43.717  31.500  30.827  1.00  0.00     0.037 A 
ATOM     55  C   UNL A   1      42.807  25.037  28.241  1.00  0.00     0.037 A 
ATOM     56  C   UNL A   1      44.871  30.642  30.902  1.00  0.00     0.049 A 
ATOM     57  C   UNL A   1      44.124  25.481  28.814  1.00  0.00     0.074 A 
ATOM     58  C   UNL A   1      46.125  30.926  31.412  1.00  0.00     0.029 A 
ATOM     59  N   UNL A   1      44.910  29.328  30.454  1.00  0.00    -0.354 N 
ATOM     60  N   UNL A   1      44.442  26.641  29.338  1.00  0.00    -0.248 NA
ATOM     61  C   UNL A   1      45.217  24.501  28.808  1.00  0.00     0.031 C 
ATOM     62  C   UNL A   1      46.932  29.794  31.246  1.00  0.00     0.029 A 
ATOM     63  C   UNL A   1      46.168  28.791  30.671  1.00  0.00     0.049 A 
ATOM     64  H   UNL A   1      44.155  28.849  30.043  1.00  0.00     0.167 HD
ATOM     65  C   UNL A   1      45.764  26.520  29.752  1.00  0.00     0.074 A 
ATOM     66  C   UNL A   1      46.180  25.171  29.426  1.00  0.00     0.031 C 
ATOM     67  C   UNL A   1      46.559  27.441  30.351  1.00  0.00     0.037 A 
BRANCH  54  68
ATOM     68  C   UNL A   1      43.841  32.919  31.310  1.00  0.00     0.058 A 
ATOM     69  C   UNL A   1      44.096  33.975  30.420  1.00  0.00     0.135 A 
ATOM     70  C   UNL A   1      43.683  33.234  32.669  1.00  0.00     0.135 A 
ATOM     71  F   UNL A   1      44.269  33.730  29.111  1.00  0.00    -0.206 F 
ATOM     72  C   UNL A   1      44.227  35.287  30.863  1.00  0.00     0.059 A 
ATOM     73  C   UNL A   1      43.783  34.545  33.131  1.00  0.00     0.059 A 
ATOM     74  F   UNL A   1      43.436  32.266  33.564  1.00  0.00    -0.206 F 
ATOM     75  C   UNL A   1      44.073  35.561  32.223  1.00  0.00     0.060 A 
BRANCH  75  76
ATOM     76  S   UNL A   1      44.254  37.268  32.783  1.00  0.00     0.124 S 
ATOM     77  O   UNL A   1      45.510  37.197  33.525  1.00  0.00    -0.237 OA
ATOM     78  O   UNL A   1      44.303  38.007  31.527  1.00  0.00    -0.237 OA
ATOM     79  O   UNL A   1      43.059  37.489  33.592  1.00  0.00    -0.744 OA
ENDBRANCH  75  76
ENDBRANCH  54  68
BRANCH  55  80
ATOM     80  C   UNL A   1      42.635  23.668  27.685  1.00  0.00     0.058 A 
ATOM     81  C   UNL A   1      42.770  23.429  26.309  1.00  0.00     0.135 A 
ATOM     82  C   UNL A   1      42.353  22.571  28.514  1.00  0.00     0.135 A 
ATOM     83  F   UNL A   1      43.039  24.446  25.476  1.00  0.00    -0.206 F 
ATOM     84  C   UNL A   1      42.614  22.156  25.770  1.00  0.00     0.059 A 
ATOM     85  C   UNL A   1      42.216  21.284  28.002  1.00  0.00     0.059 A 
ATOM     86  F   UNL A   1      42.236  22.743  29.840  1.00  0.00    -0.206 F 
ATOM     87  C   UNL A   1      42.337  21.088  26.626  1.00  0.00     0.060 A 
BRANCH  87  88
ATOM     88  S   UNL A   1      42.182  19.432  25.922  1.00  0.00     0.124 S 
ATOM     89  O   UNL A   1      43.018  19.540  24.732  1.00  0.00    -0.237 OA
ATOM     90  O   UNL A   1      42.702  18.591  26.996  1.00  0.00    -0.237 OA
ATOM     91  O   UNL A   1      40.748  19.306  25.679  1.00  0.00    -0.744 OA
ENDBRANCH  87  88
ENDBRANCH  55  80
BRANCH  67  92
ATOM     92  C   UNL A   1      47.946  27.006  30.730  1.00  0.00     0.058 A 
ATOM     93  C   UNL A   1      48.197  26.276  31.903  1.00  0.00     0.135 A 
ATOM     94  C   UNL A   1      49.031  27.291  29.888  1.00  0.00     0.135 A 
ATOM     95  F   UNL A   1      47.193  25.984  32.745  1.00  0.00    -0.206 F 
ATOM     96  C   UNL A   1      49.483  25.868  32.240  1.00  0.00     0.059 A 
ATOM     97  C   UNL A   1      50.321  26.870  30.192  1.00  0.00     0.059 A 
ATOM     98  F   UNL A   1      48.842  27.978  28.750  1.00  0.00    -0.206 F 
ATOM     99  C   UNL A   1      50.539  26.171  31.379  1.00  0.00     0.060 A 
BRANCH  99 100
ATOM    100  S   UNL A   1      52.200  25.614  31.813  1.00  0.00     0.124 S 
ATOM    101  O   UNL A   1      51.954  24.228  32.197  1.00  0.00    -0.237 OA
ATOM    102  O   UNL A   1      52.933  25.806  30.565  1.00  0.00    -0.237 OA
ATOM    103  O   UNL A   1      52.583  26.509  32.901  1.00  0.00    -0.744 OA
ENDBRANCH  99 100
ENDBRANCH  67  92
ENDBRANCH  41  42
ENDBRANCH  33  36
ENDBRANCH  31  32
ENDBRANCH   1  31
TORSDOF 18
ENDMDL
MODEL 2
REMARK VINA RESULT:     -11.6      1.176      8.417
REMARK SMILES O=C(C[C@@H](C(=O)N(c1ccccc1)c1ccccc1)[NH+]1CCOCC1)NCCCNC(=O)c1ccc(-c2c3nc(c(-c4c(F)cc(S(=O)(=O)[O-])cc4F)c4ccc([nH]4)c(-c4c(F)cc(S(=O)(=O)[O-])cc4F)c4nc(c(-c5c(F)cc(S(=O)(=O)[O-])cc5F)c5ccc2[nH]5)C=C4)C=C3)cc1
REMARK SMILES IDX 28 1 27 2 26 3 1 4 2 5 3 7 4 8 5 9 6 10 7 11 8 12 9 13 13 14
REMARK SMILES IDX 10 15 12 16 11 17 14 18 15 19 19 20 16 21 18 22 17 23 20 24
REMARK SMILES IDX 21 25 25 26 22 28 24 29 23 30 29 31 30 32 31 33 32 35 33 36
REMARK SMILES IDX 34 37 98 38 35 39 97 40 36 41 37 42 38 43 91 44 39 45 96 46
REMARK SMILES IDX 90 47 92 48 40 49 95 50 89 51 88 52 41 54 75 55 54 56 74 57
REMARK SMILES IDX 55 58 58 59 73 60 93 61 56 62 57 63 72 65 94 66 59 67 42 68
REMARK SMILES IDX 43 69 52 70 44 71 45 72 51 73 53 74 46 75 47 76 48 77 49 78
REMARK SMILES IDX 50 79 76 80 77 81 86 82 78 83 79 84 85 85 87 86 80 87 81 88
REMARK SMILES IDX 82 89 83 90 84 91 60 92 61 93 70 94 62 95 63 96 69 97 71 98
REMARK SMILES IDX 64 99 65 100 66 101 67 102 68 103
REMARK H PARENT 26 6 20 27 30 34 92 53 58 64
REMARK Flexibility Score: inf
ROOT
ATOM      1  C   UNL A   1      32.063  28.720  26.557  1.00  0.00     0.042 C 
ENDROOT
BRANCH   1   2
ATOM      2  C   UNL A   1      31.346  27.417  26.883  1.00  0.00     0.117 C 
BRANCH   2   3
ATOM      3  N   UNL A   1      31.422  26.371  25.870  1.00  0.00    -0.356 N 
ATOM      4  O   UNL A   1      29.743  25.095  26.789  1.00  0.00    -0.275 OA
ATOM      5  C   UNL A   1      30.506  25.333  25.856  1.00  0.00     0.226 C 
ATOM      6  H   UNL A   1      32.132  26.403  25.189  1.00  0.00     0.163 HD
BRANCH   5   7
ATOM      7  C   UNL A   1      30.396  24.561  24.553  1.00  0.00     0.175 C 
BRANCH   7   8
ATOM      8  C   UNL A   1      31.794  24.139  24.035  1.00  0.00     0.284 C 
BRANCH   8   9
ATOM      9  C   UNL A   1      31.956  22.651  24.377  1.00  0.00     0.290 C 
ATOM     10  O   UNL A   1      30.935  22.067  24.793  1.00  0.00    -0.267 OA
ATOM     11  N   UNL A   1      33.170  21.945  24.268  1.00  0.00    -0.276 N 
BRANCH  11  12
ATOM     12  C   UNL A   1      34.539  22.392  24.524  1.00  0.00     0.049 A 
ATOM     13  C   UNL A   1      34.856  23.050  25.739  1.00  0.00     0.027 A 
ATOM     14  C   UNL A   1      35.587  22.363  23.593  1.00  0.00     0.027 A 
ATOM     15  C   UNL A   1      36.069  23.730  25.945  1.00  0.00     0.002 A 
ATOM     16  C   UNL A   1      36.807  23.035  23.792  1.00  0.00     0.002 A 
ATOM     17  C   UNL A   1      37.038  23.743  24.957  1.00  0.00     0.000 A 
ENDBRANCH  11  12
BRANCH  11  18
ATOM     18  C   UNL A   1      32.984  20.518  24.309  1.00  0.00     0.049 A 
ATOM     19  C   UNL A   1      33.098  19.838  25.529  1.00  0.00     0.027 A 
ATOM     20  C   UNL A   1      32.547  19.828  23.176  1.00  0.00     0.027 A 
ATOM     21  C   UNL A   1      32.793  18.483  25.621  1.00  0.00     0.002 A 
ATOM     22  C   UNL A   1      32.225  18.470  23.274  1.00  0.00     0.002 A 
ATOM     23  C   UNL A   1      32.350  17.801  24.494  1.00  0.00     0.000 A 
ENDBRANCH  11  18
ENDBRANCH   8   9
BRANCH   8  24
ATOM     24  N   UNL A   1      31.862  24.482  22.567  1.00  0.00    -0.320 N 
ATOM     25  C   UNL A   1      33.189  24.637  21.935  1.00  0.00     0.291 C 
ATOM     26  C   UNL A   1      31.051  25.669  22.217  1.00  0.00     0.291 C 
ATOM     27  H   UNL A   1      31.477  23.622  22.178  1.00  0.00     0.348 HD
ATOM     28  C   UNL A   1      33.863  26.000  22.187  1.00  0.00     0.221 C 
ATOM     29  C   UNL A   1      31.751  26.997  22.533  1.00  0.00     0.221 C 
ATOM     30  O   UNL A   1      33.000  27.094  21.839  1.00  0.00    -0.370 OA
ENDBRANCH   8  24
ENDBRANCH   7   8
ENDBRANCH   5   7
ENDBRANCH   2   3
ENDBRANCH   1   2
BRANCH   1  31
ATOM     31  C   UNL A   1      33.346  28.968  27.342  1.00  0.00     0.118 C 
BRANCH  31  32
ATOM     32  N   UNL A   1      33.462  30.292  27.942  1.00  0.00    -0.352 N 
ATOM     33  C   UNL A   1      34.570  30.923  28.467  1.00  0.00     0.251 C 
ATOM     34  H   UNL A   1      32.626  30.812  27.977  1.00  0.00     0.163 HD
ATOM     35  O   UNL A   1      34.453  32.060  28.923  1.00  0.00    -0.269 OA
BRANCH  33  36
ATOM     36  C   UNL A   1      35.880  30.225  28.553  1.00  0.00     0.039 A 
ATOM     37  C   UNL A   1      36.715  30.245  27.430  1.00  0.00     0.014 A 
ATOM     38  C   UNL A   1      36.323  29.609  29.723  1.00  0.00     0.014 A 
ATOM     39  C   UNL A   1      38.028  29.779  27.529  1.00  0.00     0.010 A 
ATOM     40  C   UNL A   1      37.658  29.232  29.851  1.00  0.00     0.010 A 
ATOM     41  C   UNL A   1      38.534  29.343  28.764  1.00  0.00    -0.014 A 
BRANCH  41  42
ATOM     42  C   UNL A   1      39.986  29.090  28.953  1.00  0.00     0.031 A 
ATOM     43  C   UNL A   1      40.591  27.757  28.609  1.00  0.00     0.074 A 
ATOM     44  C   UNL A   1      40.741  30.048  29.526  1.00  0.00     0.049 A 
ATOM     45  N   UNL A   1      41.831  27.359  28.734  1.00  0.00    -0.248 NA
ATOM     46  C   UNL A   1      39.680  26.724  28.089  1.00  0.00     0.031 C 
ATOM     47  C   UNL A   1      40.247  31.349  29.994  1.00  0.00     0.029 A 
ATOM     48  N   UNL A   1      42.081  30.085  29.821  1.00  0.00    -0.354 N 
ATOM     49  C   UNL A   1      41.850  26.034  28.317  1.00  0.00     0.074 A 
ATOM     50  C   UNL A   1      40.486  25.676  27.993  1.00  0.00     0.031 C 
ATOM     51  C   UNL A   1      41.273  32.066  30.478  1.00  0.00     0.029 A 
ATOM     52  C   UNL A   1      42.492  31.271  30.385  1.00  0.00     0.049 A 
ATOM     53  H   UNL A   1      42.692  29.332  29.645  1.00  0.00     0.167 HD
ATOM     54  C   UNL A   1      42.911  25.200  28.190  1.00  0.00     0.037 A 
ATOM     55  C   UNL A   1      43.716  31.678  30.774  1.00  0.00     0.037 A 
ATOM     56  C   UNL A   1      44.267  25.573  28.496  1.00  0.00     0.049 A 
ATOM     57  C   UNL A   1      44.885  30.754  30.575  1.00  0.00     0.074 A 
ATOM     58  C   UNL A   1      45.422  24.825  28.350  1.00  0.00     0.029 A 
ATOM     59  N   UNL A   1      44.652  26.804  29.011  1.00  0.00    -0.354 N 
ATOM     60  N   UNL A   1      44.896  29.532  30.098  1.00  0.00    -0.248 NA
ATOM     61  C   UNL A   1      46.209  31.268  30.948  1.00  0.00     0.031 C 
ATOM     62  C   UNL A   1      46.501  25.592  28.803  1.00  0.00     0.029 A 
ATOM     63  C   UNL A   1      46.024  26.834  29.192  1.00  0.00     0.049 A 
ATOM     64  H   UNL A   1      44.039  27.546  29.216  1.00  0.00     0.167 HD
ATOM     65  C   UNL A   1      46.230  29.142  30.086  1.00  0.00     0.074 A 
ATOM     66  C   UNL A   1      46.996  30.262  30.593  1.00  0.00     0.031 C 
ATOM     67  C   UNL A   1      46.771  27.964  29.687  1.00  0.00     0.037 A 
BRANCH  54  68
ATOM     68  C   UNL A   1      42.643  23.809  27.682  1.00  0.00     0.058 A 
ATOM     69  C   UNL A   1      42.467  22.730  28.564  1.00  0.00     0.135 A 
ATOM     70  C   UNL A   1      42.539  23.552  26.306  1.00  0.00     0.135 A 
ATOM     71  F   UNL A   1      42.569  22.916  29.890  1.00  0.00    -0.206 F 
ATOM     72  C   UNL A   1      42.234  21.440  28.100  1.00  0.00     0.059 A 
ATOM     73  C   UNL A   1      42.278  22.273  25.820  1.00  0.00     0.059 A 
ATOM     74  F   UNL A   1      42.696  24.546  25.419  1.00  0.00    -0.206 F 
ATOM     75  C   UNL A   1      42.146  21.221  26.724  1.00  0.00     0.060 A 
BRANCH  75  76
ATOM     76  S   UNL A   1      41.851  19.539  26.137  1.00  0.00     0.124 S 
ATOM     77  O   UNL A   1      42.322  18.750  27.272  1.00  0.00    -0.237 OA
ATOM     78  O   UNL A   1      40.409  19.531  25.916  1.00  0.00    -0.237 OA
ATOM     79  O   UNL A   1      42.668  19.452  24.930  1.00  0.00    -0.744 OA
ENDBRANCH  75  76
ENDBRANCH  54  68
BRANCH  55  80
ATOM     80  C   UNL A   1      43.902  33.043  31.334  1.00  0.00     0.058 A 
ATOM     81  C   UNL A   1      44.158  34.136  30.492  1.00  0.00     0.135 A 
ATOM     82  C   UNL A   1      43.806  33.288  32.712  1.00  0.00     0.135 A 
ATOM     83  F   UNL A   1      44.259  33.952  29.167  1.00  0.00    -0.206 F 
ATOM     84  C   UNL A   1      44.333  35.421  30.996  1.00  0.00     0.059 A 
ATOM     85  C   UNL A   1      43.954  34.569  33.239  1.00  0.00     0.059 A 
ATOM     86  F   UNL A   1      43.540  32.281  33.558  1.00  0.00    -0.206 F 
ATOM     87  C   UNL A   1      44.228  35.627  32.373  1.00  0.00     0.060 A 
BRANCH  87  88
ATOM     88  S   UNL A   1      44.412  37.306  33.014  1.00  0.00     0.124 S 
ATOM     89  O   UNL A   1      45.813  37.314  33.419  1.00  0.00    -0.237 OA
ATOM     90  O   UNL A   1      44.078  38.119  31.848  1.00  0.00    -0.237 OA
ATOM     91  O   UNL A   1      43.439  37.356  34.101  1.00  0.00    -0.744 OA
ENDBRANCH  87  88
ENDBRANCH  55  80
BRANCH  67  92
ATOM     92  C   UNL A   1      48.267  27.843  29.744  1.00  0.00     0.058 A 
ATOM     93  C   UNL A   1      49.079  28.192  28.654  1.00  0.00     0.135 A 
ATOM     94  C   UNL A   1      48.896  27.407  30.921  1.00  0.00     0.135 A 
ATOM     95  F   UNL A   1      48.525  28.607  27.504  1.00  0.00    -0.206 F 
ATOM     96  C   UNL A   1      50.464  28.088  28.720  1.00  0.00     0.059 A 
ATOM     97  C   UNL A   1      50.281  27.321  31.017  1.00  0.00     0.059 A 
ATOM     98  F   UNL A   1      48.164  27.071  31.995  1.00  0.00    -0.206 F 
ATOM     99  C   UNL A   1      51.056  27.649  29.906  1.00  0.00     0.060 A 
BRANCH  99 100
ATOM    100  S   UNL A   1      52.856  27.542  29.990  1.00  0.00     0.124 S 
ATOM    101  O   UNL A   1      53.236  27.935  28.638  1.00  0.00    -0.237 OA
ATOM    102  O   UNL A   1      53.180  28.499  31.044  1.00  0.00    -0.237 OA
ATOM    103  O   UNL A   1      53.096  26.143  30.329  1.00  0.00    -0.744 OA
ENDBRANCH  99 100
ENDBRANCH  67  92
ENDBRANCH  41  42
ENDBRANCH  33  36
ENDBRANCH  31  32
ENDBRANCH   1  31
TORSDOF 18
ENDMDL
MODEL 3
REMARK VINA RESULT:     -11.5      0.924      2.884
REMARK SMILES O=C(C[C@@H](C(=O)N(c1ccccc1)c1ccccc1)[NH+]1CCOCC1)NCCCNC(=O)c1ccc(-c2c3nc(c(-c4c(F)cc(S(=O)(=O)[O-])cc4F)c4ccc([nH]4)c(-c4c(F)cc(S(=O)(=O)[O-])cc4F)c4nc(c(-c5c(F)cc(S(=O)(=O)[O-])cc5F)c5ccc2[nH]5)C=C4)C=C3)cc1
REMARK SMILES IDX 28 1 27 2 26 3 1 4 2 5 3 7 4 8 5 9 6 10 7 11 8 12 9 13 13 14
REMARK SMILES IDX 10 15 12 16 11 17 14 18 15 19 19 20 16 21 18 22 17 23 20 24
REMARK SMILES IDX 21 25 25 26 22 28 24 29 23 30 29 31 30 32 31 33 32 35 33 36
REMARK SMILES IDX 34 37 98 38 35 39 97 40 36 41 37 42 38 43 91 44 39 45 96 46
REMARK SMILES IDX 90 47 92 48 40 49 95 50 89 51 88 52 41 54 75 55 54 56 74 57
REMARK SMILES IDX 55 58 58 59 73 60 93 61 56 62 57 63 72 65 94 66 59 67 42 68
REMARK SMILES IDX 43 69 52 70 44 71 45 72 51 73 53 74 46 75 47 76 48 77 49 78
REMARK SMILES IDX 50 79 76 80 77 81 86 82 78 83 79 84 85 85 87 86 80 87 81 88
REMARK SMILES IDX 82 89 83 90 84 91 60 92 61 93 70 94 62 95 63 96 69 97 71 98
REMARK SMILES IDX 64 99 65 100 66 101 67 102 68 103
REMARK H PARENT 26 6 20 27 30 34 92 53 58 64
REMARK Flexibility Score: inf
ROOT
ATOM      1  C   UNL A   1      32.114  29.217  26.723  1.00  0.00     0.042 C 
ENDROOT
BRANCH   1   2
ATOM      2  C   UNL A   1      31.430  28.144  27.560  1.00  0.00     0.117 C 
BRANCH   2   3
ATOM      3  N   UNL A   1      31.063  26.919  26.859  1.00  0.00    -0.356 N 
ATOM      4  O   UNL A   1      33.234  26.236  26.522  1.00  0.00    -0.275 OA
ATOM      5  C   UNL A   1      32.029  25.996  26.496  1.00  0.00     0.226 C 
ATOM      6  H   UNL A   1      30.119  26.746  26.641  1.00  0.00     0.163 HD
BRANCH   5   7
ATOM      7  C   UNL A   1      31.528  24.599  26.177  1.00  0.00     0.175 C 
BRANCH   7   8
ATOM      8  C   UNL A   1      32.311  23.982  24.992  1.00  0.00     0.284 C 
BRANCH   8   9
ATOM      9  C   UNL A   1      32.250  22.458  25.173  1.00  0.00     0.290 C 
ATOM     10  O   UNL A   1      31.152  21.991  25.533  1.00  0.00    -0.267 OA
ATOM     11  N   UNL A   1      33.347  21.597  24.977  1.00  0.00    -0.276 N 
BRANCH  11  12
ATOM     12  C   UNL A   1      34.766  21.809  25.267  1.00  0.00     0.049 A 
ATOM     13  C   UNL A   1      35.194  23.011  25.883  1.00  0.00     0.027 A 
ATOM     14  C   UNL A   1      35.809  20.969  24.853  1.00  0.00     0.027 A 
ATOM     15  C   UNL A   1      36.545  23.393  25.956  1.00  0.00     0.002 A 
ATOM     16  C   UNL A   1      37.165  21.340  24.925  1.00  0.00     0.002 A 
ATOM     17  C   UNL A   1      37.532  22.564  25.452  1.00  0.00     0.000 A 
ENDBRANCH  11  12
BRANCH  11  18
ATOM     18  C   UNL A   1      32.953  20.217  24.869  1.00  0.00     0.049 A 
ATOM     19  C   UNL A   1      32.629  19.684  23.614  1.00  0.00     0.027 A 
ATOM     20  C   UNL A   1      33.034  19.369  25.975  1.00  0.00     0.027 A 
ATOM     21  C   UNL A   1      32.375  18.325  23.461  1.00  0.00     0.002 A 
ATOM     22  C   UNL A   1      32.794  18.000  25.817  1.00  0.00     0.002 A 
ATOM     23  C   UNL A   1      32.464  17.481  24.562  1.00  0.00     0.000 A 
ENDBRANCH  11  18
ENDBRANCH   8   9
BRANCH   8  24
ATOM     24  N   UNL A   1      31.705  24.513  23.716  1.00  0.00    -0.320 N 
ATOM     25  C   UNL A   1      31.793  23.690  22.492  1.00  0.00     0.291 C 
ATOM     26  C   UNL A   1      32.172  25.876  23.382  1.00  0.00     0.291 C 
ATOM     27  H   UNL A   1      30.721  24.496  23.981  1.00  0.00     0.348 HD
ATOM     28  C   UNL A   1      33.151  23.767  21.766  1.00  0.00     0.221 C 
ATOM     29  C   UNL A   1      33.549  25.897  22.705  1.00  0.00     0.221 C 
ATOM     30  O   UNL A   1      33.536  25.124  21.499  1.00  0.00    -0.370 OA
ENDBRANCH   8  24
ENDBRANCH   7   8
ENDBRANCH   5   7
ENDBRANCH   2   3
ENDBRANCH   1   2
BRANCH   1  31
ATOM     31  C   UNL A   1      33.520  29.592  27.172  1.00  0.00     0.118 C 
BRANCH  31  32
ATOM     32  N   UNL A   1      33.610  30.783  28.008  1.00  0.00    -0.352 N 
ATOM     33  C   UNL A   1      34.675  31.263  28.741  1.00  0.00     0.251 C 
ATOM     34  H   UNL A   1      32.789  31.325  28.056  1.00  0.00     0.163 HD
ATOM     35  O   UNL A   1      34.543  32.306  29.380  1.00  0.00    -0.269 OA
BRANCH  33  36
ATOM     36  C   UNL A   1      35.950  30.504  28.825  1.00  0.00     0.039 A 
ATOM     37  C   UNL A   1      36.784  30.484  27.701  1.00  0.00     0.014 A 
ATOM     38  C   UNL A   1      36.366  29.867  29.995  1.00  0.00     0.014 A 
ATOM     39  C   UNL A   1      38.074  29.955  27.798  1.00  0.00     0.010 A 
ATOM     40  C   UNL A   1      37.681  29.427  30.121  1.00  0.00     0.010 A 
ATOM     41  C   UNL A   1      38.560  29.496  29.033  1.00  0.00    -0.014 A 
BRANCH  41  42
ATOM     42  C   UNL A   1      39.998  29.175  29.220  1.00  0.00     0.031 A 
ATOM     43  C   UNL A   1      40.962  30.205  29.738  1.00  0.00     0.074 A 
ATOM     44  C   UNL A   1      40.447  27.964  28.829  1.00  0.00     0.049 A 
ATOM     45  N   UNL A   1      42.251  30.101  29.936  1.00  0.00    -0.248 NA
ATOM     46  C   UNL A   1      40.416  31.538  30.040  1.00  0.00     0.031 C 
ATOM     47  C   UNL A   1      39.625  26.912  28.220  1.00  0.00     0.029 A 
ATOM     48  N   UNL A   1      41.701  27.409  28.878  1.00  0.00    -0.354 N 
ATOM     49  C   UNL A   1      42.671  31.350  30.378  1.00  0.00     0.074 A 
ATOM     50  C   UNL A   1      41.510  32.214  30.361  1.00  0.00     0.031 C 
ATOM     51  C   UNL A   1      40.386  25.831  27.990  1.00  0.00     0.029 A 
ATOM     52  C   UNL A   1      41.754  26.118  28.404  1.00  0.00     0.049 A 
ATOM     53  H   UNL A   1      42.490  27.890  29.220  1.00  0.00     0.167 HD
ATOM     54  C   UNL A   1      43.904  31.734  30.788  1.00  0.00     0.037 A 
ATOM     55  C   UNL A   1      42.786  25.256  28.324  1.00  0.00     0.037 A 
ATOM     56  C   UNL A   1      45.048  30.860  30.821  1.00  0.00     0.049 A 
ATOM     57  C   UNL A   1      44.134  25.688  28.832  1.00  0.00     0.074 A 
ATOM     58  C   UNL A   1      46.329  31.131  31.270  1.00  0.00     0.029 A 
ATOM     59  N   UNL A   1      45.049  29.541  30.388  1.00  0.00    -0.354 N 
ATOM     60  N   UNL A   1      44.492  26.849  29.327  1.00  0.00    -0.248 NA
ATOM     61  C   UNL A   1      45.211  24.691  28.788  1.00  0.00     0.031 C 
ATOM     62  C   UNL A   1      47.110  29.986  31.082  1.00  0.00     0.029 A 
ATOM     63  C   UNL A   1      46.307  28.988  30.554  1.00  0.00     0.049 A 
ATOM     64  H   UNL A   1      44.269  29.069  30.017  1.00  0.00     0.167 HD
ATOM     65  C   UNL A   1      45.829  26.713  29.682  1.00  0.00     0.074 A 
ATOM     66  C   UNL A   1      46.211  25.354  29.353  1.00  0.00     0.031 C 
ATOM     67  C   UNL A   1      46.664  27.628  30.233  1.00  0.00     0.037 A 
BRANCH  54  68
ATOM     68  C   UNL A   1      44.071  33.157  31.248  1.00  0.00     0.058 A 
ATOM     69  C   UNL A   1      43.907  33.514  32.597  1.00  0.00     0.135 A 
ATOM     70  C   UNL A   1      44.419  34.171  30.342  1.00  0.00     0.135 A 
ATOM     71  F   UNL A   1      43.561  32.587  33.504  1.00  0.00    -0.206 F 
ATOM     72  C   UNL A   1      44.045  34.830  33.025  1.00  0.00     0.059 A 
ATOM     73  C   UNL A   1      44.590  35.491  30.753  1.00  0.00     0.059 A 
ATOM     74  F   UNL A   1      44.591  33.887  29.042  1.00  0.00    -0.206 F 
ATOM     75  C   UNL A   1      44.382  35.813  32.093  1.00  0.00     0.060 A 
BRANCH  75  76
ATOM     76  S   UNL A   1      44.550  37.518  32.663  1.00  0.00     0.124 S 
ATOM     77  O   UNL A   1      45.966  37.568  33.015  1.00  0.00    -0.237 OA
ATOM     78  O   UNL A   1      44.165  38.283  31.481  1.00  0.00    -0.237 OA
ATOM     79  O   UNL A   1      43.620  37.594  33.785  1.00  0.00    -0.744 OA
ENDBRANCH  75  76
ENDBRANCH  54  68
BRANCH  55  80
ATOM     80  C   UNL A   1      42.569  23.884  27.793  1.00  0.00     0.058 A 
ATOM     81  C   UNL A   1      42.442  22.789  28.662  1.00  0.00     0.135 A 
ATOM     82  C   UNL A   1      42.461  23.640  26.416  1.00  0.00     0.135 A 
ATOM     83  F   UNL A   1      42.538  22.973  29.988  1.00  0.00    -0.206 F 
ATOM     84  C   UNL A   1      42.237  21.499  28.186  1.00  0.00     0.059 A 
ATOM     85  C   UNL A   1      42.232  22.361  25.915  1.00  0.00     0.059 A 
ATOM     86  F   UNL A   1      42.553  24.656  25.543  1.00  0.00    -0.206 F 
ATOM     87  C   UNL A   1      42.133  21.295  26.809  1.00  0.00     0.060 A 
BRANCH  87  88
ATOM     88  S   UNL A   1      41.820  19.622  26.202  1.00  0.00     0.124 S 
ATOM     89  O   UNL A   1      40.386  19.668  25.941  1.00  0.00    -0.237 OA
ATOM     90  O   UNL A   1      42.683  19.554  25.027  1.00  0.00    -0.237 OA
ATOM     91  O   UNL A   1      42.231  18.779  27.321  1.00  0.00    -0.744 OA
ENDBRANCH  87  88
ENDBRANCH  55  80
BRANCH  67  92
ATOM     92  C   UNL A   1      48.060  27.178  30.555  1.00  0.00     0.058 A 
ATOM     93  C   UNL A   1      49.117  27.338  29.645  1.00  0.00     0.135 A 
ATOM     94  C   UNL A   1      48.349  26.613  31.806  1.00  0.00     0.135 A 
ATOM     95  F   UNL A   1      48.890  27.867  28.432  1.00  0.00    -0.206 F 
ATOM     96  C   UNL A   1      50.409  26.928  29.957  1.00  0.00     0.059 A 
ATOM     97  C   UNL A   1      49.639  26.220  32.149  1.00  0.00     0.059 A 
ATOM     98  F   UNL A   1      47.375  26.447  32.715  1.00  0.00    -0.206 F 
ATOM     99  C   UNL A   1      50.660  26.369  31.211  1.00  0.00     0.060 A 
BRANCH  99 100
ATOM    100  S   UNL A   1      52.345  25.864  31.615  1.00  0.00     0.124 S 
ATOM    101  O   UNL A   1      52.721  26.865  32.607  1.00  0.00    -0.237 OA
ATOM    102  O   UNL A   1      52.155  24.508  32.121  1.00  0.00    -0.237 OA
ATOM    103  O   UNL A   1      53.041  25.955  30.335  1.00  0.00    -0.744 OA
ENDBRANCH  99 100
ENDBRANCH  67  92
ENDBRANCH  41  42
ENDBRANCH  33  36
ENDBRANCH  31  32
ENDBRANCH   1  31
TORSDOF 18
ENDMDL
