MODEL 1
REMARK VINA RESULT:     -13.7      0.000      0.000
REMARK SMILES C[C@H](C(=O)Nc1ccc(C(F)(F)F)cc1)n1nc(C(=O)NCCCNC(=O)c2ccc(-c3c4nc(c(-c5c(F)cc(S(=O)(=O)[O-])cc5F)c5ccc([nH]5)c(-c5c(F)cc(S(=O)(=O)[O-])cc5F)c5nc(c(-c6c(F)cc(S(=O)(=O)[O-])cc6F)c6ccc3[nH]6)C=C5)C=C4)cc2)c2ccccc2c1=O
REMARK SMILES IDX 22 1 21 2 19 3 20 4 18 6 16 7 17 8 100 9 99 10 101 11 94 12
REMARK SMILES IDX 98 13 95 14 97 15 96 16 2 17 1 18 3 19 4 20 5 21 6 23 7 24
REMARK SMILES IDX 15 25 8 26 14 27 9 28 10 29 11 30 12 31 13 32 23 33 24 34
REMARK SMILES IDX 25 35 26 36 27 38 28 39 29 40 93 41 30 42 92 43 31 44 32 45
REMARK SMILES IDX 33 46 86 47 34 48 91 49 85 50 87 51 35 52 90 53 84 54 83 55
REMARK SMILES IDX 36 57 70 58 49 59 69 60 50 61 53 62 68 63 88 64 51 65 52 66
REMARK SMILES IDX 67 68 89 69 54 70 37 71 38 72 47 73 39 74 40 75 46 76 48 77
REMARK SMILES IDX 41 78 42 79 43 80 44 81 45 82 71 83 72 84 81 85 73 86 74 87
REMARK SMILES IDX 80 88 82 89 75 90 76 91 77 92 78 93 79 94 55 95 56 96 65 97
REMARK SMILES IDX 57 98 58 99 64 100 66 101 59 102 60 103 61 104 62 105 63 106
REMARK H PARENT 21 5 5 22 25 37 87 56 53 67
REMARK Flexibility Score: inf
ROOT
ATOM      1  C   UNL A   1      36.767  21.979  25.372  1.00  0.00     0.118 C 
ENDROOT
BRANCH   1   2
ATOM      2  N   UNL A   1      36.002  21.845  26.599  1.00  0.00    -0.351 N 
ATOM      3  C   UNL A   1      34.629  21.845  26.736  1.00  0.00     0.272 C 
ATOM      4  O   UNL A   1      34.113  21.881  27.843  1.00  0.00    -0.267 OA
ATOM      5  H   UNL A   1      36.524  21.743  27.428  1.00  0.00     0.163 HD
BRANCH   3   6
ATOM      6  C   UNL A   1      33.759  21.772  25.475  1.00  0.00     0.156 A 
ATOM      7  N   UNL A   1      32.710  22.931  23.749  1.00  0.00    -0.216 N 
ATOM      8  N   UNL A   1      33.410  22.903  24.937  1.00  0.00    -0.163 NA
ATOM      9  C   UNL A   1      32.335  21.777  23.070  1.00  0.00     0.275 A 
ATOM     10  C   UNL A   1      32.691  20.489  23.699  1.00  0.00     0.051 A 
ATOM     11  O   UNL A   1      31.765  21.758  21.985  1.00  0.00    -0.267 OA
ATOM     12  C   UNL A   1      33.371  20.467  24.913  1.00  0.00     0.020 A 
ATOM     13  C   UNL A   1      32.317  19.287  23.080  1.00  0.00     0.014 A 
ATOM     14  C   UNL A   1      33.639  19.238  25.531  1.00  0.00     0.011 A 
ATOM     15  C   UNL A   1      32.591  18.067  23.694  1.00  0.00     0.001 A 
ATOM     16  C   UNL A   1      33.241  18.043  24.925  1.00  0.00     0.001 A 
BRANCH   7  17
ATOM     17  C   UNL A   1      32.201  24.270  23.384  1.00  0.00     0.197 C 
ATOM     18  C   UNL A   1      30.684  24.221  23.168  1.00  0.00     0.044 C 
BRANCH  17  19
ATOM     19  C   UNL A   1      32.857  25.019  22.201  1.00  0.00     0.249 C 
ATOM     20  O   UNL A   1      33.241  24.425  21.185  1.00  0.00    -0.272 OA
ATOM     21  N   UNL A   1      32.913  26.387  22.164  1.00  0.00    -0.324 N 
ATOM     22  H   UNL A   1      33.169  26.752  21.286  1.00  0.00     0.170 HD
BRANCH  21  23
ATOM     23  C   UNL A   1      32.675  27.365  23.135  1.00  0.00     0.041 A 
ATOM     24  C   UNL A   1      33.726  27.673  24.006  1.00  0.00     0.027 A 
ATOM     25  C   UNL A   1      31.442  27.982  23.316  1.00  0.00     0.027 A 
ATOM     26  C   UNL A   1      33.569  28.649  24.996  1.00  0.00     0.015 A 
ATOM     27  C   UNL A   1      31.273  28.935  24.327  1.00  0.00     0.015 A 
ATOM     28  C   UNL A   1      32.341  29.300  25.159  1.00  0.00     0.056 A 
BRANCH  28  29
ATOM     29  C   UNL A   1      32.138  30.334  26.241  1.00  0.00     0.416 C 
ATOM     30  F   UNL A   1      33.325  30.868  26.651  1.00  0.00    -0.166 F 
ATOM     31  F   UNL A   1      31.369  31.389  25.866  1.00  0.00    -0.166 F 
ATOM     32  F   UNL A   1      31.572  29.805  27.362  1.00  0.00    -0.166 F 
ENDBRANCH  28  29
ENDBRANCH  21  23
ENDBRANCH  17  19
ENDBRANCH   7  17
ENDBRANCH   3   6
ENDBRANCH   1   2
BRANCH   1  33
ATOM     33  C   UNL A   1      37.137  23.440  25.105  1.00  0.00     0.042 C 
BRANCH  33  34
ATOM     34  C   UNL A   1      37.959  24.055  26.227  1.00  0.00     0.118 C 
BRANCH  34  35
ATOM     35  N   UNL A   1      39.354  23.636  26.175  1.00  0.00    -0.352 N 
ATOM     36  C   UNL A   1      40.456  24.311  26.651  1.00  0.00     0.251 C 
ATOM     37  H   UNL A   1      39.530  22.766  25.749  1.00  0.00     0.163 HD
ATOM     38  O   UNL A   1      41.584  23.957  26.321  1.00  0.00    -0.269 OA
BRANCH  36  39
ATOM     39  C   UNL A   1      40.261  25.489  27.529  1.00  0.00     0.039 A 
ATOM     40  C   UNL A   1      39.394  25.393  28.619  1.00  0.00     0.014 A 
ATOM     41  C   UNL A   1      40.971  26.670  27.297  1.00  0.00     0.014 A 
ATOM     42  C   UNL A   1      39.312  26.449  29.532  1.00  0.00     0.010 A 
ATOM     43  C   UNL A   1      40.938  27.693  28.238  1.00  0.00     0.010 A 
ATOM     44  C   UNL A   1      40.125  27.583  29.376  1.00  0.00    -0.014 A 
BRANCH  44  45
ATOM     45  C   UNL A   1      40.191  28.653  30.405  1.00  0.00     0.031 A 
ATOM     46  C   UNL A   1      41.130  28.520  31.569  1.00  0.00     0.074 A 
ATOM     47  C   UNL A   1      39.319  29.680  30.349  1.00  0.00     0.049 A 
ATOM     48  N   UNL A   1      41.192  29.230  32.665  1.00  0.00    -0.248 NA
ATOM     49  C   UNL A   1      42.109  27.422  31.507  1.00  0.00     0.031 C 
ATOM     50  C   UNL A   1      38.327  29.897  29.292  1.00  0.00     0.029 A 
ATOM     51  N   UNL A   1      39.109  30.722  31.216  1.00  0.00    -0.354 N 
ATOM     52  C   UNL A   1      42.189  28.647  33.438  1.00  0.00     0.074 A 
ATOM     53  C   UNL A   1      42.691  27.511  32.694  1.00  0.00     0.031 C 
ATOM     54  C   UNL A   1      37.625  31.008  29.566  1.00  0.00     0.029 A 
ATOM     55  C   UNL A   1      38.082  31.556  30.838  1.00  0.00     0.049 A 
ATOM     56  H   UNL A   1      39.642  30.860  32.032  1.00  0.00     0.167 HD
ATOM     57  C   UNL A   1      42.652  29.034  34.651  1.00  0.00     0.037 A 
ATOM     58  C   UNL A   1      37.553  32.628  31.459  1.00  0.00     0.037 A 
ATOM     59  C   UNL A   1      42.181  30.191  35.365  1.00  0.00     0.049 A 
ATOM     60  C   UNL A   1      38.097  33.048  32.794  1.00  0.00     0.074 A 
ATOM     61  C   UNL A   1      42.628  30.699  36.573  1.00  0.00     0.029 A 
ATOM     62  N   UNL A   1      41.166  31.029  34.930  1.00  0.00    -0.354 N 
ATOM     63  N   UNL A   1      39.053  32.495  33.501  1.00  0.00    -0.248 NA
ATOM     64  C   UNL A   1      37.485  34.226  33.423  1.00  0.00     0.031 C 
ATOM     65  C   UNL A   1      41.871  31.836  36.875  1.00  0.00     0.029 A 
ATOM     66  C   UNL A   1      40.967  32.046  35.846  1.00  0.00     0.049 A 
ATOM     67  H   UNL A   1      40.662  30.916  34.092  1.00  0.00     0.167 HD
ATOM     68  C   UNL A   1      39.160  33.262  34.655  1.00  0.00     0.074 A 
ATOM     69  C   UNL A   1      38.183  34.326  34.545  1.00  0.00     0.031 C 
ATOM     70  C   UNL A   1      39.989  33.096  35.714  1.00  0.00     0.037 A 
BRANCH  57  71
ATOM     71  C   UNL A   1      43.730  28.199  35.277  1.00  0.00     0.058 A 
ATOM     72  C   UNL A   1      45.087  28.443  35.015  1.00  0.00     0.135 A 
ATOM     73  C   UNL A   1      43.409  27.163  36.168  1.00  0.00     0.135 A 
ATOM     74  F   UNL A   1      45.446  29.411  34.157  1.00  0.00    -0.206 F 
ATOM     75  C   UNL A   1      46.088  27.671  35.594  1.00  0.00     0.059 A 
ATOM     76  C   UNL A   1      44.395  26.390  36.775  1.00  0.00     0.059 A 
ATOM     77  F   UNL A   1      42.125  26.888  36.450  1.00  0.00    -0.206 F 
ATOM     78  C   UNL A   1      45.733  26.642  36.469  1.00  0.00     0.060 A 
BRANCH  78  79
ATOM     79  S   UNL A   1      47.040  25.644  37.213  1.00  0.00     0.124 S 
ATOM     80  O   UNL A   1      46.881  24.383  36.496  1.00  0.00    -0.237 OA
ATOM     81  O   UNL A   1      48.242  26.407  36.893  1.00  0.00    -0.237 OA
ATOM     82  O   UNL A   1      46.679  25.615  38.627  1.00  0.00    -0.744 OA
ENDBRANCH  78  79
ENDBRANCH  57  71
BRANCH  58  83
ATOM     83  C   UNL A   1      36.442  33.381  30.825  1.00  0.00     0.058 A 
ATOM     84  C   UNL A   1      35.137  33.284  31.326  1.00  0.00     0.135 A 
ATOM     85  C   UNL A   1      36.660  34.212  29.717  1.00  0.00     0.135 A 
ATOM     86  F   UNL A   1      34.881  32.496  32.383  1.00  0.00    -0.206 F 
ATOM     87  C   UNL A   1      34.079  33.973  30.742  1.00  0.00     0.059 A 
ATOM     88  C   UNL A   1      35.622  34.925  29.126  1.00  0.00     0.059 A 
ATOM     89  F   UNL A   1      37.896  34.350  29.212  1.00  0.00    -0.206 F 
ATOM     90  C   UNL A   1      34.332  34.789  29.639  1.00  0.00     0.060 A 
BRANCH  90  91
ATOM     91  S   UNL A   1      32.964  35.716  28.908  1.00  0.00     0.124 S 
ATOM     92  O   UNL A   1      33.672  36.791  28.224  1.00  0.00    -0.237 OA
ATOM     93  O   UNL A   1      32.333  34.718  28.050  1.00  0.00    -0.237 OA
ATOM     94  O   UNL A   1      32.177  36.114  30.073  1.00  0.00    -0.744 OA
ENDBRANCH  90  91
ENDBRANCH  58  83
BRANCH  70  95
ATOM     95  C   UNL A   1      39.881  34.090  36.830  1.00  0.00     0.058 A 
ATOM     96  C   UNL A   1      40.550  35.321  36.772  1.00  0.00     0.135 A 
ATOM     97  C   UNL A   1      39.058  33.834  37.937  1.00  0.00     0.135 A 
ATOM     98  F   UNL A   1      41.356  35.604  35.737  1.00  0.00    -0.206 F 
ATOM     99  C   UNL A   1      40.410  36.268  37.780  1.00  0.00     0.059 A 
ATOM    100  C   UNL A   1      38.892  34.774  38.949  1.00  0.00     0.059 A 
ATOM    101  F   UNL A   1      38.395  32.671  38.033  1.00  0.00    -0.206 F 
ATOM    102  C   UNL A   1      39.576  35.986  38.864  1.00  0.00     0.060 A 
BRANCH 102 103
ATOM    103  S   UNL A   1      39.356  37.242  40.143  1.00  0.00     0.124 S 
ATOM    104  O   UNL A   1      38.651  36.490  41.174  1.00  0.00    -0.237 OA
ATOM    105  O   UNL A   1      40.731  37.616  40.458  1.00  0.00    -0.237 OA
ATOM    106  O   UNL A   1      38.574  38.274  39.469  1.00  0.00    -0.744 OA
ENDBRANCH 102 103
ENDBRANCH  70  95
ENDBRANCH  44  45
ENDBRANCH  36  39
ENDBRANCH  34  35
ENDBRANCH  33  34
ENDBRANCH   1  33
TORSDOF 17
ENDMDL
MODEL 2
REMARK VINA RESULT:     -12.9      6.177     10.353
REMARK SMILES C[C@H](C(=O)Nc1ccc(C(F)(F)F)cc1)n1nc(C(=O)NCCCNC(=O)c2ccc(-c3c4nc(c(-c5c(F)cc(S(=O)(=O)[O-])cc5F)c5ccc([nH]5)c(-c5c(F)cc(S(=O)(=O)[O-])cc5F)c5nc(c(-c6c(F)cc(S(=O)(=O)[O-])cc6F)c6ccc3[nH]6)C=C5)C=C4)cc2)c2ccccc2c1=O
REMARK SMILES IDX 22 1 21 2 19 3 20 4 18 6 16 7 17 8 100 9 99 10 101 11 94 12
REMARK SMILES IDX 98 13 95 14 97 15 96 16 2 17 1 18 3 19 4 20 5 21 6 23 7 24
REMARK SMILES IDX 15 25 8 26 14 27 9 28 10 29 11 30 12 31 13 32 23 33 24 34
REMARK SMILES IDX 25 35 26 36 27 38 28 39 29 40 93 41 30 42 92 43 31 44 32 45
REMARK SMILES IDX 33 46 86 47 34 48 91 49 85 50 87 51 35 52 90 53 84 54 83 55
REMARK SMILES IDX 36 57 70 58 49 59 69 60 50 61 53 62 68 63 88 64 51 65 52 66
REMARK SMILES IDX 67 68 89 69 54 70 37 71 38 72 47 73 39 74 40 75 46 76 48 77
REMARK SMILES IDX 41 78 42 79 43 80 44 81 45 82 71 83 72 84 81 85 73 86 74 87
REMARK SMILES IDX 80 88 82 89 75 90 76 91 77 92 78 93 79 94 55 95 56 96 65 97
REMARK SMILES IDX 57 98 58 99 64 100 66 101 59 102 60 103 61 104 62 105 63 106
REMARK H PARENT 21 5 5 22 25 37 87 56 53 67
REMARK Flexibility Score: inf
ROOT
ATOM      1  C   UNL A   1      36.757  20.802  25.092  1.00  0.00     0.118 C 
ENDROOT
BRANCH   1   2
ATOM      2  N   UNL A   1      36.069  21.075  26.342  1.00  0.00    -0.351 N 
ATOM      3  C   UNL A   1      34.759  21.473  26.508  1.00  0.00     0.272 C 
ATOM      4  O   UNL A   1      34.347  21.820  27.605  1.00  0.00    -0.267 OA
ATOM      5  H   UNL A   1      36.599  20.963  27.164  1.00  0.00     0.163 HD
BRANCH   3   6
ATOM      6  C   UNL A   1      33.817  21.448  25.298  1.00  0.00     0.156 A 
ATOM      7  N   UNL A   1      32.712  22.666  23.650  1.00  0.00    -0.216 N 
ATOM      8  N   UNL A   1      33.477  22.598  24.796  1.00  0.00    -0.163 NA
ATOM      9  C   UNL A   1      32.261  21.536  22.977  1.00  0.00     0.275 A 
ATOM     10  C   UNL A   1      32.609  20.228  23.568  1.00  0.00     0.051 A 
ATOM     11  O   UNL A   1      31.631  21.552  21.926  1.00  0.00    -0.267 OA
ATOM     12  C   UNL A   1      33.355  20.165  24.741  1.00  0.00     0.020 A 
ATOM     13  C   UNL A   1      32.161  19.049  22.954  1.00  0.00     0.014 A 
ATOM     14  C   UNL A   1      33.616  18.918  25.325  1.00  0.00     0.011 A 
ATOM     15  C   UNL A   1      32.428  17.810  23.535  1.00  0.00     0.001 A 
ATOM     16  C   UNL A   1      33.145  17.747  24.727  1.00  0.00     0.001 A 
BRANCH   7  17
ATOM     17  C   UNL A   1      32.228  24.027  23.331  1.00  0.00     0.197 C 
ATOM     18  C   UNL A   1      30.710  24.016  23.126  1.00  0.00     0.044 C 
BRANCH  17  19
ATOM     19  C   UNL A   1      32.892  24.801  22.169  1.00  0.00     0.249 C 
ATOM     20  O   UNL A   1      33.253  24.234  21.130  1.00  0.00    -0.272 OA
ATOM     21  N   UNL A   1      32.980  26.167  22.179  1.00  0.00    -0.324 N 
ATOM     22  H   UNL A   1      33.238  26.556  21.311  1.00  0.00     0.170 HD
BRANCH  21  23
ATOM     23  C   UNL A   1      32.775  27.117  23.185  1.00  0.00     0.041 A 
ATOM     24  C   UNL A   1      31.669  27.963  23.053  1.00  0.00     0.027 A 
ATOM     25  C   UNL A   1      33.644  27.301  24.254  1.00  0.00     0.027 A 
ATOM     26  C   UNL A   1      31.390  28.931  24.024  1.00  0.00     0.015 A 
ATOM     27  C   UNL A   1      33.386  28.290  25.210  1.00  0.00     0.015 A 
ATOM     28  C   UNL A   1      32.242  29.096  25.122  1.00  0.00     0.056 A 
BRANCH  28  29
ATOM     29  C   UNL A   1      31.979  30.155  26.167  1.00  0.00     0.416 C 
ATOM     30  F   UNL A   1      31.121  31.110  25.707  1.00  0.00    -0.166 F 
ATOM     31  F   UNL A   1      31.424  29.680  27.312  1.00  0.00    -0.166 F 
ATOM     32  F   UNL A   1      33.112  30.825  26.519  1.00  0.00    -0.166 F 
ENDBRANCH  28  29
ENDBRANCH  21  23
ENDBRANCH  17  19
ENDBRANCH   7  17
ENDBRANCH   3   6
ENDBRANCH   1   2
BRANCH   1  33
ATOM     33  C   UNL A   1      38.047  21.619  24.978  1.00  0.00     0.042 C 
BRANCH  33  34
ATOM     34  C   UNL A   1      38.960  21.452  26.183  1.00  0.00     0.118 C 
BRANCH  34  35
ATOM     35  N   UNL A   1      39.704  20.200  26.134  1.00  0.00    -0.352 N 
ATOM     36  C   UNL A   1      41.071  20.031  26.120  1.00  0.00     0.251 C 
ATOM     37  H   UNL A   1      39.166  19.376  26.107  1.00  0.00     0.163 HD
ATOM     38  O   UNL A   1      41.553  18.940  25.830  1.00  0.00    -0.269 OA
BRANCH  36  39
ATOM     39  C   UNL A   1      41.947  21.188  26.419  1.00  0.00     0.039 A 
ATOM     40  C   UNL A   1      42.364  22.018  25.377  1.00  0.00     0.014 A 
ATOM     41  C   UNL A   1      42.318  21.472  27.736  1.00  0.00     0.014 A 
ATOM     42  C   UNL A   1      43.070  23.189  25.666  1.00  0.00     0.010 A 
ATOM     43  C   UNL A   1      42.965  22.668  28.029  1.00  0.00     0.010 A 
ATOM     44  C   UNL A   1      43.328  23.548  26.999  1.00  0.00    -0.014 A 
BRANCH  44  45
ATOM     45  C   UNL A   1      43.931  24.858  27.360  1.00  0.00     0.031 A 
ATOM     46  C   UNL A   1      43.055  25.983  27.833  1.00  0.00     0.074 A 
ATOM     47  C   UNL A   1      45.246  25.064  27.145  1.00  0.00     0.049 A 
ATOM     48  N   UNL A   1      43.351  27.245  27.998  1.00  0.00    -0.248 NA
ATOM     49  C   UNL A   1      41.652  25.650  28.128  1.00  0.00     0.031 C 
ATOM     50  C   UNL A   1      46.193  24.062  26.647  1.00  0.00     0.029 A 
ATOM     51  N   UNL A   1      46.010  26.193  27.296  1.00  0.00    -0.354 N 
ATOM     52  C   UNL A   1      42.169  27.865  28.382  1.00  0.00     0.074 A 
ATOM     53  C   UNL A   1      41.144  26.842  28.404  1.00  0.00     0.031 C 
ATOM     54  C   UNL A   1      47.410  24.619  26.545  1.00  0.00     0.029 A 
ATOM     55  C   UNL A   1      47.324  26.024  26.925  1.00  0.00     0.049 A 
ATOM     56  H   UNL A   1      45.652  27.045  27.636  1.00  0.00     0.167 HD
ATOM     57  C   UNL A   1      41.960  29.165  28.700  1.00  0.00     0.037 A 
ATOM     58  C   UNL A   1      48.339  26.908  26.875  1.00  0.00     0.037 A 
ATOM     59  C   UNL A   1      42.992  30.168  28.721  1.00  0.00     0.049 A 
ATOM     60  C   UNL A   1      48.086  28.340  27.252  1.00  0.00     0.074 A 
ATOM     61  C   UNL A   1      42.892  31.499  29.086  1.00  0.00     0.029 A 
ATOM     62  N   UNL A   1      44.316  29.946  28.375  1.00  0.00    -0.354 N 
ATOM     63  N   UNL A   1      46.964  28.904  27.630  1.00  0.00    -0.248 NA
ATOM     64  C   UNL A   1      49.231  29.259  27.182  1.00  0.00     0.031 C 
ATOM     65  C   UNL A   1      44.154  32.087  28.945  1.00  0.00     0.029 A 
ATOM     66  C   UNL A   1      45.043  31.116  28.511  1.00  0.00     0.049 A 
ATOM     67  H   UNL A   1      44.684  29.083  28.076  1.00  0.00     0.167 HD
ATOM     68  C   UNL A   1      47.269  30.241  27.849  1.00  0.00     0.074 A 
ATOM     69  C   UNL A   1      48.683  30.400  27.576  1.00  0.00     0.031 C 
ATOM     70  C   UNL A   1      46.450  31.249  28.235  1.00  0.00     0.037 A 
BRANCH  57  71
ATOM     71  C   UNL A   1      40.561  29.573  29.060  1.00  0.00     0.058 A 
ATOM     72  C   UNL A   1      40.202  29.859  30.385  1.00  0.00     0.135 A 
ATOM     73  C   UNL A   1      39.576  29.707  28.069  1.00  0.00     0.135 A 
ATOM     74  F   UNL A   1      41.104  29.731  31.372  1.00  0.00    -0.206 F 
ATOM     75  C   UNL A   1      38.908  30.238  30.722  1.00  0.00     0.059 A 
ATOM     76  C   UNL A   1      38.279  30.103  28.379  1.00  0.00     0.059 A 
ATOM     77  F   UNL A   1      39.868  29.442  26.785  1.00  0.00    -0.206 F 
ATOM     78  C   UNL A   1      37.950  30.352  29.712  1.00  0.00     0.060 A 
BRANCH  78  79
ATOM     79  S   UNL A   1      36.271  30.841  30.159  1.00  0.00     0.124 S 
ATOM     80  O   UNL A   1      35.955  29.867  31.199  1.00  0.00    -0.237 OA
ATOM     81  O   UNL A   1      36.451  32.216  30.613  1.00  0.00    -0.237 OA
ATOM     82  O   UNL A   1      35.531  30.689  28.910  1.00  0.00    -0.744 OA
ENDBRANCH  78  79
ENDBRANCH  57  71
BRANCH  58  83
ATOM     83  C   UNL A   1      49.690  26.465  26.449  1.00  0.00     0.058 A 
ATOM     84  C   UNL A   1      50.067  26.522  25.101  1.00  0.00     0.135 A 
ATOM     85  C   UNL A   1      50.628  25.986  27.375  1.00  0.00     0.135 A 
ATOM     86  F   UNL A   1      49.199  26.970  24.180  1.00  0.00    -0.206 F 
ATOM     87  C   UNL A   1      51.324  26.104  24.678  1.00  0.00     0.059 A 
ATOM     88  C   UNL A   1      51.898  25.578  26.979  1.00  0.00     0.059 A 
ATOM     89  F   UNL A   1      50.318  25.929  28.680  1.00  0.00    -0.206 F 
ATOM     90  C   UNL A   1      52.232  25.630  25.626  1.00  0.00     0.060 A 
BRANCH  90  91
ATOM     91  S   UNL A   1      53.879  25.127  25.080  1.00  0.00     0.124 S 
ATOM     92  O   UNL A   1      54.693  25.494  26.232  1.00  0.00    -0.237 OA
ATOM     93  O   UNL A   1      53.709  23.696  24.848  1.00  0.00    -0.237 OA
ATOM     94  O   UNL A   1      54.086  25.927  23.876  1.00  0.00    -0.744 OA
ENDBRANCH  90  91
ENDBRANCH  58  83
BRANCH  70  95
ATOM     95  C   UNL A   1      47.064  32.607  28.393  1.00  0.00     0.058 A 
ATOM     96  C   UNL A   1      47.628  33.010  29.612  1.00  0.00     0.135 A 
ATOM     97  C   UNL A   1      47.140  33.488  27.304  1.00  0.00     0.135 A 
ATOM     98  F   UNL A   1      47.569  32.203  30.684  1.00  0.00    -0.206 F 
ATOM     99  C   UNL A   1      48.247  34.248  29.749  1.00  0.00     0.059 A 
ATOM    100  C   UNL A   1      47.767  34.725  27.415  1.00  0.00     0.059 A 
ATOM    101  F   UNL A   1      46.617  33.142  26.117  1.00  0.00    -0.206 F 
ATOM    102  C   UNL A   1      48.313  35.097  28.643  1.00  0.00     0.060 A 
BRANCH 102 103
ATOM    103  S   UNL A   1      49.164  36.681  28.812  1.00  0.00     0.124 S 
ATOM    104  O   UNL A   1      50.193  36.358  29.794  1.00  0.00    -0.237 OA
ATOM    105  O   UNL A   1      49.640  36.931  27.455  1.00  0.00    -0.237 OA
ATOM    106  O   UNL A   1      48.113  37.582  29.274  1.00  0.00    -0.744 OA
ENDBRANCH 102 103
ENDBRANCH  70  95
ENDBRANCH  44  45
ENDBRANCH  36  39
ENDBRANCH  34  35
ENDBRANCH  33  34
ENDBRANCH   1  33
TORSDOF 17
ENDMDL
MODEL 3
REMARK VINA RESULT:     -12.7      6.899     15.066
REMARK SMILES C[C@H](C(=O)Nc1ccc(C(F)(F)F)cc1)n1nc(C(=O)NCCCNC(=O)c2ccc(-c3c4nc(c(-c5c(F)cc(S(=O)(=O)[O-])cc5F)c5ccc([nH]5)c(-c5c(F)cc(S(=O)(=O)[O-])cc5F)c5nc(c(-c6c(F)cc(S(=O)(=O)[O-])cc6F)c6ccc3[nH]6)C=C5)C=C4)cc2)c2ccccc2c1=O
REMARK SMILES IDX 22 1 21 2 19 3 20 4 18 6 16 7 17 8 100 9 99 10 101 11 94 12
REMARK SMILES IDX 98 13 95 14 97 15 96 16 2 17 1 18 3 19 4 20 5 21 6 23 7 24
REMARK SMILES IDX 15 25 8 26 14 27 9 28 10 29 11 30 12 31 13 32 23 33 24 34
REMARK SMILES IDX 25 35 26 36 27 38 28 39 29 40 93 41 30 42 92 43 31 44 32 45
REMARK SMILES IDX 33 46 86 47 34 48 91 49 85 50 87 51 35 52 90 53 84 54 83 55
REMARK SMILES IDX 36 57 70 58 49 59 69 60 50 61 53 62 68 63 88 64 51 65 52 66
REMARK SMILES IDX 67 68 89 69 54 70 37 71 38 72 47 73 39 74 40 75 46 76 48 77
REMARK SMILES IDX 41 78 42 79 43 80 44 81 45 82 71 83 72 84 81 85 73 86 74 87
REMARK SMILES IDX 80 88 82 89 75 90 76 91 77 92 78 93 79 94 55 95 56 96 65 97
REMARK SMILES IDX 57 98 58 99 64 100 66 101 59 102 60 103 61 104 62 105 63 106
REMARK H PARENT 21 5 5 22 25 37 87 56 53 67
REMARK Flexibility Score: inf
ROOT
ATOM      1  C   UNL A   1      46.117  21.917  38.547  1.00  0.00     0.118 C 
ENDROOT
BRANCH   1   2
ATOM      2  N   UNL A   1      46.019  21.127  37.332  1.00  0.00    -0.351 N 
ATOM      3  C   UNL A   1      46.326  19.791  37.173  1.00  0.00     0.272 C 
ATOM      4  O   UNL A   1      46.347  19.284  36.061  1.00  0.00    -0.267 OA
ATOM      5  H   UNL A   1      45.697  21.599  36.531  1.00  0.00     0.163 HD
BRANCH   3   6
ATOM      6  C   UNL A   1      46.615  18.943  38.418  1.00  0.00     0.156 A 
ATOM      7  N   UNL A   1      45.825  17.374  39.945  1.00  0.00    -0.216 N 
ATOM      8  N   UNL A   1      45.629  18.238  38.888  1.00  0.00    -0.163 NA
ATOM      9  C   UNL A   1      47.058  17.211  40.566  1.00  0.00     0.275 A 
ATOM     10  C   UNL A   1      48.171  18.042  40.063  1.00  0.00     0.051 A 
ATOM     11  O   UNL A   1      47.288  16.413  41.468  1.00  0.00    -0.267 OA
ATOM     12  C   UNL A   1      47.961  18.934  39.017  1.00  0.00     0.020 A 
ATOM     13  C   UNL A   1      49.434  17.947  40.665  1.00  0.00     0.014 A 
ATOM     14  C   UNL A   1      49.009  19.766  38.599  1.00  0.00     0.011 A 
ATOM     15  C   UNL A   1      50.476  18.770  40.243  1.00  0.00     0.001 A 
ATOM     16  C   UNL A   1      50.259  19.688  39.219  1.00  0.00     0.001 A 
BRANCH   7  17
ATOM     17  C   UNL A   1      44.574  16.814  40.502  1.00  0.00     0.197 C 
ATOM     18  C   UNL A   1      43.542  16.610  39.388  1.00  0.00     0.044 C 
BRANCH  17  19
ATOM     19  C   UNL A   1      43.900  17.535  41.692  1.00  0.00     0.249 C 
ATOM     20  O   UNL A   1      43.968  18.762  41.835  1.00  0.00    -0.272 OA
ATOM     21  N   UNL A   1      43.080  16.865  42.561  1.00  0.00    -0.324 N 
ATOM     22  H   UNL A   1      42.557  17.456  43.151  1.00  0.00     0.170 HD
BRANCH  21  23
ATOM     23  C   UNL A   1      42.842  15.503  42.771  1.00  0.00     0.041 A 
ATOM     24  C   UNL A   1      43.706  14.827  43.640  1.00  0.00     0.027 A 
ATOM     25  C   UNL A   1      41.848  14.788  42.111  1.00  0.00     0.027 A 
ATOM     26  C   UNL A   1      43.525  13.466  43.909  1.00  0.00     0.015 A 
ATOM     27  C   UNL A   1      41.687  13.419  42.354  1.00  0.00     0.015 A 
ATOM     28  C   UNL A   1      42.504  12.749  43.276  1.00  0.00     0.056 A 
BRANCH  28  29
ATOM     29  C   UNL A   1      42.309  11.273  43.527  1.00  0.00     0.416 C 
ATOM     30  F   UNL A   1      42.729  10.918  44.776  1.00  0.00    -0.166 F 
ATOM     31  F   UNL A   1      41.018  10.859  43.441  1.00  0.00    -0.166 F 
ATOM     32  F   UNL A   1      43.034  10.503  42.668  1.00  0.00    -0.166 F 
ENDBRANCH  28  29
ENDBRANCH  21  23
ENDBRANCH  17  19
ENDBRANCH   7  17
ENDBRANCH   3   6
ENDBRANCH   1   2
BRANCH   1  33
ATOM     33  C   UNL A   1      45.637  23.352  38.316  1.00  0.00     0.042 C 
BRANCH  33  34
ATOM     34  C   UNL A   1      46.744  24.273  37.828  1.00  0.00     0.118 C 
BRANCH  34  35
ATOM     35  N   UNL A   1      47.094  25.280  38.822  1.00  0.00    -0.352 N 
ATOM     36  C   UNL A   1      46.840  26.633  38.779  1.00  0.00     0.251 C 
ATOM     37  H   UNL A   1      47.568  24.954  39.621  1.00  0.00     0.163 HD
ATOM     38  O   UNL A   1      47.404  27.391  39.562  1.00  0.00    -0.269 OA
BRANCH  36  39
ATOM     39  C   UNL A   1      45.911  27.163  37.753  1.00  0.00     0.039 A 
ATOM     40  C   UNL A   1      44.569  26.780  37.782  1.00  0.00     0.014 A 
ATOM     41  C   UNL A   1      46.362  28.072  36.793  1.00  0.00     0.014 A 
ATOM     42  C   UNL A   1      43.659  27.383  36.909  1.00  0.00     0.010 A 
ATOM     43  C   UNL A   1      45.447  28.718  35.968  1.00  0.00     0.010 A 
ATOM     44  C   UNL A   1      44.083  28.395  36.034  1.00  0.00    -0.014 A 
BRANCH  44  45
ATOM     45  C   UNL A   1      43.126  29.174  35.206  1.00  0.00     0.031 A 
ATOM     46  C   UNL A   1      42.326  30.284  35.827  1.00  0.00     0.074 A 
ATOM     47  C   UNL A   1      42.895  28.800  33.932  1.00  0.00     0.049 A 
ATOM     48  N   UNL A   1      41.306  30.939  35.338  1.00  0.00    -0.248 NA
ATOM     49  C   UNL A   1      42.704  30.689  37.191  1.00  0.00     0.031 C 
ATOM     50  C   UNL A   1      43.577  27.709  33.229  1.00  0.00     0.029 A 
ATOM     51  N   UNL A   1      42.003  29.281  33.007  1.00  0.00    -0.354 N 
ATOM     52  C   UNL A   1      40.897  31.807  36.342  1.00  0.00     0.074 A 
ATOM     53  C   UNL A   1      41.767  31.581  37.477  1.00  0.00     0.031 C 
ATOM     54  C   UNL A   1      43.086  27.613  31.983  1.00  0.00     0.029 A 
ATOM     55  C   UNL A   1      42.027  28.600  31.811  1.00  0.00     0.049 A 
ATOM     56  H   UNL A   1      41.400  30.040  33.183  1.00  0.00     0.167 HD
ATOM     57  C   UNL A   1      39.895  32.720  36.314  1.00  0.00     0.037 A 
ATOM     58  C   UNL A   1      41.265  28.742  30.710  1.00  0.00     0.037 A 
ATOM     59  C   UNL A   1      39.063  32.973  35.168  1.00  0.00     0.049 A 
ATOM     60  C   UNL A   1      40.174  29.774  30.697  1.00  0.00     0.074 A 
ATOM     61  C   UNL A   1      38.062  33.916  35.022  1.00  0.00     0.029 A 
ATOM     62  N   UNL A   1      39.146  32.288  33.965  1.00  0.00    -0.354 N 
ATOM     63  N   UNL A   1      39.814  30.599  31.651  1.00  0.00    -0.248 NA
ATOM     64  C   UNL A   1      39.378  29.887  29.467  1.00  0.00     0.031 C 
ATOM     65  C   UNL A   1      37.528  33.791  33.735  1.00  0.00     0.029 A 
ATOM     66  C   UNL A   1      38.211  32.782  33.074  1.00  0.00     0.049 A 
ATOM     67  H   UNL A   1      39.778  31.557  33.774  1.00  0.00     0.167 HD
ATOM     68  C   UNL A   1      38.753  31.332  31.134  1.00  0.00     0.074 A 
ATOM     69  C   UNL A   1      38.539  30.865  29.779  1.00  0.00     0.031 C 
ATOM     70  C   UNL A   1      38.018  32.301  31.730  1.00  0.00     0.037 A 
BRANCH  57  71
ATOM     71  C   UNL A   1      39.652  33.517  37.562  1.00  0.00     0.058 A 
ATOM     72  C   UNL A   1      38.763  33.071  38.552  1.00  0.00     0.135 A 
ATOM     73  C   UNL A   1      40.332  34.724  37.786  1.00  0.00     0.135 A 
ATOM     74  F   UNL A   1      38.075  31.931  38.378  1.00  0.00    -0.206 F 
ATOM     75  C   UNL A   1      38.536  33.808  39.709  1.00  0.00     0.059 A 
ATOM     76  C   UNL A   1      40.136  35.468  38.945  1.00  0.00     0.059 A 
ATOM     77  F   UNL A   1      41.192  35.196  36.868  1.00  0.00    -0.206 F 
ATOM     78  C   UNL A   1      39.223  35.009  39.895  1.00  0.00     0.060 A 
BRANCH  78  79
ATOM     79  S   UNL A   1      38.919  35.960  41.399  1.00  0.00     0.124 S 
ATOM     80  O   UNL A   1      40.102  35.634  42.189  1.00  0.00    -0.237 OA
ATOM     81  O   UNL A   1      38.848  37.329  40.900  1.00  0.00    -0.237 OA
ATOM     82  O   UNL A   1      37.659  35.413  41.895  1.00  0.00    -0.744 OA
ENDBRANCH  78  79
ENDBRANCH  57  71
BRANCH  58  83
ATOM     83  C   UNL A   1      41.506  27.881  29.524  1.00  0.00     0.058 A 
ATOM     84  C   UNL A   1      40.598  26.869  29.182  1.00  0.00     0.135 A 
ATOM     85  C   UNL A   1      42.635  28.055  28.711  1.00  0.00     0.135 A 
ATOM     86  F   UNL A   1      39.506  26.665  29.935  1.00  0.00    -0.206 F 
ATOM     87  C   UNL A   1      40.808  26.045  28.081  1.00  0.00     0.059 A 
ATOM     88  C   UNL A   1      42.858  27.255  27.595  1.00  0.00     0.059 A 
ATOM     89  F   UNL A   1      43.523  29.023  28.990  1.00  0.00    -0.206 F 
ATOM     90  C   UNL A   1      41.944  26.245  27.296  1.00  0.00     0.060 A 
BRANCH  90  91
ATOM     91  S   UNL A   1      42.193  25.201  25.842  1.00  0.00     0.124 S 
ATOM     92  O   UNL A   1      41.227  25.765  24.908  1.00  0.00    -0.237 OA
ATOM     93  O   UNL A   1      43.599  25.435  25.526  1.00  0.00    -0.237 OA
ATOM     94  O   UNL A   1      41.888  23.863  26.341  1.00  0.00    -0.744 OA
ENDBRANCH  90  91
ENDBRANCH  58  83
BRANCH  70  95
ATOM     95  C   UNL A   1      36.922  32.925  30.919  1.00  0.00     0.058 A 
ATOM     96  C   UNL A   1      35.578  32.583  31.132  1.00  0.00     0.135 A 
ATOM     97  C   UNL A   1      37.212  33.913  29.966  1.00  0.00     0.135 A 
ATOM     98  F   UNL A   1      35.256  31.636  32.027  1.00  0.00    -0.206 F 
ATOM     99  C   UNL A   1      34.555  33.199  30.421  1.00  0.00     0.059 A 
ATOM    100  C   UNL A   1      36.201  34.552  29.255  1.00  0.00     0.059 A 
ATOM    101  F   UNL A   1      38.483  34.275  29.733  1.00  0.00    -0.206 F 
ATOM    102  C   UNL A   1      34.876  34.184  29.486  1.00  0.00     0.060 A 
BRANCH 102 103
ATOM    103  S   UNL A   1      33.538  35.017  28.605  1.00  0.00     0.124 S 
ATOM    104  O   UNL A   1      33.046  33.950  27.740  1.00  0.00    -0.237 OA
ATOM    105  O   UNL A   1      32.646  35.417  29.689  1.00  0.00    -0.237 OA
ATOM    106  O   UNL A   1      34.216  36.117  27.925  1.00  0.00    -0.744 OA
ENDBRANCH 102 103
ENDBRANCH  70  95
ENDBRANCH  44  45
ENDBRANCH  36  39
ENDBRANCH  34  35
ENDBRANCH  33  34
ENDBRANCH   1  33
TORSDOF 17
ENDMDL
