MODEL 1
REMARK VINA RESULT:     -11.9      0.000      0.000
REMARK SMILES COc1cccc(NC(=O)/C(C#N)=C\c2ccc(O[C@@H](C)C(=O)NCCCNC(=O)c3ccc(-c4c5nc(c(-c6c(F)cc(S(=O)(=O)[O-])cc6F)c6ccc([nH]6)c(-c6c(F)cc(S(=O)(=O)[O-])cc6F)c6nc(c(-c7c(F)cc(S(=O)(=O)[O-])cc7F)c7ccc4[nH]7)C=C6)C=C5)cc3)cc2)c1
REMARK SMILES IDX 22 1 23 2 24 3 20 5 21 6 19 7 18 8 15 9 16 10 98 11 17 12
REMARK SMILES IDX 97 13 14 14 11 15 9 16 8 17 10 19 7 20 3 21 4 22 99 23 5 24
REMARK SMILES IDX 6 25 2 26 1 27 12 28 13 29 25 30 26 31 27 32 28 33 29 34
REMARK SMILES IDX 30 36 31 37 32 38 96 39 33 40 95 41 34 42 35 43 36 44 89 45
REMARK SMILES IDX 37 46 94 47 88 48 90 49 38 50 93 51 87 52 86 53 39 55 73 56
REMARK SMILES IDX 52 57 72 58 53 59 56 60 71 61 91 62 54 63 55 64 70 66 92 67
REMARK SMILES IDX 57 68 40 69 41 70 50 71 42 72 43 73 49 74 51 75 44 76 45 77
REMARK SMILES IDX 46 78 47 79 48 80 74 81 75 82 84 83 76 84 77 85 83 86 85 87
REMARK SMILES IDX 78 88 79 89 80 90 81 91 82 92 58 93 59 94 68 95 60 96 61 97
REMARK SMILES IDX 67 98 69 99 62 100 63 101 64 102 65 103 66 104
REMARK H PARENT 24 4 8 18 28 35 90 54 56 65
REMARK Flexibility Score: inf
ROOT
ATOM      1  C   UNL A   1      42.131  20.676  26.209  1.00  0.00     0.260 C 
ATOM      2  O   UNL A   1      42.011  19.445  26.286  1.00  0.00    -0.271 OA
ATOM      3  N   UNL A   1      43.188  21.099  25.464  1.00  0.00    -0.353 N 
ATOM      4  H   UNL A   1      43.665  20.365  25.016  1.00  0.00     0.163 HD
ENDROOT
BRANCH   1   5
ATOM      5  C   UNL A   1      41.047  21.590  26.871  1.00  0.00     0.258 C 
ATOM      6  C   UNL A   1      41.582  22.372  28.076  1.00  0.00     0.064 C 
BRANCH   5   7
ATOM      7  O   UNL A   1      39.659  21.246  26.919  1.00  0.00    -0.481 OA
BRANCH   7   8
ATOM      8  C   UNL A   1      38.776  21.886  26.114  1.00  0.00     0.120 A 
ATOM      9  C   UNL A   1      36.672  23.012  24.590  1.00  0.00    -0.024 A 
ATOM     10  C   UNL A   1      37.148  21.725  24.309  1.00  0.00     0.012 A 
ATOM     11  C   UNL A   1      37.374  23.742  25.558  1.00  0.00     0.012 A 
ATOM     12  C   UNL A   1      38.187  21.164  25.075  1.00  0.00     0.047 A 
ATOM     13  C   UNL A   1      38.460  23.220  26.249  1.00  0.00     0.047 A 
BRANCH   9  14
ATOM     14  C   UNL A   1      35.412  23.498  23.973  1.00  0.00     0.033 C 
ATOM     15  C   UNL A   1      34.179  22.994  24.148  1.00  0.00     0.118 C 
BRANCH  15  16
ATOM     16  C   UNL A   1      33.746  22.017  25.291  1.00  0.00     0.266 C 
ATOM     17  N   UNL A   1      34.184  20.700  25.265  1.00  0.00    -0.321 N 
ATOM     18  H   UNL A   1      34.951  20.494  25.849  1.00  0.00     0.170 HD
ATOM     19  O   UNL A   1      33.066  22.383  26.249  1.00  0.00    -0.268 OA
BRANCH  17  20
ATOM     20  C   UNL A   1      33.672  19.603  24.505  1.00  0.00     0.045 A 
ATOM     21  C   UNL A   1      33.924  17.309  23.762  1.00  0.00     0.120 A 
ATOM     22  C   UNL A   1      32.950  17.486  22.784  1.00  0.00     0.046 A 
ATOM     23  C   UNL A   1      34.335  18.373  24.576  1.00  0.00     0.072 A 
ATOM     24  C   UNL A   1      32.223  18.664  22.783  1.00  0.00     0.006 A 
ATOM     25  C   UNL A   1      32.525  19.673  23.708  1.00  0.00     0.026 A 
BRANCH  21  26
ATOM     26  O   UNL A   1      34.483  16.071  23.937  1.00  0.00    -0.497 OA
ATOM     27  C   UNL A   1      34.965  15.964  25.283  1.00  0.00     0.278 C 
ENDBRANCH  21  26
ENDBRANCH  17  20
ENDBRANCH  15  16
BRANCH  15  28
ATOM     28  C   UNL A   1      32.872  23.652  23.737  1.00  0.00     0.105 C 
ATOM     29  N   UNL A   1      31.787  24.197  23.396  1.00  0.00    -0.192 NA
ENDBRANCH  15  28
ENDBRANCH   9  14
ENDBRANCH   7   8
ENDBRANCH   5   7
ENDBRANCH   1   5
BRANCH   3  30
ATOM     30  C   UNL A   1      43.759  22.403  25.191  1.00  0.00     0.118 C 
BRANCH  30  31
ATOM     31  C   UNL A   1      44.557  22.928  26.383  1.00  0.00     0.042 C 
BRANCH  31  32
ATOM     32  C   UNL A   1      44.280  24.374  26.766  1.00  0.00     0.118 C 
BRANCH  32  33
ATOM     33  N   UNL A   1      43.442  25.024  25.764  1.00  0.00    -0.352 N 
ATOM     34  C   UNL A   1      42.355  25.859  25.887  1.00  0.00     0.251 C 
ATOM     35  H   UNL A   1      43.700  24.831  24.834  1.00  0.00     0.163 HD
ATOM     36  O   UNL A   1      41.604  25.963  24.916  1.00  0.00    -0.269 OA
BRANCH  34  37
ATOM     37  C   UNL A   1      42.055  26.622  27.130  1.00  0.00     0.039 A 
ATOM     38  C   UNL A   1      42.707  27.846  27.345  1.00  0.00     0.014 A 
ATOM     39  C   UNL A   1      41.226  26.123  28.134  1.00  0.00     0.014 A 
ATOM     40  C   UNL A   1      42.489  28.575  28.523  1.00  0.00     0.010 A 
ATOM     41  C   UNL A   1      40.936  26.890  29.265  1.00  0.00     0.010 A 
ATOM     42  C   UNL A   1      41.576  28.118  29.485  1.00  0.00    -0.014 A 
BRANCH  42  43
ATOM     43  C   UNL A   1      41.295  28.875  30.738  1.00  0.00     0.031 A 
ATOM     44  C   UNL A   1      40.156  29.865  30.788  1.00  0.00     0.074 A 
ATOM     45  C   UNL A   1      42.109  28.738  31.805  1.00  0.00     0.049 A 
ATOM     46  N   UNL A   1      39.838  30.718  31.730  1.00  0.00    -0.248 NA
ATOM     47  C   UNL A   1      39.278  29.927  29.608  1.00  0.00     0.031 C 
ATOM     48  C   UNL A   1      43.265  27.844  31.880  1.00  0.00     0.029 A 
ATOM     49  N   UNL A   1      42.100  29.367  33.027  1.00  0.00    -0.354 N 
ATOM     50  C   UNL A   1      38.745  31.431  31.246  1.00  0.00     0.074 A 
ATOM     51  C   UNL A   1      38.485  30.946  29.910  1.00  0.00     0.031 C 
ATOM     52  C   UNL A   1      43.846  27.972  33.084  1.00  0.00     0.029 A 
ATOM     53  C   UNL A   1      43.130  28.983  33.854  1.00  0.00     0.049 A 
ATOM     54  H   UNL A   1      41.419  30.029  33.285  1.00  0.00     0.167 HD
ATOM     55  C   UNL A   1      38.010  32.387  31.867  1.00  0.00     0.037 A 
ATOM     56  C   UNL A   1      43.468  29.405  35.089  1.00  0.00     0.037 A 
ATOM     57  C   UNL A   1      38.242  32.834  33.217  1.00  0.00     0.049 A 
ATOM     58  C   UNL A   1      42.627  30.454  35.765  1.00  0.00     0.074 A 
ATOM     59  C   UNL A   1      37.515  33.751  33.957  1.00  0.00     0.029 A 
ATOM     60  N   UNL A   1      39.272  32.390  34.032  1.00  0.00    -0.354 N 
ATOM     61  N   UNL A   1      41.571  31.086  35.307  1.00  0.00    -0.248 NA
ATOM     62  C   UNL A   1      43.016  30.843  37.127  1.00  0.00     0.031 C 
ATOM     63  C   UNL A   1      38.125  33.886  35.208  1.00  0.00     0.029 A 
ATOM     64  C   UNL A   1      39.207  33.024  35.263  1.00  0.00     0.049 A 
ATOM     65  H   UNL A   1      39.949  31.723  33.775  1.00  0.00     0.167 HD
ATOM     66  C   UNL A   1      41.157  31.926  36.335  1.00  0.00     0.074 A 
ATOM     67  C   UNL A   1      42.067  31.715  37.441  1.00  0.00     0.031 C 
ATOM     68  C   UNL A   1      40.116  32.794  36.359  1.00  0.00     0.037 A 
BRANCH  55  69
ATOM     69  C   UNL A   1      36.873  33.008  31.100  1.00  0.00     0.058 A 
ATOM     70  C   UNL A   1      37.101  33.908  30.046  1.00  0.00     0.135 A 
ATOM     71  C   UNL A   1      35.542  32.664  31.389  1.00  0.00     0.135 A 
ATOM     72  F   UNL A   1      38.352  34.282  29.735  1.00  0.00    -0.206 F 
ATOM     73  C   UNL A   1      36.050  34.468  29.326  1.00  0.00     0.059 A 
ATOM     74  C   UNL A   1      34.476  33.192  30.662  1.00  0.00     0.059 A 
ATOM     75  F   UNL A   1      35.266  31.807  32.383  1.00  0.00    -0.206 F 
ATOM     76  C   UNL A   1      34.741  34.104  29.643  1.00  0.00     0.060 A 
BRANCH  76  77
ATOM     77  S   UNL A   1      33.390  34.835  28.693  1.00  0.00     0.124 S 
ATOM     78  O   UNL A   1      32.402  35.083  29.736  1.00  0.00    -0.237 OA
ATOM     79  O   UNL A   1      34.016  36.019  28.117  1.00  0.00    -0.237 OA
ATOM     80  O   UNL A   1      33.042  33.786  27.736  1.00  0.00    -0.744 OA
ENDBRANCH  76  77
ENDBRANCH  55  69
BRANCH  56  81
ATOM     81  C   UNL A   1      44.650  28.819  35.776  1.00  0.00     0.058 A 
ATOM     82  C   UNL A   1      44.515  27.706  36.619  1.00  0.00     0.135 A 
ATOM     83  C   UNL A   1      45.936  29.354  35.599  1.00  0.00     0.135 A 
ATOM     84  F   UNL A   1      43.305  27.164  36.826  1.00  0.00    -0.206 F 
ATOM     85  C   UNL A   1      45.610  27.153  37.277  1.00  0.00     0.059 A 
ATOM     86  C   UNL A   1      47.049  28.803  36.226  1.00  0.00     0.059 A 
ATOM     87  F   UNL A   1      46.120  30.407  34.788  1.00  0.00    -0.206 F 
ATOM     88  C   UNL A   1      46.873  27.709  37.074  1.00  0.00     0.060 A 
BRANCH  88  89
ATOM     89  S   UNL A   1      48.294  26.960  37.900  1.00  0.00     0.124 S 
ATOM     90  O   UNL A   1      49.393  27.764  37.379  1.00  0.00    -0.237 OA
ATOM     91  O   UNL A   1      47.971  27.157  39.309  1.00  0.00    -0.237 OA
ATOM     92  O   UNL A   1      48.252  25.573  37.444  1.00  0.00    -0.744 OA
ENDBRANCH  88  89
ENDBRANCH  56  81
BRANCH  68  93
ATOM     93  C   UNL A   1      39.881  33.558  37.632  1.00  0.00     0.058 A 
ATOM     94  C   UNL A   1      40.553  34.759  37.905  1.00  0.00     0.135 A 
ATOM     95  C   UNL A   1      38.936  33.107  38.566  1.00  0.00     0.135 A 
ATOM     96  F   UNL A   1      41.471  35.229  37.046  1.00  0.00    -0.206 F 
ATOM     97  C   UNL A   1      40.311  35.478  39.070  1.00  0.00     0.059 A 
ATOM     98  C   UNL A   1      38.659  33.822  39.728  1.00  0.00     0.059 A 
ATOM     99  F   UNL A   1      38.258  31.968  38.349  1.00  0.00    -0.206 F 
ATOM    100  C   UNL A   1      39.361  35.001  39.976  1.00  0.00     0.060 A 
BRANCH 100 101
ATOM    101  S   UNL A   1      39.029  35.960  41.469  1.00  0.00     0.124 S 
ATOM    102  O   UNL A   1      39.077  37.326  40.958  1.00  0.00    -0.237 OA
ATOM    103  O   UNL A   1      37.709  35.478  41.865  1.00  0.00    -0.237 OA
ATOM    104  O   UNL A   1      40.120  35.585  42.364  1.00  0.00    -0.744 OA
ENDBRANCH 100 101
ENDBRANCH  68  93
ENDBRANCH  42  43
ENDBRANCH  34  37
ENDBRANCH  32  33
ENDBRANCH  31  32
ENDBRANCH  30  31
ENDBRANCH   3  30
TORSDOF 20
ENDMDL
MODEL 2
REMARK VINA RESULT:     -11.7      0.429      7.948
REMARK SMILES COc1cccc(NC(=O)/C(C#N)=C\c2ccc(O[C@@H](C)C(=O)NCCCNC(=O)c3ccc(-c4c5nc(c(-c6c(F)cc(S(=O)(=O)[O-])cc6F)c6ccc([nH]6)c(-c6c(F)cc(S(=O)(=O)[O-])cc6F)c6nc(c(-c7c(F)cc(S(=O)(=O)[O-])cc7F)c7ccc4[nH]7)C=C6)C=C5)cc3)cc2)c1
REMARK SMILES IDX 22 1 23 2 24 3 20 5 21 6 19 7 18 8 15 9 16 10 98 11 17 12
REMARK SMILES IDX 97 13 14 14 11 15 9 16 8 17 10 19 7 20 3 21 4 22 99 23 5 24
REMARK SMILES IDX 6 25 2 26 1 27 12 28 13 29 25 30 26 31 27 32 28 33 29 34
REMARK SMILES IDX 30 36 31 37 32 38 96 39 33 40 95 41 34 42 35 43 36 44 89 45
REMARK SMILES IDX 37 46 94 47 88 48 90 49 38 50 93 51 87 52 86 53 39 55 73 56
REMARK SMILES IDX 52 57 72 58 53 59 56 60 71 61 91 62 54 63 55 64 70 66 92 67
REMARK SMILES IDX 57 68 40 69 41 70 50 71 42 72 43 73 49 74 51 75 44 76 45 77
REMARK SMILES IDX 46 78 47 79 48 80 74 81 75 82 84 83 76 84 77 85 83 86 85 87
REMARK SMILES IDX 78 88 79 89 80 90 81 91 82 92 58 93 59 94 68 95 60 96 61 97
REMARK SMILES IDX 67 98 69 99 62 100 63 101 64 102 65 103 66 104
REMARK H PARENT 24 4 8 18 28 35 90 54 56 65
REMARK Flexibility Score: inf
ROOT
ATOM      1  C   UNL A   1      42.082  20.550  26.263  1.00  0.00     0.260 C 
ATOM      2  O   UNL A   1      41.907  19.324  26.312  1.00  0.00    -0.271 OA
ATOM      3  N   UNL A   1      43.200  20.937  25.592  1.00  0.00    -0.353 N 
ATOM      4  H   UNL A   1      43.674  20.189  25.163  1.00  0.00     0.163 HD
ENDROOT
BRANCH   1   5
ATOM      5  C   UNL A   1      40.997  21.500  26.870  1.00  0.00     0.258 C 
ATOM      6  C   UNL A   1      41.516  22.311  28.063  1.00  0.00     0.064 C 
BRANCH   5   7
ATOM      7  O   UNL A   1      39.604  21.178  26.895  1.00  0.00    -0.481 OA
BRANCH   7   8
ATOM      8  C   UNL A   1      38.743  21.833  26.077  1.00  0.00     0.120 A 
ATOM      9  C   UNL A   1      36.684  22.992  24.519  1.00  0.00    -0.024 A 
ATOM     10  C   UNL A   1      37.148  21.702  24.240  1.00  0.00     0.012 A 
ATOM     11  C   UNL A   1      37.376  23.709  25.504  1.00  0.00     0.012 A 
ATOM     12  C   UNL A   1      38.166  21.123  25.023  1.00  0.00     0.047 A 
ATOM     13  C   UNL A   1      38.442  23.170  26.213  1.00  0.00     0.047 A 
BRANCH   9  14
ATOM     14  C   UNL A   1      35.442  23.497  23.881  1.00  0.00     0.033 C 
ATOM     15  C   UNL A   1      34.194  23.031  24.057  1.00  0.00     0.118 C 
BRANCH  15  16
ATOM     16  C   UNL A   1      33.727  22.093  25.220  1.00  0.00     0.266 C 
ATOM     17  N   UNL A   1      34.135  20.766  25.232  1.00  0.00    -0.321 N 
ATOM     18  H   UNL A   1      34.890  20.558  25.829  1.00  0.00     0.170 HD
ATOM     19  O   UNL A   1      33.045  22.498  26.161  1.00  0.00    -0.268 OA
BRANCH  17  20
ATOM     20  C   UNL A   1      33.606  19.663  24.493  1.00  0.00     0.045 A 
ATOM     21  C   UNL A   1      33.758  17.319  23.889  1.00  0.00     0.120 A 
ATOM     22  C   UNL A   1      32.868  17.501  22.836  1.00  0.00     0.046 A 
ATOM     23  C   UNL A   1      34.181  18.399  24.675  1.00  0.00     0.072 A 
ATOM     24  C   UNL A   1      32.220  18.719  22.722  1.00  0.00     0.006 A 
ATOM     25  C   UNL A   1      32.524  19.758  23.614  1.00  0.00     0.026 A 
BRANCH  21  26
ATOM     26  O   UNL A   1      34.221  16.061  24.167  1.00  0.00    -0.497 OA
ATOM     27  C   UNL A   1      33.369  15.458  25.150  1.00  0.00     0.278 C 
ENDBRANCH  21  26
ENDBRANCH  17  20
ENDBRANCH  15  16
BRANCH  15  28
ATOM     28  C   UNL A   1      32.908  23.714  23.621  1.00  0.00     0.105 C 
ATOM     29  N   UNL A   1      31.841  24.279  23.259  1.00  0.00    -0.192 NA
ENDBRANCH  15  28
ENDBRANCH   9  14
ENDBRANCH   7   8
ENDBRANCH   5   7
ENDBRANCH   1   5
BRANCH   3  30
ATOM     30  C   UNL A   1      43.842  22.219  25.376  1.00  0.00     0.118 C 
BRANCH  30  31
ATOM     31  C   UNL A   1      44.536  22.721  26.640  1.00  0.00     0.042 C 
BRANCH  31  32
ATOM     32  C   UNL A   1      44.650  24.233  26.763  1.00  0.00     0.118 C 
BRANCH  32  33
ATOM     33  N   UNL A   1      43.908  24.897  25.696  1.00  0.00    -0.352 N 
ATOM     34  C   UNL A   1      42.892  25.825  25.732  1.00  0.00     0.251 C 
ATOM     35  H   UNL A   1      44.184  24.636  24.788  1.00  0.00     0.163 HD
ATOM     36  O   UNL A   1      42.190  25.940  24.727  1.00  0.00    -0.269 OA
BRANCH  34  37
ATOM     37  C   UNL A   1      42.610  26.673  26.923  1.00  0.00     0.039 A 
ATOM     38  C   UNL A   1      41.717  26.196  27.895  1.00  0.00     0.014 A 
ATOM     39  C   UNL A   1      43.122  27.963  27.064  1.00  0.00     0.014 A 
ATOM     40  C   UNL A   1      41.388  26.981  29.011  1.00  0.00     0.010 A 
ATOM     41  C   UNL A   1      42.868  28.708  28.218  1.00  0.00     0.010 A 
ATOM     42  C   UNL A   1      41.984  28.237  29.199  1.00  0.00    -0.014 A 
BRANCH  42  43
ATOM     43  C   UNL A   1      41.682  29.091  30.383  1.00  0.00     0.031 A 
ATOM     44  C   UNL A   1      42.494  28.950  31.648  1.00  0.00     0.074 A 
ATOM     45  C   UNL A   1      40.629  29.933  30.355  1.00  0.00     0.049 A 
ATOM     46  N   UNL A   1      42.303  29.495  32.823  1.00  0.00    -0.248 NA
ATOM     47  C   UNL A   1      43.659  28.051  31.593  1.00  0.00     0.031 C 
ATOM     48  C   UNL A   1      39.740  30.142  29.211  1.00  0.00     0.029 A 
ATOM     49  N   UNL A   1      40.115  30.760  31.325  1.00  0.00    -0.354 N 
ATOM     50  C   UNL A   1      43.301  28.987  33.648  1.00  0.00     0.074 A 
ATOM     51  C   UNL A   1      44.067  28.053  32.854  1.00  0.00     0.031 C 
ATOM     52  C   UNL A   1      38.800  31.043  29.539  1.00  0.00     0.029 A 
ATOM     53  C   UNL A   1      38.994  31.449  30.927  1.00  0.00     0.049 A 
ATOM     54  H   UNL A   1      40.514  30.849  32.221  1.00  0.00     0.167 HD
ATOM     55  C   UNL A   1      43.570  29.288  34.943  1.00  0.00     0.037 A 
ATOM     56  C   UNL A   1      38.202  32.303  31.605  1.00  0.00     0.037 A 
ATOM     57  C   UNL A   1      42.835  30.255  35.717  1.00  0.00     0.049 A 
ATOM     58  C   UNL A   1      38.531  32.636  33.036  1.00  0.00     0.074 A 
ATOM     59  C   UNL A   1      43.069  30.675  37.015  1.00  0.00     0.029 A 
ATOM     60  N   UNL A   1      41.730  30.958  35.262  1.00  0.00    -0.354 N 
ATOM     61  N   UNL A   1      39.505  32.176  33.786  1.00  0.00    -0.248 NA
ATOM     62  C   UNL A   1      37.659  33.606  33.711  1.00  0.00     0.031 C 
ATOM     63  C   UNL A   1      42.085  31.610  37.357  1.00  0.00     0.029 A 
ATOM     64  C   UNL A   1      41.263  31.802  36.258  1.00  0.00     0.049 A 
ATOM     65  H   UNL A   1      41.335  30.872  34.364  1.00  0.00     0.167 HD
ATOM     66  C   UNL A   1      39.378  32.822  35.011  1.00  0.00     0.074 A 
ATOM     67  C   UNL A   1      38.240  33.711  34.899  1.00  0.00     0.031 C 
ATOM     68  C   UNL A   1      40.135  32.689  36.127  1.00  0.00     0.037 A 
BRANCH  55  69
ATOM     69  C   UNL A   1      44.719  28.574  35.605  1.00  0.00     0.058 A 
ATOM     70  C   UNL A   1      46.021  29.099  35.586  1.00  0.00     0.135 A 
ATOM     71  C   UNL A   1      44.508  27.376  36.307  1.00  0.00     0.135 A 
ATOM     72  F   UNL A   1      46.282  30.234  34.920  1.00  0.00    -0.206 F 
ATOM     73  C   UNL A   1      47.079  28.448  36.214  1.00  0.00     0.059 A 
ATOM     74  C   UNL A   1      45.547  26.721  36.966  1.00  0.00     0.059 A 
ATOM     75  F   UNL A   1      43.284  26.830  36.361  1.00  0.00    -0.206 F 
ATOM     76  C   UNL A   1      46.831  27.258  36.900  1.00  0.00     0.060 A 
BRANCH  76  77
ATOM     77  S   UNL A   1      48.215  26.431  37.715  1.00  0.00     0.124 S 
ATOM     78  O   UNL A   1      48.566  25.414  36.730  1.00  0.00    -0.237 OA
ATOM     79  O   UNL A   1      49.176  27.515  37.879  1.00  0.00    -0.237 OA
ATOM     80  O   UNL A   1      47.627  25.927  38.954  1.00  0.00    -0.744 OA
ENDBRANCH  76  77
ENDBRANCH  55  69
BRANCH  56  81
ATOM     81  C   UNL A   1      37.028  32.922  30.932  1.00  0.00     0.058 A 
ATOM     82  C   UNL A   1      35.720  32.567  31.293  1.00  0.00     0.135 A 
ATOM     83  C   UNL A   1      37.190  33.883  29.921  1.00  0.00     0.135 A 
ATOM     84  F   UNL A   1      35.515  31.648  32.248  1.00  0.00    -0.206 F 
ATOM     85  C   UNL A   1      34.613  33.129  30.665  1.00  0.00     0.059 A 
ATOM     86  C   UNL A   1      36.098  34.477  29.296  1.00  0.00     0.059 A 
ATOM     87  F   UNL A   1      38.421  34.270  29.552  1.00  0.00    -0.206 F 
ATOM     88  C   UNL A   1      34.812  34.083  29.667  1.00  0.00     0.060 A 
BRANCH  88  89
ATOM     89  S   UNL A   1      33.369  34.838  28.886  1.00  0.00     0.124 S 
ATOM     90  O   UNL A   1      33.913  36.113  28.435  1.00  0.00    -0.237 OA
ATOM     91  O   UNL A   1      33.046  33.874  27.838  1.00  0.00    -0.237 OA
ATOM     92  O   UNL A   1      32.400  34.913  29.977  1.00  0.00    -0.744 OA
ENDBRANCH  88  89
ENDBRANCH  56  81
BRANCH  68  93
ATOM     93  C   UNL A   1      39.783  33.550  37.308  1.00  0.00     0.058 A 
ATOM     94  C   UNL A   1      38.802  33.163  38.234  1.00  0.00     0.135 A 
ATOM     95  C   UNL A   1      40.471  34.751  37.542  1.00  0.00     0.135 A 
ATOM     96  F   UNL A   1      38.112  32.027  38.052  1.00  0.00    -0.206 F 
ATOM     97  C   UNL A   1      38.500  33.948  39.342  1.00  0.00     0.059 A 
ATOM     98  C   UNL A   1      40.203  35.540  38.657  1.00  0.00     0.059 A 
ATOM     99  F   UNL A   1      41.426  35.161  36.692  1.00  0.00    -0.206 F 
ATOM    100  C   UNL A   1      39.207  35.135  39.545  1.00  0.00     0.060 A 
BRANCH 100 101
ATOM    101  S   UNL A   1      38.831  36.129  41.005  1.00  0.00     0.124 S 
ATOM    102  O   UNL A   1      40.122  36.150  41.685  1.00  0.00    -0.237 OA
ATOM    103  O   UNL A   1      38.402  37.396  40.420  1.00  0.00    -0.237 OA
ATOM    104  O   UNL A   1      37.781  35.367  41.674  1.00  0.00    -0.744 OA
ENDBRANCH 100 101
ENDBRANCH  68  93
ENDBRANCH  42  43
ENDBRANCH  34  37
ENDBRANCH  32  33
ENDBRANCH  31  32
ENDBRANCH  30  31
ENDBRANCH   3  30
TORSDOF 20
ENDMDL
MODEL 3
REMARK VINA RESULT:     -11.0      5.993     13.175
REMARK SMILES COc1cccc(NC(=O)/C(C#N)=C\c2ccc(O[C@@H](C)C(=O)NCCCNC(=O)c3ccc(-c4c5nc(c(-c6c(F)cc(S(=O)(=O)[O-])cc6F)c6ccc([nH]6)c(-c6c(F)cc(S(=O)(=O)[O-])cc6F)c6nc(c(-c7c(F)cc(S(=O)(=O)[O-])cc7F)c7ccc4[nH]7)C=C6)C=C5)cc3)cc2)c1
REMARK SMILES IDX 22 1 23 2 24 3 20 5 21 6 19 7 18 8 15 9 16 10 98 11 17 12
REMARK SMILES IDX 97 13 14 14 11 15 9 16 8 17 10 19 7 20 3 21 4 22 99 23 5 24
REMARK SMILES IDX 6 25 2 26 1 27 12 28 13 29 25 30 26 31 27 32 28 33 29 34
REMARK SMILES IDX 30 36 31 37 32 38 96 39 33 40 95 41 34 42 35 43 36 44 89 45
REMARK SMILES IDX 37 46 94 47 88 48 90 49 38 50 93 51 87 52 86 53 39 55 73 56
REMARK SMILES IDX 52 57 72 58 53 59 56 60 71 61 91 62 54 63 55 64 70 66 92 67
REMARK SMILES IDX 57 68 40 69 41 70 50 71 42 72 43 73 49 74 51 75 44 76 45 77
REMARK SMILES IDX 46 78 47 79 48 80 74 81 75 82 84 83 76 84 77 85 83 86 85 87
REMARK SMILES IDX 78 88 79 89 80 90 81 91 82 92 58 93 59 94 68 95 60 96 61 97
REMARK SMILES IDX 67 98 69 99 62 100 63 101 64 102 65 103 66 104
REMARK H PARENT 24 4 8 18 28 35 90 54 56 65
REMARK Flexibility Score: inf
ROOT
ATOM      1  C   UNL A   1      37.807  30.176  33.192  1.00  0.00     0.260 C 
ATOM      2  O   UNL A   1      37.766  28.942  33.298  1.00  0.00    -0.271 OA
ATOM      3  N   UNL A   1      36.591  30.781  33.114  1.00  0.00    -0.353 N 
ATOM      4  H   UNL A   1      35.839  30.157  33.238  1.00  0.00     0.163 HD
ENDROOT
BRANCH   1   5
ATOM      5  C   UNL A   1      39.192  30.901  33.251  1.00  0.00     0.258 C 
ATOM      6  C   UNL A   1      39.468  31.761  32.012  1.00  0.00     0.064 C 
BRANCH   5   7
ATOM      7  O   UNL A   1      40.343  30.334  33.884  1.00  0.00    -0.481 OA
BRANCH   7   8
ATOM      8  C   UNL A   1      41.311  29.754  33.132  1.00  0.00     0.120 A 
ATOM      9  C   UNL A   1      43.521  28.505  31.877  1.00  0.00    -0.024 A 
ATOM     10  C   UNL A   1      43.606  29.831  32.318  1.00  0.00     0.012 A 
ATOM     11  C   UNL A   1      42.264  27.894  31.969  1.00  0.00     0.012 A 
ATOM     12  C   UNL A   1      42.510  30.447  32.951  1.00  0.00     0.047 A 
ATOM     13  C   UNL A   1      41.156  28.535  32.510  1.00  0.00     0.047 A 
BRANCH   9  14
ATOM     14  C   UNL A   1      44.743  27.773  31.461  1.00  0.00     0.033 C 
ATOM     15  C   UNL A   1      45.771  27.402  32.243  1.00  0.00     0.118 C 
BRANCH  15  16
ATOM     16  C   UNL A   1      45.754  27.353  33.807  1.00  0.00     0.266 C 
ATOM     17  N   UNL A   1      45.530  26.141  34.449  1.00  0.00    -0.321 N 
ATOM     18  H   UNL A   1      46.334  25.683  34.787  1.00  0.00     0.170 HD
ATOM     19  O   UNL A   1      45.980  28.343  34.502  1.00  0.00    -0.268 OA
BRANCH  17  20
ATOM     20  C   UNL A   1      44.290  25.471  34.684  1.00  0.00     0.045 A 
ATOM     21  C   UNL A   1      42.079  25.509  35.679  1.00  0.00     0.120 A 
ATOM     22  C   UNL A   1      41.942  24.136  35.501  1.00  0.00     0.046 A 
ATOM     23  C   UNL A   1      43.267  26.168  35.337  1.00  0.00     0.072 A 
ATOM     24  C   UNL A   1      42.903  23.467  34.763  1.00  0.00     0.006 A 
ATOM     25  C   UNL A   1      44.020  24.162  34.277  1.00  0.00     0.026 A 
BRANCH  21  26
ATOM     26  O   UNL A   1      41.031  26.228  36.188  1.00  0.00    -0.497 OA
ATOM     27  C   UNL A   1      40.558  25.584  37.378  1.00  0.00     0.278 C 
ENDBRANCH  21  26
ENDBRANCH  17  20
ENDBRANCH  15  16
BRANCH  15  28
ATOM     28  C   UNL A   1      46.877  26.427  31.874  1.00  0.00     0.105 C 
ATOM     29  N   UNL A   1      47.794  25.618  31.567  1.00  0.00    -0.192 NA
ENDBRANCH  15  28
ENDBRANCH   9  14
ENDBRANCH   7   8
ENDBRANCH   5   7
ENDBRANCH   1   5
BRANCH   3  30
ATOM     30  C   UNL A   1      36.168  32.149  32.887  1.00  0.00     0.118 C 
BRANCH  30  31
ATOM     31  C   UNL A   1      35.277  32.263  31.652  1.00  0.00     0.042 C 
BRANCH  31  32
ATOM     32  C   UNL A   1      35.959  31.959  30.327  1.00  0.00     0.118 C 
BRANCH  32  33
ATOM     33  N   UNL A   1      35.330  30.817  29.671  1.00  0.00    -0.352 N 
ATOM     34  C   UNL A   1      35.830  29.875  28.800  1.00  0.00     0.251 C 
ATOM     35  H   UNL A   1      34.378  30.698  29.891  1.00  0.00     0.163 HD
ATOM     36  O   UNL A   1      35.023  29.256  28.106  1.00  0.00    -0.269 OA
BRANCH  34  37
ATOM     37  C   UNL A   1      37.284  29.588  28.664  1.00  0.00     0.039 A 
ATOM     38  C   UNL A   1      37.979  29.084  29.774  1.00  0.00     0.014 A 
ATOM     39  C   UNL A   1      38.004  29.891  27.508  1.00  0.00     0.014 A 
ATOM     40  C   UNL A   1      39.360  28.843  29.704  1.00  0.00     0.010 A 
ATOM     41  C   UNL A   1      39.358  29.565  27.407  1.00  0.00     0.010 A 
ATOM     42  C   UNL A   1      40.060  29.054  28.508  1.00  0.00    -0.014 A 
BRANCH  42  43
ATOM     43  C   UNL A   1      41.521  28.785  28.383  1.00  0.00     0.031 A 
ATOM     44  C   UNL A   1      42.011  27.403  28.020  1.00  0.00     0.074 A 
ATOM     45  C   UNL A   1      42.412  29.754  28.676  1.00  0.00     0.049 A 
ATOM     46  N   UNL A   1      43.233  26.934  27.999  1.00  0.00    -0.248 NA
ATOM     47  C   UNL A   1      40.986  26.408  27.664  1.00  0.00     0.031 C 
ATOM     48  C   UNL A   1      42.077  31.122  29.074  1.00  0.00     0.029 A 
ATOM     49  N   UNL A   1      43.786  29.732  28.703  1.00  0.00    -0.354 N 
ATOM     50  C   UNL A   1      43.122  25.590  27.656  1.00  0.00     0.074 A 
ATOM     51  C   UNL A   1      41.710  25.306  27.525  1.00  0.00     0.031 C 
ATOM     52  C   UNL A   1      43.209  31.809  29.294  1.00  0.00     0.029 A 
ATOM     53  C   UNL A   1      44.351  30.924  29.090  1.00  0.00     0.049 A 
ATOM     54  H   UNL A   1      44.315  28.936  28.465  1.00  0.00     0.167 HD
ATOM     55  C   UNL A   1      44.106  24.681  27.445  1.00  0.00     0.037 A 
ATOM     56  C   UNL A   1      45.642  31.265  29.274  1.00  0.00     0.037 A 
ATOM     57  C   UNL A   1      45.512  24.980  27.528  1.00  0.00     0.049 A 
ATOM     58  C   UNL A   1      46.718  30.244  29.017  1.00  0.00     0.074 A 
ATOM     59  C   UNL A   1      46.586  24.144  27.272  1.00  0.00     0.029 A 
ATOM     60  N   UNL A   1      46.041  26.210  27.887  1.00  0.00    -0.354 N 
ATOM     61  N   UNL A   1      46.593  28.990  28.651  1.00  0.00    -0.248 NA
ATOM     62  C   UNL A   1      48.109  30.685  29.191  1.00  0.00     0.031 C 
ATOM     63  C   UNL A   1      47.765  24.860  27.507  1.00  0.00     0.029 A 
ATOM     64  C   UNL A   1      47.425  26.154  27.870  1.00  0.00     0.049 A 
ATOM     65  H   UNL A   1      45.511  27.008  28.118  1.00  0.00     0.167 HD
ATOM     66  C   UNL A   1      47.889  28.501  28.525  1.00  0.00     0.074 A 
ATOM     67  C   UNL A   1      48.782  29.596  28.843  1.00  0.00     0.031 C 
ATOM     68  C   UNL A   1      48.301  27.257  28.178  1.00  0.00     0.037 A 
BRANCH  55  69
ATOM     69  C   UNL A   1      43.699  23.276  27.089  1.00  0.00     0.058 A 
ATOM     70  C   UNL A   1      43.161  22.400  28.046  1.00  0.00     0.135 A 
ATOM     71  C   UNL A   1      43.803  22.813  25.767  1.00  0.00     0.135 A 
ATOM     72  F   UNL A   1      43.050  22.784  29.327  1.00  0.00    -0.206 F 
ATOM     73  C   UNL A   1      42.769  21.107  27.712  1.00  0.00     0.059 A 
ATOM     74  C   UNL A   1      43.391  21.532  25.405  1.00  0.00     0.059 A 
ATOM     75  F   UNL A   1      44.307  23.608  24.811  1.00  0.00    -0.206 F 
ATOM     76  C   UNL A   1      42.889  20.682  26.388  1.00  0.00     0.060 A 
BRANCH  76  77
ATOM     77  S   UNL A   1      42.368  19.004  25.972  1.00  0.00     0.124 S 
ATOM     78  O   UNL A   1      40.937  19.189  25.761  1.00  0.00    -0.237 OA
ATOM     79  O   UNL A   1      43.154  18.718  24.777  1.00  0.00    -0.237 OA
ATOM     80  O   UNL A   1      42.732  18.232  27.157  1.00  0.00    -0.744 OA
ENDBRANCH  76  77
ENDBRANCH  55  69
BRANCH  56  81
ATOM     81  C   UNL A   1      45.991  32.645  29.706  1.00  0.00     0.058 A 
ATOM     82  C   UNL A   1      46.193  33.666  28.765  1.00  0.00     0.135 A 
ATOM     83  C   UNL A   1      46.123  32.973  31.065  1.00  0.00     0.135 A 
ATOM     84  F   UNL A   1      46.085  33.400  27.455  1.00  0.00    -0.206 F 
ATOM     85  C   UNL A   1      46.530  34.959  29.153  1.00  0.00     0.059 A 
ATOM     86  C   UNL A   1      46.436  34.264  31.478  1.00  0.00     0.059 A 
ATOM     87  F   UNL A   1      45.923  32.036  32.005  1.00  0.00    -0.206 F 
ATOM     88  C   UNL A   1      46.650  35.248  30.513  1.00  0.00     0.060 A 
BRANCH  88  89
ATOM     89  S   UNL A   1      47.047  36.938  31.009  1.00  0.00     0.124 S 
ATOM     90  O   UNL A   1      48.502  36.937  30.914  1.00  0.00    -0.237 OA
ATOM     91  O   UNL A   1      46.342  37.729  30.004  1.00  0.00    -0.237 OA
ATOM     92  O   UNL A   1      46.501  37.027  32.360  1.00  0.00    -0.744 OA
ENDBRANCH  88  89
ENDBRANCH  56  81
BRANCH  68  93
ATOM     93  C   UNL A   1      49.782  27.019  28.089  1.00  0.00     0.058 A 
ATOM     94  C   UNL A   1      50.456  27.024  26.858  1.00  0.00     0.135 A 
ATOM     95  C   UNL A   1      50.543  26.833  29.254  1.00  0.00     0.135 A 
ATOM     96  F   UNL A   1      49.772  27.191  25.715  1.00  0.00    -0.206 F 
ATOM     97  C   UNL A   1      51.831  26.833  26.782  1.00  0.00     0.059 A 
ATOM     98  C   UNL A   1      51.924  26.665  29.204  1.00  0.00     0.059 A 
ATOM     99  F   UNL A   1      49.949  26.829  30.458  1.00  0.00    -0.206 F 
ATOM    100  C   UNL A   1      52.557  26.655  27.961  1.00  0.00     0.060 A 
BRANCH 100 101
ATOM    101  S   UNL A   1      54.347  26.443  27.854  1.00  0.00     0.124 S 
ATOM    102  O   UNL A   1      54.456  25.352  26.891  1.00  0.00    -0.237 OA
ATOM    103  O   UNL A   1      54.790  27.751  27.382  1.00  0.00    -0.237 OA
ATOM    104  O   UNL A   1      54.733  26.113  29.223  1.00  0.00    -0.744 OA
ENDBRANCH 100 101
ENDBRANCH  68  93
ENDBRANCH  42  43
ENDBRANCH  34  37
ENDBRANCH  32  33
ENDBRANCH  31  32
ENDBRANCH  30  31
ENDBRANCH   3  30
TORSDOF 20
ENDMDL
