MODEL 1
REMARK VINA RESULT:     -13.6      0.000      0.000
REMARK SMILES CC[C@@](C)(Nc1cc([N+](=O)[O-])ccc1C)C(=O)NCCCNC(=O)c1ccc(-c2c3nc(c(-c4c(F)cc(S(=O)(=O)[O-])cc4F)c4ccc([nH]4)c(-c4c(F)cc(S(=O)(=O)[O-])cc4F)c4nc(c(-c5c(F)cc(S(=O)(=O)[O-])cc5F)c5ccc2[nH]5)C=C4)C=C3)cc1
REMARK SMILES IDX 20 1 19 2 18 3 16 4 17 5 3 7 4 8 2 9 1 10 5 11 6 13 7 14
REMARK SMILES IDX 14 15 8 16 13 17 15 18 12 19 9 20 10 21 11 22 21 23 22 24
REMARK SMILES IDX 23 25 24 27 25 28 26 29 90 30 27 31 89 32 28 33 29 34 30 35
REMARK SMILES IDX 83 36 31 37 88 38 82 39 84 40 32 41 87 42 81 43 80 44 33 46
REMARK SMILES IDX 67 47 46 48 66 49 47 50 50 51 65 52 85 53 48 54 49 55 64 57
REMARK SMILES IDX 86 58 51 59 34 60 35 61 44 62 36 63 37 64 43 65 45 66 38 67
REMARK SMILES IDX 39 68 40 69 41 70 42 71 68 72 69 73 78 74 70 75 71 76 77 77
REMARK SMILES IDX 79 78 72 79 73 80 74 81 75 82 76 83 52 84 53 85 62 86 54 87
REMARK SMILES IDX 55 88 61 89 63 90 56 91 57 92 58 93 59 94 60 95
REMARK H PARENT 18 6 5 12 22 26 84 45 50 56
REMARK Flexibility Score: inf
ROOT
ATOM      1  C   UNL A   1      33.051  29.953  26.913  1.00  0.00     0.042 C 
ENDROOT
BRANCH   1   2
ATOM      2  C   UNL A   1      32.360  29.841  25.533  1.00  0.00     0.117 C 
BRANCH   2   3
ATOM      3  N   UNL A   1      33.162  29.551  24.338  1.00  0.00    -0.354 N 
ATOM      4  C   UNL A   1      33.159  28.669  23.289  1.00  0.00     0.245 C 
ATOM      5  O   UNL A   1      33.943  28.986  22.378  1.00  0.00    -0.272 OA
ATOM      6  H   UNL A   1      33.925  30.170  24.271  1.00  0.00     0.163 HD
BRANCH   4   7
ATOM      7  C   UNL A   1      32.324  27.332  23.150  1.00  0.00     0.113 C 
ATOM      8  C   UNL A   1      33.078  26.191  22.458  1.00  0.00     0.045 C 
BRANCH   7   9
ATOM      9  C   UNL A   1      31.961  26.851  24.611  1.00  0.00     0.035 C 
ATOM     10  C   UNL A   1      31.821  25.343  24.817  1.00  0.00     0.007 C 
ENDBRANCH   7   9
BRANCH   7  11
ATOM     11  N   UNL A   1      30.979  27.444  22.447  1.00  0.00    -0.371 N 
ATOM     12  H   UNL A   1      30.864  26.846  21.673  1.00  0.00     0.161 HD
BRANCH  11  13
ATOM     13  C   UNL A   1      29.890  28.255  22.724  1.00  0.00     0.045 A 
ATOM     14  C   UNL A   1      30.015  29.650  22.699  1.00  0.00     0.111 A 
ATOM     15  C   UNL A   1      28.646  27.789  23.153  1.00  0.00    -0.027 A 
ATOM     16  C   UNL A   1      28.902  30.480  22.970  1.00  0.00     0.271 A 
ATOM     17  C   UNL A   1      27.492  28.590  23.180  1.00  0.00     0.012 A 
ATOM     18  C   UNL A   1      28.534  26.520  23.920  1.00  0.00     0.046 C 
ATOM     19  C   UNL A   1      27.619  29.958  23.097  1.00  0.00     0.086 A 
BRANCH  16  20
ATOM     20  N   UNL A   1      29.106  31.898  23.279  1.00  0.00     0.062 N 
ATOM     21  O   UNL A   1      29.519  32.193  24.410  1.00  0.00    -0.258 OA
ATOM     22  O   UNL A   1      28.796  32.728  22.410  1.00  0.00    -0.258 OA
ENDBRANCH  16  20
ENDBRANCH  11  13
ENDBRANCH   7  11
ENDBRANCH   4   7
ENDBRANCH   2   3
ENDBRANCH   1   2
BRANCH   1  23
ATOM     23  C   UNL A   1      34.561  29.687  27.017  1.00  0.00     0.118 C 
BRANCH  23  24
ATOM     24  N   UNL A   1      35.261  30.897  27.483  1.00  0.00    -0.352 N 
ATOM     25  C   UNL A   1      36.470  31.027  28.131  1.00  0.00     0.251 C 
ATOM     26  H   UNL A   1      34.793  31.744  27.302  1.00  0.00     0.163 HD
ATOM     27  O   UNL A   1      36.859  32.084  28.622  1.00  0.00    -0.269 OA
BRANCH  25  28
ATOM     28  C   UNL A   1      37.350  29.854  28.130  1.00  0.00     0.039 A 
ATOM     29  C   UNL A   1      37.379  29.078  29.295  1.00  0.00     0.014 A 
ATOM     30  C   UNL A   1      38.303  29.718  27.126  1.00  0.00     0.014 A 
ATOM     31  C   UNL A   1      38.491  28.290  29.553  1.00  0.00     0.010 A 
ATOM     32  C   UNL A   1      39.427  28.970  27.404  1.00  0.00     0.010 A 
ATOM     33  C   UNL A   1      39.544  28.316  28.642  1.00  0.00    -0.014 A 
BRANCH  33  34
ATOM     34  C   UNL A   1      40.838  27.716  28.909  1.00  0.00     0.031 A 
ATOM     35  C   UNL A   1      41.047  26.292  28.602  1.00  0.00     0.074 A 
ATOM     36  C   UNL A   1      41.851  28.501  29.335  1.00  0.00     0.049 A 
ATOM     37  N   UNL A   1      42.056  25.599  29.000  1.00  0.00    -0.248 NA
ATOM     38  C   UNL A   1      40.063  25.503  27.870  1.00  0.00     0.031 C 
ATOM     39  C   UNL A   1      43.276  28.190  29.340  1.00  0.00     0.029 A 
ATOM     40  N   UNL A   1      41.748  29.686  30.074  1.00  0.00    -0.354 N 
ATOM     41  C   UNL A   1      42.019  24.388  28.346  1.00  0.00     0.074 A 
ATOM     42  C   UNL A   1      40.699  24.333  27.770  1.00  0.00     0.031 C 
ATOM     43  C   UNL A   1      43.884  28.965  30.252  1.00  0.00     0.029 A 
ATOM     44  C   UNL A   1      42.837  29.671  30.972  1.00  0.00     0.049 A 
ATOM     45  H   UNL A   1      41.059  30.384  29.987  1.00  0.00     0.167 HD
ATOM     46  C   UNL A   1      43.173  23.665  28.263  1.00  0.00     0.037 A 
ATOM     47  C   UNL A   1      42.636  29.586  32.319  1.00  0.00     0.037 A 
ATOM     48  C   UNL A   1      44.162  24.197  29.209  1.00  0.00     0.049 A 
ATOM     49  C   UNL A   1      43.271  28.366  32.952  1.00  0.00     0.074 A 
ATOM     50  C   UNL A   1      45.275  25.011  29.070  1.00  0.00     0.029 A 
ATOM     51  N   UNL A   1      43.877  24.156  30.573  1.00  0.00    -0.354 N 
ATOM     52  N   UNL A   1      43.596  27.285  32.296  1.00  0.00    -0.248 NA
ATOM     53  C   UNL A   1      43.615  28.278  34.367  1.00  0.00     0.031 C 
ATOM     54  C   UNL A   1      45.599  25.533  30.352  1.00  0.00     0.029 A 
ATOM     55  C   UNL A   1      44.709  25.007  31.274  1.00  0.00     0.049 A 
ATOM     56  H   UNL A   1      43.177  23.596  30.981  1.00  0.00     0.167 HD
ATOM     57  C   UNL A   1      44.168  26.373  33.150  1.00  0.00     0.074 A 
ATOM     58  C   UNL A   1      44.175  27.057  34.432  1.00  0.00     0.031 C 
ATOM     59  C   UNL A   1      44.587  25.140  32.724  1.00  0.00     0.037 A 
BRANCH  46  60
ATOM     60  C   UNL A   1      43.511  22.663  27.161  1.00  0.00     0.058 A 
ATOM     61  C   UNL A   1      42.795  21.446  27.058  1.00  0.00     0.135 A 
ATOM     62  C   UNL A   1      44.586  22.766  26.249  1.00  0.00     0.135 A 
ATOM     63  F   UNL A   1      41.718  21.204  27.817  1.00  0.00    -0.206 F 
ATOM     64  C   UNL A   1      43.158  20.407  26.190  1.00  0.00     0.059 A 
ATOM     65  C   UNL A   1      44.971  21.743  25.379  1.00  0.00     0.059 A 
ATOM     66  F   UNL A   1      45.330  23.864  26.133  1.00  0.00    -0.206 F 
ATOM     67  C   UNL A   1      44.265  20.556  25.366  1.00  0.00     0.060 A 
BRANCH  67  68
ATOM     68  S   UNL A   1      44.765  19.207  24.283  1.00  0.00     0.124 S 
ATOM     69  O   UNL A   1      46.199  19.124  24.544  1.00  0.00    -0.237 OA
ATOM     70  O   UNL A   1      43.962  18.096  24.782  1.00  0.00    -0.237 OA
ATOM     71  O   UNL A   1      44.404  19.686  22.952  1.00  0.00    -0.744 OA
ENDBRANCH  67  68
ENDBRANCH  46  60
BRANCH  47  72
ATOM     72  C   UNL A   1      41.390  30.271  32.768  1.00  0.00     0.058 A 
ATOM     73  C   UNL A   1      40.281  29.465  33.098  1.00  0.00     0.135 A 
ATOM     74  C   UNL A   1      41.404  31.578  33.273  1.00  0.00     0.135 A 
ATOM     75  F   UNL A   1      40.210  28.203  32.641  1.00  0.00    -0.206 F 
ATOM     76  C   UNL A   1      39.307  29.880  34.002  1.00  0.00     0.059 A 
ATOM     77  C   UNL A   1      40.429  32.021  34.176  1.00  0.00     0.059 A 
ATOM     78  F   UNL A   1      42.429  32.398  32.997  1.00  0.00    -0.206 F 
ATOM     79  C   UNL A   1      39.414  31.146  34.573  1.00  0.00     0.060 A 
BRANCH  79  80
ATOM     80  S   UNL A   1      38.314  31.553  35.953  1.00  0.00     0.124 S 
ATOM     81  O   UNL A   1      37.127  32.037  35.260  1.00  0.00    -0.237 OA
ATOM     82  O   UNL A   1      38.158  30.264  36.627  1.00  0.00    -0.237 OA
ATOM     83  O   UNL A   1      39.066  32.553  36.700  1.00  0.00    -0.744 OA
ENDBRANCH  79  80
ENDBRANCH  47  72
BRANCH  59  84
ATOM     84  C   UNL A   1      45.002  23.961  33.592  1.00  0.00     0.058 A 
ATOM     85  C   UNL A   1      44.164  22.890  33.949  1.00  0.00     0.135 A 
ATOM     86  C   UNL A   1      46.359  23.809  33.987  1.00  0.00     0.135 A 
ATOM     87  F   UNL A   1      42.888  22.831  33.546  1.00  0.00    -0.206 F 
ATOM     88  C   UNL A   1      44.613  21.794  34.694  1.00  0.00     0.059 A 
ATOM     89  C   UNL A   1      46.841  22.694  34.672  1.00  0.00     0.059 A 
ATOM     90  F   UNL A   1      47.286  24.736  33.703  1.00  0.00    -0.206 F 
ATOM     91  C   UNL A   1      45.953  21.702  35.049  1.00  0.00     0.060 A 
BRANCH  91  92
ATOM     92  S   UNL A   1      46.549  20.254  35.941  1.00  0.00     0.124 S 
ATOM     93  O   UNL A   1      45.823  20.371  37.202  1.00  0.00    -0.237 OA
ATOM     94  O   UNL A   1      46.136  19.152  35.077  1.00  0.00    -0.237 OA
ATOM     95  O   UNL A   1      47.989  20.475  36.018  1.00  0.00    -0.744 OA
ENDBRANCH  91  92
ENDBRANCH  59  84
ENDBRANCH  33  34
ENDBRANCH  25  28
ENDBRANCH  23  24
ENDBRANCH   1  23
TORSDOF 17
ENDMDL
MODEL 2
REMARK VINA RESULT:     -13.3      5.680     12.140
REMARK SMILES CC[C@@](C)(Nc1cc([N+](=O)[O-])ccc1C)C(=O)NCCCNC(=O)c1ccc(-c2c3nc(c(-c4c(F)cc(S(=O)(=O)[O-])cc4F)c4ccc([nH]4)c(-c4c(F)cc(S(=O)(=O)[O-])cc4F)c4nc(c(-c5c(F)cc(S(=O)(=O)[O-])cc5F)c5ccc2[nH]5)C=C4)C=C3)cc1
REMARK SMILES IDX 20 1 19 2 18 3 16 4 17 5 3 7 4 8 2 9 1 10 5 11 6 13 7 14
REMARK SMILES IDX 14 15 8 16 13 17 15 18 12 19 9 20 10 21 11 22 21 23 22 24
REMARK SMILES IDX 23 25 24 27 25 28 26 29 90 30 27 31 89 32 28 33 29 34 30 35
REMARK SMILES IDX 83 36 31 37 88 38 82 39 84 40 32 41 87 42 81 43 80 44 33 46
REMARK SMILES IDX 67 47 46 48 66 49 47 50 50 51 65 52 85 53 48 54 49 55 64 57
REMARK SMILES IDX 86 58 51 59 34 60 35 61 44 62 36 63 37 64 43 65 45 66 38 67
REMARK SMILES IDX 39 68 40 69 41 70 42 71 68 72 69 73 78 74 70 75 71 76 77 77
REMARK SMILES IDX 79 78 72 79 73 80 74 81 75 82 76 83 52 84 53 85 62 86 54 87
REMARK SMILES IDX 55 88 61 89 63 90 56 91 57 92 58 93 59 94 60 95
REMARK H PARENT 18 6 5 12 22 26 84 45 50 56
REMARK Flexibility Score: inf
ROOT
ATOM      1  C   UNL A   1      37.637  22.464  25.104  1.00  0.00     0.042 C 
ENDROOT
BRANCH   1   2
ATOM      2  C   UNL A   1      36.604  21.368  25.458  1.00  0.00     0.117 C 
BRANCH   2   3
ATOM      3  N   UNL A   1      35.630  21.604  26.531  1.00  0.00    -0.354 N 
ATOM      4  C   UNL A   1      34.285  21.834  26.663  1.00  0.00     0.245 C 
ATOM      5  O   UNL A   1      33.882  21.735  27.836  1.00  0.00    -0.272 OA
ATOM      6  H   UNL A   1      36.071  21.597  27.411  1.00  0.00     0.163 HD
BRANCH   4   7
ATOM      7  C   UNL A   1      33.253  22.229  25.531  1.00  0.00     0.113 C 
ATOM      8  C   UNL A   1      32.359  23.422  25.887  1.00  0.00     0.045 C 
BRANCH   7   9
ATOM      9  C   UNL A   1      34.090  22.622  24.249  1.00  0.00     0.035 C 
ATOM     10  C   UNL A   1      34.308  24.115  24.009  1.00  0.00     0.007 C 
ENDBRANCH   7   9
BRANCH   7  11
ATOM     11  N   UNL A   1      32.323  21.127  25.047  1.00  0.00    -0.371 N 
ATOM     12  H   UNL A   1      31.373  21.256  25.274  1.00  0.00     0.161 HD
BRANCH  11  13
ATOM     13  C   UNL A   1      32.601  19.969  24.338  1.00  0.00     0.045 A 
ATOM     14  C   UNL A   1      33.444  18.987  24.876  1.00  0.00     0.111 A 
ATOM     15  C   UNL A   1      32.186  19.727  23.027  1.00  0.00    -0.027 A 
ATOM     16  C   UNL A   1      33.721  17.800  24.159  1.00  0.00     0.271 A 
ATOM     17  C   UNL A   1      32.254  18.460  22.421  1.00  0.00     0.012 A 
ATOM     18  C   UNL A   1      31.960  20.851  22.082  1.00  0.00     0.046 C 
ATOM     19  C   UNL A   1      33.039  17.483  22.987  1.00  0.00     0.086 A 
BRANCH  16  20
ATOM     20  N   UNL A   1      34.847  16.952  24.556  1.00  0.00     0.062 N 
ATOM     21  O   UNL A   1      34.721  15.725  24.433  1.00  0.00    -0.258 OA
ATOM     22  O   UNL A   1      35.842  17.506  25.049  1.00  0.00    -0.258 OA
ENDBRANCH  16  20
ENDBRANCH  11  13
ENDBRANCH   7  11
ENDBRANCH   4   7
ENDBRANCH   2   3
ENDBRANCH   1   2
BRANCH   1  23
ATOM     23  C   UNL A   1      37.958  23.552  26.141  1.00  0.00     0.118 C 
BRANCH  23  24
ATOM     24  N   UNL A   1      39.177  23.199  26.888  1.00  0.00    -0.352 N 
ATOM     25  C   UNL A   1      40.081  24.009  27.542  1.00  0.00     0.251 C 
ATOM     26  H   UNL A   1      39.378  22.237  26.928  1.00  0.00     0.163 HD
ATOM     27  O   UNL A   1      41.155  23.601  27.979  1.00  0.00    -0.269 OA
BRANCH  25  28
ATOM     28  C   UNL A   1      39.667  25.392  27.796  1.00  0.00     0.039 A 
ATOM     29  C   UNL A   1      40.187  26.379  26.951  1.00  0.00     0.014 A 
ATOM     30  C   UNL A   1      39.028  25.703  28.992  1.00  0.00     0.014 A 
ATOM     31  C   UNL A   1      40.247  27.689  27.400  1.00  0.00     0.010 A 
ATOM     32  C   UNL A   1      39.129  26.997  29.456  1.00  0.00     0.010 A 
ATOM     33  C   UNL A   1      39.796  27.966  28.689  1.00  0.00    -0.014 A 
BRANCH  33  34
ATOM     34  C   UNL A   1      40.011  29.242  29.347  1.00  0.00     0.031 A 
ATOM     35  C   UNL A   1      38.997  30.300  29.213  1.00  0.00     0.074 A 
ATOM     36  C   UNL A   1      41.085  29.394  30.151  1.00  0.00     0.049 A 
ATOM     37  N   UNL A   1      39.174  31.529  29.550  1.00  0.00    -0.248 NA
ATOM     38  C   UNL A   1      37.698  30.056  28.597  1.00  0.00     0.031 C 
ATOM     39  C   UNL A   1      41.311  30.435  31.146  1.00  0.00     0.029 A 
ATOM     40  N   UNL A   1      42.315  28.730  30.052  1.00  0.00    -0.354 N 
ATOM     41  C   UNL A   1      37.954  32.164  29.484  1.00  0.00     0.074 A 
ATOM     42  C   UNL A   1      37.111  31.244  28.763  1.00  0.00     0.031 C 
ATOM     43  C   UNL A   1      42.630  30.541  31.369  1.00  0.00     0.029 A 
ATOM     44  C   UNL A   1      43.293  29.687  30.398  1.00  0.00     0.049 A 
ATOM     45  H   UNL A   1      42.466  27.792  29.795  1.00  0.00     0.167 HD
ATOM     46  C   UNL A   1      37.792  33.323  30.186  1.00  0.00     0.037 A 
ATOM     47  C   UNL A   1      44.202  30.127  29.478  1.00  0.00     0.037 A 
ATOM     48  C   UNL A   1      39.102  33.836  30.605  1.00  0.00     0.049 A 
ATOM     49  C   UNL A   1      44.137  31.618  29.226  1.00  0.00     0.074 A 
ATOM     50  C   UNL A   1      39.796  33.818  31.805  1.00  0.00     0.029 A 
ATOM     51  N   UNL A   1      40.025  34.202  29.626  1.00  0.00    -0.354 N 
ATOM     52  N   UNL A   1      43.096  32.361  29.484  1.00  0.00    -0.248 NA
ATOM     53  C   UNL A   1      45.251  32.394  28.690  1.00  0.00     0.031 C 
ATOM     54  C   UNL A   1      41.164  34.085  31.524  1.00  0.00     0.029 A 
ATOM     55  C   UNL A   1      41.294  34.302  30.162  1.00  0.00     0.049 A 
ATOM     56  H   UNL A   1      39.802  34.366  28.682  1.00  0.00     0.167 HD
ATOM     57  C   UNL A   1      43.363  33.670  29.163  1.00  0.00     0.074 A 
ATOM     58  C   UNL A   1      44.737  33.637  28.690  1.00  0.00     0.031 C 
ATOM     59  C   UNL A   1      42.432  34.662  29.319  1.00  0.00     0.037 A 
BRANCH  46  60
ATOM     60  C   UNL A   1      36.464  33.852  30.724  1.00  0.00     0.058 A 
ATOM     61  C   UNL A   1      35.456  34.291  29.832  1.00  0.00     0.135 A 
ATOM     62  C   UNL A   1      36.149  34.070  32.084  1.00  0.00     0.135 A 
ATOM     63  F   UNL A   1      35.573  34.119  28.508  1.00  0.00    -0.206 F 
ATOM     64  C   UNL A   1      34.289  34.947  30.247  1.00  0.00     0.059 A 
ATOM     65  C   UNL A   1      34.997  34.727  32.522  1.00  0.00     0.059 A 
ATOM     66  F   UNL A   1      36.930  33.655  33.080  1.00  0.00    -0.206 F 
ATOM     67  C   UNL A   1      34.077  35.181  31.598  1.00  0.00     0.060 A 
BRANCH  67  68
ATOM     68  S   UNL A   1      32.603  36.065  32.134  1.00  0.00     0.124 S 
ATOM     69  O   UNL A   1      32.219  36.780  30.920  1.00  0.00    -0.237 OA
ATOM     70  O   UNL A   1      31.719  34.976  32.538  1.00  0.00    -0.237 OA
ATOM     71  O   UNL A   1      33.087  36.908  33.223  1.00  0.00    -0.744 OA
ENDBRANCH  67  68
ENDBRANCH  46  60
BRANCH  47  72
ATOM     72  C   UNL A   1      44.590  29.076  28.494  1.00  0.00     0.058 A 
ATOM     73  C   UNL A   1      45.516  28.097  28.912  1.00  0.00     0.135 A 
ATOM     74  C   UNL A   1      43.793  28.769  27.383  1.00  0.00     0.135 A 
ATOM     75  F   UNL A   1      46.310  28.335  29.970  1.00  0.00    -0.206 F 
ATOM     76  C   UNL A   1      45.550  26.823  28.351  1.00  0.00     0.059 A 
ATOM     77  C   UNL A   1      43.818  27.497  26.798  1.00  0.00     0.059 A 
ATOM     78  F   UNL A   1      42.892  29.655  26.935  1.00  0.00    -0.206 F 
ATOM     79  C   UNL A   1      44.663  26.516  27.323  1.00  0.00     0.060 A 
BRANCH  79  80
ATOM     80  S   UNL A   1      44.520  24.785  26.810  1.00  0.00     0.124 S 
ATOM     81  O   UNL A   1      43.362  24.827  25.925  1.00  0.00    -0.237 OA
ATOM     82  O   UNL A   1      45.800  24.542  26.146  1.00  0.00    -0.237 OA
ATOM     83  O   UNL A   1      44.333  24.075  28.069  1.00  0.00    -0.744 OA
ENDBRANCH  79  80
ENDBRANCH  47  72
BRANCH  59  84
ATOM     84  C   UNL A   1      42.507  36.085  28.781  1.00  0.00     0.058 A 
ATOM     85  C   UNL A   1      43.270  37.120  29.349  1.00  0.00     0.135 A 
ATOM     86  C   UNL A   1      41.892  36.412  27.542  1.00  0.00     0.135 A 
ATOM     87  F   UNL A   1      44.004  36.929  30.452  1.00  0.00    -0.206 F 
ATOM     88  C   UNL A   1      43.360  38.394  28.778  1.00  0.00     0.059 A 
ATOM     89  C   UNL A   1      42.023  37.654  26.923  1.00  0.00     0.059 A 
ATOM     90  F   UNL A   1      41.148  35.525  26.867  1.00  0.00    -0.206 F 
ATOM     91  C   UNL A   1      42.737  38.652  27.563  1.00  0.00     0.060 A 
BRANCH  91  92
ATOM     92  S   UNL A   1      42.916  40.269  26.787  1.00  0.00     0.124 S 
ATOM     93  O   UNL A   1      43.190  41.116  27.942  1.00  0.00    -0.237 OA
ATOM     94  O   UNL A   1      44.037  40.065  25.875  1.00  0.00    -0.237 OA
ATOM     95  O   UNL A   1      41.624  40.478  26.142  1.00  0.00    -0.744 OA
ENDBRANCH  91  92
ENDBRANCH  59  84
ENDBRANCH  33  34
ENDBRANCH  25  28
ENDBRANCH  23  24
ENDBRANCH   1  23
TORSDOF 17
ENDMDL
MODEL 3
REMARK VINA RESULT:     -13.3      5.206     11.519
REMARK SMILES CC[C@@](C)(Nc1cc([N+](=O)[O-])ccc1C)C(=O)NCCCNC(=O)c1ccc(-c2c3nc(c(-c4c(F)cc(S(=O)(=O)[O-])cc4F)c4ccc([nH]4)c(-c4c(F)cc(S(=O)(=O)[O-])cc4F)c4nc(c(-c5c(F)cc(S(=O)(=O)[O-])cc5F)c5ccc2[nH]5)C=C4)C=C3)cc1
REMARK SMILES IDX 20 1 19 2 18 3 16 4 17 5 3 7 4 8 2 9 1 10 5 11 6 13 7 14
REMARK SMILES IDX 14 15 8 16 13 17 15 18 12 19 9 20 10 21 11 22 21 23 22 24
REMARK SMILES IDX 23 25 24 27 25 28 26 29 90 30 27 31 89 32 28 33 29 34 30 35
REMARK SMILES IDX 83 36 31 37 88 38 82 39 84 40 32 41 87 42 81 43 80 44 33 46
REMARK SMILES IDX 67 47 46 48 66 49 47 50 50 51 65 52 85 53 48 54 49 55 64 57
REMARK SMILES IDX 86 58 51 59 34 60 35 61 44 62 36 63 37 64 43 65 45 66 38 67
REMARK SMILES IDX 39 68 40 69 41 70 42 71 68 72 69 73 78 74 70 75 71 76 77 77
REMARK SMILES IDX 79 78 72 79 73 80 74 81 75 82 76 83 52 84 53 85 62 86 54 87
REMARK SMILES IDX 55 88 61 89 63 90 56 91 57 92 58 93 59 94 60 95
REMARK H PARENT 18 6 5 12 22 26 84 45 50 56
REMARK Flexibility Score: inf
ROOT
ATOM      1  C   UNL A   1      37.715  22.547  24.948  1.00  0.00     0.042 C 
ENDROOT
BRANCH   1   2
ATOM      2  C   UNL A   1      36.657  22.898  23.875  1.00  0.00     0.117 C 
BRANCH   2   3
ATOM      3  N   UNL A   1      35.315  22.307  23.956  1.00  0.00    -0.354 N 
ATOM      4  C   UNL A   1      34.113  22.570  24.560  1.00  0.00     0.245 C 
ATOM      5  O   UNL A   1      33.179  21.877  24.119  1.00  0.00    -0.272 OA
ATOM      6  H   UNL A   1      35.264  21.482  23.422  1.00  0.00     0.163 HD
BRANCH   4   7
ATOM      7  C   UNL A   1      33.820  23.592  25.731  1.00  0.00     0.113 C 
ATOM      8  C   UNL A   1      32.330  23.854  25.977  1.00  0.00     0.045 C 
BRANCH   7   9
ATOM      9  C   UNL A   1      34.424  22.975  27.055  1.00  0.00     0.035 C 
ATOM     10  C   UNL A   1      33.836  21.643  27.516  1.00  0.00     0.007 C 
ENDBRANCH   7   9
BRANCH   7  11
ATOM     11  N   UNL A   1      34.481  24.959  25.619  1.00  0.00    -0.371 N 
ATOM     12  H   UNL A   1      35.446  24.971  25.817  1.00  0.00     0.161 HD
BRANCH  11  13
ATOM     13  C   UNL A   1      33.939  26.189  25.283  1.00  0.00     0.045 A 
ATOM     14  C   UNL A   1      33.411  27.030  26.272  1.00  0.00     0.111 A 
ATOM     15  C   UNL A   1      33.763  26.644  23.976  1.00  0.00    -0.027 A 
ATOM     16  C   UNL A   1      32.866  28.291  25.933  1.00  0.00     0.271 A 
ATOM     17  C   UNL A   1      33.456  27.979  23.661  1.00  0.00     0.012 A 
ATOM     18  C   UNL A   1      33.559  25.685  22.859  1.00  0.00     0.046 C 
ATOM     19  C   UNL A   1      32.992  28.816  24.650  1.00  0.00     0.086 A 
BRANCH  16  20
ATOM     20  N   UNL A   1      32.021  29.004  26.893  1.00  0.00     0.062 N 
ATOM     21  O   UNL A   1      31.358  28.331  27.695  1.00  0.00    -0.258 OA
ATOM     22  O   UNL A   1      31.969  30.242  26.810  1.00  0.00    -0.258 OA
ENDBRANCH  16  20
ENDBRANCH  11  13
ENDBRANCH   7  11
ENDBRANCH   4   7
ENDBRANCH   2   3
ENDBRANCH   1   2
BRANCH   1  23
ATOM     23  C   UNL A   1      37.911  23.491  26.144  1.00  0.00     0.118 C 
BRANCH  23  24
ATOM     24  N   UNL A   1      39.160  23.165  26.852  1.00  0.00    -0.352 N 
ATOM     25  C   UNL A   1      40.066  23.994  27.477  1.00  0.00     0.251 C 
ATOM     26  H   UNL A   1      39.382  22.207  26.885  1.00  0.00     0.163 HD
ATOM     27  O   UNL A   1      41.162  23.609  27.880  1.00  0.00    -0.269 OA
BRANCH  25  28
ATOM     28  C   UNL A   1      39.631  25.368  27.746  1.00  0.00     0.039 A 
ATOM     29  C   UNL A   1      40.142  26.372  26.915  1.00  0.00     0.014 A 
ATOM     30  C   UNL A   1      38.981  25.656  28.941  1.00  0.00     0.014 A 
ATOM     31  C   UNL A   1      40.181  27.678  27.380  1.00  0.00     0.010 A 
ATOM     32  C   UNL A   1      39.061  26.946  29.421  1.00  0.00     0.010 A 
ATOM     33  C   UNL A   1      39.719  27.933  28.669  1.00  0.00    -0.014 A 
BRANCH  33  34
ATOM     34  C   UNL A   1      39.911  29.203  29.344  1.00  0.00     0.031 A 
ATOM     35  C   UNL A   1      38.912  30.270  29.168  1.00  0.00     0.074 A 
ATOM     36  C   UNL A   1      40.947  29.344  30.198  1.00  0.00     0.049 A 
ATOM     37  N   UNL A   1      39.082  31.496  29.519  1.00  0.00    -0.248 NA
ATOM     38  C   UNL A   1      37.642  30.038  28.490  1.00  0.00     0.031 C 
ATOM     39  C   UNL A   1      41.134  30.378  31.209  1.00  0.00     0.029 A 
ATOM     40  N   UNL A   1      42.176  28.671  30.153  1.00  0.00    -0.354 N 
ATOM     41  C   UNL A   1      37.870  32.140  29.400  1.00  0.00     0.074 A 
ATOM     42  C   UNL A   1      37.056  31.230  28.635  1.00  0.00     0.031 C 
ATOM     43  C   UNL A   1      42.442  30.473  31.494  1.00  0.00     0.029 A 
ATOM     44  C   UNL A   1      43.143  29.619  30.550  1.00  0.00     0.049 A 
ATOM     45  H   UNL A   1      42.332  27.733  29.899  1.00  0.00     0.167 HD
ATOM     46  C   UNL A   1      37.684  33.297  30.100  1.00  0.00     0.037 A 
ATOM     47  C   UNL A   1      44.097  30.057  29.677  1.00  0.00     0.037 A 
ATOM     48  C   UNL A   1      38.977  33.798  30.583  1.00  0.00     0.049 A 
ATOM     49  C   UNL A   1      44.055  31.549  29.430  1.00  0.00     0.074 A 
ATOM     50  C   UNL A   1      39.613  33.769  31.814  1.00  0.00     0.029 A 
ATOM     51  N   UNL A   1      39.947  34.162  29.650  1.00  0.00    -0.354 N 
ATOM     52  N   UNL A   1      43.008  32.299  29.643  1.00  0.00    -0.248 NA
ATOM     53  C   UNL A   1      45.198  32.320  28.951  1.00  0.00     0.031 C 
ATOM     54  C   UNL A   1      40.995  34.027  31.598  1.00  0.00     0.029 A 
ATOM     55  C   UNL A   1      41.191  34.249  30.246  1.00  0.00     0.049 A 
ATOM     56  H   UNL A   1      39.770  34.332  28.697  1.00  0.00     0.167 HD
ATOM     57  C   UNL A   1      43.300  33.607  29.342  1.00  0.00     0.074 A 
ATOM     58  C   UNL A   1      44.694  33.567  28.934  1.00  0.00     0.031 C 
ATOM     59  C   UNL A   1      42.369  34.606  29.459  1.00  0.00     0.037 A 
BRANCH  46  60
ATOM     60  C   UNL A   1      36.337  33.833  30.577  1.00  0.00     0.058 A 
ATOM     61  C   UNL A   1      35.378  34.292  29.642  1.00  0.00     0.135 A 
ATOM     62  C   UNL A   1      35.956  34.038  31.923  1.00  0.00     0.135 A 
ATOM     63  F   UNL A   1      35.559  34.135  28.323  1.00  0.00    -0.206 F 
ATOM     64  C   UNL A   1      34.198  34.955  30.006  1.00  0.00     0.059 A 
ATOM     65  C   UNL A   1      34.789  34.701  32.311  1.00  0.00     0.059 A 
ATOM     66  F   UNL A   1      36.682  33.603  32.952  1.00  0.00    -0.206 F 
ATOM     67  C   UNL A   1      33.921  35.176  31.348  1.00  0.00     0.060 A 
BRANCH  67  68
ATOM     68  S   UNL A   1      32.431  36.068  31.821  1.00  0.00     0.124 S 
ATOM     69  O   UNL A   1      31.887  36.460  30.524  1.00  0.00    -0.237 OA
ATOM     70  O   UNL A   1      31.678  35.050  32.546  1.00  0.00    -0.237 OA
ATOM     71  O   UNL A   1      32.935  37.167  32.639  1.00  0.00    -0.744 OA
ENDBRANCH  67  68
ENDBRANCH  46  60
BRANCH  47  72
ATOM     72  C   UNL A   1      44.524  29.008  28.706  1.00  0.00     0.058 A 
ATOM     73  C   UNL A   1      43.957  29.040  27.415  1.00  0.00     0.135 A 
ATOM     74  C   UNL A   1      45.723  28.299  28.861  1.00  0.00     0.135 A 
ATOM     75  F   UNL A   1      42.807  29.703  27.205  1.00  0.00    -0.206 F 
ATOM     76  C   UNL A   1      44.617  28.521  26.304  1.00  0.00     0.059 A 
ATOM     77  C   UNL A   1      46.398  27.760  27.759  1.00  0.00     0.059 A 
ATOM     78  F   UNL A   1      46.315  28.229  30.062  1.00  0.00    -0.206 F 
ATOM     79  C   UNL A   1      45.862  27.923  26.479  1.00  0.00     0.060 A 
BRANCH  79  80
ATOM     80  S   UNL A   1      46.828  27.521  25.000  1.00  0.00     0.124 S 
ATOM     81  O   UNL A   1      46.590  28.688  24.159  1.00  0.00    -0.237 OA
ATOM     82  O   UNL A   1      48.186  27.404  25.530  1.00  0.00    -0.237 OA
ATOM     83  O   UNL A   1      46.235  26.273  24.539  1.00  0.00    -0.744 OA
ENDBRANCH  79  80
ENDBRANCH  47  72
BRANCH  59  84
ATOM     84  C   UNL A   1      42.480  36.030  28.933  1.00  0.00     0.058 A 
ATOM     85  C   UNL A   1      43.224  37.057  29.541  1.00  0.00     0.135 A 
ATOM     86  C   UNL A   1      41.924  36.369  27.669  1.00  0.00     0.135 A 
ATOM     87  F   UNL A   1      43.905  36.854  30.676  1.00  0.00    -0.206 F 
ATOM     88  C   UNL A   1      43.350  38.333  28.981  1.00  0.00     0.059 A 
ATOM     89  C   UNL A   1      42.094  37.613  27.063  1.00  0.00     0.059 A 
ATOM     90  F   UNL A   1      41.205  35.491  26.955  1.00  0.00    -0.206 F 
ATOM     91  C   UNL A   1      42.785  38.602  27.740  1.00  0.00     0.060 A 
BRANCH  91  92
ATOM     92  S   UNL A   1      43.011  40.221  26.983  1.00  0.00     0.124 S 
ATOM     93  O   UNL A   1      44.166  39.981  26.124  1.00  0.00    -0.237 OA
ATOM     94  O   UNL A   1      41.743  40.431  26.290  1.00  0.00    -0.237 OA
ATOM     95  O   UNL A   1      43.244  41.098  28.125  1.00  0.00    -0.744 OA
ENDBRANCH  91  92
ENDBRANCH  59  84
ENDBRANCH  33  34
ENDBRANCH  25  28
ENDBRANCH  23  24
ENDBRANCH   1  23
TORSDOF 17
ENDMDL
