MODEL 1
REMARK VINA RESULT:     -12.5      0.000      0.000
REMARK SMILES CC(=O)N1CC[NH+]([C@@H](C(=O)NCCCNC(=O)c2ccc(-c3c4nc(c(-c5c(F)cc(S(=O)(=O)[O-])cc5F)c5ccc([nH]5)c(-c5c(F)cc(S(=O)(=O)[O-])cc5F)c5nc(c(-c6c(F)cc(S(=O)(=O)[O-])cc6F)c6ccc3[nH]6)C=C5)C=C4)cc2)c2c[nH]c3ccc(Cl)cc23)CC1
REMARK SMILES IDX 14 1 13 2 12 3 11 4 9 5 10 6 8 8 7 9 1 10 2 11 3 12 4 13
REMARK SMILES IDX 5 14 95 15 6 16 94 17 84 19 85 20 93 21 86 22 87 23 92 24
REMARK SMILES IDX 88 26 90 27 89 28 91 29 15 30 16 31 17 33 18 34 19 35 83 36
REMARK SMILES IDX 20 37 82 38 21 39 22 40 23 41 76 42 24 43 81 44 75 45 77 46
REMARK SMILES IDX 25 47 80 48 74 49 73 50 26 52 60 53 39 54 59 55 40 56 43 57
REMARK SMILES IDX 58 58 78 59 41 60 42 61 57 63 79 64 44 65 27 66 28 67 37 68
REMARK SMILES IDX 29 69 30 70 36 71 38 72 31 73 32 74 33 75 34 76 35 77 61 78
REMARK SMILES IDX 62 79 71 80 63 81 64 82 70 83 72 84 65 85 66 86 67 87 68 88
REMARK SMILES IDX 69 89 45 90 46 91 55 92 47 93 48 94 54 95 56 96 49 97 50 98
REMARK SMILES IDX 51 99 52 100 53 101
REMARK H PARENT 11 7 7 18 86 25 15 32 77 51 43 62
REMARK Flexibility Score: inf
ROOT
ATOM      1  C   UNL A   1      33.356  28.357  27.246  1.00  0.00     0.118 C 
ENDROOT
BRANCH   1   2
ATOM      2  C   UNL A   1      31.968  27.702  27.398  1.00  0.00     0.042 C 
BRANCH   2   3
ATOM      3  C   UNL A   1      31.544  26.638  26.352  1.00  0.00     0.118 C 
BRANCH   3   4
ATOM      4  N   UNL A   1      31.105  25.357  26.883  1.00  0.00    -0.351 N 
ATOM      5  C   UNL A   1      31.488  24.047  26.737  1.00  0.00     0.283 C 
ATOM      6  O   UNL A   1      30.919  23.297  27.534  1.00  0.00    -0.268 OA
ATOM      7  H   UNL A   1      30.344  25.452  27.500  1.00  0.00     0.163 HD
BRANCH   5   8
ATOM      8  C   UNL A   1      32.554  23.565  25.713  1.00  0.00     0.307 C 
BRANCH   8   9
ATOM      9  N   UNL A   1      32.048  22.992  24.411  1.00  0.00    -0.318 N 
ATOM     10  C   UNL A   1      32.741  25.805  20.053  1.00  0.00     0.114 C 
ATOM     11  C   UNL A   1      31.822  25.924  21.235  1.00  0.00     0.219 C 
ATOM     12  O   UNL A   1      31.003  26.839  21.308  1.00  0.00    -0.275 OA
ATOM     13  N   UNL A   1      31.929  24.935  22.199  1.00  0.00    -0.332 N 
ATOM     14  C   UNL A   1      30.949  24.944  23.275  1.00  0.00     0.181 C 
ATOM     15  C   UNL A   1      33.148  24.157  22.430  1.00  0.00     0.181 C 
ATOM     16  C   UNL A   1      30.796  23.540  23.844  1.00  0.00     0.285 C 
ATOM     17  C   UNL A   1      32.986  22.884  23.298  1.00  0.00     0.285 C 
ATOM     18  H   UNL A   1      31.867  22.066  24.797  1.00  0.00     0.349 HD
ENDBRANCH   8   9
BRANCH   8  19
ATOM     19  C   UNL A   1      33.612  22.550  26.227  1.00  0.00     0.044 A 
ATOM     20  C   UNL A   1      34.863  22.957  26.683  1.00  0.00     0.094 A 
ATOM     21  C   UNL A   1      33.758  21.127  25.963  1.00  0.00     0.011 A 
ATOM     22  N   UNL A   1      35.773  22.037  26.228  1.00  0.00    -0.361 N 
ATOM     23  C   UNL A   1      35.123  20.947  25.700  1.00  0.00     0.046 A 
ATOM     24  C   UNL A   1      32.905  20.036  25.679  1.00  0.00     0.031 A 
ATOM     25  H   UNL A   1      36.751  22.141  26.272  1.00  0.00     0.166 HD
ATOM     26  C   UNL A   1      35.620  19.876  24.943  1.00  0.00     0.028 A 
ATOM     27  C   UNL A   1      33.413  18.901  25.036  1.00  0.00     0.041 A 
ATOM     28  C   UNL A   1      34.730  18.857  24.600  1.00  0.00     0.022 A 
ATOM     29  Cl  UNL A   1      32.381  17.552  24.743  1.00  0.00    -0.084 Cl
ENDBRANCH   8  19
ENDBRANCH   5   8
ENDBRANCH   3   4
ENDBRANCH   2   3
ENDBRANCH   1   2
BRANCH   1  30
ATOM     30  N   UNL A   1      33.347  29.762  27.606  1.00  0.00    -0.352 N 
ATOM     31  C   UNL A   1      34.328  30.565  28.140  1.00  0.00     0.251 C 
ATOM     32  H   UNL A   1      32.491  30.220  27.441  1.00  0.00     0.163 HD
ATOM     33  O   UNL A   1      34.016  31.699  28.497  1.00  0.00    -0.269 OA
BRANCH  31  34
ATOM     34  C   UNL A   1      35.738  30.118  28.315  1.00  0.00     0.039 A 
ATOM     35  C   UNL A   1      36.164  29.780  29.608  1.00  0.00     0.014 A 
ATOM     36  C   UNL A   1      36.679  30.149  27.282  1.00  0.00     0.014 A 
ATOM     37  C   UNL A   1      37.504  29.448  29.860  1.00  0.00     0.010 A 
ATOM     38  C   UNL A   1      38.017  29.793  27.533  1.00  0.00     0.010 A 
ATOM     39  C   UNL A   1      38.447  29.438  28.823  1.00  0.00    -0.014 A 
BRANCH  39  40
ATOM     40  C   UNL A   1      39.876  29.080  29.086  1.00  0.00     0.031 A 
ATOM     41  C   UNL A   1      40.832  30.098  29.660  1.00  0.00     0.074 A 
ATOM     42  C   UNL A   1      40.336  27.847  28.792  1.00  0.00     0.049 A 
ATOM     43  N   UNL A   1      42.115  29.985  29.904  1.00  0.00    -0.248 NA
ATOM     44  C   UNL A   1      40.272  31.415  29.998  1.00  0.00     0.031 C 
ATOM     45  C   UNL A   1      39.536  26.759  28.230  1.00  0.00     0.029 A 
ATOM     46  N   UNL A   1      41.594  27.302  28.917  1.00  0.00    -0.354 N 
ATOM     47  C   UNL A   1      42.520  31.215  30.410  1.00  0.00     0.074 A 
ATOM     48  C   UNL A   1      41.350  32.071  30.409  1.00  0.00     0.031 C 
ATOM     49  C   UNL A   1      40.318  25.680  28.059  1.00  0.00     0.029 A 
ATOM     50  C   UNL A   1      41.684  26.004  28.466  1.00  0.00     0.049 A 
ATOM     51  H   UNL A   1      42.358  27.795  29.293  1.00  0.00     0.167 HD
ATOM     52  C   UNL A   1      43.745  31.600  30.847  1.00  0.00     0.037 A 
ATOM     53  C   UNL A   1      42.742  25.173  28.372  1.00  0.00     0.037 A 
ATOM     54  C   UNL A   1      44.911  30.753  30.868  1.00  0.00     0.049 A 
ATOM     55  C   UNL A   1      44.101  25.629  28.832  1.00  0.00     0.074 A 
ATOM     56  C   UNL A   1      46.181  31.050  31.335  1.00  0.00     0.029 A 
ATOM     57  N   UNL A   1      44.956  29.448  30.401  1.00  0.00    -0.354 N 
ATOM     58  N   UNL A   1      44.450  26.783  29.349  1.00  0.00    -0.248 NA
ATOM     59  C   UNL A   1      45.210  24.670  28.703  1.00  0.00     0.031 C 
ATOM     60  C   UNL A   1      47.003  29.940  31.112  1.00  0.00     0.029 A 
ATOM     61  C   UNL A   1      46.235  28.935  30.549  1.00  0.00     0.049 A 
ATOM     62  H   UNL A   1      44.192  28.958  30.019  1.00  0.00     0.167 HD
ATOM     63  C   UNL A   1      45.811  26.679  29.627  1.00  0.00     0.074 A 
ATOM     64  C   UNL A   1      46.221  25.349  29.230  1.00  0.00     0.031 C 
ATOM     65  C   UNL A   1      46.640  27.606  30.165  1.00  0.00     0.037 A 
BRANCH  52  66
ATOM     66  C   UNL A   1      43.898  33.014  31.341  1.00  0.00     0.058 A 
ATOM     67  C   UNL A   1      44.267  34.058  30.478  1.00  0.00     0.135 A 
ATOM     68  C   UNL A   1      43.625  33.337  32.680  1.00  0.00     0.135 A 
ATOM     69  F   UNL A   1      44.547  33.803  29.189  1.00  0.00    -0.206 F 
ATOM     70  C   UNL A   1      44.389  35.367  30.932  1.00  0.00     0.059 A 
ATOM     71  C   UNL A   1      43.717  34.644  33.150  1.00  0.00     0.059 A 
ATOM     72  F   UNL A   1      43.260  32.377  33.545  1.00  0.00    -0.206 F 
ATOM     73  C   UNL A   1      44.116  35.650  32.271  1.00  0.00     0.060 A 
BRANCH  73  74
ATOM     74  S   UNL A   1      44.281  37.354  32.845  1.00  0.00     0.124 S 
ATOM     75  O   UNL A   1      45.704  37.416  33.163  1.00  0.00    -0.237 OA
ATOM     76  O   UNL A   1      43.860  38.121  31.678  1.00  0.00    -0.237 OA
ATOM     77  O   UNL A   1      43.379  37.417  33.991  1.00  0.00    -0.744 OA
ENDBRANCH  73  74
ENDBRANCH  52  66
BRANCH  53  78
ATOM     78  C   UNL A   1      42.560  23.807  27.807  1.00  0.00     0.058 A 
ATOM     79  C   UNL A   1      42.498  23.598  26.422  1.00  0.00     0.135 A 
ATOM     80  C   UNL A   1      42.454  22.686  28.644  1.00  0.00     0.135 A 
ATOM     81  F   UNL A   1      42.581  24.640  25.582  1.00  0.00    -0.206 F 
ATOM     82  C   UNL A   1      42.329  22.325  25.884  1.00  0.00     0.059 A 
ATOM     83  C   UNL A   1      42.308  21.400  28.130  1.00  0.00     0.059 A 
ATOM     84  F   UNL A   1      42.520  22.830  29.976  1.00  0.00    -0.206 F 
ATOM     85  C   UNL A   1      42.239  21.231  26.747  1.00  0.00     0.060 A 
BRANCH  85  86
ATOM     86  S   UNL A   1      42.086  19.577  26.039  1.00  0.00     0.124 S 
ATOM     87  O   UNL A   1      43.006  19.652  24.911  1.00  0.00    -0.237 OA
ATOM     88  O   UNL A   1      42.500  18.727  27.150  1.00  0.00    -0.237 OA
ATOM     89  O   UNL A   1      40.667  19.493  25.695  1.00  0.00    -0.744 OA
ENDBRANCH  85  86
ENDBRANCH  53  78
BRANCH  65  90
ATOM     90  C   UNL A   1      48.074  27.215  30.400  1.00  0.00     0.058 A 
ATOM     91  C   UNL A   1      49.086  27.536  29.484  1.00  0.00     0.135 A 
ATOM     92  C   UNL A   1      48.451  26.575  31.593  1.00  0.00     0.135 A 
ATOM     93  F   UNL A   1      48.781  28.140  28.324  1.00  0.00    -0.206 F 
ATOM     94  C   UNL A   1      50.421  27.228  29.736  1.00  0.00     0.059 A 
ATOM     95  C   UNL A   1      49.781  26.277  31.876  1.00  0.00     0.059 A 
ATOM     96  F   UNL A   1      47.522  26.251  32.507  1.00  0.00    -0.206 F 
ATOM     97  C   UNL A   1      50.759  26.602  30.937  1.00  0.00     0.060 A 
BRANCH  97  98
ATOM     98  S   UNL A   1      52.499  26.255  31.278  1.00  0.00     0.124 S 
ATOM     99  O   UNL A   1      53.058  26.201  29.931  1.00  0.00    -0.237 OA
ATOM    100  O   UNL A   1      52.896  27.406  32.084  1.00  0.00    -0.237 OA
ATOM    101  O   UNL A   1      52.459  24.983  31.993  1.00  0.00    -0.744 OA
ENDBRANCH  97  98
ENDBRANCH  65  90
ENDBRANCH  39  40
ENDBRANCH  31  34
ENDBRANCH   1  30
TORSDOF 15
ENDMDL
MODEL 2
REMARK VINA RESULT:     -12.5      3.244      4.938
REMARK SMILES CC(=O)N1CC[NH+]([C@@H](C(=O)NCCCNC(=O)c2ccc(-c3c4nc(c(-c5c(F)cc(S(=O)(=O)[O-])cc5F)c5ccc([nH]5)c(-c5c(F)cc(S(=O)(=O)[O-])cc5F)c5nc(c(-c6c(F)cc(S(=O)(=O)[O-])cc6F)c6ccc3[nH]6)C=C5)C=C4)cc2)c2c[nH]c3ccc(Cl)cc23)CC1
REMARK SMILES IDX 14 1 13 2 12 3 11 4 9 5 10 6 8 8 7 9 1 10 2 11 3 12 4 13
REMARK SMILES IDX 5 14 95 15 6 16 94 17 84 19 85 20 93 21 86 22 87 23 92 24
REMARK SMILES IDX 88 26 90 27 89 28 91 29 15 30 16 31 17 33 18 34 19 35 83 36
REMARK SMILES IDX 20 37 82 38 21 39 22 40 23 41 76 42 24 43 81 44 75 45 77 46
REMARK SMILES IDX 25 47 80 48 74 49 73 50 26 52 60 53 39 54 59 55 40 56 43 57
REMARK SMILES IDX 58 58 78 59 41 60 42 61 57 63 79 64 44 65 27 66 28 67 37 68
REMARK SMILES IDX 29 69 30 70 36 71 38 72 31 73 32 74 33 75 34 76 35 77 61 78
REMARK SMILES IDX 62 79 71 80 63 81 64 82 70 83 72 84 65 85 66 86 67 87 68 88
REMARK SMILES IDX 69 89 45 90 46 91 55 92 47 93 48 94 54 95 56 96 49 97 50 98
REMARK SMILES IDX 51 99 52 100 53 101
REMARK H PARENT 11 7 7 18 86 25 15 32 77 51 43 62
REMARK Flexibility Score: inf
ROOT
ATOM      1  C   UNL A   1      35.255  31.291  28.035  1.00  0.00     0.118 C 
ENDROOT
BRANCH   1   2
ATOM      2  C   UNL A   1      33.885  30.851  27.478  1.00  0.00     0.042 C 
BRANCH   2   3
ATOM      3  C   UNL A   1      33.675  29.349  27.158  1.00  0.00     0.118 C 
BRANCH   3   4
ATOM      4  N   UNL A   1      34.178  28.891  25.871  1.00  0.00    -0.351 N 
ATOM      5  C   UNL A   1      33.630  28.357  24.733  1.00  0.00     0.283 C 
ATOM      6  O   UNL A   1      34.444  28.278  23.809  1.00  0.00    -0.268 OA
ATOM      7  H   UNL A   1      35.156  28.989  25.800  1.00  0.00     0.163 HD
BRANCH   5   8
ATOM      8  C   UNL A   1      32.138  27.939  24.604  1.00  0.00     0.307 C 
BRANCH   8   9
ATOM      9  N   UNL A   1      31.804  26.490  24.864  1.00  0.00    -0.318 N 
ATOM     10  C   UNL A   1      35.754  23.068  25.142  1.00  0.00     0.114 C 
ATOM     11  C   UNL A   1      35.092  23.807  24.014  1.00  0.00     0.219 C 
ATOM     12  O   UNL A   1      35.468  23.653  22.852  1.00  0.00    -0.275 OA
ATOM     13  N   UNL A   1      34.029  24.626  24.355  1.00  0.00    -0.332 N 
ATOM     14  C   UNL A   1      33.277  25.231  23.265  1.00  0.00     0.181 C 
ATOM     15  C   UNL A   1      33.862  25.227  25.679  1.00  0.00     0.181 C 
ATOM     16  C   UNL A   1      31.860  25.543  23.729  1.00  0.00     0.285 C 
ATOM     17  C   UNL A   1      32.465  25.824  25.983  1.00  0.00     0.285 C 
ATOM     18  H   UNL A   1      30.830  26.675  25.102  1.00  0.00     0.349 HD
ENDBRANCH   8   9
BRANCH   8  19
ATOM     19  C   UNL A   1      31.423  28.295  23.270  1.00  0.00     0.044 A 
ATOM     20  C   UNL A   1      32.075  28.972  22.243  1.00  0.00     0.094 A 
ATOM     21  C   UNL A   1      30.008  28.438  22.971  1.00  0.00     0.011 A 
ATOM     22  N   UNL A   1      31.173  29.861  21.716  1.00  0.00    -0.361 N 
ATOM     23  C   UNL A   1      29.916  29.614  22.215  1.00  0.00     0.046 A 
ATOM     24  C   UNL A   1      28.792  27.880  23.430  1.00  0.00     0.031 A 
ATOM     25  H   UNL A   1      31.393  30.574  21.074  1.00  0.00     0.166 HD
ATOM     26  C   UNL A   1      28.743  30.379  22.130  1.00  0.00     0.028 A 
ATOM     27  C   UNL A   1      27.590  28.571  23.239  1.00  0.00     0.041 A 
ATOM     28  C   UNL A   1      27.576  29.838  22.673  1.00  0.00     0.022 A 
ATOM     29  Cl  UNL A   1      26.106  27.859  23.750  1.00  0.00    -0.084 Cl
ENDBRANCH   8  19
ENDBRANCH   5   8
ENDBRANCH   3   4
ENDBRANCH   2   3
ENDBRANCH   1   2
BRANCH   1  30
ATOM     30  N   UNL A   1      35.296  31.264  29.485  1.00  0.00    -0.352 N 
ATOM     31  C   UNL A   1      36.240  30.768  30.353  1.00  0.00     0.251 C 
ATOM     32  H   UNL A   1      34.514  31.671  29.923  1.00  0.00     0.163 HD
ATOM     33  O   UNL A   1      35.963  30.735  31.551  1.00  0.00    -0.269 OA
BRANCH  31  34
ATOM     34  C   UNL A   1      37.567  30.260  29.908  1.00  0.00     0.039 A 
ATOM     35  C   UNL A   1      38.518  29.953  30.892  1.00  0.00     0.014 A 
ATOM     36  C   UNL A   1      37.947  30.205  28.564  1.00  0.00     0.014 A 
ATOM     37  C   UNL A   1      39.819  29.566  30.540  1.00  0.00     0.010 A 
ATOM     38  C   UNL A   1      39.246  29.793  28.212  1.00  0.00     0.010 A 
ATOM     39  C   UNL A   1      40.199  29.468  29.194  1.00  0.00    -0.014 A 
BRANCH  39  40
ATOM     40  C   UNL A   1      41.584  29.052  28.813  1.00  0.00     0.031 A 
ATOM     41  C   UNL A   1      42.710  30.057  28.782  1.00  0.00     0.074 A 
ATOM     42  C   UNL A   1      41.842  27.773  28.470  1.00  0.00     0.049 A 
ATOM     43  N   UNL A   1      43.960  29.890  28.425  1.00  0.00    -0.248 NA
ATOM     44  C   UNL A   1      42.385  31.429  29.200  1.00  0.00     0.031 C 
ATOM     45  C   UNL A   1      40.860  26.690  28.449  1.00  0.00     0.029 A 
ATOM     46  N   UNL A   1      43.010  27.168  28.064  1.00  0.00    -0.354 N 
ATOM     47  C   UNL A   1      44.568  31.134  28.562  1.00  0.00     0.074 A 
ATOM     48  C   UNL A   1      43.539  32.053  29.006  1.00  0.00     0.031 C 
ATOM     49  C   UNL A   1      41.462  25.556  28.052  1.00  0.00     0.029 A 
ATOM     50  C   UNL A   1      42.866  25.834  27.757  1.00  0.00     0.049 A 
ATOM     51  H   UNL A   1      43.868  27.646  27.999  1.00  0.00     0.167 HD
ATOM     52  C   UNL A   1      45.862  31.482  28.351  1.00  0.00     0.037 A 
ATOM     53  C   UNL A   1      43.753  24.937  27.277  1.00  0.00     0.037 A 
ATOM     54  C   UNL A   1      46.896  30.573  27.926  1.00  0.00     0.049 A 
ATOM     55  C   UNL A   1      45.178  25.351  27.019  1.00  0.00     0.074 A 
ATOM     56  C   UNL A   1      48.243  30.835  27.731  1.00  0.00     0.029 A 
ATOM     57  N   UNL A   1      46.706  29.233  27.626  1.00  0.00    -0.354 N 
ATOM     58  N   UNL A   1      45.740  26.522  27.199  1.00  0.00    -0.248 NA
ATOM     59  C   UNL A   1      46.091  24.321  26.499  1.00  0.00     0.031 C 
ATOM     60  C   UNL A   1      48.857  29.664  27.273  1.00  0.00     0.029 A 
ATOM     61  C   UNL A   1      47.904  28.661  27.228  1.00  0.00     0.049 A 
ATOM     62  H   UNL A   1      45.845  28.758  27.686  1.00  0.00     0.167 HD
ATOM     63  C   UNL A   1      47.075  26.363  26.837  1.00  0.00     0.074 A 
ATOM     64  C   UNL A   1      47.240  24.982  26.435  1.00  0.00     0.031 C 
ATOM     65  C   UNL A   1      48.071  27.282  26.840  1.00  0.00     0.037 A 
BRANCH  52  66
ATOM     66  C   UNL A   1      46.243  32.922  28.573  1.00  0.00     0.058 A 
ATOM     67  C   UNL A   1      46.173  33.869  27.539  1.00  0.00     0.135 A 
ATOM     68  C   UNL A   1      46.635  33.369  29.845  1.00  0.00     0.135 A 
ATOM     69  F   UNL A   1      45.812  33.493  26.302  1.00  0.00    -0.206 F 
ATOM     70  C   UNL A   1      46.506  35.202  27.751  1.00  0.00     0.059 A 
ATOM     71  C   UNL A   1      46.949  34.704  30.086  1.00  0.00     0.059 A 
ATOM     72  F   UNL A   1      46.710  32.507  30.872  1.00  0.00    -0.206 F 
ATOM     73  C   UNL A   1      46.897  35.610  29.028  1.00  0.00     0.060 A 
BRANCH  73  74
ATOM     74  S   UNL A   1      47.329  37.344  29.286  1.00  0.00     0.124 S 
ATOM     75  O   UNL A   1      48.772  37.257  29.489  1.00  0.00    -0.237 OA
ATOM     76  O   UNL A   1      46.903  37.964  28.035  1.00  0.00    -0.237 OA
ATOM     77  O   UNL A   1      46.551  37.718  30.463  1.00  0.00    -0.744 OA
ENDBRANCH  73  74
ENDBRANCH  52  66
BRANCH  53  78
ATOM     78  C   UNL A   1      43.315  23.541  27.001  1.00  0.00     0.058 A 
ATOM     79  C   UNL A   1      43.056  23.109  25.692  1.00  0.00     0.135 A 
ATOM     80  C   UNL A   1      43.156  22.613  28.041  1.00  0.00     0.135 A 
ATOM     81  F   UNL A   1      43.181  23.963  24.666  1.00  0.00    -0.206 F 
ATOM     82  C   UNL A   1      42.647  21.806  25.423  1.00  0.00     0.059 A 
ATOM     83  C   UNL A   1      42.770  21.297  27.794  1.00  0.00     0.059 A 
ATOM     84  F   UNL A   1      43.402  22.973  29.309  1.00  0.00    -0.206 F 
ATOM     85  C   UNL A   1      42.511  20.905  26.482  1.00  0.00     0.060 A 
BRANCH  85  86
ATOM     86  S   UNL A   1      42.043  19.200  26.117  1.00  0.00     0.124 S 
ATOM     87  O   UNL A   1      42.859  18.914  24.944  1.00  0.00    -0.237 OA
ATOM     88  O   UNL A   1      42.419  18.508  27.345  1.00  0.00    -0.237 OA
ATOM     89  O   UNL A   1      40.603  19.294  25.879  1.00  0.00    -0.744 OA
ENDBRANCH  85  86
ENDBRANCH  53  78
BRANCH  65  90
ATOM     90  C   UNL A   1      49.447  26.830  26.436  1.00  0.00     0.058 A 
ATOM     91  C   UNL A   1      50.276  26.112  27.312  1.00  0.00     0.135 A 
ATOM     92  C   UNL A   1      49.915  27.054  25.130  1.00  0.00     0.135 A 
ATOM     93  F   UNL A   1      49.882  25.877  28.574  1.00  0.00    -0.206 F 
ATOM     94  C   UNL A   1      51.523  25.641  26.911  1.00  0.00     0.059 A 
ATOM     95  C   UNL A   1      51.149  26.574  24.701  1.00  0.00     0.059 A 
ATOM     96  F   UNL A   1      49.160  27.730  24.249  1.00  0.00    -0.206 F 
ATOM     97  C   UNL A   1      51.950  25.873  25.603  1.00  0.00     0.060 A 
BRANCH  97  98
ATOM     98  S   UNL A   1      53.546  25.211  25.077  1.00  0.00     0.124 S 
ATOM     99  O   UNL A   1      54.471  25.974  25.910  1.00  0.00    -0.237 OA
ATOM    100  O   UNL A   1      53.422  23.793  25.405  1.00  0.00    -0.237 OA
ATOM    101  O   UNL A   1      53.589  25.515  23.650  1.00  0.00    -0.744 OA
ENDBRANCH  97  98
ENDBRANCH  65  90
ENDBRANCH  39  40
ENDBRANCH  31  34
ENDBRANCH   1  30
TORSDOF 15
ENDMDL
MODEL 3
REMARK VINA RESULT:     -12.4      4.762     10.014
REMARK SMILES CC(=O)N1CC[NH+]([C@@H](C(=O)NCCCNC(=O)c2ccc(-c3c4nc(c(-c5c(F)cc(S(=O)(=O)[O-])cc5F)c5ccc([nH]5)c(-c5c(F)cc(S(=O)(=O)[O-])cc5F)c5nc(c(-c6c(F)cc(S(=O)(=O)[O-])cc6F)c6ccc3[nH]6)C=C5)C=C4)cc2)c2c[nH]c3ccc(Cl)cc23)CC1
REMARK SMILES IDX 14 1 13 2 12 3 11 4 9 5 10 6 8 8 7 9 1 10 2 11 3 12 4 13
REMARK SMILES IDX 5 14 95 15 6 16 94 17 84 19 85 20 93 21 86 22 87 23 92 24
REMARK SMILES IDX 88 26 90 27 89 28 91 29 15 30 16 31 17 33 18 34 19 35 83 36
REMARK SMILES IDX 20 37 82 38 21 39 22 40 23 41 76 42 24 43 81 44 75 45 77 46
REMARK SMILES IDX 25 47 80 48 74 49 73 50 26 52 60 53 39 54 59 55 40 56 43 57
REMARK SMILES IDX 58 58 78 59 41 60 42 61 57 63 79 64 44 65 27 66 28 67 37 68
REMARK SMILES IDX 29 69 30 70 36 71 38 72 31 73 32 74 33 75 34 76 35 77 61 78
REMARK SMILES IDX 62 79 71 80 63 81 64 82 70 83 72 84 65 85 66 86 67 87 68 88
REMARK SMILES IDX 69 89 45 90 46 91 55 92 47 93 48 94 54 95 56 96 49 97 50 98
REMARK SMILES IDX 51 99 52 100 53 101
REMARK H PARENT 11 7 7 18 86 25 15 32 77 51 43 62
REMARK Flexibility Score: inf
ROOT
ATOM      1  C   UNL A   1      38.527  23.451  26.683  1.00  0.00     0.118 C 
ENDROOT
BRANCH   1   2
ATOM      2  C   UNL A   1      37.437  23.936  25.705  1.00  0.00     0.042 C 
BRANCH   2   3
ATOM      3  C   UNL A   1      36.322  22.936  25.300  1.00  0.00     0.118 C 
BRANCH   3   4
ATOM      4  N   UNL A   1      35.732  23.134  23.985  1.00  0.00    -0.351 N 
ATOM      5  C   UNL A   1      34.484  23.436  23.500  1.00  0.00     0.283 C 
ATOM      6  O   UNL A   1      34.493  23.674  22.290  1.00  0.00    -0.268 OA
ATOM      7  H   UNL A   1      36.392  23.022  23.262  1.00  0.00     0.163 HD
BRANCH   5   8
ATOM      8  C   UNL A   1      33.208  23.516  24.384  1.00  0.00     0.307 C 
BRANCH   8   9
ATOM      9  N   UNL A   1      33.160  24.606  25.427  1.00  0.00    -0.318 N 
ATOM     10  C   UNL A   1      30.842  29.123  24.159  1.00  0.00     0.114 C 
ATOM     11  C   UNL A   1      32.150  28.484  23.791  1.00  0.00     0.219 C 
ATOM     12  O   UNL A   1      32.940  29.051  23.038  1.00  0.00    -0.275 OA
ATOM     13  N   UNL A   1      32.421  27.257  24.374  1.00  0.00    -0.332 N 
ATOM     14  C   UNL A   1      33.743  26.691  24.154  1.00  0.00     0.181 C 
ATOM     15  C   UNL A   1      31.383  26.334  24.838  1.00  0.00     0.181 C 
ATOM     16  C   UNL A   1      34.095  25.745  25.294  1.00  0.00     0.285 C 
ATOM     17  C   UNL A   1      31.860  25.183  25.758  1.00  0.00     0.285 C 
ATOM     18  H   UNL A   1      33.470  24.002  26.187  1.00  0.00     0.349 HD
ENDBRANCH   8   9
BRANCH   8  19
ATOM     19  C   UNL A   1      32.785  22.216  25.125  1.00  0.00     0.044 A 
ATOM     20  C   UNL A   1      32.924  22.076  26.503  1.00  0.00     0.094 A 
ATOM     21  C   UNL A   1      32.624  20.860  24.627  1.00  0.00     0.011 A 
ATOM     22  N   UNL A   1      33.344  20.791  26.733  1.00  0.00    -0.361 N 
ATOM     23  C   UNL A   1      33.256  20.049  25.579  1.00  0.00     0.046 A 
ATOM     24  C   UNL A   1      32.252  20.243  23.410  1.00  0.00     0.031 A 
ATOM     25  H   UNL A   1      33.662  20.448  27.599  1.00  0.00     0.166 HD
ATOM     26  C   UNL A   1      33.760  18.774  25.283  1.00  0.00     0.028 A 
ATOM     27  C   UNL A   1      32.637  18.922  23.150  1.00  0.00     0.041 A 
ATOM     28  C   UNL A   1      33.450  18.228  24.036  1.00  0.00     0.022 A 
ATOM     29  Cl  UNL A   1      32.132  18.157  21.691  1.00  0.00    -0.084 Cl
ENDBRANCH   8  19
ENDBRANCH   5   8
ENDBRANCH   3   4
ENDBRANCH   2   3
ENDBRANCH   1   2
BRANCH   1  30
ATOM     30  N   UNL A   1      39.866  23.660  26.167  1.00  0.00    -0.352 N 
ATOM     31  C   UNL A   1      40.786  24.652  26.415  1.00  0.00     0.251 C 
ATOM     32  H   UNL A   1      40.169  22.974  25.529  1.00  0.00     0.163 HD
ATOM     33  O   UNL A   1      41.804  24.681  25.726  1.00  0.00    -0.269 OA
BRANCH  31  34
ATOM     34  C   UNL A   1      40.596  25.693  27.463  1.00  0.00     0.039 A 
ATOM     35  C   UNL A   1      41.489  26.774  27.485  1.00  0.00     0.014 A 
ATOM     36  C   UNL A   1      39.661  25.570  28.495  1.00  0.00     0.014 A 
ATOM     37  C   UNL A   1      41.430  27.736  28.505  1.00  0.00     0.010 A 
ATOM     38  C   UNL A   1      39.587  26.549  29.503  1.00  0.00     0.010 A 
ATOM     39  C   UNL A   1      40.469  27.644  29.522  1.00  0.00    -0.014 A 
BRANCH  39  40
ATOM     40  C   UNL A   1      40.399  28.669  30.609  1.00  0.00     0.031 A 
ATOM     41  C   UNL A   1      41.303  28.578  31.815  1.00  0.00     0.074 A 
ATOM     42  C   UNL A   1      39.509  29.681  30.537  1.00  0.00     0.049 A 
ATOM     43  N   UNL A   1      41.347  29.343  32.878  1.00  0.00    -0.248 NA
ATOM     44  C   UNL A   1      42.280  27.479  31.828  1.00  0.00     0.031 C 
ATOM     45  C   UNL A   1      38.569  29.901  29.438  1.00  0.00     0.029 A 
ATOM     46  N   UNL A   1      39.244  30.710  31.411  1.00  0.00    -0.354 N 
ATOM     47  C   UNL A   1      42.342  28.813  33.692  1.00  0.00     0.074 A 
ATOM     48  C   UNL A   1      42.857  27.642  33.011  1.00  0.00     0.031 C 
ATOM     49  C   UNL A   1      37.832  30.993  29.702  1.00  0.00     0.029 A 
ATOM     50  C   UNL A   1      38.219  31.534  31.003  1.00  0.00     0.049 A 
ATOM     51  H   UNL A   1      39.740  30.844  32.250  1.00  0.00     0.167 HD
ATOM     52  C   UNL A   1      42.798  29.261  34.888  1.00  0.00     0.037 A 
ATOM     53  C   UNL A   1      37.643  32.594  31.608  1.00  0.00     0.037 A 
ATOM     54  C   UNL A   1      42.305  30.434  35.566  1.00  0.00     0.049 A 
ATOM     55  C   UNL A   1      38.143  33.057  32.951  1.00  0.00     0.074 A 
ATOM     56  C   UNL A   1      42.741  30.982  36.761  1.00  0.00     0.029 A 
ATOM     57  N   UNL A   1      41.267  31.236  35.118  1.00  0.00    -0.354 N 
ATOM     58  N   UNL A   1      39.115  32.567  33.681  1.00  0.00    -0.248 NA
ATOM     59  C   UNL A   1      37.470  34.220  33.552  1.00  0.00     0.031 C 
ATOM     60  C   UNL A   1      41.941  32.092  37.056  1.00  0.00     0.029 A 
ATOM     61  C   UNL A   1      41.036  32.262  36.022  1.00  0.00     0.049 A 
ATOM     62  H   UNL A   1      40.767  31.097  34.281  1.00  0.00     0.167 HD
ATOM     63  C   UNL A   1      39.186  33.375  34.813  1.00  0.00     0.074 A 
ATOM     64  C   UNL A   1      38.165  34.390  34.669  1.00  0.00     0.031 C 
ATOM     65  C   UNL A   1      40.027  33.280  35.872  1.00  0.00     0.037 A 
BRANCH  52  66
ATOM     66  C   UNL A   1      43.894  28.475  35.557  1.00  0.00     0.058 A 
ATOM     67  C   UNL A   1      45.249  28.744  35.309  1.00  0.00     0.135 A 
ATOM     68  C   UNL A   1      43.586  27.475  36.494  1.00  0.00     0.135 A 
ATOM     69  F   UNL A   1      45.599  29.684  34.416  1.00  0.00    -0.206 F 
ATOM     70  C   UNL A   1      46.260  28.029  35.943  1.00  0.00     0.059 A 
ATOM     71  C   UNL A   1      44.581  26.764  37.159  1.00  0.00     0.059 A 
ATOM     72  F   UNL A   1      42.306  27.184  36.776  1.00  0.00    -0.206 F 
ATOM     73  C   UNL A   1      45.916  27.038  36.864  1.00  0.00     0.060 A 
BRANCH  73  74
ATOM     74  S   UNL A   1      47.241  26.118  37.677  1.00  0.00     0.124 S 
ATOM     75  O   UNL A   1      46.570  24.860  37.990  1.00  0.00    -0.237 OA
ATOM     76  O   UNL A   1      48.261  26.049  36.635  1.00  0.00    -0.237 OA
ATOM     77  O   UNL A   1      47.579  26.951  38.826  1.00  0.00    -0.744 OA
ENDBRANCH  73  74
ENDBRANCH  52  66
BRANCH  53  78
ATOM     78  C   UNL A   1      36.511  33.298  30.944  1.00  0.00     0.058 A 
ATOM     79  C   UNL A   1      35.198  33.166  31.419  1.00  0.00     0.135 A 
ATOM     80  C   UNL A   1      36.725  34.121  29.828  1.00  0.00     0.135 A 
ATOM     81  F   UNL A   1      34.942  32.380  32.474  1.00  0.00    -0.206 F 
ATOM     82  C   UNL A   1      34.133  33.820  30.806  1.00  0.00     0.059 A 
ATOM     83  C   UNL A   1      35.680  34.804  29.213  1.00  0.00     0.059 A 
ATOM     84  F   UNL A   1      37.964  34.290  29.343  1.00  0.00    -0.206 F 
ATOM     85  C   UNL A   1      34.385  34.642  29.705  1.00  0.00     0.060 A 
BRANCH  85  86
ATOM     86  S   UNL A   1      33.008  35.538  28.957  1.00  0.00     0.124 S 
ATOM     87  O   UNL A   1      32.201  35.868  30.124  1.00  0.00    -0.237 OA
ATOM     88  O   UNL A   1      33.684  36.656  28.308  1.00  0.00    -0.237 OA
ATOM     89  O   UNL A   1      32.428  34.554  28.043  1.00  0.00    -0.744 OA
ENDBRANCH  85  86
ENDBRANCH  53  78
BRANCH  65  90
ATOM     90  C   UNL A   1      39.915  34.321  36.953  1.00  0.00     0.058 A 
ATOM     91  C   UNL A   1      40.592  35.547  36.870  1.00  0.00     0.135 A 
ATOM     92  C   UNL A   1      39.064  34.117  38.052  1.00  0.00     0.135 A 
ATOM     93  F   UNL A   1      41.425  35.791  35.846  1.00  0.00    -0.206 F 
ATOM     94  C   UNL A   1      40.435  36.532  37.842  1.00  0.00     0.059 A 
ATOM     95  C   UNL A   1      38.875  35.095  39.024  1.00  0.00     0.059 A 
ATOM     96  F   UNL A   1      38.387  32.964  38.177  1.00  0.00    -0.206 F 
ATOM     97  C   UNL A   1      39.571  36.298  38.914  1.00  0.00     0.060 A 
BRANCH  97  98
ATOM     98  S   UNL A   1      39.334  37.603  40.141  1.00  0.00     0.124 S 
ATOM     99  O   UNL A   1      40.648  38.239  40.153  1.00  0.00    -0.237 OA
ATOM    100  O   UNL A   1      38.254  38.392  39.555  1.00  0.00    -0.237 OA
ATOM    101  O   UNL A   1      38.980  36.870  41.352  1.00  0.00    -0.744 OA
ENDBRANCH  97  98
ENDBRANCH  65  90
ENDBRANCH  39  40
ENDBRANCH  31  34
ENDBRANCH   1  30
TORSDOF 15
ENDMDL
