MODEL 1
REMARK VINA RESULT:     -12.7      0.000      0.000
REMARK SMILES O=C(Cc1cccn1-c1ccc2c(c1)OCCO2)NCCCNC(=O)c1ccc(-c2c3nc(c(-c4c(F)cc(S(=O)(=O)[O-])cc4F)c4ccc([nH]4)c(-c4c(F)cc(S(=O)(=O)[O-])cc4F)c4nc(c(-c5c(F)cc(S(=O)(=O)[O-])cc5F)c5ccc2[nH]5)C=C4)C=C3)cc1
REMARK SMILES IDX 21 1 20 2 19 3 1 4 2 5 3 7 4 8 5 9 8 10 6 11 7 12 9 13 10 14
REMARK SMILES IDX 14 15 11 16 13 17 12 18 15 19 18 20 16 21 17 22 22 23 23 24
REMARK SMILES IDX 24 25 25 27 26 28 27 29 91 30 28 31 90 32 29 33 30 34 31 35
REMARK SMILES IDX 84 36 32 37 89 38 83 39 85 40 33 41 88 42 82 43 81 44 34 46
REMARK SMILES IDX 68 47 47 48 67 49 48 50 51 51 66 52 86 53 49 54 50 55 65 57
REMARK SMILES IDX 87 58 52 59 35 60 36 61 45 62 37 63 38 64 44 65 46 66 39 67
REMARK SMILES IDX 40 68 41 69 42 70 43 71 69 72 70 73 79 74 71 75 72 76 78 77
REMARK SMILES IDX 80 78 73 79 74 80 75 81 76 82 77 83 53 84 54 85 63 86 55 87
REMARK SMILES IDX 56 88 62 89 64 90 57 91 58 92 59 93 60 94 61 95
REMARK H PARENT 19 6 23 26 85 45 51 56
REMARK Flexibility Score: inf
ROOT
ATOM      1  C   UNL A   1      34.306  29.108  26.408  1.00  0.00     0.042 C 
ENDROOT
BRANCH   1   2
ATOM      2  C   UNL A   1      32.861  29.112  25.923  1.00  0.00     0.117 C 
BRANCH   2   3
ATOM      3  N   UNL A   1      32.288  27.784  25.818  1.00  0.00    -0.356 N 
ATOM      4  O   UNL A   1      31.265  27.823  27.870  1.00  0.00    -0.275 OA
ATOM      5  C   UNL A   1      31.434  27.280  26.778  1.00  0.00     0.225 C 
ATOM      6  H   UNL A   1      32.515  27.225  25.041  1.00  0.00     0.163 HD
BRANCH   5   7
ATOM      7  C   UNL A   1      30.733  25.984  26.420  1.00  0.00     0.154 C 
BRANCH   7   8
ATOM      8  C   UNL A   1      31.157  25.359  25.112  1.00  0.00     0.032 A 
ATOM      9  C   UNL A   1      32.018  24.281  24.950  1.00  0.00     0.024 A 
ATOM     10  N   UNL A   1      30.590  25.624  23.868  1.00  0.00    -0.320 N 
ATOM     11  C   UNL A   1      31.925  23.843  23.612  1.00  0.00     0.020 A 
ATOM     12  C   UNL A   1      31.009  24.653  22.984  1.00  0.00     0.091 A 
BRANCH  10  13
ATOM     13  C   UNL A   1      29.728  26.685  23.512  1.00  0.00     0.049 A 
ATOM     14  C   UNL A   1      28.390  26.674  23.919  1.00  0.00     0.031 A 
ATOM     15  C   UNL A   1      30.214  27.720  22.716  1.00  0.00     0.077 A 
ATOM     16  C   UNL A   1      27.570  27.763  23.600  1.00  0.00     0.052 A 
ATOM     17  C   UNL A   1      29.407  28.813  22.429  1.00  0.00     0.163 A 
ATOM     18  C   UNL A   1      28.080  28.836  22.865  1.00  0.00     0.161 A 
ATOM     19  O   UNL A   1      29.986  29.830  21.715  1.00  0.00    -0.486 OA
ATOM     20  O   UNL A   1      27.230  29.883  22.615  1.00  0.00    -0.486 OA
ATOM     21  C   UNL A   1      29.262  31.046  21.919  1.00  0.00     0.271 C 
ATOM     22  C   UNL A   1      27.782  30.807  21.666  1.00  0.00     0.271 C 
ENDBRANCH  10  13
ENDBRANCH   7   8
ENDBRANCH   5   7
ENDBRANCH   2   3
ENDBRANCH   1   2
BRANCH   1  23
ATOM     23  C   UNL A   1      34.478  29.744  27.789  1.00  0.00     0.118 C 
BRANCH  23  24
ATOM     24  N   UNL A   1      35.231  30.990  27.714  1.00  0.00    -0.352 N 
ATOM     25  C   UNL A   1      36.496  31.288  28.161  1.00  0.00     0.251 C 
ATOM     26  H   UNL A   1      34.759  31.734  27.275  1.00  0.00     0.163 HD
ATOM     27  O   UNL A   1      36.804  32.467  28.296  1.00  0.00    -0.269 OA
BRANCH  25  28
ATOM     28  C   UNL A   1      37.481  30.235  28.504  1.00  0.00     0.039 A 
ATOM     29  C   UNL A   1      38.605  30.101  27.674  1.00  0.00     0.014 A 
ATOM     30  C   UNL A   1      37.284  29.333  29.555  1.00  0.00     0.014 A 
ATOM     31  C   UNL A   1      39.567  29.126  27.943  1.00  0.00     0.010 A 
ATOM     32  C   UNL A   1      38.249  28.359  29.832  1.00  0.00     0.010 A 
ATOM     33  C   UNL A   1      39.411  28.280  29.049  1.00  0.00    -0.014 A 
BRANCH  33  34
ATOM     34  C   UNL A   1      40.605  27.552  29.565  1.00  0.00     0.031 A 
ATOM     35  C   UNL A   1      40.803  26.208  28.795  1.00  0.00     0.074 A 
ATOM     36  C   UNL A   1      41.331  28.130  30.576  1.00  0.00     0.049 A 
ATOM     37  N   UNL A   1      41.526  25.169  29.082  1.00  0.00    -0.248 NA
ATOM     38  C   UNL A   1      40.044  25.968  27.529  1.00  0.00     0.031 C 
ATOM     39  C   UNL A   1      41.029  29.444  31.190  1.00  0.00     0.029 A 
ATOM     40  N   UNL A   1      42.461  27.761  31.292  1.00  0.00    -0.354 N 
ATOM     41  C   UNL A   1      41.513  24.306  27.953  1.00  0.00     0.074 A 
ATOM     42  C   UNL A   1      40.488  24.791  27.088  1.00  0.00     0.031 C 
ATOM     43  C   UNL A   1      41.874  29.713  32.214  1.00  0.00     0.029 A 
ATOM     44  C   UNL A   1      42.841  28.640  32.353  1.00  0.00     0.049 A 
ATOM     45  H   UNL A   1      42.968  26.944  31.083  1.00  0.00     0.167 HD
ATOM     46  C   UNL A   1      42.448  23.332  27.739  1.00  0.00     0.037 A 
ATOM     47  C   UNL A   1      43.850  28.507  33.279  1.00  0.00     0.037 A 
ATOM     48  C   UNL A   1      43.329  23.275  28.851  1.00  0.00     0.049 A 
ATOM     49  C   UNL A   1      44.674  27.405  32.770  1.00  0.00     0.074 A 
ATOM     50  C   UNL A   1      43.144  22.845  30.137  1.00  0.00     0.029 A 
ATOM     51  N   UNL A   1      44.463  24.046  28.776  1.00  0.00    -0.354 N 
ATOM     52  N   UNL A   1      45.463  27.499  31.743  1.00  0.00    -0.248 NA
ATOM     53  C   UNL A   1      44.591  26.094  33.423  1.00  0.00     0.031 C 
ATOM     54  C   UNL A   1      43.884  23.778  30.885  1.00  0.00     0.029 A 
ATOM     55  C   UNL A   1      44.680  24.553  30.030  1.00  0.00     0.049 A 
ATOM     56  H   UNL A   1      45.016  24.203  27.977  1.00  0.00     0.167 HD
ATOM     57  C   UNL A   1      45.676  26.184  31.428  1.00  0.00     0.074 A 
ATOM     58  C   UNL A   1      45.425  25.421  32.635  1.00  0.00     0.031 C 
ATOM     59  C   UNL A   1      45.439  25.773  30.157  1.00  0.00     0.037 A 
BRANCH  46  60
ATOM     60  C   UNL A   1      42.858  22.535  26.524  1.00  0.00     0.058 A 
ATOM     61  C   UNL A   1      42.461  21.172  26.464  1.00  0.00     0.135 A 
ATOM     62  C   UNL A   1      43.893  22.911  25.658  1.00  0.00     0.135 A 
ATOM     63  F   UNL A   1      41.426  20.723  27.195  1.00  0.00    -0.206 F 
ATOM     64  C   UNL A   1      43.159  20.217  25.736  1.00  0.00     0.059 A 
ATOM     65  C   UNL A   1      44.580  21.973  24.877  1.00  0.00     0.059 A 
ATOM     66  F   UNL A   1      44.325  24.178  25.606  1.00  0.00    -0.206 F 
ATOM     67  C   UNL A   1      44.247  20.622  24.976  1.00  0.00     0.060 A 
BRANCH  67  68
ATOM     68  S   UNL A   1      45.239  19.349  24.164  1.00  0.00     0.124 S 
ATOM     69  O   UNL A   1      44.980  18.188  25.008  1.00  0.00    -0.237 OA
ATOM     70  O   UNL A   1      44.649  19.303  22.829  1.00  0.00    -0.237 OA
ATOM     71  O   UNL A   1      46.593  19.891  24.223  1.00  0.00    -0.744 OA
ENDBRANCH  67  68
ENDBRANCH  46  60
BRANCH  47  72
ATOM     72  C   UNL A   1      44.329  29.088  34.607  1.00  0.00     0.058 A 
ATOM     73  C   UNL A   1      43.711  28.941  35.854  1.00  0.00     0.135 A 
ATOM     74  C   UNL A   1      45.623  29.699  34.682  1.00  0.00     0.135 A 
ATOM     75  F   UNL A   1      42.443  28.521  35.945  1.00  0.00    -0.206 F 
ATOM     76  C   UNL A   1      44.386  29.203  37.068  1.00  0.00     0.059 A 
ATOM     77  C   UNL A   1      46.333  29.904  35.862  1.00  0.00     0.059 A 
ATOM     78  F   UNL A   1      46.287  30.093  33.585  1.00  0.00    -0.206 F 
ATOM     79  C   UNL A   1      45.721  29.613  37.061  1.00  0.00     0.060 A 
BRANCH  79  80
ATOM     80  S   UNL A   1      46.713  29.625  38.574  1.00  0.00     0.124 S 
ATOM     81  O   UNL A   1      47.742  28.637  38.276  1.00  0.00    -0.237 OA
ATOM     82  O   UNL A   1      47.162  31.013  38.643  1.00  0.00    -0.237 OA
ATOM     83  O   UNL A   1      45.753  29.242  39.607  1.00  0.00    -0.744 OA
ENDBRANCH  79  80
ENDBRANCH  47  72
BRANCH  59  84
ATOM     84  C   UNL A   1      45.652  26.833  29.088  1.00  0.00     0.058 A 
ATOM     85  C   UNL A   1      46.944  27.341  28.859  1.00  0.00     0.135 A 
ATOM     86  C   UNL A   1      44.623  27.429  28.336  1.00  0.00     0.135 A 
ATOM     87  F   UNL A   1      47.990  26.827  29.526  1.00  0.00    -0.206 F 
ATOM     88  C   UNL A   1      47.197  28.368  27.944  1.00  0.00     0.059 A 
ATOM     89  C   UNL A   1      44.848  28.454  27.409  1.00  0.00     0.059 A 
ATOM     90  F   UNL A   1      43.359  27.031  28.481  1.00  0.00    -0.206 F 
ATOM     91  C   UNL A   1      46.143  28.919  27.218  1.00  0.00     0.060 A 
BRANCH  91  92
ATOM     92  S   UNL A   1      46.493  30.219  26.011  1.00  0.00     0.124 S 
ATOM     93  O   UNL A   1      46.587  29.472  24.761  1.00  0.00    -0.237 OA
ATOM     94  O   UNL A   1      45.324  31.083  26.143  1.00  0.00    -0.237 OA
ATOM     95  O   UNL A   1      47.750  30.799  26.479  1.00  0.00    -0.744 OA
ENDBRANCH  91  92
ENDBRANCH  59  84
ENDBRANCH  33  34
ENDBRANCH  25  28
ENDBRANCH  23  24
ENDBRANCH   1  23
TORSDOF 15
ENDMDL
MODEL 2
REMARK VINA RESULT:     -12.6      1.263      2.886
REMARK SMILES O=C(Cc1cccn1-c1ccc2c(c1)OCCO2)NCCCNC(=O)c1ccc(-c2c3nc(c(-c4c(F)cc(S(=O)(=O)[O-])cc4F)c4ccc([nH]4)c(-c4c(F)cc(S(=O)(=O)[O-])cc4F)c4nc(c(-c5c(F)cc(S(=O)(=O)[O-])cc5F)c5ccc2[nH]5)C=C4)C=C3)cc1
REMARK SMILES IDX 21 1 20 2 19 3 1 4 2 5 3 7 4 8 5 9 8 10 6 11 7 12 9 13 10 14
REMARK SMILES IDX 14 15 11 16 13 17 12 18 15 19 18 20 16 21 17 22 22 23 23 24
REMARK SMILES IDX 24 25 25 27 26 28 27 29 91 30 28 31 90 32 29 33 30 34 31 35
REMARK SMILES IDX 84 36 32 37 89 38 83 39 85 40 33 41 88 42 82 43 81 44 34 46
REMARK SMILES IDX 68 47 47 48 67 49 48 50 51 51 66 52 86 53 49 54 50 55 65 57
REMARK SMILES IDX 87 58 52 59 35 60 36 61 45 62 37 63 38 64 44 65 46 66 39 67
REMARK SMILES IDX 40 68 41 69 42 70 43 71 69 72 70 73 79 74 71 75 72 76 78 77
REMARK SMILES IDX 80 78 73 79 74 80 75 81 76 82 77 83 53 84 54 85 63 86 55 87
REMARK SMILES IDX 56 88 62 89 64 90 57 91 58 92 59 93 60 94 61 95
REMARK H PARENT 19 6 23 26 85 45 51 56
REMARK Flexibility Score: inf
ROOT
ATOM      1  C   UNL A   1      34.016  28.950  26.134  1.00  0.00     0.042 C 
ENDROOT
BRANCH   1   2
ATOM      2  C   UNL A   1      32.881  29.794  25.565  1.00  0.00     0.117 C 
BRANCH   2   3
ATOM      3  N   UNL A   1      32.047  29.073  24.622  1.00  0.00    -0.356 N 
ATOM      4  O   UNL A   1      33.534  29.188  22.881  1.00  0.00    -0.275 OA
ATOM      5  C   UNL A   1      32.497  28.734  23.363  1.00  0.00     0.225 C 
ATOM      6  H   UNL A   1      31.134  28.820  24.888  1.00  0.00     0.163 HD
BRANCH   5   7
ATOM      7  C   UNL A   1      31.609  27.784  22.582  1.00  0.00     0.154 C 
BRANCH   7   8
ATOM      8  C   UNL A   1      30.257  27.509  23.195  1.00  0.00     0.032 A 
ATOM      9  C   UNL A   1      29.084  28.216  22.966  1.00  0.00     0.024 A 
ATOM     10  N   UNL A   1      29.918  26.374  23.928  1.00  0.00    -0.320 N 
ATOM     11  C   UNL A   1      28.012  27.473  23.503  1.00  0.00     0.020 A 
ATOM     12  C   UNL A   1      28.545  26.328  24.046  1.00  0.00     0.091 A 
BRANCH  10  13
ATOM     13  C   UNL A   1      30.782  25.402  24.479  1.00  0.00     0.049 A 
ATOM     14  C   UNL A   1      31.489  25.672  25.655  1.00  0.00     0.031 A 
ATOM     15  C   UNL A   1      30.953  24.189  23.816  1.00  0.00     0.077 A 
ATOM     16  C   UNL A   1      32.296  24.672  26.211  1.00  0.00     0.052 A 
ATOM     17  C   UNL A   1      31.729  23.189  24.387  1.00  0.00     0.163 A 
ATOM     18  C   UNL A   1      32.408  23.429  25.584  1.00  0.00     0.161 A 
ATOM     19  O   UNL A   1      31.778  21.994  23.717  1.00  0.00    -0.486 OA
ATOM     20  O   UNL A   1      33.192  22.486  26.200  1.00  0.00    -0.486 OA
ATOM     21  C   UNL A   1      32.159  20.946  24.611  1.00  0.00     0.271 C 
ATOM     22  C   UNL A   1      33.420  21.347  25.360  1.00  0.00     0.271 C 
ENDBRANCH  10  13
ENDBRANCH   7   8
ENDBRANCH   5   7
ENDBRANCH   2   3
ENDBRANCH   1   2
BRANCH   1  23
ATOM     23  C   UNL A   1      34.449  29.391  27.533  1.00  0.00     0.118 C 
BRANCH  23  24
ATOM     24  N   UNL A   1      35.163  30.662  27.497  1.00  0.00    -0.352 N 
ATOM     25  C   UNL A   1      36.397  30.999  27.999  1.00  0.00     0.251 C 
ATOM     26  H   UNL A   1      34.686  31.393  27.042  1.00  0.00     0.163 HD
ATOM     27  O   UNL A   1      36.660  32.186  28.154  1.00  0.00    -0.269 OA
BRANCH  25  28
ATOM     28  C   UNL A   1      37.401  29.976  28.379  1.00  0.00     0.039 A 
ATOM     29  C   UNL A   1      38.508  29.806  27.534  1.00  0.00     0.014 A 
ATOM     30  C   UNL A   1      37.236  29.132  29.483  1.00  0.00     0.014 A 
ATOM     31  C   UNL A   1      39.487  28.857  27.836  1.00  0.00     0.010 A 
ATOM     32  C   UNL A   1      38.217  28.186  29.794  1.00  0.00     0.010 A 
ATOM     33  C   UNL A   1      39.363  28.074  28.991  1.00  0.00    -0.014 A 
BRANCH  33  34
ATOM     34  C   UNL A   1      40.576  27.388  29.521  1.00  0.00     0.031 A 
ATOM     35  C   UNL A   1      40.821  26.044  28.763  1.00  0.00     0.074 A 
ATOM     36  C   UNL A   1      41.277  27.997  30.531  1.00  0.00     0.049 A 
ATOM     37  N   UNL A   1      41.574  25.030  29.063  1.00  0.00    -0.248 NA
ATOM     38  C   UNL A   1      40.078  25.770  27.494  1.00  0.00     0.031 C 
ATOM     39  C   UNL A   1      40.930  29.305  31.132  1.00  0.00     0.029 A 
ATOM     40  N   UNL A   1      42.413  27.669  31.257  1.00  0.00    -0.354 N 
ATOM     41  C   UNL A   1      41.595  24.158  27.942  1.00  0.00     0.074 A 
ATOM     42  C   UNL A   1      40.562  24.604  27.066  1.00  0.00     0.031 C 
ATOM     43  C   UNL A   1      41.760  29.610  32.159  1.00  0.00     0.029 A 
ATOM     44  C   UNL A   1      42.759  28.568  32.313  1.00  0.00     0.049 A 
ATOM     45  H   UNL A   1      42.948  26.866  31.059  1.00  0.00     0.167 HD
ATOM     46  C   UNL A   1      42.562  23.212  27.742  1.00  0.00     0.037 A 
ATOM     47  C   UNL A   1      43.765  28.475  33.246  1.00  0.00     0.037 A 
ATOM     48  C   UNL A   1      43.437  23.192  28.860  1.00  0.00     0.049 A 
ATOM     49  C   UNL A   1      44.627  27.395  32.752  1.00  0.00     0.074 A 
ATOM     50  C   UNL A   1      43.257  22.768  30.148  1.00  0.00     0.029 A 
ATOM     51  N   UNL A   1      44.547  23.997  28.786  1.00  0.00    -0.354 N 
ATOM     52  N   UNL A   1      45.419  27.505  31.729  1.00  0.00    -0.248 NA
ATOM     53  C   UNL A   1      44.581  26.087  33.416  1.00  0.00     0.031 C 
ATOM     54  C   UNL A   1      43.963  23.729  30.893  1.00  0.00     0.029 A 
ATOM     55  C   UNL A   1      44.739  24.521  30.037  1.00  0.00     0.049 A 
ATOM     56  H   UNL A   1      45.099  24.165  27.989  1.00  0.00     0.167 HD
ATOM     57  C   UNL A   1      45.675  26.194  31.427  1.00  0.00     0.074 A 
ATOM     58  C   UNL A   1      45.440  25.434  32.639  1.00  0.00     0.031 C 
ATOM     59  C   UNL A   1      45.459  25.765  30.157  1.00  0.00     0.037 A 
BRANCH  46  60
ATOM     60  C   UNL A   1      43.004  22.419  26.536  1.00  0.00     0.058 A 
ATOM     61  C   UNL A   1      42.579  21.066  26.445  1.00  0.00     0.135 A 
ATOM     62  C   UNL A   1      44.083  22.779  25.719  1.00  0.00     0.135 A 
ATOM     63  F   UNL A   1      41.503  20.635  27.126  1.00  0.00    -0.206 F 
ATOM     64  C   UNL A   1      43.285  20.102  25.736  1.00  0.00     0.059 A 
ATOM     65  C   UNL A   1      44.781  21.832  24.958  1.00  0.00     0.059 A 
ATOM     66  F   UNL A   1      44.546  24.036  25.700  1.00  0.00    -0.206 F 
ATOM     67  C   UNL A   1      44.413  20.489  25.027  1.00  0.00     0.060 A 
BRANCH  67  68
ATOM     68  S   UNL A   1      45.408  19.201  24.243  1.00  0.00     0.124 S 
ATOM     69  O   UNL A   1      45.208  18.078  25.151  1.00  0.00    -0.237 OA
ATOM     70  O   UNL A   1      44.776  19.076  22.933  1.00  0.00    -0.237 OA
ATOM     71  O   UNL A   1      46.750  19.777  24.229  1.00  0.00    -0.744 OA
ENDBRANCH  67  68
ENDBRANCH  46  60
BRANCH  47  72
ATOM     72  C   UNL A   1      44.218  29.082  34.572  1.00  0.00     0.058 A 
ATOM     73  C   UNL A   1      43.662  28.839  35.833  1.00  0.00     0.135 A 
ATOM     74  C   UNL A   1      45.434  29.837  34.622  1.00  0.00     0.135 A 
ATOM     75  F   UNL A   1      42.455  28.274  35.953  1.00  0.00    -0.206 F 
ATOM     76  C   UNL A   1      44.342  29.155  37.033  1.00  0.00     0.059 A 
ATOM     77  C   UNL A   1      46.154  30.100  35.784  1.00  0.00     0.059 A 
ATOM     78  F   UNL A   1      46.012  30.327  33.515  1.00  0.00    -0.206 F 
ATOM     79  C   UNL A   1      45.619  29.717  36.995  1.00  0.00     0.060 A 
BRANCH  79  80
ATOM     80  S   UNL A   1      46.653  29.815  38.476  1.00  0.00     0.124 S 
ATOM     81  O   UNL A   1      47.825  29.041  38.087  1.00  0.00    -0.237 OA
ATOM     82  O   UNL A   1      46.856  31.253  38.622  1.00  0.00    -0.237 OA
ATOM     83  O   UNL A   1      45.814  29.210  39.510  1.00  0.00    -0.744 OA
ENDBRANCH  79  80
ENDBRANCH  47  72
BRANCH  59  84
ATOM     84  C   UNL A   1      45.646  26.823  29.081  1.00  0.00     0.058 A 
ATOM     85  C   UNL A   1      46.918  27.386  28.872  1.00  0.00     0.135 A 
ATOM     86  C   UNL A   1      44.607  27.364  28.302  1.00  0.00     0.135 A 
ATOM     87  F   UNL A   1      47.973  26.928  29.566  1.00  0.00    -0.206 F 
ATOM     88  C   UNL A   1      47.144  28.415  27.951  1.00  0.00     0.059 A 
ATOM     89  C   UNL A   1      44.805  28.387  27.367  1.00  0.00     0.059 A 
ATOM     90  F   UNL A   1      43.360  26.911  28.426  1.00  0.00    -0.206 F 
ATOM     91  C   UNL A   1      46.081  28.910  27.197  1.00  0.00     0.060 A 
BRANCH  91  92
ATOM     92  S   UNL A   1      46.397  30.211  25.983  1.00  0.00     0.124 S 
ATOM     93  O   UNL A   1      47.666  30.768  26.440  1.00  0.00    -0.237 OA
ATOM     94  O   UNL A   1      46.452  29.458  24.734  1.00  0.00    -0.237 OA
ATOM     95  O   UNL A   1      45.247  31.102  26.121  1.00  0.00    -0.744 OA
ENDBRANCH  91  92
ENDBRANCH  59  84
ENDBRANCH  33  34
ENDBRANCH  25  28
ENDBRANCH  23  24
ENDBRANCH   1  23
TORSDOF 15
ENDMDL
MODEL 3
REMARK VINA RESULT:     -12.1      3.233      9.108
REMARK SMILES O=C(Cc1cccn1-c1ccc2c(c1)OCCO2)NCCCNC(=O)c1ccc(-c2c3nc(c(-c4c(F)cc(S(=O)(=O)[O-])cc4F)c4ccc([nH]4)c(-c4c(F)cc(S(=O)(=O)[O-])cc4F)c4nc(c(-c5c(F)cc(S(=O)(=O)[O-])cc5F)c5ccc2[nH]5)C=C4)C=C3)cc1
REMARK SMILES IDX 21 1 20 2 19 3 1 4 2 5 3 7 4 8 5 9 8 10 6 11 7 12 9 13 10 14
REMARK SMILES IDX 14 15 11 16 13 17 12 18 15 19 18 20 16 21 17 22 22 23 23 24
REMARK SMILES IDX 24 25 25 27 26 28 27 29 91 30 28 31 90 32 29 33 30 34 31 35
REMARK SMILES IDX 84 36 32 37 89 38 83 39 85 40 33 41 88 42 82 43 81 44 34 46
REMARK SMILES IDX 68 47 47 48 67 49 48 50 51 51 66 52 86 53 49 54 50 55 65 57
REMARK SMILES IDX 87 58 52 59 35 60 36 61 45 62 37 63 38 64 44 65 46 66 39 67
REMARK SMILES IDX 40 68 41 69 42 70 43 71 69 72 70 73 79 74 71 75 72 76 78 77
REMARK SMILES IDX 80 78 73 79 74 80 75 81 76 82 77 83 53 84 54 85 63 86 55 87
REMARK SMILES IDX 56 88 62 89 64 90 57 91 58 92 59 93 60 94 61 95
REMARK H PARENT 19 6 23 26 85 45 51 56
REMARK Flexibility Score: inf
ROOT
ATOM      1  C   UNL A   1      33.344  31.172  27.657  1.00  0.00     0.042 C 
ENDROOT
BRANCH   1   2
ATOM      2  C   UNL A   1      34.263  30.025  27.252  1.00  0.00     0.117 C 
BRANCH   2   3
ATOM      3  N   UNL A   1      33.563  28.769  27.064  1.00  0.00    -0.356 N 
ATOM      4  O   UNL A   1      34.000  28.606  24.820  1.00  0.00    -0.275 OA
ATOM      5  C   UNL A   1      33.578  28.099  25.858  1.00  0.00     0.225 C 
ATOM      6  H   UNL A   1      33.062  28.384  27.818  1.00  0.00     0.163 HD
BRANCH   5   7
ATOM      7  C   UNL A   1      33.006  26.694  25.880  1.00  0.00     0.154 C 
BRANCH   7   8
ATOM      8  C   UNL A   1      33.170  25.907  24.602  1.00  0.00     0.032 A 
ATOM      9  C   UNL A   1      34.182  25.003  24.311  1.00  0.00     0.024 A 
ATOM     10  N   UNL A   1      32.219  25.801  23.590  1.00  0.00    -0.320 N 
ATOM     11  C   UNL A   1      33.815  24.291  23.149  1.00  0.00     0.020 A 
ATOM     12  C   UNL A   1      32.587  24.768  22.755  1.00  0.00     0.091 A 
BRANCH  10  13
ATOM     13  C   UNL A   1      31.058  26.584  23.399  1.00  0.00     0.049 A 
ATOM     14  C   UNL A   1      29.857  26.227  24.019  1.00  0.00     0.031 A 
ATOM     15  C   UNL A   1      31.114  27.690  22.554  1.00  0.00     0.077 A 
ATOM     16  C   UNL A   1      28.735  27.049  23.858  1.00  0.00     0.052 A 
ATOM     17  C   UNL A   1      30.009  28.521  22.424  1.00  0.00     0.163 A 
ATOM     18  C   UNL A   1      28.813  28.200  23.071  1.00  0.00     0.161 A 
ATOM     19  O   UNL A   1      30.171  29.637  21.644  1.00  0.00    -0.486 OA
ATOM     20  O   UNL A   1      27.685  28.975  22.983  1.00  0.00    -0.486 OA
ATOM     21  C   UNL A   1      29.191  30.620  21.986  1.00  0.00     0.271 C 
ATOM     22  C   UNL A   1      27.808  29.988  21.974  1.00  0.00     0.271 C 
ENDBRANCH  10  13
ENDBRANCH   7   8
ENDBRANCH   5   7
ENDBRANCH   2   3
ENDBRANCH   1   2
BRANCH   1  23
ATOM     23  C   UNL A   1      34.098  32.471  27.948  1.00  0.00     0.118 C 
BRANCH  23  24
ATOM     24  N   UNL A   1      34.044  32.816  29.364  1.00  0.00    -0.352 N 
ATOM     25  C   UNL A   1      34.780  32.338  30.421  1.00  0.00     0.251 C 
ATOM     26  H   UNL A   1      33.374  33.498  29.598  1.00  0.00     0.163 HD
ATOM     27  O   UNL A   1      34.352  32.513  31.556  1.00  0.00    -0.269 OA
BRANCH  25  28
ATOM     28  C   UNL A   1      36.053  31.604  30.228  1.00  0.00     0.039 A 
ATOM     29  C   UNL A   1      36.750  31.815  29.028  1.00  0.00     0.014 A 
ATOM     30  C   UNL A   1      36.526  30.660  31.146  1.00  0.00     0.014 A 
ATOM     31  C   UNL A   1      37.954  31.151  28.786  1.00  0.00     0.010 A 
ATOM     32  C   UNL A   1      37.734  29.998  30.912  1.00  0.00     0.010 A 
ATOM     33  C   UNL A   1      38.470  30.272  29.748  1.00  0.00    -0.014 A 
BRANCH  33  34
ATOM     34  C   UNL A   1      39.913  29.906  29.678  1.00  0.00     0.031 A 
ATOM     35  C   UNL A   1      40.803  31.083  30.189  1.00  0.00     0.074 A 
ATOM     36  C   UNL A   1      40.244  28.657  29.216  1.00  0.00     0.049 A 
ATOM     37  N   UNL A   1      42.076  31.298  30.056  1.00  0.00    -0.248 NA
ATOM     38  C   UNL A   1      40.167  32.219  30.926  1.00  0.00     0.031 C 
ATOM     39  C   UNL A   1      39.269  27.626  28.791  1.00  0.00     0.029 A 
ATOM     40  N   UNL A   1      41.440  27.985  29.009  1.00  0.00    -0.354 N 
ATOM     41  C   UNL A   1      42.418  32.404  30.880  1.00  0.00     0.074 A 
ATOM     42  C   UNL A   1      41.187  32.999  31.285  1.00  0.00     0.031 C 
ATOM     43  C   UNL A   1      39.895  26.525  28.310  1.00  0.00     0.029 A 
ATOM     44  C   UNL A   1      41.334  26.692  28.408  1.00  0.00     0.049 A 
ATOM     45  H   UNL A   1      42.309  28.374  29.260  1.00  0.00     0.167 HD
ATOM     46  C   UNL A   1      43.694  32.669  31.293  1.00  0.00     0.037 A 
ATOM     47  C   UNL A   1      42.328  25.830  28.009  1.00  0.00     0.037 A 
ATOM     48  C   UNL A   1      44.585  31.744  30.689  1.00  0.00     0.049 A 
ATOM     49  C   UNL A   1      43.551  26.375  28.608  1.00  0.00     0.074 A 
ATOM     50  C   UNL A   1      45.009  31.601  29.396  1.00  0.00     0.029 A 
ATOM     51  N   UNL A   1      44.850  30.596  31.395  1.00  0.00    -0.354 N 
ATOM     52  N   UNL A   1      43.834  26.310  29.874  1.00  0.00    -0.248 NA
ATOM     53  C   UNL A   1      44.514  27.074  27.750  1.00  0.00     0.031 C 
ATOM     54  C   UNL A   1      45.056  30.205  29.237  1.00  0.00     0.029 A 
ATOM     55  C   UNL A   1      44.919  29.578  30.483  1.00  0.00     0.049 A 
ATOM     56  H   UNL A   1      44.970  30.520  32.369  1.00  0.00     0.167 HD
ATOM     57  C   UNL A   1      44.809  27.263  29.996  1.00  0.00     0.074 A 
ATOM     58  C   UNL A   1      45.396  27.428  28.681  1.00  0.00     0.031 C 
ATOM     59  C   UNL A   1      44.657  28.232  30.933  1.00  0.00     0.037 A 
BRANCH  46  60
ATOM     60  C   UNL A   1      44.272  33.530  32.391  1.00  0.00     0.058 A 
ATOM     61  C   UNL A   1      43.928  33.209  33.731  1.00  0.00     0.135 A 
ATOM     62  C   UNL A   1      44.790  34.815  32.182  1.00  0.00     0.135 A 
ATOM     63  F   UNL A   1      43.496  31.978  34.055  1.00  0.00    -0.206 F 
ATOM     64  C   UNL A   1      43.928  34.149  34.754  1.00  0.00     0.059 A 
ATOM     65  C   UNL A   1      44.846  35.765  33.209  1.00  0.00     0.059 A 
ATOM     66  F   UNL A   1      45.178  35.214  30.963  1.00  0.00    -0.206 F 
ATOM     67  C   UNL A   1      44.351  35.441  34.472  1.00  0.00     0.060 A 
BRANCH  67  68
ATOM     68  S   UNL A   1      44.195  36.689  35.769  1.00  0.00     0.124 S 
ATOM     69  O   UNL A   1      43.024  36.214  36.497  1.00  0.00    -0.237 OA
ATOM     70  O   UNL A   1      45.469  36.566  36.471  1.00  0.00    -0.237 OA
ATOM     71  O   UNL A   1      44.019  37.929  35.019  1.00  0.00    -0.744 OA
ENDBRANCH  67  68
ENDBRANCH  46  60
BRANCH  47  72
ATOM     72  C   UNL A   1      42.548  24.580  27.160  1.00  0.00     0.058 A 
ATOM     73  C   UNL A   1      42.707  24.533  25.770  1.00  0.00     0.135 A 
ATOM     74  C   UNL A   1      42.805  23.327  27.805  1.00  0.00     0.135 A 
ATOM     75  F   UNL A   1      42.367  25.577  25.005  1.00  0.00    -0.206 F 
ATOM     76  C   UNL A   1      43.248  23.405  25.109  1.00  0.00     0.059 A 
ATOM     77  C   UNL A   1      43.398  22.228  27.189  1.00  0.00     0.059 A 
ATOM     78  F   UNL A   1      42.525  23.124  29.101  1.00  0.00    -0.206 F 
ATOM     79  C   UNL A   1      43.658  22.287  25.838  1.00  0.00     0.060 A 
BRANCH  79  80
ATOM     80  S   UNL A   1      44.659  20.983  25.082  1.00  0.00     0.124 S 
ATOM     81  O   UNL A   1      43.998  19.774  25.557  1.00  0.00    -0.237 OA
ATOM     82  O   UNL A   1      44.522  21.269  23.657  1.00  0.00    -0.237 OA
ATOM     83  O   UNL A   1      45.993  21.227  25.627  1.00  0.00    -0.744 OA
ENDBRANCH  79  80
ENDBRANCH  47  72
BRANCH  59  84
ATOM     84  C   UNL A   1      43.871  27.816  32.166  1.00  0.00     0.058 A 
ATOM     85  C   UNL A   1      44.391  26.830  33.024  1.00  0.00     0.135 A 
ATOM     86  C   UNL A   1      42.588  28.292  32.494  1.00  0.00     0.135 A 
ATOM     87  F   UNL A   1      45.613  26.323  32.794  1.00  0.00    -0.206 F 
ATOM     88  C   UNL A   1      43.686  26.350  34.133  1.00  0.00     0.059 A 
ATOM     89  C   UNL A   1      41.863  27.835  33.602  1.00  0.00     0.059 A 
ATOM     90  F   UNL A   1      41.996  29.221  31.744  1.00  0.00    -0.206 F 
ATOM     91  C   UNL A   1      42.421  26.860  34.419  1.00  0.00     0.060 A 
BRANCH  91  92
ATOM     92  S   UNL A   1      41.541  26.256  35.878  1.00  0.00     0.124 S 
ATOM     93  O   UNL A   1      41.216  27.492  36.583  1.00  0.00    -0.237 OA
ATOM     94  O   UNL A   1      40.408  25.553  35.284  1.00  0.00    -0.237 OA
ATOM     95  O   UNL A   1      42.520  25.403  36.548  1.00  0.00    -0.744 OA
ENDBRANCH  91  92
ENDBRANCH  59  84
ENDBRANCH  33  34
ENDBRANCH  25  28
ENDBRANCH  23  24
ENDBRANCH   1  23
TORSDOF 15
ENDMDL
