MODEL 1
REMARK VINA RESULT:     -13.9      0.000      0.000
REMARK SMILES Cc1ccc(NC(=O)[C@H]2CC(Cl)=CC[C@@H]2C(=O)NCCCNC(=O)c2ccc(-c3c4nc(c(-c5c(F)cc(S(=O)(=O)[O-])cc5F)c5ccc([nH]5)c(-c5c(F)cc(S(=O)(=O)[O-])cc5F)c5nc(c(-c6c(F)cc(S(=O)(=O)[O-])cc6F)c6ccc3[nH]6)C=C5)C=C4)cc2)cc1[N+](=O)[O-]
REMARK SMILES IDX 20 1 19 2 18 3 16 4 17 5 15 7 9 8 10 9 11 10 14 11 12 12
REMARK SMILES IDX 13 13 7 14 6 15 8 17 5 18 1 19 2 20 3 21 92 22 4 23 91 24
REMARK SMILES IDX 93 25 94 26 95 27 21 28 22 29 23 30 24 32 25 33 26 34 90 35
REMARK SMILES IDX 27 36 89 37 28 38 29 39 30 40 83 41 31 42 88 43 82 44 84 45
REMARK SMILES IDX 32 46 87 47 81 48 80 49 33 51 67 52 46 53 66 54 47 55 50 56
REMARK SMILES IDX 65 57 85 58 48 59 49 60 64 62 86 63 51 64 34 65 35 66 44 67
REMARK SMILES IDX 36 68 37 69 43 70 45 71 38 72 39 73 40 74 41 75 42 76 68 77
REMARK SMILES IDX 69 78 78 79 70 80 71 81 77 82 79 83 72 84 73 85 74 86 75 87
REMARK SMILES IDX 76 88 52 89 53 90 62 91 54 92 55 93 61 94 63 95 56 96 57 97
REMARK SMILES IDX 58 98 59 99 60 100
REMARK H PARENT 18 6 6 16 22 31 84 50 50 61
REMARK Flexibility Score: inf
ROOT
ATOM      1  C   UNL A   1      32.888  30.368  27.284  1.00  0.00     0.042 C 
ENDROOT
BRANCH   1   2
ATOM      2  C   UNL A   1      32.032  29.240  26.708  1.00  0.00     0.117 C 
BRANCH   2   3
ATOM      3  N   UNL A   1      32.706  27.953  26.686  1.00  0.00    -0.356 N 
ATOM      4  C   UNL A   1      33.003  27.107  25.662  1.00  0.00     0.224 C 
ATOM      5  O   UNL A   1      33.778  26.178  25.908  1.00  0.00    -0.275 OA
ATOM      6  H   UNL A   1      33.001  27.636  27.570  1.00  0.00     0.163 HD
BRANCH   4   7
ATOM      7  C   UNL A   1      32.368  27.241  24.271  1.00  0.00     0.095 C 
ATOM      8  C   UNL A   1      31.830  25.859  23.833  1.00  0.00     0.097 C 
ATOM      9  C   UNL A   1      31.443  25.808  22.351  1.00  0.00     0.062 C 
ATOM     10  C   UNL A   1      32.586  26.239  21.497  1.00  0.00     0.015 C 
ATOM     11  C   UNL A   1      33.472  27.743  23.291  1.00  0.00     0.043 C 
ATOM     12  Cl  UNL A   1      32.711  25.503  19.944  1.00  0.00    -0.089 Cl
ATOM     13  C   UNL A   1      33.506  27.110  21.925  1.00  0.00    -0.010 C 
BRANCH   8  14
ATOM     14  C   UNL A   1      30.595  25.448  24.617  1.00  0.00     0.228 C 
ATOM     15  N   UNL A   1      30.425  24.170  25.066  1.00  0.00    -0.326 N 
ATOM     16  H   UNL A   1      29.546  23.969  25.460  1.00  0.00     0.169 HD
ATOM     17  O   UNL A   1      29.744  26.286  24.932  1.00  0.00    -0.274 OA
BRANCH  15  18
ATOM     18  C   UNL A   1      31.335  23.109  25.036  1.00  0.00     0.048 A 
ATOM     19  C   UNL A   1      34.902  20.702  24.665  1.00  0.00     0.052 C 
ATOM     20  C   UNL A   1      33.609  21.436  24.872  1.00  0.00     0.027 A 
ATOM     21  C   UNL A   1      32.617  21.384  23.891  1.00  0.00     0.012 A 
ATOM     22  C   UNL A   1      33.342  22.248  25.976  1.00  0.00     0.274 A 
ATOM     23  C   UNL A   1      31.481  22.202  23.983  1.00  0.00     0.027 A 
ATOM     24  C   UNL A   1      32.210  23.050  26.099  1.00  0.00     0.112 A 
BRANCH  22  25
ATOM     25  N   UNL A   1      34.264  22.357  27.060  1.00  0.00     0.063 N 
ATOM     26  O   UNL A   1      34.191  21.473  27.926  1.00  0.00    -0.258 OA
ATOM     27  O   UNL A   1      35.122  23.237  26.940  1.00  0.00    -0.258 OA
ENDBRANCH  22  25
ENDBRANCH  15  18
ENDBRANCH   8  14
ENDBRANCH   4   7
ENDBRANCH   2   3
ENDBRANCH   1   2
BRANCH   1  28
ATOM     28  C   UNL A   1      34.392  30.057  27.359  1.00  0.00     0.118 C 
BRANCH  28  29
ATOM     29  N   UNL A   1      35.107  31.154  28.005  1.00  0.00    -0.352 N 
ATOM     30  C   UNL A   1      36.309  31.175  28.685  1.00  0.00     0.251 C 
ATOM     31  H   UNL A   1      34.656  32.028  27.946  1.00  0.00     0.163 HD
ATOM     32  O   UNL A   1      36.688  32.156  29.283  1.00  0.00    -0.269 OA
BRANCH  30  33
ATOM     33  C   UNL A   1      37.163  29.973  28.611  1.00  0.00     0.039 A 
ATOM     34  C   UNL A   1      37.210  29.135  29.729  1.00  0.00     0.014 A 
ATOM     35  C   UNL A   1      37.995  29.758  27.518  1.00  0.00     0.014 A 
ATOM     36  C   UNL A   1      38.217  28.174  29.827  1.00  0.00     0.010 A 
ATOM     37  C   UNL A   1      39.012  28.819  27.633  1.00  0.00     0.010 A 
ATOM     38  C   UNL A   1      39.176  28.071  28.814  1.00  0.00    -0.014 A 
BRANCH  38  39
ATOM     39  C   UNL A   1      40.484  27.433  29.044  1.00  0.00     0.031 A 
ATOM     40  C   UNL A   1      40.852  26.080  28.552  1.00  0.00     0.074 A 
ATOM     41  C   UNL A   1      41.494  28.208  29.509  1.00  0.00     0.049 A 
ATOM     42  N   UNL A   1      41.885  25.422  28.977  1.00  0.00    -0.248 NA
ATOM     43  C   UNL A   1      40.099  25.354  27.536  1.00  0.00     0.031 C 
ATOM     44  C   UNL A   1      42.930  27.978  29.337  1.00  0.00     0.029 A 
ATOM     45  N   UNL A   1      41.434  29.418  30.209  1.00  0.00    -0.354 N 
ATOM     46  C   UNL A   1      42.114  24.389  28.102  1.00  0.00     0.074 A 
ATOM     47  C   UNL A   1      40.931  24.341  27.267  1.00  0.00     0.031 C 
ATOM     48  C   UNL A   1      43.614  28.874  30.057  1.00  0.00     0.029 A 
ATOM     49  C   UNL A   1      42.662  29.585  30.883  1.00  0.00     0.049 A 
ATOM     50  H   UNL A   1      40.671  30.041  30.228  1.00  0.00     0.167 HD
ATOM     51  C   UNL A   1      43.324  23.755  28.071  1.00  0.00     0.037 A 
ATOM     52  C   UNL A   1      42.688  29.600  32.249  1.00  0.00     0.037 A 
ATOM     53  C   UNL A   1      44.292  24.330  29.008  1.00  0.00     0.049 A 
ATOM     54  C   UNL A   1      43.325  28.367  32.862  1.00  0.00     0.074 A 
ATOM     55  C   UNL A   1      45.391  25.165  28.878  1.00  0.00     0.029 A 
ATOM     56  N   UNL A   1      44.035  24.265  30.366  1.00  0.00    -0.354 N 
ATOM     57  N   UNL A   1      44.002  27.473  32.193  1.00  0.00    -0.248 NA
ATOM     58  C   UNL A   1      43.184  28.004  34.274  1.00  0.00     0.031 C 
ATOM     59  C   UNL A   1      45.772  25.618  30.174  1.00  0.00     0.029 A 
ATOM     60  C   UNL A   1      44.900  25.064  31.093  1.00  0.00     0.049 A 
ATOM     61  H   UNL A   1      43.323  23.715  30.768  1.00  0.00     0.167 HD
ATOM     62  C   UNL A   1      44.226  26.386  32.992  1.00  0.00     0.074 A 
ATOM     63  C   UNL A   1      43.761  26.790  34.305  1.00  0.00     0.031 C 
ATOM     64  C   UNL A   1      44.700  25.197  32.525  1.00  0.00     0.037 A 
BRANCH  51  65
ATOM     65  C   UNL A   1      43.678  22.731  27.017  1.00  0.00     0.058 A 
ATOM     66  C   UNL A   1      43.057  21.465  26.971  1.00  0.00     0.135 A 
ATOM     67  C   UNL A   1      44.640  22.958  26.011  1.00  0.00     0.135 A 
ATOM     68  F   UNL A   1      42.077  21.131  27.820  1.00  0.00    -0.206 F 
ATOM     69  C   UNL A   1      43.427  20.471  26.063  1.00  0.00     0.059 A 
ATOM     70  C   UNL A   1      45.065  21.962  25.126  1.00  0.00     0.059 A 
ATOM     71  F   UNL A   1      45.186  24.173  25.842  1.00  0.00    -0.206 F 
ATOM     72  C   UNL A   1      44.456  20.716  25.163  1.00  0.00     0.060 A 
BRANCH  72  73
ATOM     73  S   UNL A   1      44.995  19.381  24.077  1.00  0.00     0.124 S 
ATOM     74  O   UNL A   1      44.356  18.213  24.679  1.00  0.00    -0.237 OA
ATOM     75  O   UNL A   1      44.458  19.803  22.788  1.00  0.00    -0.237 OA
ATOM     76  O   UNL A   1      46.449  19.415  24.195  1.00  0.00    -0.744 OA
ENDBRANCH  72  73
ENDBRANCH  51  65
BRANCH  52  77
ATOM     77  C   UNL A   1      41.565  30.402  32.805  1.00  0.00     0.058 A 
ATOM     78  C   UNL A   1      40.391  29.700  33.142  1.00  0.00     0.135 A 
ATOM     79  C   UNL A   1      41.783  31.641  33.425  1.00  0.00     0.135 A 
ATOM     80  F   UNL A   1      40.128  28.514  32.568  1.00  0.00    -0.206 F 
ATOM     81  C   UNL A   1      39.558  30.122  34.172  1.00  0.00     0.059 A 
ATOM     82  C   UNL A   1      40.955  32.085  34.458  1.00  0.00     0.059 A 
ATOM     83  F   UNL A   1      42.884  32.353  33.142  1.00  0.00    -0.206 F 
ATOM     84  C   UNL A   1      39.888  31.282  34.867  1.00  0.00     0.060 A 
BRANCH  84  85
ATOM     85  S   UNL A   1      39.009  31.613  36.413  1.00  0.00     0.124 S 
ATOM     86  O   UNL A   1      40.093  32.023  37.297  1.00  0.00    -0.237 OA
ATOM     87  O   UNL A   1      38.086  32.676  36.013  1.00  0.00    -0.237 OA
ATOM     88  O   UNL A   1      38.387  30.332  36.727  1.00  0.00    -0.744 OA
ENDBRANCH  84  85
ENDBRANCH  52  77
BRANCH  64  89
ATOM     89  C   UNL A   1      44.998  24.051  33.438  1.00  0.00     0.058 A 
ATOM     90  C   UNL A   1      46.271  23.893  34.008  1.00  0.00     0.135 A 
ATOM     91  C   UNL A   1      44.068  23.018  33.664  1.00  0.00     0.135 A 
ATOM     92  F   UNL A   1      47.224  24.819  33.813  1.00  0.00    -0.206 F 
ATOM     93  C   UNL A   1      46.600  22.782  34.780  1.00  0.00     0.059 A 
ATOM     94  C   UNL A   1      44.386  21.880  34.399  1.00  0.00     0.059 A 
ATOM     95  F   UNL A   1      42.816  23.099  33.190  1.00  0.00    -0.206 F 
ATOM     96  C   UNL A   1      45.651  21.779  34.969  1.00  0.00     0.060 A 
BRANCH  96  97
ATOM     97  S   UNL A   1      46.080  20.320  35.939  1.00  0.00     0.124 S 
ATOM     98  O   UNL A   1      47.517  20.189  35.709  1.00  0.00    -0.237 OA
ATOM     99  O   UNL A   1      45.694  20.741  37.281  1.00  0.00    -0.237 OA
ATOM    100  O   UNL A   1      45.260  19.270  35.344  1.00  0.00    -0.744 OA
ENDBRANCH  96  97
ENDBRANCH  64  89
ENDBRANCH  38  39
ENDBRANCH  30  33
ENDBRANCH  28  29
ENDBRANCH   1  28
TORSDOF 16
ENDMDL
MODEL 2
REMARK VINA RESULT:     -13.7      4.947     11.319
REMARK SMILES Cc1ccc(NC(=O)[C@H]2CC(Cl)=CC[C@@H]2C(=O)NCCCNC(=O)c2ccc(-c3c4nc(c(-c5c(F)cc(S(=O)(=O)[O-])cc5F)c5ccc([nH]5)c(-c5c(F)cc(S(=O)(=O)[O-])cc5F)c5nc(c(-c6c(F)cc(S(=O)(=O)[O-])cc6F)c6ccc3[nH]6)C=C5)C=C4)cc2)cc1[N+](=O)[O-]
REMARK SMILES IDX 20 1 19 2 18 3 16 4 17 5 15 7 9 8 10 9 11 10 14 11 12 12
REMARK SMILES IDX 13 13 7 14 6 15 8 17 5 18 1 19 2 20 3 21 92 22 4 23 91 24
REMARK SMILES IDX 93 25 94 26 95 27 21 28 22 29 23 30 24 32 25 33 26 34 90 35
REMARK SMILES IDX 27 36 89 37 28 38 29 39 30 40 83 41 31 42 88 43 82 44 84 45
REMARK SMILES IDX 32 46 87 47 81 48 80 49 33 51 67 52 46 53 66 54 47 55 50 56
REMARK SMILES IDX 65 57 85 58 48 59 49 60 64 62 86 63 51 64 34 65 35 66 44 67
REMARK SMILES IDX 36 68 37 69 43 70 45 71 38 72 39 73 40 74 41 75 42 76 68 77
REMARK SMILES IDX 69 78 78 79 70 80 71 81 77 82 79 83 72 84 73 85 74 86 75 87
REMARK SMILES IDX 76 88 52 89 53 90 62 91 54 92 55 93 61 94 63 95 56 96 57 97
REMARK SMILES IDX 58 98 59 99 60 100
REMARK H PARENT 18 6 6 16 22 31 84 50 50 61
REMARK Flexibility Score: inf
ROOT
ATOM      1  C   UNL A   1      37.984  22.027  25.135  1.00  0.00     0.042 C 
ENDROOT
BRANCH   1   2
ATOM      2  C   UNL A   1      36.655  22.200  24.399  1.00  0.00     0.117 C 
BRANCH   2   3
ATOM      3  N   UNL A   1      36.073  23.522  24.555  1.00  0.00    -0.356 N 
ATOM      4  C   UNL A   1      34.890  23.929  25.090  1.00  0.00     0.224 C 
ATOM      5  O   UNL A   1      34.751  25.140  25.287  1.00  0.00    -0.275 OA
ATOM      6  H   UNL A   1      36.634  24.254  24.212  1.00  0.00     0.163 HD
BRANCH   4   7
ATOM      7  C   UNL A   1      33.740  22.956  25.387  1.00  0.00     0.095 C 
ATOM      8  C   UNL A   1      32.456  23.479  24.701  1.00  0.00     0.097 C 
ATOM      9  C   UNL A   1      31.189  22.753  25.169  1.00  0.00     0.062 C 
ATOM     10  C   UNL A   1      31.072  22.810  26.654  1.00  0.00     0.015 C 
ATOM     11  C   UNL A   1      33.558  22.894  26.934  1.00  0.00     0.043 C 
ATOM     12  Cl  UNL A   1      29.475  22.856  27.301  1.00  0.00    -0.089 Cl
ATOM     13  C   UNL A   1      32.143  22.879  27.451  1.00  0.00    -0.010 C 
BRANCH   8  14
ATOM     14  C   UNL A   1      32.509  23.328  23.191  1.00  0.00     0.228 C 
ATOM     15  N   UNL A   1      32.120  24.336  22.357  1.00  0.00    -0.326 N 
ATOM     16  H   UNL A   1      32.078  24.109  21.401  1.00  0.00     0.169 HD
ATOM     17  O   UNL A   1      32.977  22.306  22.678  1.00  0.00    -0.274 OA
BRANCH  15  18
ATOM     18  C   UNL A   1      31.772  25.650  22.684  1.00  0.00     0.048 A 
ATOM     19  C   UNL A   1      31.106  29.380  24.759  1.00  0.00     0.052 C 
ATOM     20  C   UNL A   1      31.335  28.157  23.920  1.00  0.00     0.027 A 
ATOM     21  C   UNL A   1      30.259  27.331  23.587  1.00  0.00     0.012 A 
ATOM     22  C   UNL A   1      32.594  27.732  23.488  1.00  0.00     0.274 A 
ATOM     23  C   UNL A   1      30.476  26.096  22.959  1.00  0.00     0.027 A 
ATOM     24  C   UNL A   1      32.830  26.520  22.842  1.00  0.00     0.112 A 
BRANCH  22  25
ATOM     25  N   UNL A   1      33.766  28.506  23.737  1.00  0.00     0.063 N 
ATOM     26  O   UNL A   1      34.204  28.473  24.895  1.00  0.00    -0.258 OA
ATOM     27  O   UNL A   1      34.292  29.008  22.738  1.00  0.00    -0.258 OA
ENDBRANCH  22  25
ENDBRANCH  15  18
ENDBRANCH   8  14
ENDBRANCH   4   7
ENDBRANCH   2   3
ENDBRANCH   1   2
BRANCH   1  28
ATOM     28  C   UNL A   1      38.343  23.179  26.088  1.00  0.00     0.118 C 
BRANCH  28  29
ATOM     29  N   UNL A   1      39.721  23.045  26.551  1.00  0.00    -0.352 N 
ATOM     30  C   UNL A   1      40.618  23.991  27.009  1.00  0.00     0.251 C 
ATOM     31  H   UNL A   1      40.072  22.125  26.534  1.00  0.00     0.163 HD
ATOM     32  O   UNL A   1      41.778  23.722  27.223  1.00  0.00    -0.269 OA
BRANCH  30  33
ATOM     33  C   UNL A   1      40.104  25.345  27.297  1.00  0.00     0.039 A 
ATOM     34  C   UNL A   1      40.504  26.388  26.456  1.00  0.00     0.014 A 
ATOM     35  C   UNL A   1      39.359  25.594  28.444  1.00  0.00     0.014 A 
ATOM     36  C   UNL A   1      40.302  27.709  26.856  1.00  0.00     0.010 A 
ATOM     37  C   UNL A   1      39.187  26.910  28.850  1.00  0.00     0.010 A 
ATOM     38  C   UNL A   1      39.718  27.975  28.098  1.00  0.00    -0.014 A 
BRANCH  38  39
ATOM     39  C   UNL A   1      39.884  29.274  28.774  1.00  0.00     0.031 A 
ATOM     40  C   UNL A   1      38.826  30.314  28.859  1.00  0.00     0.074 A 
ATOM     41  C   UNL A   1      40.965  29.437  29.575  1.00  0.00     0.049 A 
ATOM     42  N   UNL A   1      39.057  31.540  29.210  1.00  0.00    -0.248 NA
ATOM     43  C   UNL A   1      37.420  30.065  28.565  1.00  0.00     0.031 C 
ATOM     44  C   UNL A   1      41.092  30.363  30.703  1.00  0.00     0.029 A 
ATOM     45  N   UNL A   1      42.184  28.752  29.571  1.00  0.00    -0.354 N 
ATOM     46  C   UNL A   1      37.850  32.127  29.500  1.00  0.00     0.074 A 
ATOM     47  C   UNL A   1      36.856  31.196  29.008  1.00  0.00     0.031 C 
ATOM     48  C   UNL A   1      42.350  30.342  31.158  1.00  0.00     0.029 A 
ATOM     49  C   UNL A   1      43.135  29.565  30.224  1.00  0.00     0.049 A 
ATOM     50  H   UNL A   1      42.350  27.863  29.182  1.00  0.00     0.167 HD
ATOM     51  C   UNL A   1      37.791  33.275  30.239  1.00  0.00     0.037 A 
ATOM     52  C   UNL A   1      44.204  30.052  29.524  1.00  0.00     0.037 A 
ATOM     53  C   UNL A   1      39.109  33.730  30.689  1.00  0.00     0.049 A 
ATOM     54  C   UNL A   1      44.140  31.546  29.273  1.00  0.00     0.074 A 
ATOM     55  C   UNL A   1      39.789  33.689  31.896  1.00  0.00     0.029 A 
ATOM     56  N   UNL A   1      40.047  34.114  29.748  1.00  0.00    -0.354 N 
ATOM     57  N   UNL A   1      43.294  32.358  29.849  1.00  0.00    -0.248 NA
ATOM     58  C   UNL A   1      44.979  32.236  28.292  1.00  0.00     0.031 C 
ATOM     59  C   UNL A   1      41.153  34.028  31.659  1.00  0.00     0.029 A 
ATOM     60  C   UNL A   1      41.303  34.269  30.306  1.00  0.00     0.049 A 
ATOM     61  H   UNL A   1      39.846  34.259  28.794  1.00  0.00     0.167 HD
ATOM     62  C   UNL A   1      43.345  33.576  29.228  1.00  0.00     0.074 A 
ATOM     63  C   UNL A   1      44.462  33.476  28.309  1.00  0.00     0.031 C 
ATOM     64  C   UNL A   1      42.429  34.564  29.437  1.00  0.00     0.037 A 
BRANCH  51  65
ATOM     65  C   UNL A   1      36.485  33.864  30.723  1.00  0.00     0.058 A 
ATOM     66  C   UNL A   1      35.508  34.345  29.826  1.00  0.00     0.135 A 
ATOM     67  C   UNL A   1      36.146  33.975  32.087  1.00  0.00     0.135 A 
ATOM     68  F   UNL A   1      35.661  34.245  28.500  1.00  0.00    -0.206 F 
ATOM     69  C   UNL A   1      34.334  34.971  30.248  1.00  0.00     0.059 A 
ATOM     70  C   UNL A   1      35.004  34.646  32.536  1.00  0.00     0.059 A 
ATOM     71  F   UNL A   1      36.912  33.411  33.035  1.00  0.00    -0.206 F 
ATOM     72  C   UNL A   1      34.104  35.148  31.606  1.00  0.00     0.060 A 
BRANCH  72  73
ATOM     73  S   UNL A   1      32.638  36.060  32.126  1.00  0.00     0.124 S 
ATOM     74  O   UNL A   1      31.733  34.989  32.534  1.00  0.00    -0.237 OA
ATOM     75  O   UNL A   1      33.163  36.890  33.205  1.00  0.00    -0.237 OA
ATOM     76  O   UNL A   1      32.239  36.776  30.919  1.00  0.00    -0.744 OA
ENDBRANCH  72  73
ENDBRANCH  51  65
BRANCH  52  77
ATOM     77  C   UNL A   1      44.788  29.015  28.632  1.00  0.00     0.058 A 
ATOM     78  C   UNL A   1      44.413  29.062  27.275  1.00  0.00     0.135 A 
ATOM     79  C   UNL A   1      45.983  28.357  28.954  1.00  0.00     0.135 A 
ATOM     80  F   UNL A   1      43.270  29.670  26.914  1.00  0.00    -0.206 F 
ATOM     81  C   UNL A   1      45.266  28.631  26.266  1.00  0.00     0.059 A 
ATOM     82  C   UNL A   1      46.852  27.912  27.955  1.00  0.00     0.059 A 
ATOM     83  F   UNL A   1      46.391  28.281  30.230  1.00  0.00    -0.206 F 
ATOM     84  C   UNL A   1      46.511  28.119  26.617  1.00  0.00     0.060 A 
BRANCH  84  85
ATOM     85  S   UNL A   1      47.732  27.903  25.298  1.00  0.00     0.124 S 
ATOM     86  O   UNL A   1      47.029  28.446  24.142  1.00  0.00    -0.237 OA
ATOM     87  O   UNL A   1      48.851  28.707  25.790  1.00  0.00    -0.237 OA
ATOM     88  O   UNL A   1      47.956  26.462  25.282  1.00  0.00    -0.744 OA
ENDBRANCH  84  85
ENDBRANCH  52  77
BRANCH  64  89
ATOM     89  C   UNL A   1      42.554  35.907  28.793  1.00  0.00     0.058 A 
ATOM     90  C   UNL A   1      43.107  36.993  29.489  1.00  0.00     0.135 A 
ATOM     91  C   UNL A   1      42.011  36.177  27.523  1.00  0.00     0.135 A 
ATOM     92  F   UNL A   1      43.618  36.825  30.720  1.00  0.00    -0.206 F 
ATOM     93  C   UNL A   1      43.143  38.275  28.947  1.00  0.00     0.059 A 
ATOM     94  C   UNL A   1      41.999  37.456  26.977  1.00  0.00     0.059 A 
ATOM     95  F   UNL A   1      41.493  35.194  26.770  1.00  0.00    -0.206 F 
ATOM     96  C   UNL A   1      42.584  38.498  27.689  1.00  0.00     0.060 A 
BRANCH  96  97
ATOM     97  S   UNL A   1      42.595  40.162  26.994  1.00  0.00     0.124 S 
ATOM     98  O   UNL A   1      41.197  40.368  26.624  1.00  0.00    -0.237 OA
ATOM     99  O   UNL A   1      43.068  40.947  28.128  1.00  0.00    -0.237 OA
ATOM    100  O   UNL A   1      43.521  40.049  25.872  1.00  0.00    -0.744 OA
ENDBRANCH  96  97
ENDBRANCH  64  89
ENDBRANCH  38  39
ENDBRANCH  30  33
ENDBRANCH  28  29
ENDBRANCH   1  28
TORSDOF 16
ENDMDL
MODEL 3
REMARK VINA RESULT:     -13.3      1.659      3.325
REMARK SMILES Cc1ccc(NC(=O)[C@H]2CC(Cl)=CC[C@@H]2C(=O)NCCCNC(=O)c2ccc(-c3c4nc(c(-c5c(F)cc(S(=O)(=O)[O-])cc5F)c5ccc([nH]5)c(-c5c(F)cc(S(=O)(=O)[O-])cc5F)c5nc(c(-c6c(F)cc(S(=O)(=O)[O-])cc6F)c6ccc3[nH]6)C=C5)C=C4)cc2)cc1[N+](=O)[O-]
REMARK SMILES IDX 20 1 19 2 18 3 16 4 17 5 15 7 9 8 10 9 11 10 14 11 12 12
REMARK SMILES IDX 13 13 7 14 6 15 8 17 5 18 1 19 2 20 3 21 92 22 4 23 91 24
REMARK SMILES IDX 93 25 94 26 95 27 21 28 22 29 23 30 24 32 25 33 26 34 90 35
REMARK SMILES IDX 27 36 89 37 28 38 29 39 30 40 83 41 31 42 88 43 82 44 84 45
REMARK SMILES IDX 32 46 87 47 81 48 80 49 33 51 67 52 46 53 66 54 47 55 50 56
REMARK SMILES IDX 65 57 85 58 48 59 49 60 64 62 86 63 51 64 34 65 35 66 44 67
REMARK SMILES IDX 36 68 37 69 43 70 45 71 38 72 39 73 40 74 41 75 42 76 68 77
REMARK SMILES IDX 69 78 78 79 70 80 71 81 77 82 79 83 72 84 73 85 74 86 75 87
REMARK SMILES IDX 76 88 52 89 53 90 62 91 54 92 55 93 61 94 63 95 56 96 57 97
REMARK SMILES IDX 58 98 59 99 60 100
REMARK H PARENT 18 6 6 16 22 31 84 50 50 61
REMARK Flexibility Score: inf
ROOT
ATOM      1  C   UNL A   1      34.277  29.365  26.629  1.00  0.00     0.042 C 
ENDROOT
BRANCH   1   2
ATOM      2  C   UNL A   1      34.126  27.851  26.480  1.00  0.00     0.117 C 
BRANCH   2   3
ATOM      3  N   UNL A   1      32.752  27.391  26.597  1.00  0.00    -0.356 N 
ATOM      4  C   UNL A   1      32.180  26.185  26.338  1.00  0.00     0.224 C 
ATOM      5  O   UNL A   1      31.023  26.015  26.736  1.00  0.00    -0.275 OA
ATOM      6  H   UNL A   1      32.123  28.075  26.922  1.00  0.00     0.163 HD
BRANCH   4   7
ATOM      7  C   UNL A   1      32.894  25.088  25.535  1.00  0.00     0.095 C 
ATOM      8  C   UNL A   1      32.475  25.205  24.050  1.00  0.00     0.097 C 
ATOM      9  C   UNL A   1      32.891  23.991  23.213  1.00  0.00     0.062 C 
ATOM     10  C   UNL A   1      32.375  22.733  23.824  1.00  0.00     0.015 C 
ATOM     11  C   UNL A   1      32.465  23.711  26.126  1.00  0.00     0.043 C 
ATOM     12  Cl  UNL A   1      31.972  21.456  22.738  1.00  0.00    -0.089 Cl
ATOM     13  C   UNL A   1      32.178  22.609  25.141  1.00  0.00    -0.010 C 
BRANCH   8  14
ATOM     14  C   UNL A   1      33.082  26.424  23.377  1.00  0.00     0.228 C 
ATOM     15  N   UNL A   1      32.304  27.363  22.763  1.00  0.00    -0.326 N 
ATOM     16  H   UNL A   1      32.788  28.054  22.255  1.00  0.00     0.169 HD
ATOM     17  O   UNL A   1      34.298  26.632  23.431  1.00  0.00    -0.274 OA
BRANCH  15  18
ATOM     18  C   UNL A   1      30.910  27.472  22.761  1.00  0.00     0.048 A 
ATOM     19  C   UNL A   1      26.827  28.600  23.606  1.00  0.00     0.052 C 
ATOM     20  C   UNL A   1      28.202  28.164  23.188  1.00  0.00     0.027 A 
ATOM     21  C   UNL A   1      28.691  26.923  23.601  1.00  0.00     0.012 A 
ATOM     22  C   UNL A   1      29.081  28.959  22.450  1.00  0.00     0.274 A 
ATOM     23  C   UNL A   1      30.031  26.575  23.373  1.00  0.00     0.027 A 
ATOM     24  C   UNL A   1      30.408  28.622  22.191  1.00  0.00     0.112 A 
BRANCH  22  25
ATOM     25  N   UNL A   1      28.685  30.233  21.943  1.00  0.00     0.063 N 
ATOM     26  O   UNL A   1      28.023  30.220  20.897  1.00  0.00    -0.258 OA
ATOM     27  O   UNL A   1      28.926  31.195  22.680  1.00  0.00    -0.258 OA
ENDBRANCH  22  25
ENDBRANCH  15  18
ENDBRANCH   8  14
ENDBRANCH   4   7
ENDBRANCH   2   3
ENDBRANCH   1   2
BRANCH   1  28
ATOM     28  C   UNL A   1      34.281  29.870  28.081  1.00  0.00     0.118 C 
BRANCH  28  29
ATOM     29  N   UNL A   1      35.113  31.063  28.204  1.00  0.00    -0.352 N 
ATOM     30  C   UNL A   1      36.458  31.203  28.488  1.00  0.00     0.251 C 
ATOM     31  H   UNL A   1      34.636  31.912  28.060  1.00  0.00     0.163 HD
ATOM     32  O   UNL A   1      36.960  32.285  28.689  1.00  0.00    -0.269 OA
BRANCH  30  33
ATOM     33  C   UNL A   1      37.295  29.986  28.475  1.00  0.00     0.039 A 
ATOM     34  C   UNL A   1      37.345  29.216  29.641  1.00  0.00     0.014 A 
ATOM     35  C   UNL A   1      38.109  29.694  27.387  1.00  0.00     0.014 A 
ATOM     36  C   UNL A   1      38.340  28.249  29.784  1.00  0.00     0.010 A 
ATOM     37  C   UNL A   1      39.115  28.750  27.546  1.00  0.00     0.010 A 
ATOM     38  C   UNL A   1      39.284  28.072  28.767  1.00  0.00    -0.014 A 
BRANCH  38  39
ATOM     39  C   UNL A   1      40.586  27.429  29.018  1.00  0.00     0.031 A 
ATOM     40  C   UNL A   1      40.961  26.078  28.527  1.00  0.00     0.074 A 
ATOM     41  C   UNL A   1      41.589  28.200  29.507  1.00  0.00     0.049 A 
ATOM     42  N   UNL A   1      41.984  25.416  28.969  1.00  0.00    -0.248 NA
ATOM     43  C   UNL A   1      40.225  25.359  27.494  1.00  0.00     0.031 C 
ATOM     44  C   UNL A   1      43.028  27.968  29.360  1.00  0.00     0.029 A 
ATOM     45  N   UNL A   1      41.518  29.407  30.210  1.00  0.00    -0.354 N 
ATOM     46  C   UNL A   1      42.227  24.387  28.093  1.00  0.00     0.074 A 
ATOM     47  C   UNL A   1      41.061  24.345  27.236  1.00  0.00     0.031 C 
ATOM     48  C   UNL A   1      43.700  28.859  30.098  1.00  0.00     0.029 A 
ATOM     49  C   UNL A   1      42.734  29.568  30.908  1.00  0.00     0.049 A 
ATOM     50  H   UNL A   1      40.757  30.031  30.218  1.00  0.00     0.167 HD
ATOM     51  C   UNL A   1      43.437  23.750  28.082  1.00  0.00     0.037 A 
ATOM     52  C   UNL A   1      42.733  29.576  32.275  1.00  0.00     0.037 A 
ATOM     53  C   UNL A   1      44.388  24.318  29.040  1.00  0.00     0.049 A 
ATOM     54  C   UNL A   1      43.356  28.339  32.894  1.00  0.00     0.074 A 
ATOM     55  C   UNL A   1      45.491  25.151  28.935  1.00  0.00     0.029 A 
ATOM     56  N   UNL A   1      44.105  24.247  30.393  1.00  0.00    -0.354 N 
ATOM     57  N   UNL A   1      44.044  27.447  32.234  1.00  0.00    -0.248 NA
ATOM     58  C   UNL A   1      43.188  27.970  34.301  1.00  0.00     0.031 C 
ATOM     59  C   UNL A   1      45.848  25.598  30.240  1.00  0.00     0.029 A 
ATOM     60  C   UNL A   1      44.958  25.041  31.139  1.00  0.00     0.049 A 
ATOM     61  H   UNL A   1      43.385  23.697  30.779  1.00  0.00     0.167 HD
ATOM     62  C   UNL A   1      44.251  26.356  33.032  1.00  0.00     0.074 A 
ATOM     63  C   UNL A   1      43.762  26.755  34.337  1.00  0.00     0.031 C 
ATOM     64  C   UNL A   1      44.731  25.168  32.569  1.00  0.00     0.037 A 
BRANCH  51  65
ATOM     65  C   UNL A   1      43.808  22.730  27.030  1.00  0.00     0.058 A 
ATOM     66  C   UNL A   1      43.086  21.529  26.869  1.00  0.00     0.135 A 
ATOM     67  C   UNL A   1      44.888  22.898  26.139  1.00  0.00     0.135 A 
ATOM     68  F   UNL A   1      41.995  21.262  27.599  1.00  0.00    -0.206 F 
ATOM     69  C   UNL A   1      43.460  20.533  25.966  1.00  0.00     0.059 A 
ATOM     70  C   UNL A   1      45.316  21.894  25.264  1.00  0.00     0.059 A 
ATOM     71  F   UNL A   1      45.555  24.061  26.076  1.00  0.00    -0.206 F 
ATOM     72  C   UNL A   1      44.597  20.709  25.188  1.00  0.00     0.060 A 
BRANCH  72  73
ATOM     73  S   UNL A   1      45.128  19.363  24.111  1.00  0.00     0.124 S 
ATOM     74  O   UNL A   1      44.655  18.183  24.830  1.00  0.00    -0.237 OA
ATOM     75  O   UNL A   1      44.426  19.673  22.870  1.00  0.00    -0.237 OA
ATOM     76  O   UNL A   1      46.578  19.516  24.067  1.00  0.00    -0.744 OA
ENDBRANCH  72  73
ENDBRANCH  51  65
BRANCH  52  77
ATOM     77  C   UNL A   1      41.602  30.378  32.814  1.00  0.00     0.058 A 
ATOM     78  C   UNL A   1      40.429  29.674  33.150  1.00  0.00     0.135 A 
ATOM     79  C   UNL A   1      41.808  31.625  33.421  1.00  0.00     0.135 A 
ATOM     80  F   UNL A   1      40.178  28.479  32.587  1.00  0.00    -0.206 F 
ATOM     81  C   UNL A   1      39.586  30.102  34.169  1.00  0.00     0.059 A 
ATOM     82  C   UNL A   1      40.970  32.077  34.443  1.00  0.00     0.059 A 
ATOM     83  F   UNL A   1      42.907  32.341  33.138  1.00  0.00    -0.206 F 
ATOM     84  C   UNL A   1      39.905  31.272  34.853  1.00  0.00     0.060 A 
BRANCH  84  85
ATOM     85  S   UNL A   1      39.012  31.616  36.388  1.00  0.00     0.124 S 
ATOM     86  O   UNL A   1      38.385  30.330  36.670  1.00  0.00    -0.237 OA
ATOM     87  O   UNL A   1      40.099  31.997  37.290  1.00  0.00    -0.237 OA
ATOM     88  O   UNL A   1      38.104  32.694  36.014  1.00  0.00    -0.744 OA
ENDBRANCH  84  85
ENDBRANCH  52  77
BRANCH  64  89
ATOM     89  C   UNL A   1      45.009  24.017  33.482  1.00  0.00     0.058 A 
ATOM     90  C   UNL A   1      46.243  23.899  34.139  1.00  0.00     0.135 A 
ATOM     91  C   UNL A   1      44.109  22.944  33.622  1.00  0.00     0.135 A 
ATOM     92  F   UNL A   1      47.170  24.865  34.029  1.00  0.00    -0.206 F 
ATOM     93  C   UNL A   1      46.562  22.787  34.915  1.00  0.00     0.059 A 
ATOM     94  C   UNL A   1      44.420  21.806  34.359  1.00  0.00     0.059 A 
ATOM     95  F   UNL A   1      42.891  22.985  33.060  1.00  0.00    -0.206 F 
ATOM     96  C   UNL A   1      45.643  21.743  35.017  1.00  0.00     0.060 A 
BRANCH  96  97
ATOM     97  S   UNL A   1      46.061  20.284  35.992  1.00  0.00     0.124 S 
ATOM     98  O   UNL A   1      45.744  20.702  37.355  1.00  0.00    -0.237 OA
ATOM     99  O   UNL A   1      45.168  19.285  35.415  1.00  0.00    -0.237 OA
ATOM    100  O   UNL A   1      47.482  20.096  35.718  1.00  0.00    -0.744 OA
ENDBRANCH  96  97
ENDBRANCH  64  89
ENDBRANCH  38  39
ENDBRANCH  30  33
ENDBRANCH  28  29
ENDBRANCH   1  28
TORSDOF 16
ENDMDL
