MODEL 1
REMARK VINA RESULT:     -12.7      0.000      0.000
REMARK SMILES O=Cc1c(OCc2ccc(C(=O)NCCCNC(=O)c3ccc(-c4c5nc(c(-c6c(F)cc(S(=O)(=O)[O-])cc6F)c6ccc([nH]6)c(-c6c(F)cc(S(=O)(=O)[O-])cc6F)c6nc(c(-c7c(F)cc(S(=O)(=O)[O-])cc7F)c7ccc4[nH]7)C=C6)C=C5)cc3)cc2)ccc2ccccc12
REMARK SMILES IDX 14 1 13 2 11 3 12 4 10 6 7 7 8 8 87 9 9 10 86 11 6 12 5 13
REMARK SMILES IDX 4 14 3 15 95 16 88 17 90 18 94 19 89 20 91 21 93 22 92 23
REMARK SMILES IDX 2 24 1 25 15 26 16 27 17 28 18 29 19 31 20 32 21 33 85 34
REMARK SMILES IDX 22 35 84 36 23 37 24 38 25 39 78 40 26 41 83 42 77 43 79 44
REMARK SMILES IDX 27 45 82 46 76 47 75 48 28 50 62 51 41 52 61 53 42 54 45 55
REMARK SMILES IDX 60 56 80 57 43 58 44 59 59 61 81 62 46 63 29 64 30 65 39 66
REMARK SMILES IDX 31 67 32 68 38 69 40 70 33 71 34 72 35 73 36 74 37 75 63 76
REMARK SMILES IDX 64 77 73 78 65 79 66 80 72 81 74 82 67 83 68 84 69 85 70 86
REMARK SMILES IDX 71 87 47 88 48 89 57 90 49 91 50 92 56 93 58 94 51 95 52 96
REMARK SMILES IDX 53 97 54 98 55 99
REMARK H PARENT 13 5 17 30 79 49 45 60
REMARK Flexibility Score: inf
ROOT
ATOM      1  C   UNL A   1      37.831  22.243  25.741  1.00  0.00     0.118 C 
ENDROOT
BRANCH   1   2
ATOM      2  N   UNL A   1      37.491  22.321  24.327  1.00  0.00    -0.352 N 
ATOM      3  C   UNL A   1      36.397  22.875  23.700  1.00  0.00     0.251 C 
ATOM      4  O   UNL A   1      36.413  23.002  22.478  1.00  0.00    -0.269 OA
ATOM      5  H   UNL A   1      38.150  21.914  23.720  1.00  0.00     0.163 HD
BRANCH   3   6
ATOM      6  C   UNL A   1      35.215  23.350  24.465  1.00  0.00     0.039 A 
ATOM      7  C   UNL A   1      32.913  24.208  25.874  1.00  0.00    -0.011 A 
ATOM      8  C   UNL A   1      33.016  22.889  25.408  1.00  0.00     0.008 A 
ATOM      9  C   UNL A   1      34.013  25.055  25.688  1.00  0.00     0.008 A 
ATOM     10  C   UNL A   1      34.165  22.459  24.723  1.00  0.00     0.014 A 
ATOM     11  C   UNL A   1      35.147  24.633  24.996  1.00  0.00     0.014 A 
BRANCH   7  12
ATOM     12  C   UNL A   1      31.667  24.705  26.588  1.00  0.00     0.265 C 
BRANCH  12  13
ATOM     13  O   UNL A   1      31.389  26.101  26.405  1.00  0.00    -0.488 OA
BRANCH  13  14
ATOM     14  C   UNL A   1      30.628  26.533  25.351  1.00  0.00     0.130 A 
ATOM     15  C   UNL A   1      30.998  27.738  24.722  1.00  0.00     0.064 A 
ATOM     16  C   UNL A   1      30.136  28.398  23.792  1.00  0.00    -0.004 A 
ATOM     17  C   UNL A   1      29.480  25.892  24.903  1.00  0.00     0.048 A 
ATOM     18  C   UNL A   1      28.889  27.793  23.509  1.00  0.00    -0.017 A 
ATOM     19  C   UNL A   1      30.426  29.615  23.121  1.00  0.00     0.009 A 
ATOM     20  C   UNL A   1      28.598  26.531  24.032  1.00  0.00     0.012 A 
ATOM     21  C   UNL A   1      27.952  28.438  22.686  1.00  0.00     0.009 A 
ATOM     22  C   UNL A   1      29.492  30.236  22.284  1.00  0.00     0.001 A 
ATOM     23  C   UNL A   1      28.245  29.660  22.088  1.00  0.00     0.001 A 
BRANCH  15  24
ATOM     24  C   UNL A   1      32.312  28.344  25.040  1.00  0.00     0.264 C 
ATOM     25  O   UNL A   1      32.475  29.170  25.930  1.00  0.00    -0.298 OA
ENDBRANCH  15  24
ENDBRANCH  13  14
ENDBRANCH  12  13
ENDBRANCH   7  12
ENDBRANCH   3   6
ENDBRANCH   1   2
BRANCH   1  26
ATOM     26  C   UNL A   1      38.369  23.566  26.285  1.00  0.00     0.042 C 
BRANCH  26  27
ATOM     27  C   UNL A   1      39.692  23.443  27.034  1.00  0.00     0.118 C 
BRANCH  27  28
ATOM     28  N   UNL A   1      40.823  23.876  26.230  1.00  0.00    -0.352 N 
ATOM     29  C   UNL A   1      41.527  25.056  26.258  1.00  0.00     0.251 C 
ATOM     30  H   UNL A   1      41.134  23.223  25.562  1.00  0.00     0.163 HD
ATOM     31  O   UNL A   1      42.324  25.295  25.353  1.00  0.00    -0.269 OA
BRANCH  29  32
ATOM     32  C   UNL A   1      41.328  26.043  27.345  1.00  0.00     0.039 A 
ATOM     33  C   UNL A   1      40.322  25.806  28.288  1.00  0.00     0.014 A 
ATOM     34  C   UNL A   1      42.082  27.218  27.419  1.00  0.00     0.014 A 
ATOM     35  C   UNL A   1      40.108  26.717  29.328  1.00  0.00     0.010 A 
ATOM     36  C   UNL A   1      41.916  28.090  28.496  1.00  0.00     0.010 A 
ATOM     37  C   UNL A   1      40.923  27.853  29.456  1.00  0.00    -0.014 A 
BRANCH  37  38
ATOM     38  C   UNL A   1      40.745  28.803  30.586  1.00  0.00     0.031 A 
ATOM     39  C   UNL A   1      41.585  28.670  31.829  1.00  0.00     0.074 A 
ATOM     40  C   UNL A   1      39.788  29.749  30.516  1.00  0.00     0.049 A 
ATOM     41  N   UNL A   1      41.529  29.357  32.941  1.00  0.00    -0.248 NA
ATOM     42  C   UNL A   1      42.605  27.610  31.831  1.00  0.00     0.031 C 
ATOM     43  C   UNL A   1      38.882  29.951  29.382  1.00  0.00     0.029 A 
ATOM     44  N   UNL A   1      39.408  30.711  31.418  1.00  0.00    -0.354 N 
ATOM     45  C   UNL A   1      42.493  28.807  33.778  1.00  0.00     0.074 A 
ATOM     46  C   UNL A   1      43.085  27.696  33.063  1.00  0.00     0.031 C 
ATOM     47  C   UNL A   1      38.066  30.983  29.650  1.00  0.00     0.029 A 
ATOM     48  C   UNL A   1      38.363  31.493  30.986  1.00  0.00     0.049 A 
ATOM     49  H   UNL A   1      39.843  30.830  32.293  1.00  0.00     0.167 HD
ATOM     50  C   UNL A   1      42.865  29.202  35.019  1.00  0.00     0.037 A 
ATOM     51  C   UNL A   1      37.711  32.501  31.598  1.00  0.00     0.037 A 
ATOM     52  C   UNL A   1      42.289  30.324  35.714  1.00  0.00     0.049 A 
ATOM     53  C   UNL A   1      38.142  32.922  32.976  1.00  0.00     0.074 A 
ATOM     54  C   UNL A   1      42.633  30.839  36.951  1.00  0.00     0.029 A 
ATOM     55  N   UNL A   1      41.245  31.102  35.235  1.00  0.00    -0.354 N 
ATOM     56  N   UNL A   1      39.094  32.425  33.729  1.00  0.00    -0.248 NA
ATOM     57  C   UNL A   1      37.414  34.043  33.586  1.00  0.00     0.031 C 
ATOM     58  C   UNL A   1      41.772  31.904  37.238  1.00  0.00     0.029 A 
ATOM     59  C   UNL A   1      40.921  32.082  36.159  1.00  0.00     0.049 A 
ATOM     60  H   UNL A   1      40.800  30.976  34.365  1.00  0.00     0.167 HD
ATOM     61  C   UNL A   1      39.098  33.190  34.890  1.00  0.00     0.074 A 
ATOM     62  C   UNL A   1      38.061  34.189  34.735  1.00  0.00     0.031 C 
ATOM     63  C   UNL A   1      39.889  33.074  35.986  1.00  0.00     0.037 A 
BRANCH  50  64
ATOM     64  C   UNL A   1      43.953  28.419  35.703  1.00  0.00     0.058 A 
ATOM     65  C   UNL A   1      45.311  28.718  35.509  1.00  0.00     0.135 A 
ATOM     66  C   UNL A   1      43.635  27.377  36.591  1.00  0.00     0.135 A 
ATOM     67  F   UNL A   1      45.673  29.694  34.662  1.00  0.00    -0.206 F 
ATOM     68  C   UNL A   1      46.316  27.993  36.142  1.00  0.00     0.059 A 
ATOM     69  C   UNL A   1      44.623  26.656  37.257  1.00  0.00     0.059 A 
ATOM     70  F   UNL A   1      42.353  27.049  36.817  1.00  0.00    -0.206 F 
ATOM     71  C   UNL A   1      45.961  26.961  37.014  1.00  0.00     0.060 A 
BRANCH  71  72
ATOM     72  S   UNL A   1      47.275  26.029  37.827  1.00  0.00     0.124 S 
ATOM     73  O   UNL A   1      48.379  26.983  37.779  1.00  0.00    -0.237 OA
ATOM     74  O   UNL A   1      46.711  25.781  39.150  1.00  0.00    -0.237 OA
ATOM     75  O   UNL A   1      47.428  24.850  36.983  1.00  0.00    -0.744 OA
ENDBRANCH  71  72
ENDBRANCH  50  64
BRANCH  51  76
ATOM     76  C   UNL A   1      36.598  33.196  30.900  1.00  0.00     0.058 A 
ATOM     77  C   UNL A   1      35.266  33.001  31.293  1.00  0.00     0.135 A 
ATOM     78  C   UNL A   1      36.842  34.083  29.839  1.00  0.00     0.135 A 
ATOM     79  F   UNL A   1      34.981  32.159  32.298  1.00  0.00    -0.206 F 
ATOM     80  C   UNL A   1      34.213  33.647  30.653  1.00  0.00     0.059 A 
ATOM     81  C   UNL A   1      35.809  34.760  29.199  1.00  0.00     0.059 A 
ATOM     82  F   UNL A   1      38.101  34.319  29.437  1.00  0.00    -0.206 F 
ATOM     83  C   UNL A   1      34.496  34.528  29.607  1.00  0.00     0.060 A 
BRANCH  83  84
ATOM     84  S   UNL A   1      33.129  35.404  28.819  1.00  0.00     0.124 S 
ATOM     85  O   UNL A   1      33.836  36.408  28.033  1.00  0.00    -0.237 OA
ATOM     86  O   UNL A   1      32.479  34.340  28.060  1.00  0.00    -0.237 OA
ATOM     87  O   UNL A   1      32.360  35.914  29.951  1.00  0.00    -0.744 OA
ENDBRANCH  83  84
ENDBRANCH  51  76
BRANCH  63  88
ATOM     88  C   UNL A   1      39.686  34.073  37.092  1.00  0.00     0.058 A 
ATOM     89  C   UNL A   1      38.916  33.772  38.226  1.00  0.00     0.135 A 
ATOM     90  C   UNL A   1      40.311  35.330  37.037  1.00  0.00     0.135 A 
ATOM     91  F   UNL A   1      38.292  32.588  38.325  1.00  0.00    -0.206 F 
ATOM     92  C   UNL A   1      38.755  34.692  39.257  1.00  0.00     0.059 A 
ATOM     93  C   UNL A   1      40.184  36.254  38.069  1.00  0.00     0.059 A 
ATOM     94  F   UNL A   1      41.067  35.663  35.979  1.00  0.00    -0.206 F 
ATOM     95  C   UNL A   1      39.393  35.930  39.170  1.00  0.00     0.060 A 
BRANCH  95  96
ATOM     96  S   UNL A   1      39.201  37.102  40.529  1.00  0.00     0.124 S 
ATOM     97  O   UNL A   1      38.601  36.262  41.560  1.00  0.00    -0.237 OA
ATOM     98  O   UNL A   1      40.578  37.523  40.777  1.00  0.00    -0.237 OA
ATOM     99  O   UNL A   1      38.330  38.131  39.970  1.00  0.00    -0.744 OA
ENDBRANCH  95  96
ENDBRANCH  63  88
ENDBRANCH  37  38
ENDBRANCH  29  32
ENDBRANCH  27  28
ENDBRANCH  26  27
ENDBRANCH   1  26
TORSDOF 17
ENDMDL
MODEL 2
REMARK VINA RESULT:     -12.7      6.711     12.191
REMARK SMILES O=Cc1c(OCc2ccc(C(=O)NCCCNC(=O)c3ccc(-c4c5nc(c(-c6c(F)cc(S(=O)(=O)[O-])cc6F)c6ccc([nH]6)c(-c6c(F)cc(S(=O)(=O)[O-])cc6F)c6nc(c(-c7c(F)cc(S(=O)(=O)[O-])cc7F)c7ccc4[nH]7)C=C6)C=C5)cc3)cc2)ccc2ccccc12
REMARK SMILES IDX 14 1 13 2 11 3 12 4 10 6 7 7 8 8 87 9 9 10 86 11 6 12 5 13
REMARK SMILES IDX 4 14 3 15 95 16 88 17 90 18 94 19 89 20 91 21 93 22 92 23
REMARK SMILES IDX 2 24 1 25 15 26 16 27 17 28 18 29 19 31 20 32 21 33 85 34
REMARK SMILES IDX 22 35 84 36 23 37 24 38 25 39 78 40 26 41 83 42 77 43 79 44
REMARK SMILES IDX 27 45 82 46 76 47 75 48 28 50 62 51 41 52 61 53 42 54 45 55
REMARK SMILES IDX 60 56 80 57 43 58 44 59 59 61 81 62 46 63 29 64 30 65 39 66
REMARK SMILES IDX 31 67 32 68 38 69 40 70 33 71 34 72 35 73 36 74 37 75 63 76
REMARK SMILES IDX 64 77 73 78 65 79 66 80 72 81 74 82 67 83 68 84 69 85 70 86
REMARK SMILES IDX 71 87 47 88 48 89 57 90 49 91 50 92 56 93 58 94 51 95 52 96
REMARK SMILES IDX 53 97 54 98 55 99
REMARK H PARENT 13 5 17 30 79 49 45 60
REMARK Flexibility Score: inf
ROOT
ATOM      1  C   UNL A   1      33.713  29.202  25.299  1.00  0.00     0.118 C 
ENDROOT
BRANCH   1   2
ATOM      2  N   UNL A   1      32.484  29.856  24.873  1.00  0.00    -0.352 N 
ATOM      3  C   UNL A   1      31.282  29.321  24.466  1.00  0.00     0.251 C 
ATOM      4  O   UNL A   1      30.312  30.066  24.340  1.00  0.00    -0.269 OA
ATOM      5  H   UNL A   1      32.517  30.839  24.876  1.00  0.00     0.163 HD
BRANCH   3   6
ATOM      6  C   UNL A   1      31.120  27.867  24.207  1.00  0.00     0.039 A 
ATOM      7  C   UNL A   1      30.845  25.080  23.789  1.00  0.00    -0.011 A 
ATOM      8  C   UNL A   1      30.643  25.636  25.061  1.00  0.00     0.008 A 
ATOM      9  C   UNL A   1      31.107  25.955  22.727  1.00  0.00     0.008 A 
ATOM     10  C   UNL A   1      30.764  27.021  25.265  1.00  0.00     0.014 A 
ATOM     11  C   UNL A   1      31.241  27.327  22.932  1.00  0.00     0.014 A 
BRANCH   7  12
ATOM     12  C   UNL A   1      30.752  23.582  23.552  1.00  0.00     0.265 C 
BRANCH  12  13
ATOM     13  O   UNL A   1      31.893  23.008  22.897  1.00  0.00    -0.488 OA
BRANCH  13  14
ATOM     14  C   UNL A   1      32.845  22.330  23.612  1.00  0.00     0.130 A 
ATOM     15  C   UNL A   1      34.131  22.897  23.698  1.00  0.00     0.064 A 
ATOM     16  C   UNL A   1      35.248  22.157  24.197  1.00  0.00    -0.004 A 
ATOM     17  C   UNL A   1      32.640  21.089  24.203  1.00  0.00     0.048 A 
ATOM     18  C   UNL A   1      35.020  20.825  24.617  1.00  0.00    -0.017 A 
ATOM     19  C   UNL A   1      36.577  22.647  24.311  1.00  0.00     0.009 A 
ATOM     20  C   UNL A   1      33.716  20.326  24.656  1.00  0.00     0.012 A 
ATOM     21  C   UNL A   1      36.089  20.009  25.020  1.00  0.00     0.009 A 
ATOM     22  C   UNL A   1      37.630  21.830  24.737  1.00  0.00     0.001 A 
ATOM     23  C   UNL A   1      37.390  20.504  25.066  1.00  0.00     0.001 A 
BRANCH  15  24
ATOM     24  C   UNL A   1      34.335  24.295  23.252  1.00  0.00     0.264 C 
ATOM     25  O   UNL A   1      34.284  25.257  24.008  1.00  0.00    -0.298 OA
ENDBRANCH  15  24
ENDBRANCH  13  14
ENDBRANCH  12  13
ENDBRANCH   7  12
ENDBRANCH   3   6
ENDBRANCH   1   2
BRANCH   1  26
ATOM     26  C   UNL A   1      33.746  28.948  26.806  1.00  0.00     0.042 C 
BRANCH  26  27
ATOM     27  C   UNL A   1      35.132  29.068  27.432  1.00  0.00     0.118 C 
BRANCH  27  28
ATOM     28  N   UNL A   1      35.128  29.902  28.623  1.00  0.00    -0.352 N 
ATOM     29  C   UNL A   1      36.152  30.215  29.485  1.00  0.00     0.251 C 
ATOM     30  H   UNL A   1      34.258  30.304  28.848  1.00  0.00     0.163 HD
ATOM     31  O   UNL A   1      35.884  30.778  30.545  1.00  0.00    -0.269 OA
BRANCH  29  32
ATOM     32  C   UNL A   1      37.557  29.873  29.165  1.00  0.00     0.039 A 
ATOM     33  C   UNL A   1      38.428  29.568  30.217  1.00  0.00     0.014 A 
ATOM     34  C   UNL A   1      38.040  29.897  27.853  1.00  0.00     0.014 A 
ATOM     35  C   UNL A   1      39.761  29.240  29.950  1.00  0.00     0.010 A 
ATOM     36  C   UNL A   1      39.350  29.501  27.582  1.00  0.00     0.010 A 
ATOM     37  C   UNL A   1      40.225  29.176  28.627  1.00  0.00    -0.014 A 
BRANCH  37  38
ATOM     38  C   UNL A   1      41.625  28.776  28.321  1.00  0.00     0.031 A 
ATOM     39  C   UNL A   1      42.719  29.810  28.286  1.00  0.00     0.074 A 
ATOM     40  C   UNL A   1      41.899  27.493  28.018  1.00  0.00     0.049 A 
ATOM     41  N   UNL A   1      43.981  29.667  27.973  1.00  0.00    -0.248 NA
ATOM     42  C   UNL A   1      42.339  31.191  28.624  1.00  0.00     0.031 C 
ATOM     43  C   UNL A   1      40.917  26.406  27.976  1.00  0.00     0.029 A 
ATOM     44  N   UNL A   1      43.081  26.883  27.676  1.00  0.00    -0.354 N 
ATOM     45  C   UNL A   1      44.543  30.936  28.063  1.00  0.00     0.074 A 
ATOM     46  C   UNL A   1      43.472  31.845  28.411  1.00  0.00     0.031 C 
ATOM     47  C   UNL A   1      41.539  25.263  27.648  1.00  0.00     0.029 A 
ATOM     48  C   UNL A   1      42.955  25.538  27.419  1.00  0.00     0.049 A 
ATOM     49  H   UNL A   1      43.937  27.364  27.621  1.00  0.00     0.167 HD
ATOM     50  C   UNL A   1      45.834  31.306  27.891  1.00  0.00     0.037 A 
ATOM     51  C   UNL A   1      43.873  24.630  27.034  1.00  0.00     0.037 A 
ATOM     52  C   UNL A   1      46.899  30.392  27.569  1.00  0.00     0.049 A 
ATOM     53  C   UNL A   1      45.301  25.065  26.849  1.00  0.00     0.074 A 
ATOM     54  C   UNL A   1      48.250  30.658  27.428  1.00  0.00     0.029 A 
ATOM     55  N   UNL A   1      46.734  29.034  27.334  1.00  0.00    -0.354 N 
ATOM     56  N   UNL A   1      45.824  26.260  26.994  1.00  0.00    -0.248 NA
ATOM     57  C   UNL A   1      46.265  24.030  26.454  1.00  0.00     0.031 C 
ATOM     58  C   UNL A   1      48.896  29.471  27.069  1.00  0.00     0.029 A 
ATOM     59  C   UNL A   1      47.956  28.453  27.033  1.00  0.00     0.049 A 
ATOM     60  H   UNL A   1      45.876  28.554  27.377  1.00  0.00     0.167 HD
ATOM     61  C   UNL A   1      47.181  26.114  26.734  1.00  0.00     0.074 A 
ATOM     62  C   UNL A   1      47.401  24.715  26.434  1.00  0.00     0.031 C 
ATOM     63  C   UNL A   1      48.158  27.056  26.742  1.00  0.00     0.037 A 
BRANCH  50  64
ATOM     64  C   UNL A   1      46.169  32.765  28.055  1.00  0.00     0.058 A 
ATOM     65  C   UNL A   1      46.050  33.672  26.990  1.00  0.00     0.135 A 
ATOM     66  C   UNL A   1      46.583  33.269  29.298  1.00  0.00     0.135 A 
ATOM     67  F   UNL A   1      45.672  33.243  25.775  1.00  0.00    -0.206 F 
ATOM     68  C   UNL A   1      46.360  35.020  27.142  1.00  0.00     0.059 A 
ATOM     69  C   UNL A   1      46.871  34.619  29.482  1.00  0.00     0.059 A 
ATOM     70  F   UNL A   1      46.712  32.448  30.352  1.00  0.00    -0.206 F 
ATOM     71  C   UNL A   1      46.772  35.484  28.393  1.00  0.00     0.060 A 
BRANCH  71  72
ATOM     72  S   UNL A   1      47.172  37.234  28.574  1.00  0.00     0.124 S 
ATOM     73  O   UNL A   1      46.208  37.648  29.589  1.00  0.00    -0.237 OA
ATOM     74  O   UNL A   1      48.566  37.194  29.005  1.00  0.00    -0.237 OA
ATOM     75  O   UNL A   1      46.947  37.775  27.238  1.00  0.00    -0.744 OA
ENDBRANCH  71  72
ENDBRANCH  50  64
BRANCH  51  76
ATOM     76  C   UNL A   1      43.472  23.214  26.821  1.00  0.00     0.058 A 
ATOM     77  C   UNL A   1      43.181  22.376  27.906  1.00  0.00     0.135 A 
ATOM     78  C   UNL A   1      43.353  22.676  25.530  1.00  0.00     0.135 A 
ATOM     79  F   UNL A   1      43.286  22.843  29.161  1.00  0.00    -0.206 F 
ATOM     80  C   UNL A   1      42.801  21.050  27.724  1.00  0.00     0.059 A 
ATOM     81  C   UNL A   1      42.951  21.361  25.320  1.00  0.00     0.059 A 
ATOM     82  F   UNL A   1      43.602  23.442  24.456  1.00  0.00    -0.206 F 
ATOM     83  C   UNL A   1      42.686  20.553  26.425  1.00  0.00     0.060 A 
BRANCH  83  84
ATOM     84  S   UNL A   1      42.138  18.848  26.195  1.00  0.00     0.124 S 
ATOM     85  O   UNL A   1      42.313  18.299  27.535  1.00  0.00    -0.237 OA
ATOM     86  O   UNL A   1      40.759  19.026  25.753  1.00  0.00    -0.237 OA
ATOM     87  O   UNL A   1      43.052  18.336  25.179  1.00  0.00    -0.744 OA
ENDBRANCH  83  84
ENDBRANCH  51  76
BRANCH  63  88
ATOM     88  C   UNL A   1      49.560  26.598  26.449  1.00  0.00     0.058 A 
ATOM     89  C   UNL A   1      50.369  26.019  27.438  1.00  0.00     0.135 A 
ATOM     90  C   UNL A   1      50.083  26.698  25.148  1.00  0.00     0.135 A 
ATOM     91  F   UNL A   1      49.921  25.906  28.698  1.00  0.00    -0.206 F 
ATOM     92  C   UNL A   1      51.656  25.574  27.154  1.00  0.00     0.059 A 
ATOM     93  C   UNL A   1      51.357  26.236  24.837  1.00  0.00     0.059 A 
ATOM     94  F   UNL A   1      49.346  27.236  24.164  1.00  0.00    -0.206 F 
ATOM     95  C   UNL A   1      52.141  25.686  25.849  1.00  0.00     0.060 A 
BRANCH  95  96
ATOM     96  S   UNL A   1      53.801  25.076  25.487  1.00  0.00     0.124 S 
ATOM     97  O   UNL A   1      54.538  25.507  26.670  1.00  0.00    -0.237 OA
ATOM     98  O   UNL A   1      53.586  23.637  25.363  1.00  0.00    -0.237 OA
ATOM     99  O   UNL A   1      54.150  25.760  24.245  1.00  0.00    -0.744 OA
ENDBRANCH  95  96
ENDBRANCH  63  88
ENDBRANCH  37  38
ENDBRANCH  29  32
ENDBRANCH  27  28
ENDBRANCH  26  27
ENDBRANCH   1  26
TORSDOF 17
ENDMDL
MODEL 3
REMARK VINA RESULT:     -12.6      4.850     10.559
REMARK SMILES O=Cc1c(OCc2ccc(C(=O)NCCCNC(=O)c3ccc(-c4c5nc(c(-c6c(F)cc(S(=O)(=O)[O-])cc6F)c6ccc([nH]6)c(-c6c(F)cc(S(=O)(=O)[O-])cc6F)c6nc(c(-c7c(F)cc(S(=O)(=O)[O-])cc7F)c7ccc4[nH]7)C=C6)C=C5)cc3)cc2)ccc2ccccc12
REMARK SMILES IDX 14 1 13 2 11 3 12 4 10 6 7 7 8 8 87 9 9 10 86 11 6 12 5 13
REMARK SMILES IDX 4 14 3 15 95 16 88 17 90 18 94 19 89 20 91 21 93 22 92 23
REMARK SMILES IDX 2 24 1 25 15 26 16 27 17 28 18 29 19 31 20 32 21 33 85 34
REMARK SMILES IDX 22 35 84 36 23 37 24 38 25 39 78 40 26 41 83 42 77 43 79 44
REMARK SMILES IDX 27 45 82 46 76 47 75 48 28 50 62 51 41 52 61 53 42 54 45 55
REMARK SMILES IDX 60 56 80 57 43 58 44 59 59 61 81 62 46 63 29 64 30 65 39 66
REMARK SMILES IDX 31 67 32 68 38 69 40 70 33 71 34 72 35 73 36 74 37 75 63 76
REMARK SMILES IDX 64 77 73 78 65 79 66 80 72 81 74 82 67 83 68 84 69 85 70 86
REMARK SMILES IDX 71 87 47 88 48 89 57 90 49 91 50 92 56 93 58 94 51 95 52 96
REMARK SMILES IDX 53 97 54 98 55 99
REMARK H PARENT 13 5 17 30 79 49 45 60
REMARK Flexibility Score: inf
ROOT
ATOM      1  C   UNL A   1      31.852  29.240  24.918  1.00  0.00     0.118 C 
ENDROOT
BRANCH   1   2
ATOM      2  N   UNL A   1      31.218  29.462  23.626  1.00  0.00    -0.352 N 
ATOM      3  C   UNL A   1      30.735  28.563  22.702  1.00  0.00     0.251 C 
ATOM      4  O   UNL A   1      30.057  28.980  21.765  1.00  0.00    -0.269 OA
ATOM      5  H   UNL A   1      31.117  30.407  23.373  1.00  0.00     0.163 HD
BRANCH   3   6
ATOM      6  C   UNL A   1      30.985  27.104  22.825  1.00  0.00     0.039 A 
ATOM      7  C   UNL A   1      31.435  24.325  23.139  1.00  0.00    -0.011 A 
ATOM      8  C   UNL A   1      30.340  24.947  23.757  1.00  0.00     0.008 A 
ATOM      9  C   UNL A   1      32.245  25.106  22.304  1.00  0.00     0.008 A 
ATOM     10  C   UNL A   1      30.108  26.323  23.588  1.00  0.00     0.014 A 
ATOM     11  C   UNL A   1      32.023  26.473  22.148  1.00  0.00     0.014 A 
BRANCH   7  12
ATOM     12  C   UNL A   1      31.725  22.846  23.335  1.00  0.00     0.265 C 
BRANCH  12  13
ATOM     13  O   UNL A   1      32.061  22.475  24.680  1.00  0.00    -0.488 OA
BRANCH  13  14
ATOM     14  C   UNL A   1      33.338  22.102  25.007  1.00  0.00     0.130 A 
ATOM     15  C   UNL A   1      34.206  23.091  25.508  1.00  0.00     0.064 A 
ATOM     16  C   UNL A   1      35.612  22.865  25.636  1.00  0.00    -0.004 A 
ATOM     17  C   UNL A   1      33.849  20.824  24.816  1.00  0.00     0.048 A 
ATOM     18  C   UNL A   1      36.111  21.599  25.251  1.00  0.00    -0.017 A 
ATOM     19  C   UNL A   1      36.557  23.807  26.122  1.00  0.00     0.009 A 
ATOM     20  C   UNL A   1      35.221  20.585  24.890  1.00  0.00     0.012 A 
ATOM     21  C   UNL A   1      37.492  21.344  25.253  1.00  0.00     0.009 A 
ATOM     22  C   UNL A   1      37.929  23.532  26.143  1.00  0.00     0.001 A 
ATOM     23  C   UNL A   1      38.398  22.310  25.683  1.00  0.00     0.001 A 
BRANCH  15  24
ATOM     24  C   UNL A   1      33.649  24.406  25.903  1.00  0.00     0.264 C 
ATOM     25  O   UNL A   1      34.029  25.469  25.426  1.00  0.00    -0.298 OA
ENDBRANCH  15  24
ENDBRANCH  13  14
ENDBRANCH  12  13
ENDBRANCH   7  12
ENDBRANCH   3   6
ENDBRANCH   1   2
BRANCH   1  26
ATOM     26  C   UNL A   1      33.318  28.827  24.785  1.00  0.00     0.042 C 
BRANCH  26  27
ATOM     27  C   UNL A   1      34.093  28.840  26.099  1.00  0.00     0.118 C 
BRANCH  27  28
ATOM     28  N   UNL A   1      33.782  30.004  26.912  1.00  0.00    -0.352 N 
ATOM     29  C   UNL A   1      34.487  30.576  27.943  1.00  0.00     0.251 C 
ATOM     30  H   UNL A   1      32.934  30.452  26.690  1.00  0.00     0.163 HD
ATOM     31  O   UNL A   1      33.944  31.441  28.627  1.00  0.00    -0.269 OA
BRANCH  29  32
ATOM     32  C   UNL A   1      35.875  30.157  28.249  1.00  0.00     0.039 A 
ATOM     33  C   UNL A   1      36.842  30.258  27.242  1.00  0.00     0.014 A 
ATOM     34  C   UNL A   1      36.224  29.622  29.492  1.00  0.00     0.014 A 
ATOM     35  C   UNL A   1      38.162  29.872  27.497  1.00  0.00     0.010 A 
ATOM     36  C   UNL A   1      37.555  29.304  29.768  1.00  0.00     0.010 A 
ATOM     37  C   UNL A   1      38.535  29.417  28.772  1.00  0.00    -0.014 A 
BRANCH  37  38
ATOM     38  C   UNL A   1      39.944  29.054  29.077  1.00  0.00     0.031 A 
ATOM     39  C   UNL A   1      40.874  30.068  29.688  1.00  0.00     0.074 A 
ATOM     40  C   UNL A   1      40.401  27.830  28.750  1.00  0.00     0.049 A 
ATOM     41  N   UNL A   1      42.149  29.961  29.961  1.00  0.00    -0.248 NA
ATOM     42  C   UNL A   1      40.301  31.384  30.012  1.00  0.00     0.031 C 
ATOM     43  C   UNL A   1      39.609  26.774  28.115  1.00  0.00     0.029 A 
ATOM     44  N   UNL A   1      41.645  27.267  28.895  1.00  0.00    -0.354 N 
ATOM     45  C   UNL A   1      42.534  31.194  30.475  1.00  0.00     0.074 A 
ATOM     46  C   UNL A   1      41.369  32.051  30.429  1.00  0.00     0.031 C 
ATOM     47  C   UNL A   1      40.379  25.688  27.943  1.00  0.00     0.029 A 
ATOM     48  C   UNL A   1      41.728  25.979  28.419  1.00  0.00     0.049 A 
ATOM     49  H   UNL A   1      42.406  27.741  29.302  1.00  0.00     0.167 HD
ATOM     50  C   UNL A   1      43.741  31.572  30.960  1.00  0.00     0.037 A 
ATOM     51  C   UNL A   1      42.775  25.132  28.364  1.00  0.00     0.037 A 
ATOM     52  C   UNL A   1      44.890  30.706  31.026  1.00  0.00     0.049 A 
ATOM     53  C   UNL A   1      44.106  25.574  28.908  1.00  0.00     0.074 A 
ATOM     54  C   UNL A   1      46.143  30.977  31.549  1.00  0.00     0.029 A 
ATOM     55  N   UNL A   1      44.929  29.404  30.550  1.00  0.00    -0.354 N 
ATOM     56  N   UNL A   1      44.435  26.726  29.442  1.00  0.00    -0.248 NA
ATOM     57  C   UNL A   1      45.205  24.602  28.846  1.00  0.00     0.031 C 
ATOM     58  C   UNL A   1      46.951  29.852  31.354  1.00  0.00     0.029 A 
ATOM     59  C   UNL A   1      46.189  28.863  30.752  1.00  0.00     0.049 A 
ATOM     60  H   UNL A   1      44.173  28.933  30.132  1.00  0.00     0.167 HD
ATOM     61  C   UNL A   1      45.772  26.607  29.805  1.00  0.00     0.074 A 
ATOM     62  C   UNL A   1      46.186  25.268  29.440  1.00  0.00     0.031 C 
ATOM     63  C   UNL A   1      46.583  27.525  30.387  1.00  0.00     0.037 A 
BRANCH  50  64
ATOM     64  C   UNL A   1      43.879  32.984  31.464  1.00  0.00     0.058 A 
ATOM     65  C   UNL A   1      43.595  33.322  32.797  1.00  0.00     0.135 A 
ATOM     66  C   UNL A   1      44.334  34.006  30.614  1.00  0.00     0.135 A 
ATOM     67  F   UNL A   1      43.145  32.388  33.649  1.00  0.00    -0.206 F 
ATOM     68  C   UNL A   1      43.723  34.627  33.261  1.00  0.00     0.059 A 
ATOM     69  C   UNL A   1      44.497  35.314  31.064  1.00  0.00     0.059 A 
ATOM     70  F   UNL A   1      44.624  33.740  29.331  1.00  0.00    -0.206 F 
ATOM     71  C   UNL A   1      44.173  35.617  32.385  1.00  0.00     0.060 A 
BRANCH  71  72
ATOM     72  S   UNL A   1      44.333  37.306  33.003  1.00  0.00     0.124 S 
ATOM     73  O   UNL A   1      43.854  38.078  31.861  1.00  0.00    -0.237 OA
ATOM     74  O   UNL A   1      43.457  37.296  34.171  1.00  0.00    -0.237 OA
ATOM     75  O   UNL A   1      45.757  37.430  33.291  1.00  0.00    -0.744 OA
ENDBRANCH  71  72
ENDBRANCH  50  64
BRANCH  51  76
ATOM     76  C   UNL A   1      42.597  23.771  27.793  1.00  0.00     0.058 A 
ATOM     77  C   UNL A   1      42.463  22.650  28.626  1.00  0.00     0.135 A 
ATOM     78  C   UNL A   1      42.538  23.564  26.406  1.00  0.00     0.135 A 
ATOM     79  F   UNL A   1      42.517  22.797  29.959  1.00  0.00    -0.206 F 
ATOM     80  C   UNL A   1      42.292  21.371  28.107  1.00  0.00     0.059 A 
ATOM     81  C   UNL A   1      42.343  22.298  25.863  1.00  0.00     0.059 A 
ATOM     82  F   UNL A   1      42.643  24.605  25.565  1.00  0.00    -0.206 F 
ATOM     83  C   UNL A   1      42.231  21.206  26.723  1.00  0.00     0.060 A 
BRANCH  83  84
ATOM     84  S   UNL A   1      41.953  19.549  26.060  1.00  0.00     0.124 S 
ATOM     85  O   UNL A   1      42.395  18.710  27.168  1.00  0.00    -0.237 OA
ATOM     86  O   UNL A   1      40.517  19.560  25.799  1.00  0.00    -0.237 OA
ATOM     87  O   UNL A   1      42.797  19.519  24.869  1.00  0.00    -0.744 OA
ENDBRANCH  83  84
ENDBRANCH  51  76
BRANCH  63  88
ATOM     88  C   UNL A   1      47.993  27.102  30.697  1.00  0.00     0.058 A 
ATOM     89  C   UNL A   1      49.072  27.479  29.883  1.00  0.00     0.135 A 
ATOM     90  C   UNL A   1      48.272  26.349  31.850  1.00  0.00     0.135 A 
ATOM     91  F   UNL A   1      48.859  28.192  28.765  1.00  0.00    -0.206 F 
ATOM     92  C   UNL A   1      50.377  27.107  30.189  1.00  0.00     0.059 A 
ATOM     93  C   UNL A   1      49.572  25.989  32.189  1.00  0.00     0.059 A 
ATOM     94  F   UNL A   1      47.277  25.972  32.668  1.00  0.00    -0.206 F 
ATOM     95  C   UNL A   1      50.616  26.362  31.346  1.00  0.00     0.060 A 
BRANCH  95  96
ATOM     96  S   UNL A   1      52.317  25.911  31.749  1.00  0.00     0.124 S 
ATOM     97  O   UNL A   1      52.933  25.870  30.426  1.00  0.00    -0.237 OA
ATOM     98  O   UNL A   1      52.738  27.014  32.609  1.00  0.00    -0.237 OA
ATOM     99  O   UNL A   1      52.178  24.621  32.418  1.00  0.00    -0.744 OA
ENDBRANCH  95  96
ENDBRANCH  63  88
ENDBRANCH  37  38
ENDBRANCH  29  32
ENDBRANCH  27  28
ENDBRANCH  26  27
ENDBRANCH   1  26
TORSDOF 17
ENDMDL
