MODEL 1
REMARK VINA RESULT:     -12.6      0.000      0.000
REMARK SMILES Cc1c(NC(=O)c2ccc(Br)cc2N)cccc1C(=O)NCCCNC(=O)c1ccc(-c2c3nc(c(-c4c(F)cc(S(=O)(=O)[O-])cc4F)c4ccc([nH]4)c(-c4c(F)cc(S(=O)(=O)[O-])cc4F)c4nc(c(-c5c(F)cc(S(=O)(=O)[O-])cc5F)c5ccc2[nH]5)C=C4)C=C3)cc1
REMARK SMILES IDX 23 1 22 2 21 3 19 4 20 5 18 7 1 8 2 9 3 10 15 11 17 12 16 13
REMARK SMILES IDX 4 14 5 15 6 17 7 18 8 19 13 20 9 21 12 22 10 23 11 24 14 25
REMARK SMILES IDX 24 28 25 29 26 30 27 32 28 33 29 34 93 35 30 36 92 37 31 38
REMARK SMILES IDX 32 39 33 40 86 41 34 42 91 43 85 44 87 45 35 46 90 47 84 48
REMARK SMILES IDX 83 49 36 51 70 52 49 53 69 54 50 55 53 56 68 57 88 58 51 59
REMARK SMILES IDX 52 60 67 62 89 63 54 64 37 65 38 66 47 67 39 68 40 69 46 70
REMARK SMILES IDX 48 71 41 72 42 73 43 74 44 75 45 76 71 77 72 78 81 79 73 80
REMARK SMILES IDX 74 81 80 82 82 83 75 84 76 85 77 86 78 87 79 88 55 89 56 90
REMARK SMILES IDX 65 91 57 92 58 93 64 94 66 95 59 96 60 97 61 98 62 99 63 100
REMARK H PARENT 21 6 4 16 14 26 14 27 25 31 87 50 53 61
REMARK Flexibility Score: inf
ROOT
ATOM      1  C   UNL A   1      32.112  26.035  26.689  1.00  0.00     0.042 C 
ENDROOT
BRANCH   1   2
ATOM      2  C   UNL A   1      31.217  24.656  26.645  1.00  0.00     0.118 C 
BRANCH   2   3
ATOM      3  N   UNL A   1      31.809  23.379  27.140  1.00  0.00    -0.352 N 
ATOM      4  C   UNL A   1      32.998  22.676  27.033  1.00  0.00     0.251 C 
ATOM      5  O   UNL A   1      33.276  21.759  27.808  1.00  0.00    -0.269 OA
ATOM      6  H   UNL A   1      31.168  22.894  27.707  1.00  0.00     0.163 HD
BRANCH   4   7
ATOM      7  C   UNL A   1      33.997  22.970  25.981  1.00  0.00     0.044 A 
ATOM      8  C   UNL A   1      32.753  21.564  24.275  1.00  0.00     0.047 C 
ATOM      9  C   UNL A   1      33.789  22.587  24.660  1.00  0.00    -0.015 A 
ATOM     10  C   UNL A   1      34.663  23.060  23.674  1.00  0.00     0.045 A 
ATOM     11  C   UNL A   1      35.866  23.682  24.009  1.00  0.00     0.026 A 
ATOM     12  C   UNL A   1      35.233  23.548  26.336  1.00  0.00     0.014 A 
ATOM     13  C   UNL A   1      36.176  23.878  25.355  1.00  0.00     0.003 A 
BRANCH  10  14
ATOM     14  N   UNL A   1      34.210  22.928  22.361  1.00  0.00    -0.322 N 
ATOM     15  C   UNL A   1      33.375  23.723  21.631  1.00  0.00     0.257 C 
ATOM     16  H   UNL A   1      34.547  22.134  21.886  1.00  0.00     0.170 HD
ATOM     17  O   UNL A   1      33.144  23.412  20.460  1.00  0.00    -0.269 OA
BRANCH  15  18
ATOM     18  C   UNL A   1      32.740  24.936  22.191  1.00  0.00     0.063 A 
ATOM     19  C   UNL A   1      33.571  26.067  22.159  1.00  0.00     0.017 A 
ATOM     20  C   UNL A   1      31.449  25.019  22.756  1.00  0.00     0.045 A 
ATOM     21  C   UNL A   1      33.113  27.291  22.629  1.00  0.00     0.016 A 
ATOM     22  C   UNL A   1      30.986  26.274  23.166  1.00  0.00     0.042 A 
ATOM     23  C   UNL A   1      31.814  27.393  23.110  1.00  0.00     0.020 A 
ATOM     24  Br  UNL A   1      31.175  29.056  23.737  1.00  0.00    -0.051 Br
BRANCH  20  25
ATOM     25  N   UNL A   1      30.618  23.940  22.999  1.00  0.00    -0.398 N 
ATOM     26  H   UNL A   1      30.935  23.190  23.553  1.00  0.00     0.156 HD
ATOM     27  H   UNL A   1      29.710  23.924  22.620  1.00  0.00     0.156 HD
ENDBRANCH  20  25
ENDBRANCH  15  18
ENDBRANCH  10  14
ENDBRANCH   4   7
ENDBRANCH   2   3
ENDBRANCH   1   2
BRANCH   1  28
ATOM     28  C   UNL A   1      31.319  27.416  26.767  1.00  0.00     0.118 C 
BRANCH  28  29
ATOM     29  N   UNL A   1      31.706  28.706  27.574  1.00  0.00    -0.352 N 
ATOM     30  C   UNL A   1      32.514  29.907  27.329  1.00  0.00     0.251 C 
ATOM     31  H   UNL A   1      31.304  28.711  28.473  1.00  0.00     0.163 HD
ATOM     32  O   UNL A   1      31.837  30.950  27.275  1.00  0.00    -0.269 OA
BRANCH  30  33
ATOM     33  C   UNL A   1      34.079  30.174  27.196  1.00  0.00     0.039 A 
ATOM     34  C   UNL A   1      34.985  29.122  26.837  1.00  0.00     0.014 A 
ATOM     35  C   UNL A   1      34.746  31.357  27.486  1.00  0.00     0.014 A 
ATOM     36  C   UNL A   1      36.353  29.097  27.342  1.00  0.00     0.010 A 
ATOM     37  C   UNL A   1      36.088  31.336  27.993  1.00  0.00     0.010 A 
ATOM     38  C   UNL A   1      36.804  30.142  28.168  1.00  0.00    -0.014 A 
BRANCH  38  39
ATOM     39  C   UNL A   1      37.744  29.974  29.372  1.00  0.00     0.031 A 
ATOM     40  C   UNL A   1      37.591  30.805  30.560  1.00  0.00     0.074 A 
ATOM     41  C   UNL A   1      38.688  29.008  29.627  1.00  0.00     0.049 A 
ATOM     42  N   UNL A   1      38.554  31.435  31.153  1.00  0.00    -0.248 NA
ATOM     43  C   UNL A   1      36.309  30.862  31.234  1.00  0.00     0.031 C 
ATOM     44  C   UNL A   1      39.505  28.660  30.808  1.00  0.00     0.029 A 
ATOM     45  N   UNL A   1      39.098  27.975  28.814  1.00  0.00    -0.354 N 
ATOM     46  C   UNL A   1      38.088  31.689  32.426  1.00  0.00     0.074 A 
ATOM     47  C   UNL A   1      36.648  31.517  32.346  1.00  0.00     0.031 C 
ATOM     48  C   UNL A   1      40.509  27.823  30.444  1.00  0.00     0.029 A 
ATOM     49  C   UNL A   1      40.427  27.625  29.011  1.00  0.00     0.049 A 
ATOM     50  H   UNL A   1      38.510  27.532  28.160  1.00  0.00     0.167 HD
ATOM     51  C   UNL A   1      38.922  31.711  33.512  1.00  0.00     0.037 A 
ATOM     52  C   UNL A   1      41.336  27.860  28.007  1.00  0.00     0.037 A 
ATOM     53  C   UNL A   1      40.262  31.171  33.202  1.00  0.00     0.049 A 
ATOM     54  C   UNL A   1      42.219  29.013  28.402  1.00  0.00     0.074 A 
ATOM     55  C   UNL A   1      40.952  30.027  33.589  1.00  0.00     0.029 A 
ATOM     56  N   UNL A   1      40.994  31.683  32.143  1.00  0.00    -0.354 N 
ATOM     57  N   UNL A   1      42.319  29.432  29.628  1.00  0.00    -0.248 NA
ATOM     58  C   UNL A   1      42.967  29.849  27.467  1.00  0.00     0.031 C 
ATOM     59  C   UNL A   1      42.110  29.884  32.765  1.00  0.00     0.029 A 
ATOM     60  C   UNL A   1      42.142  30.950  31.887  1.00  0.00     0.049 A 
ATOM     61  H   UNL A   1      40.728  32.480  31.629  1.00  0.00     0.167 HD
ATOM     62  C   UNL A   1      42.953  30.635  29.651  1.00  0.00     0.074 A 
ATOM     63  C   UNL A   1      43.398  30.831  28.281  1.00  0.00     0.031 C 
ATOM     64  C   UNL A   1      43.009  31.379  30.794  1.00  0.00     0.037 A 
BRANCH  51  65
ATOM     65  C   UNL A   1      38.413  31.936  34.931  1.00  0.00     0.058 A 
ATOM     66  C   UNL A   1      38.502  30.942  35.926  1.00  0.00     0.135 A 
ATOM     67  C   UNL A   1      37.875  33.160  35.389  1.00  0.00     0.135 A 
ATOM     68  F   UNL A   1      39.135  29.782  35.707  1.00  0.00    -0.206 F 
ATOM     69  C   UNL A   1      37.992  31.107  37.218  1.00  0.00     0.059 A 
ATOM     70  C   UNL A   1      37.282  33.325  36.643  1.00  0.00     0.059 A 
ATOM     71  F   UNL A   1      37.980  34.286  34.666  1.00  0.00    -0.206 F 
ATOM     72  C   UNL A   1      37.353  32.291  37.560  1.00  0.00     0.060 A 
BRANCH  72  73
ATOM     73  S   UNL A   1      36.727  32.503  39.235  1.00  0.00     0.124 S 
ATOM     74  O   UNL A   1      37.592  33.555  39.761  1.00  0.00    -0.237 OA
ATOM     75  O   UNL A   1      35.339  32.883  38.993  1.00  0.00    -0.237 OA
ATOM     76  O   UNL A   1      36.915  31.187  39.839  1.00  0.00    -0.744 OA
ENDBRANCH  72  73
ENDBRANCH  51  65
BRANCH  52  77
ATOM     77  C   UNL A   1      40.859  27.603  26.552  1.00  0.00     0.058 A 
ATOM     78  C   UNL A   1      41.689  28.183  25.578  1.00  0.00     0.135 A 
ATOM     79  C   UNL A   1      40.612  26.266  26.309  1.00  0.00     0.135 A 
ATOM     80  F   UNL A   1      41.516  29.464  25.230  1.00  0.00    -0.206 F 
ATOM     81  C   UNL A   1      42.748  27.472  25.013  1.00  0.00     0.059 A 
ATOM     82  C   UNL A   1      41.682  25.541  25.774  1.00  0.00     0.059 A 
ATOM     83  F   UNL A   1      39.677  25.611  27.019  1.00  0.00    -0.206 F 
ATOM     84  C   UNL A   1      42.844  26.130  25.323  1.00  0.00     0.060 A 
BRANCH  84  85
ATOM     85  S   UNL A   1      44.630  25.253  25.507  1.00  0.00     0.124 S 
ATOM     86  O   UNL A   1      44.496  24.262  24.454  1.00  0.00    -0.237 OA
ATOM     87  O   UNL A   1      45.623  26.244  25.197  1.00  0.00    -0.237 OA
ATOM     88  O   UNL A   1      44.715  24.690  26.849  1.00  0.00    -0.744 OA
ENDBRANCH  84  85
ENDBRANCH  52  77
BRANCH  64  89
ATOM     89  C   UNL A   1      43.856  32.609  30.950  1.00  0.00     0.058 A 
ATOM     90  C   UNL A   1      45.025  32.627  31.730  1.00  0.00     0.135 A 
ATOM     91  C   UNL A   1      43.449  33.860  30.434  1.00  0.00     0.135 A 
ATOM     92  F   UNL A   1      45.425  31.543  32.412  1.00  0.00    -0.206 F 
ATOM     93  C   UNL A   1      45.803  33.772  31.873  1.00  0.00     0.059 A 
ATOM     94  C   UNL A   1      44.183  35.024  30.605  1.00  0.00     0.059 A 
ATOM     95  F   UNL A   1      42.316  34.018  29.737  1.00  0.00    -0.206 F 
ATOM     96  C   UNL A   1      45.381  34.963  31.292  1.00  0.00     0.060 A 
BRANCH  96  97
ATOM     97  S   UNL A   1      46.390  36.437  31.469  1.00  0.00     0.124 S 
ATOM     98  O   UNL A   1      45.442  37.400  32.018  1.00  0.00    -0.237 OA
ATOM     99  O   UNL A   1      47.424  35.970  32.389  1.00  0.00    -0.237 OA
ATOM    100  O   UNL A   1      46.838  36.711  30.107  1.00  0.00    -0.744 OA
ENDBRANCH  96  97
ENDBRANCH  64  89
ENDBRANCH  38  39
ENDBRANCH  30  33
ENDBRANCH  28  29
ENDBRANCH   1  28
TORSDOF 16
ENDMDL
MODEL 2
REMARK VINA RESULT:     -12.5      3.190      8.130
REMARK SMILES Cc1c(NC(=O)c2ccc(Br)cc2N)cccc1C(=O)NCCCNC(=O)c1ccc(-c2c3nc(c(-c4c(F)cc(S(=O)(=O)[O-])cc4F)c4ccc([nH]4)c(-c4c(F)cc(S(=O)(=O)[O-])cc4F)c4nc(c(-c5c(F)cc(S(=O)(=O)[O-])cc5F)c5ccc2[nH]5)C=C4)C=C3)cc1
REMARK SMILES IDX 23 1 22 2 21 3 19 4 20 5 18 7 1 8 2 9 3 10 15 11 17 12 16 13
REMARK SMILES IDX 4 14 5 15 6 17 7 18 8 19 13 20 9 21 12 22 10 23 11 24 14 25
REMARK SMILES IDX 24 28 25 29 26 30 27 32 28 33 29 34 93 35 30 36 92 37 31 38
REMARK SMILES IDX 32 39 33 40 86 41 34 42 91 43 85 44 87 45 35 46 90 47 84 48
REMARK SMILES IDX 83 49 36 51 70 52 49 53 69 54 50 55 53 56 68 57 88 58 51 59
REMARK SMILES IDX 52 60 67 62 89 63 54 64 37 65 38 66 47 67 39 68 40 69 46 70
REMARK SMILES IDX 48 71 41 72 42 73 43 74 44 75 45 76 71 77 72 78 81 79 73 80
REMARK SMILES IDX 74 81 80 82 82 83 75 84 76 85 77 86 78 87 79 88 55 89 56 90
REMARK SMILES IDX 65 91 57 92 58 93 64 94 66 95 59 96 60 97 61 98 62 99 63 100
REMARK H PARENT 21 6 4 16 14 26 14 27 25 31 87 50 53 61
REMARK Flexibility Score: inf
ROOT
ATOM      1  C   UNL A   1      32.179  26.657  26.613  1.00  0.00     0.042 C 
ENDROOT
BRANCH   1   2
ATOM      2  C   UNL A   1      31.140  25.385  26.532  1.00  0.00     0.118 C 
BRANCH   2   3
ATOM      3  N   UNL A   1      31.519  24.086  27.162  1.00  0.00    -0.352 N 
ATOM      4  C   UNL A   1      32.605  23.229  27.200  1.00  0.00     0.251 C 
ATOM      5  O   UNL A   1      32.702  22.349  28.058  1.00  0.00    -0.269 OA
ATOM      6  H   UNL A   1      30.780  23.736  27.710  1.00  0.00     0.163 HD
BRANCH   4   7
ATOM      7  C   UNL A   1      33.705  23.304  26.212  1.00  0.00     0.044 A 
ATOM      8  C   UNL A   1      32.400  21.946  24.514  1.00  0.00     0.047 C 
ATOM      9  C   UNL A   1      33.538  22.850  24.908  1.00  0.00    -0.015 A 
ATOM     10  C   UNL A   1      34.534  23.124  23.964  1.00  0.00     0.045 A 
ATOM     11  C   UNL A   1      35.786  23.606  24.350  1.00  0.00     0.026 A 
ATOM     12  C   UNL A   1      34.982  23.740  26.623  1.00  0.00     0.014 A 
ATOM     13  C   UNL A   1      36.027  23.864  25.699  1.00  0.00     0.003 A 
BRANCH  10  14
ATOM     14  N   UNL A   1      34.160  22.951  22.632  1.00  0.00    -0.322 N 
ATOM     15  C   UNL A   1      33.381  23.729  21.825  1.00  0.00     0.257 C 
ATOM     16  H   UNL A   1      34.513  22.136  22.206  1.00  0.00     0.170 HD
ATOM     17  O   UNL A   1      33.217  23.379  20.654  1.00  0.00    -0.269 OA
BRANCH  15  18
ATOM     18  C   UNL A   1      32.731  24.969  22.302  1.00  0.00     0.063 A 
ATOM     19  C   UNL A   1      33.594  26.076  22.332  1.00  0.00     0.017 A 
ATOM     20  C   UNL A   1      31.396  25.097  22.741  1.00  0.00     0.045 A 
ATOM     21  C   UNL A   1      33.129  27.321  22.736  1.00  0.00     0.016 A 
ATOM     22  C   UNL A   1      30.932  26.372  23.085  1.00  0.00     0.042 A 
ATOM     23  C   UNL A   1      31.793  27.467  23.090  1.00  0.00     0.020 A 
ATOM     24  Br  UNL A   1      31.147  29.158  23.626  1.00  0.00    -0.051 Br
BRANCH  20  25
ATOM     25  N   UNL A   1      30.514  24.046  22.921  1.00  0.00    -0.398 N 
ATOM     26  H   UNL A   1      29.846  23.841  22.228  1.00  0.00     0.156 HD
ATOM     27  H   UNL A   1      30.557  23.504  23.741  1.00  0.00     0.156 HD
ENDBRANCH  20  25
ENDBRANCH  15  18
ENDBRANCH  10  14
ENDBRANCH   4   7
ENDBRANCH   2   3
ENDBRANCH   1   2
BRANCH   1  28
ATOM     28  C   UNL A   1      31.644  27.993  27.298  1.00  0.00     0.118 C 
BRANCH  28  29
ATOM     29  N   UNL A   1      32.458  29.287  27.657  1.00  0.00    -0.352 N 
ATOM     30  C   UNL A   1      33.812  29.792  27.399  1.00  0.00     0.251 C 
ATOM     31  H   UNL A   1      31.925  29.920  28.190  1.00  0.00     0.163 HD
ATOM     32  O   UNL A   1      33.828  30.792  26.657  1.00  0.00    -0.269 OA
BRANCH  30  33
ATOM     33  C   UNL A   1      35.259  29.386  27.926  1.00  0.00     0.039 A 
ATOM     34  C   UNL A   1      35.495  29.109  29.312  1.00  0.00     0.014 A 
ATOM     35  C   UNL A   1      36.431  29.343  27.181  1.00  0.00     0.014 A 
ATOM     36  C   UNL A   1      36.780  29.406  29.935  1.00  0.00     0.010 A 
ATOM     37  C   UNL A   1      37.695  29.646  27.788  1.00  0.00     0.010 A 
ATOM     38  C   UNL A   1      37.819  29.942  29.154  1.00  0.00    -0.014 A 
BRANCH  38  39
ATOM     39  C   UNL A   1      38.821  31.008  29.627  1.00  0.00     0.031 A 
ATOM     40  C   UNL A   1      40.178  30.637  30.010  1.00  0.00     0.074 A 
ATOM     41  C   UNL A   1      38.723  32.378  29.615  1.00  0.00     0.049 A 
ATOM     42  N   UNL A   1      40.772  31.018  31.095  1.00  0.00    -0.248 NA
ATOM     43  C   UNL A   1      41.005  29.891  29.083  1.00  0.00     0.031 C 
ATOM     44  C   UNL A   1      39.677  33.476  29.876  1.00  0.00     0.029 A 
ATOM     45  N   UNL A   1      37.648  33.157  29.250  1.00  0.00    -0.354 N 
ATOM     46  C   UNL A   1      42.118  30.849  30.847  1.00  0.00     0.074 A 
ATOM     47  C   UNL A   1      42.185  29.959  29.702  1.00  0.00     0.031 C 
ATOM     48  C   UNL A   1      39.005  34.643  30.041  1.00  0.00     0.029 A 
ATOM     49  C   UNL A   1      37.587  34.358  29.946  1.00  0.00     0.049 A 
ATOM     50  H   UNL A   1      36.990  32.890  28.568  1.00  0.00     0.167 HD
ATOM     51  C   UNL A   1      43.063  31.682  31.384  1.00  0.00     0.037 A 
ATOM     52  C   UNL A   1      36.557  34.565  30.832  1.00  0.00     0.037 A 
ATOM     53  C   UNL A   1      42.468  32.890  31.991  1.00  0.00     0.049 A 
ATOM     54  C   UNL A   1      37.091  34.485  32.236  1.00  0.00     0.074 A 
ATOM     55  C   UNL A   1      42.489  34.242  31.665  1.00  0.00     0.029 A 
ATOM     56  N   UNL A   1      41.471  32.773  32.946  1.00  0.00    -0.354 N 
ATOM     57  N   UNL A   1      38.357  34.578  32.512  1.00  0.00    -0.248 NA
ATOM     58  C   UNL A   1      36.285  34.189  33.418  1.00  0.00     0.031 C 
ATOM     59  C   UNL A   1      41.513  34.923  32.454  1.00  0.00     0.029 A 
ATOM     60  C   UNL A   1      40.908  33.995  33.279  1.00  0.00     0.049 A 
ATOM     61  H   UNL A   1      41.193  31.916  33.345  1.00  0.00     0.167 HD
ATOM     62  C   UNL A   1      38.576  34.198  33.799  1.00  0.00     0.074 A 
ATOM     63  C   UNL A   1      37.242  34.021  34.351  1.00  0.00     0.031 C 
ATOM     64  C   UNL A   1      39.842  34.019  34.275  1.00  0.00     0.037 A 
BRANCH  51  65
ATOM     65  C   UNL A   1      44.549  31.540  31.075  1.00  0.00     0.058 A 
ATOM     66  C   UNL A   1      45.137  32.121  29.933  1.00  0.00     0.135 A 
ATOM     67  C   UNL A   1      45.470  30.881  31.921  1.00  0.00     0.135 A 
ATOM     68  F   UNL A   1      44.441  32.919  29.112  1.00  0.00    -0.206 F 
ATOM     69  C   UNL A   1      46.486  31.958  29.601  1.00  0.00     0.059 A 
ATOM     70  C   UNL A   1      46.799  30.630  31.574  1.00  0.00     0.059 A 
ATOM     71  F   UNL A   1      45.140  30.525  33.173  1.00  0.00    -0.206 F 
ATOM     72  C   UNL A   1      47.305  31.183  30.411  1.00  0.00     0.060 A 
BRANCH  72  73
ATOM     73  S   UNL A   1      49.047  31.005  29.989  1.00  0.00     0.124 S 
ATOM     74  O   UNL A   1      49.128  31.686  28.701  1.00  0.00    -0.237 OA
ATOM     75  O   UNL A   1      49.698  31.679  31.108  1.00  0.00    -0.237 OA
ATOM     76  O   UNL A   1      49.240  29.558  29.937  1.00  0.00    -0.744 OA
ENDBRANCH  72  73
ENDBRANCH  51  65
BRANCH  52  77
ATOM     77  C   UNL A   1      35.155  34.043  30.414  1.00  0.00     0.058 A 
ATOM     78  C   UNL A   1      34.386  33.573  31.492  1.00  0.00     0.135 A 
ATOM     79  C   UNL A   1      34.468  34.952  29.632  1.00  0.00     0.135 A 
ATOM     80  F   UNL A   1      34.541  32.314  31.923  1.00  0.00    -0.206 F 
ATOM     81  C   UNL A   1      33.512  34.415  32.181  1.00  0.00     0.059 A 
ATOM     82  C   UNL A   1      33.616  35.820  30.321  1.00  0.00     0.059 A 
ATOM     83  F   UNL A   1      34.974  35.343  28.449  1.00  0.00    -0.206 F 
ATOM     84  C   UNL A   1      33.307  35.675  31.657  1.00  0.00     0.060 A 
BRANCH  84  85
ATOM     85  S   UNL A   1      33.004  37.241  32.861  1.00  0.00     0.124 S 
ATOM     86  O   UNL A   1      31.666  36.909  33.318  1.00  0.00    -0.237 OA
ATOM     87  O   UNL A   1      33.975  37.158  33.917  1.00  0.00    -0.237 OA
ATOM     88  O   UNL A   1      33.075  38.450  32.050  1.00  0.00    -0.744 OA
ENDBRANCH  84  85
ENDBRANCH  52  77
BRANCH  64  89
ATOM     89  C   UNL A   1      40.168  33.799  35.724  1.00  0.00     0.058 A 
ATOM     90  C   UNL A   1      40.200  32.520  36.305  1.00  0.00     0.135 A 
ATOM     91  C   UNL A   1      40.324  34.880  36.622  1.00  0.00     0.135 A 
ATOM     92  F   UNL A   1      39.900  31.422  35.593  1.00  0.00    -0.206 F 
ATOM     93  C   UNL A   1      40.499  32.324  37.650  1.00  0.00     0.059 A 
ATOM     94  C   UNL A   1      40.574  34.709  37.975  1.00  0.00     0.059 A 
ATOM     95  F   UNL A   1      40.239  36.158  36.231  1.00  0.00    -0.206 F 
ATOM     96  C   UNL A   1      40.701  33.427  38.474  1.00  0.00     0.060 A 
BRANCH  96  97
ATOM     97  S   UNL A   1      41.096  33.173  40.206  1.00  0.00     0.124 S 
ATOM     98  O   UNL A   1      41.929  34.331  40.510  1.00  0.00    -0.237 OA
ATOM     99  O   UNL A   1      39.765  33.174  40.808  1.00  0.00    -0.237 OA
ATOM    100  O   UNL A   1      41.789  31.888  40.215  1.00  0.00    -0.744 OA
ENDBRANCH  96  97
ENDBRANCH  64  89
ENDBRANCH  38  39
ENDBRANCH  30  33
ENDBRANCH  28  29
ENDBRANCH   1  28
TORSDOF 16
ENDMDL
MODEL 3
REMARK VINA RESULT:     -12.4      4.664      7.631
REMARK SMILES Cc1c(NC(=O)c2ccc(Br)cc2N)cccc1C(=O)NCCCNC(=O)c1ccc(-c2c3nc(c(-c4c(F)cc(S(=O)(=O)[O-])cc4F)c4ccc([nH]4)c(-c4c(F)cc(S(=O)(=O)[O-])cc4F)c4nc(c(-c5c(F)cc(S(=O)(=O)[O-])cc5F)c5ccc2[nH]5)C=C4)C=C3)cc1
REMARK SMILES IDX 23 1 22 2 21 3 19 4 20 5 18 7 1 8 2 9 3 10 15 11 17 12 16 13
REMARK SMILES IDX 4 14 5 15 6 17 7 18 8 19 13 20 9 21 12 22 10 23 11 24 14 25
REMARK SMILES IDX 24 28 25 29 26 30 27 32 28 33 29 34 93 35 30 36 92 37 31 38
REMARK SMILES IDX 32 39 33 40 86 41 34 42 91 43 85 44 87 45 35 46 90 47 84 48
REMARK SMILES IDX 83 49 36 51 70 52 49 53 69 54 50 55 53 56 68 57 88 58 51 59
REMARK SMILES IDX 52 60 67 62 89 63 54 64 37 65 38 66 47 67 39 68 40 69 46 70
REMARK SMILES IDX 48 71 41 72 42 73 43 74 44 75 45 76 71 77 72 78 81 79 73 80
REMARK SMILES IDX 74 81 80 82 82 83 75 84 76 85 77 86 78 87 79 88 55 89 56 90
REMARK SMILES IDX 65 91 57 92 58 93 64 94 66 95 59 96 60 97 61 98 62 99 63 100
REMARK H PARENT 21 6 4 16 14 26 14 27 25 31 87 50 53 61
REMARK Flexibility Score: inf
ROOT
ATOM      1  C   UNL A   1      34.036  30.256  27.146  1.00  0.00     0.042 C 
ENDROOT
BRANCH   1   2
ATOM      2  C   UNL A   1      32.452  29.814  27.159  1.00  0.00     0.118 C 
BRANCH   2   3
ATOM      3  N   UNL A   1      31.568  30.215  26.025  1.00  0.00    -0.352 N 
ATOM      4  C   UNL A   1      31.228  29.759  24.763  1.00  0.00     0.251 C 
ATOM      5  O   UNL A   1      30.232  30.181  24.171  1.00  0.00    -0.269 OA
ATOM      6  H   UNL A   1      31.086  31.047  26.236  1.00  0.00     0.163 HD
BRANCH   4   7
ATOM      7  C   UNL A   1      32.039  28.752  24.042  1.00  0.00     0.044 A 
ATOM      8  C   UNL A   1      30.741  26.832  25.070  1.00  0.00     0.047 C 
ATOM      9  C   UNL A   1      31.700  27.403  24.060  1.00  0.00    -0.015 A 
ATOM     10  C   UNL A   1      32.376  26.524  23.206  1.00  0.00     0.045 A 
ATOM     11  C   UNL A   1      33.537  26.913  22.537  1.00  0.00     0.026 A 
ATOM     12  C   UNL A   1      33.241  29.143  23.415  1.00  0.00     0.014 A 
ATOM     13  C   UNL A   1      34.001  28.220  22.687  1.00  0.00     0.003 A 
BRANCH  10  14
ATOM     14  N   UNL A   1      31.769  25.282  23.024  1.00  0.00    -0.322 N 
ATOM     15  C   UNL A   1      32.187  24.034  23.383  1.00  0.00     0.257 C 
ATOM     16  H   UNL A   1      30.901  25.311  22.560  1.00  0.00     0.170 HD
ATOM     17  O   UNL A   1      31.450  23.075  23.139  1.00  0.00    -0.269 OA
BRANCH  15  18
ATOM     18  C   UNL A   1      33.484  23.790  24.051  1.00  0.00     0.063 A 
ATOM     19  C   UNL A   1      34.477  23.309  23.185  1.00  0.00     0.017 A 
ATOM     20  C   UNL A   1      33.761  23.960  25.425  1.00  0.00     0.045 A 
ATOM     21  C   UNL A   1      35.759  23.051  23.655  1.00  0.00     0.016 A 
ATOM     22  C   UNL A   1      35.073  23.754  25.865  1.00  0.00     0.042 A 
ATOM     23  C   UNL A   1      36.056  23.296  24.990  1.00  0.00     0.020 A 
ATOM     24  Br  UNL A   1      37.799  22.964  25.638  1.00  0.00    -0.051 Br
BRANCH  20  25
ATOM     25  N   UNL A   1      32.820  24.257  26.395  1.00  0.00    -0.398 N 
ATOM     26  H   UNL A   1      32.594  25.196  26.590  1.00  0.00     0.156 HD
ATOM     27  H   UNL A   1      32.376  23.530  26.888  1.00  0.00     0.156 HD
ENDBRANCH  20  25
ENDBRANCH  15  18
ENDBRANCH  10  14
ENDBRANCH   4   7
ENDBRANCH   2   3
ENDBRANCH   1   2
BRANCH   1  28
ATOM     28  C   UNL A   1      35.099  29.168  27.622  1.00  0.00     0.118 C 
BRANCH  28  29
ATOM     29  N   UNL A   1      36.421  29.403  28.438  1.00  0.00    -0.352 N 
ATOM     30  C   UNL A   1      37.842  29.587  28.122  1.00  0.00     0.251 C 
ATOM     31  H   UNL A   1      36.253  29.434  29.408  1.00  0.00     0.163 HD
ATOM     32  O   UNL A   1      38.260  30.728  28.392  1.00  0.00    -0.269 OA
BRANCH  30  33
ATOM     33  C   UNL A   1      38.985  28.619  27.580  1.00  0.00     0.039 A 
ATOM     34  C   UNL A   1      38.985  27.220  27.892  1.00  0.00     0.014 A 
ATOM     35  C   UNL A   1      40.115  28.990  26.862  1.00  0.00     0.014 A 
ATOM     36  C   UNL A   1      40.231  26.476  28.035  1.00  0.00     0.010 A 
ATOM     37  C   UNL A   1      41.345  28.268  27.009  1.00  0.00     0.010 A 
ATOM     38  C   UNL A   1      41.456  27.135  27.830  1.00  0.00    -0.014 A 
BRANCH  38  39
ATOM     39  C   UNL A   1      42.739  26.889  28.639  1.00  0.00     0.031 A 
ATOM     40  C   UNL A   1      43.436  27.994  29.287  1.00  0.00     0.074 A 
ATOM     41  C   UNL A   1      43.324  25.707  29.028  1.00  0.00     0.049 A 
ATOM     42  N   UNL A   1      44.709  28.216  29.206  1.00  0.00    -0.248 NA
ATOM     43  C   UNL A   1      42.715  28.862  30.196  1.00  0.00     0.031 C 
ATOM     44  C   UNL A   1      44.437  25.367  29.938  1.00  0.00     0.029 A 
ATOM     45  N   UNL A   1      42.949  24.421  28.713  1.00  0.00    -0.354 N 
ATOM     46  C   UNL A   1      45.002  29.022  30.286  1.00  0.00     0.074 A 
ATOM     47  C   UNL A   1      43.724  29.559  30.719  1.00  0.00     0.031 C 
ATOM     48  C   UNL A   1      44.824  24.083  29.733  1.00  0.00     0.029 A 
ATOM     49  C   UNL A   1      44.022  23.542  28.654  1.00  0.00     0.049 A 
ATOM     50  H   UNL A   1      42.016  24.153  28.545  1.00  0.00     0.167 HD
ATOM     51  C   UNL A   1      46.204  28.950  30.939  1.00  0.00     0.037 A 
ATOM     52  C   UNL A   1      44.377  23.001  27.441  1.00  0.00     0.037 A 
ATOM     53  C   UNL A   1      46.988  27.762  30.542  1.00  0.00     0.049 A 
ATOM     54  C   UNL A   1      45.660  23.634  26.975  1.00  0.00     0.074 A 
ATOM     55  C   UNL A   1      47.369  26.596  31.199  1.00  0.00     0.029 A 
ATOM     56  N   UNL A   1      47.260  27.519  29.206  1.00  0.00    -0.354 N 
ATOM     57  N   UNL A   1      46.451  24.288  27.773  1.00  0.00    -0.248 NA
ATOM     58  C   UNL A   1      46.107  23.686  25.586  1.00  0.00     0.031 C 
ATOM     59  C   UNL A   1      47.890  25.675  30.240  1.00  0.00     0.029 A 
ATOM     60  C   UNL A   1      47.849  26.281  29.000  1.00  0.00     0.049 A 
ATOM     61  H   UNL A   1      47.058  28.155  28.482  1.00  0.00     0.167 HD
ATOM     62  C   UNL A   1      47.370  24.976  27.046  1.00  0.00     0.074 A 
ATOM     63  C   UNL A   1      47.159  24.522  25.681  1.00  0.00     0.031 C 
ATOM     64  C   UNL A   1      48.191  25.894  27.635  1.00  0.00     0.037 A 
BRANCH  51  65
ATOM     65  C   UNL A   1      46.521  29.796  32.167  1.00  0.00     0.058 A 
ATOM     66  C   UNL A   1      46.917  31.144  32.067  1.00  0.00     0.135 A 
ATOM     67  C   UNL A   1      46.386  29.333  33.496  1.00  0.00     0.135 A 
ATOM     68  F   UNL A   1      46.935  31.788  30.893  1.00  0.00    -0.206 F 
ATOM     69  C   UNL A   1      47.265  31.922  33.177  1.00  0.00     0.059 A 
ATOM     70  C   UNL A   1      46.806  30.057  34.614  1.00  0.00     0.059 A 
ATOM     71  F   UNL A   1      45.752  28.184  33.777  1.00  0.00    -0.206 F 
ATOM     72  C   UNL A   1      47.238  31.360  34.447  1.00  0.00     0.060 A 
BRANCH  72  73
ATOM     73  S   UNL A   1      47.659  32.380  35.870  1.00  0.00     0.124 S 
ATOM     74  O   UNL A   1      47.876  33.690  35.263  1.00  0.00    -0.237 OA
ATOM     75  O   UNL A   1      46.463  32.252  36.697  1.00  0.00    -0.237 OA
ATOM     76  O   UNL A   1      48.858  31.741  36.406  1.00  0.00    -0.744 OA
ENDBRANCH  72  73
ENDBRANCH  51  65
BRANCH  52  77
ATOM     77  C   UNL A   1      43.221  22.599  26.485  1.00  0.00     0.058 A 
ATOM     78  C   UNL A   1      43.549  22.719  25.124  1.00  0.00     0.135 A 
ATOM     79  C   UNL A   1      42.691  21.361  26.795  1.00  0.00     0.135 A 
ATOM     80  F   UNL A   1      43.422  23.901  24.509  1.00  0.00    -0.206 F 
ATOM     81  C   UNL A   1      44.081  21.645  24.410  1.00  0.00     0.059 A 
ATOM     82  C   UNL A   1      43.244  20.277  26.106  1.00  0.00     0.059 A 
ATOM     83  F   UNL A   1      42.133  21.146  27.999  1.00  0.00    -0.206 F 
ATOM     84  C   UNL A   1      44.114  20.419  25.045  1.00  0.00     0.060 A 
BRANCH  84  85
ATOM     85  S   UNL A   1      45.611  19.139  24.710  1.00  0.00     0.124 S 
ATOM     86  O   UNL A   1      45.167  18.053  25.566  1.00  0.00    -0.237 OA
ATOM     87  O   UNL A   1      45.565  18.788  23.317  1.00  0.00    -0.237 OA
ATOM     88  O   UNL A   1      46.849  19.774  25.146  1.00  0.00    -0.744 OA
ENDBRANCH  84  85
ENDBRANCH  52  77
BRANCH  64  89
ATOM     89  C   UNL A   1      49.357  26.540  26.944  1.00  0.00     0.058 A 
ATOM     90  C   UNL A   1      49.203  27.608  26.044  1.00  0.00     0.135 A 
ATOM     91  C   UNL A   1      50.665  26.017  27.051  1.00  0.00     0.135 A 
ATOM     92  F   UNL A   1      47.989  28.084  25.725  1.00  0.00    -0.206 F 
ATOM     93  C   UNL A   1      50.287  28.200  25.403  1.00  0.00     0.059 A 
ATOM     94  C   UNL A   1      51.754  26.560  26.385  1.00  0.00     0.059 A 
ATOM     95  F   UNL A   1      50.954  24.952  27.809  1.00  0.00    -0.206 F 
ATOM     96  C   UNL A   1      51.563  27.677  25.594  1.00  0.00     0.060 A 
BRANCH  96  97
ATOM     97  S   UNL A   1      52.962  28.446  24.775  1.00  0.00     0.124 S 
ATOM     98  O   UNL A   1      53.902  28.636  25.875  1.00  0.00    -0.237 OA
ATOM     99  O   UNL A   1      53.326  27.421  23.801  1.00  0.00    -0.237 OA
ATOM    100  O   UNL A   1      52.402  29.673  24.217  1.00  0.00    -0.744 OA
ENDBRANCH  96  97
ENDBRANCH  64  89
ENDBRANCH  38  39
ENDBRANCH  30  33
ENDBRANCH  28  29
ENDBRANCH   1  28
TORSDOF 16
ENDMDL
