MODEL 1
REMARK VINA RESULT:     -13.1      0.000      0.000
REMARK SMILES CS(=O)(=O)c1ccc(C2=NN(c3ccc(C(=O)NCCCNC(=O)c4ccc(-c5c6nc(c(-c7c(F)cc(S(=O)(=O)[O-])cc7F)c7ccc([nH]7)c(-c7c(F)cc(S(=O)(=O)[O-])cc7F)c7nc(c(-c8c(F)cc(S(=O)(=O)[O-])cc8F)c8ccc5[nH]8)C=C7)C=C6)cc4)cc3)[C@H](c3ccc(F)cc3)C2)cc1
REMARK SMILES IDX 20 1 19 2 18 3 16 4 17 5 15 7 12 8 13 9 92 10 14 11 91 12
REMARK SMILES IDX 11 13 9 14 10 15 101 16 93 17 8 18 5 19 6 20 103 21 7 22
REMARK SMILES IDX 102 23 2 24 1 25 3 26 4 27 94 28 95 29 100 30 96 31 99 32
REMARK SMILES IDX 97 33 98 34 21 35 22 36 23 37 24 39 25 40 26 41 90 42 27 43
REMARK SMILES IDX 89 44 28 45 29 46 30 47 83 48 31 49 88 50 82 51 84 52 32 53
REMARK SMILES IDX 87 54 81 55 80 56 33 58 67 59 46 60 66 61 47 62 50 63 65 64
REMARK SMILES IDX 85 65 48 66 49 67 64 69 86 70 51 71 34 72 35 73 44 74 36 75
REMARK SMILES IDX 37 76 43 77 45 78 38 79 39 80 40 81 41 82 42 83 68 84 69 85
REMARK SMILES IDX 78 86 70 87 71 88 77 89 79 90 72 91 73 92 74 93 75 94 76 95
REMARK SMILES IDX 52 96 53 97 62 98 54 99 55 100 61 101 63 102 56 103 57 104
REMARK SMILES IDX 58 105 59 106 60 107
REMARK H PARENT 18 6 22 38 84 57 50 68
REMARK Flexibility Score: inf
ROOT
ATOM      1  C   UNL A   1      39.230  19.336  25.602  1.00  0.00     0.042 C 
ENDROOT
BRANCH   1   2
ATOM      2  C   UNL A   1      38.376  20.544  25.222  1.00  0.00     0.118 C 
BRANCH   2   3
ATOM      3  N   UNL A   1      38.987  21.794  25.648  1.00  0.00    -0.352 N 
ATOM      4  C   UNL A   1      38.457  23.052  25.792  1.00  0.00     0.251 C 
ATOM      5  O   UNL A   1      39.145  23.926  26.317  1.00  0.00    -0.269 OA
ATOM      6  H   UNL A   1      39.944  21.726  25.870  1.00  0.00     0.163 HD
BRANCH   4   7
ATOM      7  C   UNL A   1      37.061  23.365  25.397  1.00  0.00     0.039 A 
ATOM      8  C   UNL A   1      34.361  23.869  24.776  1.00  0.00     0.060 A 
ATOM      9  C   UNL A   1      34.813  23.965  26.096  1.00  0.00     0.029 A 
ATOM     10  C   UNL A   1      35.288  23.596  23.768  1.00  0.00     0.029 A 
ATOM     11  C   UNL A   1      36.155  23.717  26.406  1.00  0.00     0.016 A 
ATOM     12  C   UNL A   1      36.628  23.361  24.071  1.00  0.00     0.016 A 
BRANCH   8  13
ATOM     13  N   UNL A   1      33.027  24.028  24.440  1.00  0.00    -0.257 N 
ATOM     14  C   UNL A   1      31.304  25.236  24.174  1.00  0.00     0.071 C 
ATOM     15  N   UNL A   1      32.594  25.253  24.070  1.00  0.00    -0.176 NA
ATOM     16  C   UNL A   1      30.708  23.969  24.724  1.00  0.00     0.091 C 
ATOM     17  C   UNL A   1      31.972  23.096  24.845  1.00  0.00     0.144 C 
BRANCH  14  18
ATOM     18  C   UNL A   1      30.479  26.388  23.775  1.00  0.00    -0.002 A 
ATOM     19  C   UNL A   1      29.013  28.629  23.028  1.00  0.00     0.067 A 
ATOM     20  C   UNL A   1      30.406  28.670  22.961  1.00  0.00     0.021 A 
ATOM     21  C   UNL A   1      28.346  27.473  23.456  1.00  0.00     0.021 A 
ATOM     22  C   UNL A   1      31.139  27.549  23.349  1.00  0.00     0.011 A 
ATOM     23  C   UNL A   1      29.084  26.346  23.830  1.00  0.00     0.011 A 
BRANCH  19  24
ATOM     24  S   UNL A   1      28.060  30.040  22.521  1.00  0.00     0.175 S 
ATOM     25  C   UNL A   1      29.078  31.421  22.968  1.00  0.00     0.163 C 
ATOM     26  O   UNL A   1      26.871  30.066  23.351  1.00  0.00    -0.224 OA
ATOM     27  O   UNL A   1      27.961  30.018  21.074  1.00  0.00    -0.224 OA
ENDBRANCH  19  24
ENDBRANCH  14  18
BRANCH  17  28
ATOM     28  C   UNL A   1      32.045  21.806  24.029  1.00  0.00    -0.023 A 
ATOM     29  C   UNL A   1      31.874  21.743  22.636  1.00  0.00     0.009 A 
ATOM     30  C   UNL A   1      32.352  20.604  24.707  1.00  0.00     0.009 A 
ATOM     31  C   UNL A   1      31.987  20.525  21.954  1.00  0.00     0.039 A 
ATOM     32  C   UNL A   1      32.494  19.395  24.022  1.00  0.00     0.039 A 
ATOM     33  C   UNL A   1      32.302  19.366  22.651  1.00  0.00     0.123 A 
ATOM     34  F   UNL A   1      32.427  18.208  21.990  1.00  0.00    -0.207 F 
ENDBRANCH  17  28
ENDBRANCH   8  13
ENDBRANCH   4   7
ENDBRANCH   2   3
ENDBRANCH   1   2
BRANCH   1  35
ATOM     35  C   UNL A   1      40.450  19.688  26.448  1.00  0.00     0.118 C 
BRANCH  35  36
ATOM     36  N   UNL A   1      41.635  18.952  26.032  1.00  0.00    -0.352 N 
ATOM     37  C   UNL A   1      42.887  19.410  25.707  1.00  0.00     0.251 C 
ATOM     38  H   UNL A   1      41.520  17.975  25.976  1.00  0.00     0.163 HD
ATOM     39  O   UNL A   1      43.684  18.643  25.174  1.00  0.00    -0.269 OA
BRANCH  37  40
ATOM     40  C   UNL A   1      43.279  20.812  25.981  1.00  0.00     0.039 A 
ATOM     41  C   UNL A   1      43.284  21.260  27.305  1.00  0.00     0.014 A 
ATOM     42  C   UNL A   1      43.595  21.697  24.947  1.00  0.00     0.014 A 
ATOM     43  C   UNL A   1      43.655  22.577  27.595  1.00  0.00     0.010 A 
ATOM     44  C   UNL A   1      44.032  22.988  25.241  1.00  0.00     0.010 A 
ATOM     45  C   UNL A   1      44.061  23.444  26.567  1.00  0.00    -0.014 A 
BRANCH  45  46
ATOM     46  C   UNL A   1      44.512  24.829  26.861  1.00  0.00     0.031 A 
ATOM     47  C   UNL A   1      43.520  25.870  27.306  1.00  0.00     0.074 A 
ATOM     48  C   UNL A   1      45.804  25.163  26.672  1.00  0.00     0.049 A 
ATOM     49  N   UNL A   1      43.704  27.147  27.524  1.00  0.00    -0.248 NA
ATOM     50  C   UNL A   1      42.132  25.422  27.511  1.00  0.00     0.031 C 
ATOM     51  C   UNL A   1      46.852  24.255  26.200  1.00  0.00     0.029 A 
ATOM     52  N   UNL A   1      46.455  26.361  26.837  1.00  0.00    -0.354 N 
ATOM     53  C   UNL A   1      42.460  27.655  27.884  1.00  0.00     0.074 A 
ATOM     54  C   UNL A   1      41.519  26.559  27.803  1.00  0.00     0.031 C 
ATOM     55  C   UNL A   1      48.013  24.924  26.121  1.00  0.00     0.029 A 
ATOM     56  C   UNL A   1      47.787  26.316  26.499  1.00  0.00     0.049 A 
ATOM     57  H   UNL A   1      46.010  27.174  27.166  1.00  0.00     0.167 HD
ATOM     58  C   UNL A   1      42.139  28.913  28.273  1.00  0.00     0.037 A 
ATOM     59  C   UNL A   1      48.719  27.289  26.480  1.00  0.00     0.037 A 
ATOM     60  C   UNL A   1      43.084  29.995  28.368  1.00  0.00     0.049 A 
ATOM     61  C   UNL A   1      48.337  28.678  26.914  1.00  0.00     0.074 A 
ATOM     62  C   UNL A   1      42.863  31.298  28.779  1.00  0.00     0.029 A 
ATOM     63  N   UNL A   1      44.431  29.900  28.054  1.00  0.00    -0.354 N 
ATOM     64  N   UNL A   1      47.165  29.129  27.294  1.00  0.00    -0.248 NA
ATOM     65  C   UNL A   1      49.402  29.690  26.925  1.00  0.00     0.031 C 
ATOM     66  C   UNL A   1      44.069  31.999  28.682  1.00  0.00     0.029 A 
ATOM     67  C   UNL A   1      45.053  31.122  28.254  1.00  0.00     0.049 A 
ATOM     68  H   UNL A   1      44.882  29.083  27.735  1.00  0.00     0.167 HD
ATOM     69  C   UNL A   1      47.358  30.468  27.613  1.00  0.00     0.074 A 
ATOM     70  C   UNL A   1      48.762  30.751  27.397  1.00  0.00     0.031 C 
ATOM     71  C   UNL A   1      46.454  31.382  28.046  1.00  0.00     0.037 A 
BRANCH  58  72
ATOM     72  C   UNL A   1      40.706  29.184  28.644  1.00  0.00     0.058 A 
ATOM     73  C   UNL A   1      40.305  29.283  29.987  1.00  0.00     0.135 A 
ATOM     74  C   UNL A   1      39.733  29.397  27.655  1.00  0.00     0.135 A 
ATOM     75  F   UNL A   1      41.192  29.073  30.974  1.00  0.00    -0.206 F 
ATOM     76  C   UNL A   1      38.989  29.561  30.336  1.00  0.00     0.059 A 
ATOM     77  C   UNL A   1      38.414  29.702  27.981  1.00  0.00     0.059 A 
ATOM     78  F   UNL A   1      40.061  29.314  26.356  1.00  0.00    -0.206 F 
ATOM     79  C   UNL A   1      38.050  29.771  29.325  1.00  0.00     0.060 A 
BRANCH  79  80
ATOM     80  S   UNL A   1      36.348  30.148  29.796  1.00  0.00     0.124 S 
ATOM     81  O   UNL A   1      36.398  31.601  29.928  1.00  0.00    -0.237 OA
ATOM     82  O   UNL A   1      35.589  29.642  28.657  1.00  0.00    -0.237 OA
ATOM     83  O   UNL A   1      36.168  29.411  31.043  1.00  0.00    -0.744 OA
ENDBRANCH  79  80
ENDBRANCH  58  72
BRANCH  59  84
ATOM     84  C   UNL A   1      50.106  26.984  26.038  1.00  0.00     0.058 A 
ATOM     85  C   UNL A   1      50.515  27.217  24.716  1.00  0.00     0.135 A 
ATOM     86  C   UNL A   1      51.051  26.449  26.928  1.00  0.00     0.135 A 
ATOM     87  F   UNL A   1      49.647  27.724  23.826  1.00  0.00    -0.206 F 
ATOM     88  C   UNL A   1      51.800  26.907  24.284  1.00  0.00     0.059 A 
ATOM     89  C   UNL A   1      52.350  26.156  26.527  1.00  0.00     0.059 A 
ATOM     90  F   UNL A   1      50.717  26.225  28.209  1.00  0.00    -0.206 F 
ATOM     91  C   UNL A   1      52.711  26.374  25.198  1.00  0.00     0.060 A 
BRANCH  91  92
ATOM     92  S   UNL A   1      54.386  26.001  24.636  1.00  0.00     0.124 S 
ATOM     93  O   UNL A   1      54.296  26.318  23.216  1.00  0.00    -0.237 OA
ATOM     94  O   UNL A   1      55.192  26.911  25.444  1.00  0.00    -0.237 OA
ATOM     95  O   UNL A   1      54.539  24.585  24.960  1.00  0.00    -0.744 OA
ENDBRANCH  91  92
ENDBRANCH  59  84
BRANCH  71  96
ATOM     96  C   UNL A   1      46.961  32.766  28.349  1.00  0.00     0.058 A 
ATOM     97  C   UNL A   1      47.466  33.105  29.613  1.00  0.00     0.135 A 
ATOM     98  C   UNL A   1      46.986  33.748  27.345  1.00  0.00     0.135 A 
ATOM     99  F   UNL A   1      47.458  32.206  30.609  1.00  0.00    -0.206 F 
ATOM    100  C   UNL A   1      47.958  34.380  29.880  1.00  0.00     0.059 A 
ATOM    101  C   UNL A   1      47.497  35.019  27.581  1.00  0.00     0.059 A 
ATOM    102  F   UNL A   1      46.524  33.470  26.116  1.00  0.00    -0.206 F 
ATOM    103  C   UNL A   1      47.971  35.329  28.856  1.00  0.00     0.060 A 
BRANCH 103 104
ATOM    104  S   UNL A   1      48.645  36.968  29.205  1.00  0.00     0.124 S 
ATOM    105  O   UNL A   1      49.959  36.885  28.577  1.00  0.00    -0.237 OA
ATOM    106  O   UNL A   1      47.682  37.847  28.549  1.00  0.00    -0.237 OA
ATOM    107  O   UNL A   1      48.647  37.030  30.664  1.00  0.00    -0.744 OA
ENDBRANCH 103 104
ENDBRANCH  71  96
ENDBRANCH  45  46
ENDBRANCH  37  40
ENDBRANCH  35  36
ENDBRANCH   1  35
TORSDOF 17
ENDMDL
MODEL 2
REMARK VINA RESULT:     -12.9      0.419      7.752
REMARK SMILES CS(=O)(=O)c1ccc(C2=NN(c3ccc(C(=O)NCCCNC(=O)c4ccc(-c5c6nc(c(-c7c(F)cc(S(=O)(=O)[O-])cc7F)c7ccc([nH]7)c(-c7c(F)cc(S(=O)(=O)[O-])cc7F)c7nc(c(-c8c(F)cc(S(=O)(=O)[O-])cc8F)c8ccc5[nH]8)C=C7)C=C6)cc4)cc3)[C@H](c3ccc(F)cc3)C2)cc1
REMARK SMILES IDX 20 1 19 2 18 3 16 4 17 5 15 7 12 8 13 9 92 10 14 11 91 12
REMARK SMILES IDX 11 13 9 14 10 15 101 16 93 17 8 18 5 19 6 20 103 21 7 22
REMARK SMILES IDX 102 23 2 24 1 25 3 26 4 27 94 28 95 29 100 30 96 31 99 32
REMARK SMILES IDX 97 33 98 34 21 35 22 36 23 37 24 39 25 40 26 41 90 42 27 43
REMARK SMILES IDX 89 44 28 45 29 46 30 47 83 48 31 49 88 50 82 51 84 52 32 53
REMARK SMILES IDX 87 54 81 55 80 56 33 58 67 59 46 60 66 61 47 62 50 63 65 64
REMARK SMILES IDX 85 65 48 66 49 67 64 69 86 70 51 71 34 72 35 73 44 74 36 75
REMARK SMILES IDX 37 76 43 77 45 78 38 79 39 80 40 81 41 82 42 83 68 84 69 85
REMARK SMILES IDX 78 86 70 87 71 88 77 89 79 90 72 91 73 92 74 93 75 94 76 95
REMARK SMILES IDX 52 96 53 97 62 98 54 99 55 100 61 101 63 102 56 103 57 104
REMARK SMILES IDX 58 105 59 106 60 107
REMARK H PARENT 18 6 22 38 84 57 50 68
REMARK Flexibility Score: inf
ROOT
ATOM      1  C   UNL A   1      39.340  19.257  25.558  1.00  0.00     0.042 C 
ENDROOT
BRANCH   1   2
ATOM      2  C   UNL A   1      38.438  20.455  25.270  1.00  0.00     0.118 C 
BRANCH   2   3
ATOM      3  N   UNL A   1      39.028  21.700  25.737  1.00  0.00    -0.352 N 
ATOM      4  C   UNL A   1      38.479  22.948  25.907  1.00  0.00     0.251 C 
ATOM      5  O   UNL A   1      39.150  23.816  26.463  1.00  0.00    -0.269 OA
ATOM      6  H   UNL A   1      39.983  21.638  25.971  1.00  0.00     0.163 HD
BRANCH   4   7
ATOM      7  C   UNL A   1      37.085  23.253  25.500  1.00  0.00     0.039 A 
ATOM      8  C   UNL A   1      34.388  23.728  24.845  1.00  0.00     0.060 A 
ATOM      9  C   UNL A   1      34.793  23.681  26.182  1.00  0.00     0.029 A 
ATOM     10  C   UNL A   1      35.357  23.613  23.846  1.00  0.00     0.029 A 
ATOM     11  C   UNL A   1      36.133  23.448  26.510  1.00  0.00     0.016 A 
ATOM     12  C   UNL A   1      36.696  23.394  24.168  1.00  0.00     0.016 A 
BRANCH   8  13
ATOM     13  N   UNL A   1      33.060  23.877  24.481  1.00  0.00    -0.257 N 
ATOM     14  C   UNL A   1      31.325  25.066  24.209  1.00  0.00     0.071 C 
ATOM     15  N   UNL A   1      32.617  25.105  24.137  1.00  0.00    -0.176 NA
ATOM     16  C   UNL A   1      30.737  23.774  24.707  1.00  0.00     0.091 C 
ATOM     17  C   UNL A   1      32.011  22.917  24.834  1.00  0.00     0.144 C 
BRANCH  14  18
ATOM     18  C   UNL A   1      30.492  26.216  23.823  1.00  0.00    -0.002 A 
ATOM     19  C   UNL A   1      29.009  28.455  23.102  1.00  0.00     0.067 A 
ATOM     20  C   UNL A   1      30.402  28.507  23.035  1.00  0.00     0.021 A 
ATOM     21  C   UNL A   1      28.351  27.289  23.519  1.00  0.00     0.021 A 
ATOM     22  C   UNL A   1      31.143  27.386  23.410  1.00  0.00     0.011 A 
ATOM     23  C   UNL A   1      29.097  26.163  23.879  1.00  0.00     0.011 A 
BRANCH  19  24
ATOM     24  S   UNL A   1      28.046  29.865  22.612  1.00  0.00     0.175 S 
ATOM     25  C   UNL A   1      29.004  31.247  23.170  1.00  0.00     0.163 C 
ATOM     26  O   UNL A   1      26.817  29.824  23.382  1.00  0.00    -0.224 OA
ATOM     27  O   UNL A   1      28.018  29.906  21.162  1.00  0.00    -0.224 OA
ENDBRANCH  19  24
ENDBRANCH  14  18
BRANCH  17  28
ATOM     28  C   UNL A   1      32.124  21.653  23.983  1.00  0.00    -0.023 A 
ATOM     29  C   UNL A   1      32.440  20.383  24.494  1.00  0.00     0.009 A 
ATOM     30  C   UNL A   1      31.844  21.751  22.601  1.00  0.00     0.009 A 
ATOM     31  C   UNL A   1      32.493  19.264  23.654  1.00  0.00     0.039 A 
ATOM     32  C   UNL A   1      31.868  20.630  21.769  1.00  0.00     0.039 A 
ATOM     33  C   UNL A   1      32.201  19.396  22.304  1.00  0.00     0.123 A 
ATOM     34  F   UNL A   1      32.235  18.318  21.509  1.00  0.00    -0.207 F 
ENDBRANCH  17  28
ENDBRANCH   8  13
ENDBRANCH   4   7
ENDBRANCH   2   3
ENDBRANCH   1   2
BRANCH   1  35
ATOM     35  C   UNL A   1      40.520  19.581  26.469  1.00  0.00     0.118 C 
BRANCH  35  36
ATOM     36  N   UNL A   1      41.734  18.890  26.060  1.00  0.00    -0.352 N 
ATOM     37  C   UNL A   1      42.965  19.395  25.725  1.00  0.00     0.251 C 
ATOM     38  H   UNL A   1      41.660  17.909  26.018  1.00  0.00     0.163 HD
ATOM     39  O   UNL A   1      43.792  18.655  25.200  1.00  0.00    -0.269 OA
BRANCH  37  40
ATOM     40  C   UNL A   1      43.298  20.817  25.977  1.00  0.00     0.039 A 
ATOM     41  C   UNL A   1      43.473  21.240  27.298  1.00  0.00     0.014 A 
ATOM     42  C   UNL A   1      43.394  21.741  24.933  1.00  0.00     0.014 A 
ATOM     43  C   UNL A   1      43.793  22.574  27.567  1.00  0.00     0.010 A 
ATOM     44  C   UNL A   1      43.782  23.054  25.196  1.00  0.00     0.010 A 
ATOM     45  C   UNL A   1      43.980  23.487  26.516  1.00  0.00    -0.014 A 
BRANCH  45  46
ATOM     46  C   UNL A   1      44.376  24.894  26.778  1.00  0.00     0.031 A 
ATOM     47  C   UNL A   1      45.819  25.309  26.664  1.00  0.00     0.074 A 
ATOM     48  C   UNL A   1      43.446  25.786  27.175  1.00  0.00     0.049 A 
ATOM     49  N   UNL A   1      46.371  26.463  26.937  1.00  0.00    -0.248 NA
ATOM     50  C   UNL A   1      46.770  24.284  26.203  1.00  0.00     0.031 C 
ATOM     51  C   UNL A   1      42.022  25.494  27.367  1.00  0.00     0.029 A 
ATOM     52  N   UNL A   1      43.558  27.114  27.505  1.00  0.00    -0.354 N 
ATOM     53  C   UNL A   1      47.730  26.304  26.689  1.00  0.00     0.074 A 
ATOM     54  C   UNL A   1      47.926  24.925  26.295  1.00  0.00     0.031 C 
ATOM     55  C   UNL A   1      41.395  26.609  27.773  1.00  0.00     0.029 A 
ATOM     56  C   UNL A   1      42.373  27.684  27.907  1.00  0.00     0.049 A 
ATOM     57  H   UNL A   1      44.406  27.609  27.459  1.00  0.00     0.167 HD
ATOM     58  C   UNL A   1      48.718  27.228  26.757  1.00  0.00     0.037 A 
ATOM     59  C   UNL A   1      42.106  28.929  28.348  1.00  0.00     0.037 A 
ATOM     60  C   UNL A   1      48.513  28.603  27.134  1.00  0.00     0.049 A 
ATOM     61  C   UNL A   1      43.221  29.937  28.418  1.00  0.00     0.074 A 
ATOM     62  C   UNL A   1      49.445  29.624  27.205  1.00  0.00     0.029 A 
ATOM     63  N   UNL A   1      47.292  29.151  27.496  1.00  0.00    -0.354 N 
ATOM     64  N   UNL A   1      44.492  29.779  28.136  1.00  0.00    -0.248 NA
ATOM     65  C   UNL A   1      42.867  31.294  28.856  1.00  0.00     0.031 C 
ATOM     66  C   UNL A   1      48.793  30.782  27.642  1.00  0.00     0.029 A 
ATOM     67  C   UNL A   1      47.447  30.494  27.800  1.00  0.00     0.049 A 
ATOM     68  H   UNL A   1      46.439  28.659  27.532  1.00  0.00     0.167 HD
ATOM     69  C   UNL A   1      45.084  31.021  28.339  1.00  0.00     0.074 A 
ATOM     70  C   UNL A   1      44.029  31.923  28.751  1.00  0.00     0.031 C 
ATOM     71  C   UNL A   1      46.383  31.381  28.196  1.00  0.00     0.037 A 
BRANCH  58  72
ATOM     72  C   UNL A   1      50.112  26.788  26.398  1.00  0.00     0.058 A 
ATOM     73  C   UNL A   1      51.029  26.390  27.385  1.00  0.00     0.135 A 
ATOM     74  C   UNL A   1      50.521  26.715  25.057  1.00  0.00     0.135 A 
ATOM     75  F   UNL A   1      50.695  26.454  28.684  1.00  0.00    -0.206 F 
ATOM     76  C   UNL A   1      52.309  25.956  27.058  1.00  0.00     0.059 A 
ATOM     77  C   UNL A   1      51.790  26.260  24.705  1.00  0.00     0.059 A 
ATOM     78  F   UNL A   1      49.686  27.084  24.074  1.00  0.00    -0.206 F 
ATOM     79  C   UNL A   1      52.679  25.893  25.713  1.00  0.00     0.060 A 
BRANCH  79  80
ATOM     80  S   UNL A   1      54.340  25.311  25.306  1.00  0.00     0.124 S 
ATOM     81  O   UNL A   1      54.741  26.269  24.280  1.00  0.00    -0.237 OA
ATOM     82  O   UNL A   1      55.033  25.425  26.584  1.00  0.00    -0.237 OA
ATOM     83  O   UNL A   1      54.116  23.947  24.837  1.00  0.00    -0.744 OA
ENDBRANCH  79  80
ENDBRANCH  58  72
BRANCH  59  84
ATOM     84  C   UNL A   1      40.722  29.294  28.757  1.00  0.00     0.058 A 
ATOM     85  C   UNL A   1      39.716  29.509  27.804  1.00  0.00     0.135 A 
ATOM     86  C   UNL A   1      40.380  29.437  30.111  1.00  0.00     0.135 A 
ATOM     87  F   UNL A   1      39.995  29.388  26.496  1.00  0.00    -0.206 F 
ATOM     88  C   UNL A   1      38.428  29.880  28.174  1.00  0.00     0.059 A 
ATOM     89  C   UNL A   1      39.092  29.780  30.508  1.00  0.00     0.059 A 
ATOM     90  F   UNL A   1      41.301  29.222  31.064  1.00  0.00    -0.206 F 
ATOM     91  C   UNL A   1      38.126  30.015  29.530  1.00  0.00     0.060 A 
BRANCH  91  92
ATOM     92  S   UNL A   1      36.443  30.469  30.004  1.00  0.00     0.124 S 
ATOM     93  O   UNL A   1      36.559  31.916  30.143  1.00  0.00    -0.237 OA
ATOM     94  O   UNL A   1      35.664  29.997  28.863  1.00  0.00    -0.237 OA
ATOM     95  O   UNL A   1      36.234  29.728  31.245  1.00  0.00    -0.744 OA
ENDBRANCH  91  92
ENDBRANCH  59  84
BRANCH  71  96
ATOM     96  C   UNL A   1      46.734  32.821  28.454  1.00  0.00     0.058 A 
ATOM     97  C   UNL A   1      47.153  33.263  29.717  1.00  0.00     0.135 A 
ATOM     98  C   UNL A   1      46.697  33.758  27.408  1.00  0.00     0.135 A 
ATOM     99  F   UNL A   1      47.199  32.409  30.752  1.00  0.00    -0.206 F 
ATOM    100  C   UNL A   1      47.502  34.591  29.943  1.00  0.00     0.059 A 
ATOM    101  C   UNL A   1      47.067  35.084  27.604  1.00  0.00     0.059 A 
ATOM    102  F   UNL A   1      46.312  33.383  26.178  1.00  0.00    -0.206 F 
ATOM    103  C   UNL A   1      47.458  35.494  28.878  1.00  0.00     0.060 A 
BRANCH 103 104
ATOM    104  S   UNL A   1      47.947  37.207  29.175  1.00  0.00     0.124 S 
ATOM    105  O   UNL A   1      46.652  37.871  29.262  1.00  0.00    -0.237 OA
ATOM    106  O   UNL A   1      48.694  37.106  30.425  1.00  0.00    -0.237 OA
ATOM    107  O   UNL A   1      48.747  37.539  27.999  1.00  0.00    -0.744 OA
ENDBRANCH 103 104
ENDBRANCH  71  96
ENDBRANCH  45  46
ENDBRANCH  37  40
ENDBRANCH  35  36
ENDBRANCH   1  35
TORSDOF 17
ENDMDL
MODEL 3
REMARK VINA RESULT:     -12.6      5.905     10.285
REMARK SMILES CS(=O)(=O)c1ccc(C2=NN(c3ccc(C(=O)NCCCNC(=O)c4ccc(-c5c6nc(c(-c7c(F)cc(S(=O)(=O)[O-])cc7F)c7ccc([nH]7)c(-c7c(F)cc(S(=O)(=O)[O-])cc7F)c7nc(c(-c8c(F)cc(S(=O)(=O)[O-])cc8F)c8ccc5[nH]8)C=C7)C=C6)cc4)cc3)[C@H](c3ccc(F)cc3)C2)cc1
REMARK SMILES IDX 20 1 19 2 18 3 16 4 17 5 15 7 12 8 13 9 92 10 14 11 91 12
REMARK SMILES IDX 11 13 9 14 10 15 101 16 93 17 8 18 5 19 6 20 103 21 7 22
REMARK SMILES IDX 102 23 2 24 1 25 3 26 4 27 94 28 95 29 100 30 96 31 99 32
REMARK SMILES IDX 97 33 98 34 21 35 22 36 23 37 24 39 25 40 26 41 90 42 27 43
REMARK SMILES IDX 89 44 28 45 29 46 30 47 83 48 31 49 88 50 82 51 84 52 32 53
REMARK SMILES IDX 87 54 81 55 80 56 33 58 67 59 46 60 66 61 47 62 50 63 65 64
REMARK SMILES IDX 85 65 48 66 49 67 64 69 86 70 51 71 34 72 35 73 44 74 36 75
REMARK SMILES IDX 37 76 43 77 45 78 38 79 39 80 40 81 41 82 42 83 68 84 69 85
REMARK SMILES IDX 78 86 70 87 71 88 77 89 79 90 72 91 73 92 74 93 75 94 76 95
REMARK SMILES IDX 52 96 53 97 62 98 54 99 55 100 61 101 63 102 56 103 57 104
REMARK SMILES IDX 58 105 59 106 60 107
REMARK H PARENT 18 6 22 38 84 57 50 68
REMARK Flexibility Score: inf
ROOT
ATOM      1  C   UNL A   1      40.689  25.281  26.862  1.00  0.00     0.042 C 
ENDROOT
BRANCH   1   2
ATOM      2  C   UNL A   1      39.366  24.655  26.424  1.00  0.00     0.118 C 
BRANCH   2   3
ATOM      3  N   UNL A   1      39.464  23.208  26.315  1.00  0.00    -0.352 N 
ATOM      4  C   UNL A   1      38.573  22.280  25.831  1.00  0.00     0.251 C 
ATOM      5  O   UNL A   1      38.947  21.116  25.703  1.00  0.00    -0.269 OA
ATOM      6  H   UNL A   1      40.311  22.829  26.642  1.00  0.00     0.163 HD
BRANCH   4   7
ATOM      7  C   UNL A   1      37.204  22.657  25.400  1.00  0.00     0.039 A 
ATOM      8  C   UNL A   1      34.548  23.284  24.705  1.00  0.00     0.060 A 
ATOM      9  C   UNL A   1      34.961  23.333  26.041  1.00  0.00     0.029 A 
ATOM     10  C   UNL A   1      35.496  22.994  23.721  1.00  0.00     0.029 A 
ATOM     11  C   UNL A   1      36.281  23.025  26.387  1.00  0.00     0.016 A 
ATOM     12  C   UNL A   1      36.815  22.699  24.061  1.00  0.00     0.016 A 
BRANCH   8  13
ATOM     13  N   UNL A   1      33.234  23.504  24.331  1.00  0.00    -0.257 N 
ATOM     14  C   UNL A   1      31.564  24.783  24.058  1.00  0.00     0.071 C 
ATOM     15  N   UNL A   1      32.856  24.758  23.998  1.00  0.00    -0.176 NA
ATOM     16  C   UNL A   1      30.906  23.516  24.534  1.00  0.00     0.091 C 
ATOM     17  C   UNL A   1      32.134  22.595  24.662  1.00  0.00     0.144 C 
BRANCH  14  18
ATOM     18  C   UNL A   1      30.794  25.979  23.678  1.00  0.00    -0.002 A 
ATOM     19  C   UNL A   1      29.246  28.182  22.987  1.00  0.00     0.067 A 
ATOM     20  C   UNL A   1      28.684  27.169  23.765  1.00  0.00     0.021 A 
ATOM     21  C   UNL A   1      30.579  28.107  22.559  1.00  0.00     0.021 A 
ATOM     22  C   UNL A   1      29.460  26.059  24.099  1.00  0.00     0.011 A 
ATOM     23  C   UNL A   1      31.357  27.000  22.908  1.00  0.00     0.011 A 
BRANCH  19  24
ATOM     24  S   UNL A   1      28.281  29.614  22.566  1.00  0.00     0.175 S 
ATOM     25  C   UNL A   1      29.041  30.922  23.488  1.00  0.00     0.163 C 
ATOM     26  O   UNL A   1      26.950  29.396  23.099  1.00  0.00    -0.224 OA
ATOM     27  O   UNL A   1      28.485  29.893  21.157  1.00  0.00    -0.224 OA
ENDBRANCH  19  24
ENDBRANCH  14  18
BRANCH  17  28
ATOM     28  C   UNL A   1      32.191  21.337  23.796  1.00  0.00    -0.023 A 
ATOM     29  C   UNL A   1      32.541  20.064  24.276  1.00  0.00     0.009 A 
ATOM     30  C   UNL A   1      31.820  21.445  22.437  1.00  0.00     0.009 A 
ATOM     31  C   UNL A   1      32.540  18.951  23.427  1.00  0.00     0.039 A 
ATOM     32  C   UNL A   1      31.789  20.329  21.597  1.00  0.00     0.039 A 
ATOM     33  C   UNL A   1      32.158  19.092  22.099  1.00  0.00     0.123 A 
ATOM     34  F   UNL A   1      32.141  18.020  21.296  1.00  0.00    -0.207 F 
ENDBRANCH  17  28
ENDBRANCH   8  13
ENDBRANCH   4   7
ENDBRANCH   2   3
ENDBRANCH   1   2
BRANCH   1  35
ATOM     35  C   UNL A   1      41.642  25.575  25.708  1.00  0.00     0.118 C 
BRANCH  35  36
ATOM     36  N   UNL A   1      42.976  25.047  25.952  1.00  0.00    -0.352 N 
ATOM     37  C   UNL A   1      43.932  25.448  26.852  1.00  0.00     0.251 C 
ATOM     38  H   UNL A   1      43.232  24.285  25.383  1.00  0.00     0.163 HD
ATOM     39  O   UNL A   1      45.072  25.007  26.748  1.00  0.00    -0.269 OA
BRANCH  37  40
ATOM     40  C   UNL A   1      43.604  26.409  27.931  1.00  0.00     0.039 A 
ATOM     41  C   UNL A   1      43.931  27.756  27.751  1.00  0.00     0.014 A 
ATOM     42  C   UNL A   1      43.024  25.989  29.131  1.00  0.00     0.014 A 
ATOM     43  C   UNL A   1      43.629  28.687  28.750  1.00  0.00     0.010 A 
ATOM     44  C   UNL A   1      42.660  26.927  30.097  1.00  0.00     0.010 A 
ATOM     45  C   UNL A   1      42.964  28.285  29.920  1.00  0.00    -0.014 A 
BRANCH  45  46
ATOM     46  C   UNL A   1      42.585  29.268  30.967  1.00  0.00     0.031 A 
ATOM     47  C   UNL A   1      43.392  29.374  32.234  1.00  0.00     0.074 A 
ATOM     48  C   UNL A   1      41.482  30.025  30.803  1.00  0.00     0.049 A 
ATOM     49  N   UNL A   1      43.170  30.105  33.296  1.00  0.00    -0.248 NA
ATOM     50  C   UNL A   1      44.596  28.531  32.327  1.00  0.00     0.031 C 
ATOM     51  C   UNL A   1      40.591  29.981  29.640  1.00  0.00     0.029 A 
ATOM     52  N   UNL A   1      40.909  30.966  31.622  1.00  0.00    -0.354 N 
ATOM     53  C   UNL A   1      44.197  29.806  34.185  1.00  0.00     0.074 A 
ATOM     54  C   UNL A   1      45.013  28.789  33.558  1.00  0.00     0.031 C 
ATOM     55  C   UNL A   1      39.592  30.859  29.817  1.00  0.00     0.029 A 
ATOM     56  C   UNL A   1      39.747  31.502  31.118  1.00  0.00     0.049 A 
ATOM     57  H   UNL A   1      41.294  31.232  32.487  1.00  0.00     0.167 HD
ATOM     58  C   UNL A   1      44.452  30.351  35.399  1.00  0.00     0.037 A 
ATOM     59  C   UNL A   1      38.893  32.398  31.651  1.00  0.00     0.037 A 
ATOM     60  C   UNL A   1      43.646  31.376  36.009  1.00  0.00     0.049 A 
ATOM     61  C   UNL A   1      39.197  32.986  33.002  1.00  0.00     0.074 A 
ATOM     62  C   UNL A   1      43.837  32.012  37.224  1.00  0.00     0.029 A 
ATOM     63  N   UNL A   1      42.499  31.919  35.451  1.00  0.00    -0.354 N 
ATOM     64  N   UNL A   1      40.198  32.724  33.808  1.00  0.00    -0.248 NA
ATOM     65  C   UNL A   1      38.261  33.997  33.515  1.00  0.00     0.031 C 
ATOM     66  C   UNL A   1      42.788  32.917  37.414  1.00  0.00     0.029 A 
ATOM     67  C   UNL A   1      41.967  32.878  36.298  1.00  0.00     0.049 A 
ATOM     68  H   UNL A   1      42.118  31.663  34.579  1.00  0.00     0.167 HD
ATOM     69  C   UNL A   1      40.027  33.555  34.910  1.00  0.00     0.074 A 
ATOM     70  C   UNL A   1      38.835  34.339  34.660  1.00  0.00     0.031 C 
ATOM     71  C   UNL A   1      40.787  33.659  36.028  1.00  0.00     0.037 A 
BRANCH  58  72
ATOM     72  C   UNL A   1      45.666  29.862  36.143  1.00  0.00     0.058 A 
ATOM     73  C   UNL A   1      46.940  30.400  35.898  1.00  0.00     0.135 A 
ATOM     74  C   UNL A   1      45.551  28.883  37.143  1.00  0.00     0.135 A 
ATOM     75  F   UNL A   1      47.109  31.328  34.942  1.00  0.00    -0.206 F 
ATOM     76  C   UNL A   1      48.059  29.972  36.602  1.00  0.00     0.059 A 
ATOM     77  C   UNL A   1      46.655  28.457  37.878  1.00  0.00     0.059 A 
ATOM     78  F   UNL A   1      44.358  28.333  37.418  1.00  0.00    -0.206 F 
ATOM     79  C   UNL A   1      47.907  29.000  37.592  1.00  0.00     0.060 A 
BRANCH  79  80
ATOM     80  S   UNL A   1      49.369  28.469  38.508  1.00  0.00     0.124 S 
ATOM     81  O   UNL A   1      50.333  28.271  37.429  1.00  0.00    -0.237 OA
ATOM     82  O   UNL A   1      49.622  29.610  39.381  1.00  0.00    -0.237 OA
ATOM     83  O   UNL A   1      48.925  27.253  39.183  1.00  0.00    -0.744 OA
ENDBRANCH  79  80
ENDBRANCH  58  72
BRANCH  59  84
ATOM     84  C   UNL A   1      37.670  32.796  30.904  1.00  0.00     0.058 A 
ATOM     85  C   UNL A   1      37.720  33.768  29.893  1.00  0.00     0.135 A 
ATOM     86  C   UNL A   1      36.424  32.215  31.188  1.00  0.00     0.135 A 
ATOM     87  F   UNL A   1      38.888  34.356  29.587  1.00  0.00    -0.206 F 
ATOM     88  C   UNL A   1      36.578  34.170  29.209  1.00  0.00     0.059 A 
ATOM     89  C   UNL A   1      35.272  32.580  30.500  1.00  0.00     0.059 A 
ATOM     90  F   UNL A   1      36.325  31.266  32.132  1.00  0.00    -0.206 F 
ATOM     91  C   UNL A   1      35.357  33.570  29.522  1.00  0.00     0.060 A 
BRANCH  91  92
ATOM     92  S   UNL A   1      33.882  34.077  28.609  1.00  0.00     0.124 S 
ATOM     93  O   UNL A   1      34.426  35.094  27.717  1.00  0.00    -0.237 OA
ATOM     94  O   UNL A   1      33.466  32.829  27.977  1.00  0.00    -0.237 OA
ATOM     95  O   UNL A   1      32.992  34.566  29.658  1.00  0.00    -0.744 OA
ENDBRANCH  91  92
ENDBRANCH  59  84
BRANCH  71  96
ATOM     96  C   UNL A   1      40.376  34.681  37.052  1.00  0.00     0.058 A 
ATOM     97  C   UNL A   1      39.443  34.384  38.057  1.00  0.00     0.135 A 
ATOM     98  C   UNL A   1      40.962  35.957  37.055  1.00  0.00     0.135 A 
ATOM     99  F   UNL A   1      38.849  33.181  38.094  1.00  0.00    -0.206 F 
ATOM    100  C   UNL A   1      39.087  35.326  39.017  1.00  0.00     0.059 A 
ATOM    101  C   UNL A   1      40.642  36.905  38.020  1.00  0.00     0.059 A 
ATOM    102  F   UNL A   1      41.868  36.288  36.120  1.00  0.00    -0.206 F 
ATOM    103  C   UNL A   1      39.694  36.583  38.992  1.00  0.00     0.060 A 
BRANCH 103 104
ATOM    104  S   UNL A   1      39.250  37.784  40.265  1.00  0.00     0.124 S 
ATOM    105  O   UNL A   1      38.138  38.485  39.633  1.00  0.00    -0.237 OA
ATOM    106  O   UNL A   1      38.900  36.928  41.394  1.00  0.00    -0.237 OA
ATOM    107  O   UNL A   1      40.472  38.566  40.435  1.00  0.00    -0.744 OA
ENDBRANCH 103 104
ENDBRANCH  71  96
ENDBRANCH  45  46
ENDBRANCH  37  40
ENDBRANCH  35  36
ENDBRANCH   1  35
TORSDOF 17
ENDMDL
