MODEL 1
REMARK VINA RESULT:     -12.7      0.000      0.000
REMARK SMILES C[C@@H](CC(=O)NCCCNC(=O)c1ccc(-c2c3nc(c(-c4c(F)cc(S(=O)(=O)[O-])cc4F)c4ccc([nH]4)c(-c4c(F)cc(S(=O)(=O)[O-])cc4F)c4nc(c(-c5c(F)cc(S(=O)(=O)[O-])cc5F)c5ccc2[nH]5)C=C4)C=C3)cc1)NC(=O)c1ccc2c(c1)NC(=O)CO2
REMARK SMILES IDX 8 1 7 2 6 3 4 4 5 5 3 7 2 8 1 9 79 10 80 11 81 13 82 14
REMARK SMILES IDX 83 15 87 16 84 17 86 18 85 19 88 20 92 21 89 22 91 24 90 25
REMARK SMILES IDX 9 26 10 27 11 28 12 30 13 31 14 32 78 33 15 34 77 35 16 36
REMARK SMILES IDX 17 37 18 38 71 39 19 40 76 41 70 42 72 43 20 44 75 45 69 46
REMARK SMILES IDX 68 47 21 49 55 50 34 51 54 52 35 53 38 54 53 55 73 56 36 57
REMARK SMILES IDX 37 58 52 60 74 61 39 62 22 63 23 64 32 65 24 66 25 67 31 68
REMARK SMILES IDX 33 69 26 70 27 71 28 72 29 73 30 74 56 75 57 76 66 77 58 78
REMARK SMILES IDX 59 79 65 80 67 81 60 82 61 83 62 84 63 85 64 86 40 87 41 88
REMARK SMILES IDX 50 89 42 90 43 91 49 92 51 93 44 94 45 95 46 96 47 97 48 98
REMARK H PARENT 6 6 79 12 88 23 10 29 72 48 38 59
REMARK Flexibility Score: inf
ROOT
ATOM      1  C   UNL A   1      39.388  22.200  26.437  1.00  0.00     0.042 C 
ENDROOT
BRANCH   1   2
ATOM      2  C   UNL A   1      37.983  22.681  26.089  1.00  0.00     0.117 C 
BRANCH   2   3
ATOM      3  N   UNL A   1      37.798  22.771  24.652  1.00  0.00    -0.356 N 
ATOM      4  C   UNL A   1      36.704  23.108  23.922  1.00  0.00     0.222 C 
ATOM      5  O   UNL A   1      36.748  22.955  22.701  1.00  0.00    -0.275 OA
ATOM      6  H   UNL A   1      38.598  22.554  24.119  1.00  0.00     0.163 HD
BRANCH   4   7
ATOM      7  C   UNL A   1      35.477  23.685  24.586  1.00  0.00     0.124 C 
BRANCH   7   8
ATOM      8  C   UNL A   1      34.140  23.168  24.048  1.00  0.00     0.088 C 
ATOM      9  C   UNL A   1      33.578  23.952  22.870  1.00  0.00     0.031 C 
BRANCH   8  10
ATOM     10  N   UNL A   1      33.121  23.037  25.094  1.00  0.00    -0.349 N 
ATOM     11  C   UNL A   1      32.200  22.037  25.271  1.00  0.00     0.251 C 
ATOM     12  H   UNL A   1      33.094  23.765  25.756  1.00  0.00     0.164 HD
ATOM     13  O   UNL A   1      31.205  22.201  25.980  1.00  0.00    -0.269 OA
BRANCH  11  14
ATOM     14  C   UNL A   1      32.417  20.737  24.613  1.00  0.00     0.042 A 
ATOM     15  C   UNL A   1      32.064  20.565  23.274  1.00  0.00     0.018 A 
ATOM     16  C   UNL A   1      32.983  19.688  25.343  1.00  0.00     0.044 A 
ATOM     17  C   UNL A   1      32.343  19.351  22.641  1.00  0.00     0.049 A 
ATOM     18  C   UNL A   1      33.311  18.506  24.691  1.00  0.00     0.084 A 
ATOM     19  C   UNL A   1      32.993  18.333  23.341  1.00  0.00     0.143 A 
ATOM     20  N   UNL A   1      33.979  17.509  25.396  1.00  0.00    -0.320 N 
ATOM     21  O   UNL A   1      33.251  17.181  22.653  1.00  0.00    -0.482 OA
ATOM     22  C   UNL A   1      34.434  16.381  24.778  1.00  0.00     0.262 C 
ATOM     23  H   UNL A   1      34.126  17.620  26.364  1.00  0.00     0.170 HD
ATOM     24  C   UNL A   1      34.203  16.326  23.267  1.00  0.00     0.329 C 
ATOM     25  O   UNL A   1      35.045  15.515  25.400  1.00  0.00    -0.271 OA
ENDBRANCH  11  14
ENDBRANCH   8  10
ENDBRANCH   7   8
ENDBRANCH   4   7
ENDBRANCH   2   3
ENDBRANCH   1   2
BRANCH   1  26
ATOM     26  C   UNL A   1      40.260  23.265  27.089  1.00  0.00     0.118 C 
BRANCH  26  27
ATOM     27  N   UNL A   1      41.144  23.902  26.130  1.00  0.00    -0.352 N 
ATOM     28  C   UNL A   1      41.574  25.205  26.066  1.00  0.00     0.251 C 
ATOM     29  H   UNL A   1      41.487  23.313  25.420  1.00  0.00     0.163 HD
ATOM     30  O   UNL A   1      42.123  25.602  25.042  1.00  0.00    -0.269 OA
BRANCH  28  31
ATOM     31  C   UNL A   1      41.369  26.133  27.205  1.00  0.00     0.039 A 
ATOM     32  C   UNL A   1      42.250  27.208  27.363  1.00  0.00     0.014 A 
ATOM     33  C   UNL A   1      40.354  25.929  28.145  1.00  0.00     0.014 A 
ATOM     34  C   UNL A   1      42.087  28.095  28.431  1.00  0.00     0.010 A 
ATOM     35  C   UNL A   1      40.142  26.860  29.161  1.00  0.00     0.010 A 
ATOM     36  C   UNL A   1      41.018  27.943  29.329  1.00  0.00    -0.014 A 
BRANCH  36  37
ATOM     37  C   UNL A   1      40.822  28.883  30.464  1.00  0.00     0.031 A 
ATOM     38  C   UNL A   1      41.652  28.738  31.716  1.00  0.00     0.074 A 
ATOM     39  C   UNL A   1      39.861  29.826  30.400  1.00  0.00     0.049 A 
ATOM     40  N   UNL A   1      41.581  29.409  32.836  1.00  0.00    -0.248 NA
ATOM     41  C   UNL A   1      42.674  27.678  31.720  1.00  0.00     0.031 C 
ATOM     42  C   UNL A   1      38.946  30.029  29.273  1.00  0.00     0.029 A 
ATOM     43  N   UNL A   1      39.479  30.781  31.310  1.00  0.00    -0.354 N 
ATOM     44  C   UNL A   1      42.519  28.834  33.686  1.00  0.00     0.074 A 
ATOM     45  C   UNL A   1      43.123  27.735  32.966  1.00  0.00     0.031 C 
ATOM     46  C   UNL A   1      38.119  31.048  29.555  1.00  0.00     0.029 A 
ATOM     47  C   UNL A   1      38.423  31.554  30.891  1.00  0.00     0.049 A 
ATOM     48  H   UNL A   1      39.921  30.900  32.181  1.00  0.00     0.167 HD
ATOM     49  C   UNL A   1      42.861  29.200  34.944  1.00  0.00     0.037 A 
ATOM     50  C   UNL A   1      37.766  32.553  31.514  1.00  0.00     0.037 A 
ATOM     51  C   UNL A   1      42.306  30.335  35.633  1.00  0.00     0.049 A 
ATOM     52  C   UNL A   1      38.209  32.981  32.887  1.00  0.00     0.074 A 
ATOM     53  C   UNL A   1      42.664  30.850  36.867  1.00  0.00     0.029 A 
ATOM     54  N   UNL A   1      41.281  31.132  35.148  1.00  0.00    -0.354 N 
ATOM     55  N   UNL A   1      39.160  32.479  33.638  1.00  0.00    -0.248 NA
ATOM     56  C   UNL A   1      37.499  34.116  33.493  1.00  0.00     0.031 C 
ATOM     57  C   UNL A   1      41.833  31.939  37.144  1.00  0.00     0.029 A 
ATOM     58  C   UNL A   1      40.983  32.126  36.065  1.00  0.00     0.049 A 
ATOM     59  H   UNL A   1      40.833  31.011  34.281  1.00  0.00     0.167 HD
ATOM     60  C   UNL A   1      39.178  33.252  34.795  1.00  0.00     0.074 A 
ATOM     61  C   UNL A   1      38.153  34.263  34.638  1.00  0.00     0.031 C 
ATOM     62  C   UNL A   1      39.971  33.134  35.887  1.00  0.00     0.037 A 
BRANCH  49  63
ATOM     63  C   UNL A   1      43.897  28.379  35.661  1.00  0.00     0.058 A 
ATOM     64  C   UNL A   1      45.268  28.642  35.528  1.00  0.00     0.135 A 
ATOM     65  C   UNL A   1      43.507  27.359  36.544  1.00  0.00     0.135 A 
ATOM     66  F   UNL A   1      45.696  29.595  34.685  1.00  0.00    -0.206 F 
ATOM     67  C   UNL A   1      46.219  27.912  36.234  1.00  0.00     0.059 A 
ATOM     68  C   UNL A   1      44.440  26.632  37.278  1.00  0.00     0.059 A 
ATOM     69  F   UNL A   1      42.207  27.066  36.707  1.00  0.00    -0.206 F 
ATOM     70  C   UNL A   1      45.796  26.910  37.109  1.00  0.00     0.060 A 
BRANCH  70  71
ATOM     71  S   UNL A   1      47.041  25.994  38.040  1.00  0.00     0.124 S 
ATOM     72  O   UNL A   1      48.153  26.937  38.045  1.00  0.00    -0.237 OA
ATOM     73  O   UNL A   1      46.380  25.787  39.326  1.00  0.00    -0.237 OA
ATOM     74  O   UNL A   1      47.242  24.788  37.243  1.00  0.00    -0.744 OA
ENDBRANCH  70  71
ENDBRANCH  49  63
BRANCH  50  75
ATOM     75  C   UNL A   1      36.625  33.231  30.842  1.00  0.00     0.058 A 
ATOM     76  C   UNL A   1      36.837  34.134  29.790  1.00  0.00     0.135 A 
ATOM     77  C   UNL A   1      35.303  32.994  31.245  1.00  0.00     0.135 A 
ATOM     78  F   UNL A   1      38.086  34.396  29.374  1.00  0.00    -0.206 F 
ATOM     79  C   UNL A   1      35.781  34.801  29.178  1.00  0.00     0.059 A 
ATOM     80  C   UNL A   1      34.227  33.630  30.632  1.00  0.00     0.059 A 
ATOM     81  F   UNL A   1      35.045  32.123  32.232  1.00  0.00    -0.206 F 
ATOM     82  C   UNL A   1      34.478  34.544  29.609  1.00  0.00     0.060 A 
BRANCH  82  83
ATOM     83  S   UNL A   1      33.108  35.387  28.789  1.00  0.00     0.124 S 
ATOM     84  O   UNL A   1      32.355  35.897  29.928  1.00  0.00    -0.237 OA
ATOM     85  O   UNL A   1      33.798  36.387  27.980  1.00  0.00    -0.237 OA
ATOM     86  O   UNL A   1      32.464  34.318  28.031  1.00  0.00    -0.744 OA
ENDBRANCH  82  83
ENDBRANCH  50  75
BRANCH  62  87
ATOM     87  C   UNL A   1      39.788  34.142  36.986  1.00  0.00     0.058 A 
ATOM     88  C   UNL A   1      38.928  33.901  38.069  1.00  0.00     0.135 A 
ATOM     89  C   UNL A   1      40.520  35.339  36.980  1.00  0.00     0.135 A 
ATOM     90  F   UNL A   1      38.202  32.773  38.118  1.00  0.00    -0.206 F 
ATOM     91  C   UNL A   1      38.786  34.825  39.099  1.00  0.00     0.059 A 
ATOM     92  C   UNL A   1      40.411  36.266  38.012  1.00  0.00     0.059 A 
ATOM     93  F   UNL A   1      41.364  35.611  35.971  1.00  0.00    -0.206 F 
ATOM     94  C   UNL A   1      39.530  36.004  39.062  1.00  0.00     0.060 A 
BRANCH  94  95
ATOM     95  S   UNL A   1      39.362  37.183  40.419  1.00  0.00     0.124 S 
ATOM     96  O   UNL A   1      40.757  37.517  40.690  1.00  0.00    -0.237 OA
ATOM     97  O   UNL A   1      38.561  38.244  39.818  1.00  0.00    -0.237 OA
ATOM     98  O   UNL A   1      38.688  36.408  41.458  1.00  0.00    -0.744 OA
ENDBRANCH  94  95
ENDBRANCH  62  87
ENDBRANCH  36  37
ENDBRANCH  28  31
ENDBRANCH  26  27
ENDBRANCH   1  26
TORSDOF 16
ENDMDL
MODEL 2
REMARK VINA RESULT:     -12.7      7.115     12.906
REMARK SMILES C[C@@H](CC(=O)NCCCNC(=O)c1ccc(-c2c3nc(c(-c4c(F)cc(S(=O)(=O)[O-])cc4F)c4ccc([nH]4)c(-c4c(F)cc(S(=O)(=O)[O-])cc4F)c4nc(c(-c5c(F)cc(S(=O)(=O)[O-])cc5F)c5ccc2[nH]5)C=C4)C=C3)cc1)NC(=O)c1ccc2c(c1)NC(=O)CO2
REMARK SMILES IDX 8 1 7 2 6 3 4 4 5 5 3 7 2 8 1 9 79 10 80 11 81 13 82 14
REMARK SMILES IDX 83 15 87 16 84 17 86 18 85 19 88 20 92 21 89 22 91 24 90 25
REMARK SMILES IDX 9 26 10 27 11 28 12 30 13 31 14 32 78 33 15 34 77 35 16 36
REMARK SMILES IDX 17 37 18 38 71 39 19 40 76 41 70 42 72 43 20 44 75 45 69 46
REMARK SMILES IDX 68 47 21 49 55 50 34 51 54 52 35 53 38 54 53 55 73 56 36 57
REMARK SMILES IDX 37 58 52 60 74 61 39 62 22 63 23 64 32 65 24 66 25 67 31 68
REMARK SMILES IDX 33 69 26 70 27 71 28 72 29 73 30 74 56 75 57 76 66 77 58 78
REMARK SMILES IDX 59 79 65 80 67 81 60 82 61 83 62 84 63 85 64 86 40 87 41 88
REMARK SMILES IDX 50 89 42 90 43 91 49 92 51 93 44 94 45 95 46 96 47 97 48 98
REMARK H PARENT 6 6 79 12 88 23 10 29 72 48 38 59
REMARK Flexibility Score: inf
ROOT
ATOM      1  C   UNL A   1      35.100  32.316  28.027  1.00  0.00     0.042 C 
ENDROOT
BRANCH   1   2
ATOM      2  C   UNL A   1      34.942  30.899  27.485  1.00  0.00     0.117 C 
BRANCH   2   3
ATOM      3  N   UNL A   1      33.587  30.412  27.674  1.00  0.00    -0.356 N 
ATOM      4  C   UNL A   1      32.762  29.745  26.826  1.00  0.00     0.222 C 
ATOM      5  O   UNL A   1      31.589  29.579  27.164  1.00  0.00    -0.275 OA
ATOM      6  H   UNL A   1      33.203  30.594  28.563  1.00  0.00     0.163 HD
BRANCH   4   7
ATOM      7  C   UNL A   1      33.276  29.193  25.519  1.00  0.00     0.124 C 
BRANCH   7   8
ATOM      8  C   UNL A   1      32.787  27.785  25.167  1.00  0.00     0.088 C 
ATOM      9  C   UNL A   1      33.264  26.689  26.111  1.00  0.00     0.031 C 
BRANCH   8  10
ATOM     10  N   UNL A   1      33.080  27.413  23.780  1.00  0.00    -0.349 N 
ATOM     11  C   UNL A   1      32.220  27.336  22.715  1.00  0.00     0.251 C 
ATOM     12  H   UNL A   1      34.019  27.189  23.588  1.00  0.00     0.164 HD
ATOM     13  O   UNL A   1      32.517  26.709  21.696  1.00  0.00    -0.269 OA
BRANCH  11  14
ATOM     14  C   UNL A   1      30.924  28.032  22.788  1.00  0.00     0.042 A 
ATOM     15  C   UNL A   1      29.786  27.347  23.219  1.00  0.00     0.018 A 
ATOM     16  C   UNL A   1      30.851  29.380  22.427  1.00  0.00     0.044 A 
ATOM     17  C   UNL A   1      28.580  28.037  23.355  1.00  0.00     0.049 A 
ATOM     18  C   UNL A   1      29.663  30.072  22.621  1.00  0.00     0.084 A 
ATOM     19  C   UNL A   1      28.525  29.406  23.084  1.00  0.00     0.143 A 
ATOM     20  N   UNL A   1      29.629  31.441  22.368  1.00  0.00    -0.320 N 
ATOM     21  O   UNL A   1      27.316  30.019  23.257  1.00  0.00    -0.482 OA
ATOM     22  C   UNL A   1      28.528  32.193  22.657  1.00  0.00     0.262 C 
ATOM     23  H   UNL A   1      30.418  31.876  21.971  1.00  0.00     0.170 HD
ATOM     24  C   UNL A   1      27.374  31.435  23.318  1.00  0.00     0.329 C 
ATOM     25  O   UNL A   1      28.513  33.405  22.455  1.00  0.00    -0.271 OA
ENDBRANCH  11  14
ENDBRANCH   8  10
ENDBRANCH   7   8
ENDBRANCH   4   7
ENDBRANCH   2   3
ENDBRANCH   1   2
BRANCH   1  26
ATOM     26  C   UNL A   1      36.250  32.473  29.013  1.00  0.00     0.118 C 
BRANCH  26  27
ATOM     27  N   UNL A   1      35.987  31.784  30.264  1.00  0.00    -0.352 N 
ATOM     28  C   UNL A   1      36.659  30.736  30.845  1.00  0.00     0.251 C 
ATOM     29  H   UNL A   1      35.213  32.119  30.773  1.00  0.00     0.163 HD
ATOM     30  O   UNL A   1      36.136  30.140  31.783  1.00  0.00    -0.269 OA
BRANCH  28  31
ATOM     31  C   UNL A   1      37.989  30.311  30.346  1.00  0.00     0.039 A 
ATOM     32  C   UNL A   1      39.021  30.112  31.269  1.00  0.00     0.014 A 
ATOM     33  C   UNL A   1      38.245  30.157  28.980  1.00  0.00     0.014 A 
ATOM     34  C   UNL A   1      40.288  29.719  30.827  1.00  0.00     0.010 A 
ATOM     35  C   UNL A   1      39.484  29.685  28.548  1.00  0.00     0.010 A 
ATOM     36  C   UNL A   1      40.527  29.480  29.464  1.00  0.00    -0.014 A 
BRANCH  36  37
ATOM     37  C   UNL A   1      41.865  29.051  28.977  1.00  0.00     0.031 A 
ATOM     38  C   UNL A   1      42.977  30.060  28.839  1.00  0.00     0.074 A 
ATOM     39  C   UNL A   1      42.066  27.772  28.601  1.00  0.00     0.049 A 
ATOM     40  N   UNL A   1      44.186  29.897  28.367  1.00  0.00    -0.248 NA
ATOM     41  C   UNL A   1      42.681  31.441  29.257  1.00  0.00     0.031 C 
ATOM     42  C   UNL A   1      41.054  26.712  28.623  1.00  0.00     0.029 A 
ATOM     43  N   UNL A   1      43.186  27.148  28.108  1.00  0.00    -0.354 N 
ATOM     44  C   UNL A   1      44.780  31.154  28.398  1.00  0.00     0.074 A 
ATOM     45  C   UNL A   1      43.789  32.078  28.903  1.00  0.00     0.031 C 
ATOM     46  C   UNL A   1      41.602  25.571  28.175  1.00  0.00     0.029 A 
ATOM     47  C   UNL A   1      42.992  25.820  27.807  1.00  0.00     0.049 A 
ATOM     48  H   UNL A   1      44.046  27.608  27.982  1.00  0.00     0.167 HD
ATOM     49  C   UNL A   1      46.043  31.504  28.057  1.00  0.00     0.037 A 
ATOM     50  C   UNL A   1      43.836  24.908  27.286  1.00  0.00     0.037 A 
ATOM     51  C   UNL A   1      47.048  30.572  27.619  1.00  0.00     0.049 A 
ATOM     52  C   UNL A   1      45.253  25.309  26.975  1.00  0.00     0.074 A 
ATOM     53  C   UNL A   1      48.385  30.812  27.353  1.00  0.00     0.029 A 
ATOM     54  N   UNL A   1      46.830  29.223  27.387  1.00  0.00    -0.354 N 
ATOM     55  N   UNL A   1      45.821  26.486  27.096  1.00  0.00    -0.248 NA
ATOM     56  C   UNL A   1      46.148  24.259  26.468  1.00  0.00     0.031 C 
ATOM     57  C   UNL A   1      48.968  29.614  26.927  1.00  0.00     0.029 A 
ATOM     58  C   UNL A   1      48.003  28.621  26.966  1.00  0.00     0.049 A 
ATOM     59  H   UNL A   1      45.969  28.761  27.506  1.00  0.00     0.167 HD
ATOM     60  C   UNL A   1      47.144  26.311  26.703  1.00  0.00     0.074 A 
ATOM     61  C   UNL A   1      47.296  24.914  26.355  1.00  0.00     0.031 C 
ATOM     62  C   UNL A   1      48.141  27.226  26.637  1.00  0.00     0.037 A 
BRANCH  49  63
ATOM     63  C   UNL A   1      46.425  32.954  28.156  1.00  0.00     0.058 A 
ATOM     64  C   UNL A   1      46.987  33.491  29.325  1.00  0.00     0.135 A 
ATOM     65  C   UNL A   1      46.288  33.802  27.046  1.00  0.00     0.135 A 
ATOM     66  F   UNL A   1      47.125  32.729  30.421  1.00  0.00    -0.206 F 
ATOM     67  C   UNL A   1      47.386  34.822  29.394  1.00  0.00     0.059 A 
ATOM     68  C   UNL A   1      46.703  35.131  27.085  1.00  0.00     0.059 A 
ATOM     69  F   UNL A   1      45.755  33.339  25.904  1.00  0.00    -0.206 F 
ATOM     70  C   UNL A   1      47.242  35.634  28.268  1.00  0.00     0.060 A 
BRANCH  70  71
ATOM     71  S   UNL A   1      47.793  37.350  28.364  1.00  0.00     0.124 S 
ATOM     72  O   UNL A   1      47.534  37.815  27.005  1.00  0.00    -0.237 OA
ATOM     73  O   UNL A   1      46.922  37.901  29.398  1.00  0.00    -0.237 OA
ATOM     74  O   UNL A   1      49.201  37.235  28.732  1.00  0.00    -0.744 OA
ENDBRANCH  70  71
ENDBRANCH  49  63
BRANCH  50  75
ATOM     75  C   UNL A   1      43.372  23.518  27.034  1.00  0.00     0.058 A 
ATOM     76  C   UNL A   1      43.257  22.591  28.081  1.00  0.00     0.135 A 
ATOM     77  C   UNL A   1      43.042  23.087  25.741  1.00  0.00     0.135 A 
ATOM     78  F   UNL A   1      43.567  22.956  29.335  1.00  0.00    -0.206 F 
ATOM     79  C   UNL A   1      42.858  21.279  27.853  1.00  0.00     0.059 A 
ATOM     80  C   UNL A   1      42.616  21.786  25.490  1.00  0.00     0.059 A 
ATOM     81  F   UNL A   1      43.114  23.940  24.708  1.00  0.00    -0.206 F 
ATOM     82  C   UNL A   1      42.542  20.885  26.552  1.00  0.00     0.060 A 
BRANCH  82  83
ATOM     83  S   UNL A   1      41.993  19.188  26.265  1.00  0.00     0.124 S 
ATOM     84  O   UNL A   1      40.604  19.393  25.873  1.00  0.00    -0.237 OA
ATOM     85  O   UNL A   1      42.896  18.745  25.207  1.00  0.00    -0.237 OA
ATOM     86  O   UNL A   1      42.198  18.548  27.561  1.00  0.00    -0.744 OA
ENDBRANCH  82  83
ENDBRANCH  50  75
BRANCH  62  87
ATOM     87  C   UNL A   1      49.496  26.741  26.203  1.00  0.00     0.058 A 
ATOM     88  C   UNL A   1      49.917  26.835  24.868  1.00  0.00     0.135 A 
ATOM     89  C   UNL A   1      50.399  26.225  27.145  1.00  0.00     0.135 A 
ATOM     90  F   UNL A   1      49.087  27.317  23.930  1.00  0.00    -0.206 F 
ATOM     91  C   UNL A   1      51.184  26.413  24.477  1.00  0.00     0.059 A 
ATOM     92  C   UNL A   1      51.679  25.819  26.780  1.00  0.00     0.059 A 
ATOM     93  F   UNL A   1      50.047  26.125  28.436  1.00  0.00    -0.206 F 
ATOM     94  C   UNL A   1      52.057  25.905  25.440  1.00  0.00     0.060 A 
BRANCH  94  95
ATOM     95  S   UNL A   1      53.710  25.389  24.928  1.00  0.00     0.124 S 
ATOM     96  O   UNL A   1      53.878  26.136  23.686  1.00  0.00    -0.237 OA
ATOM     97  O   UNL A   1      54.538  25.827  26.048  1.00  0.00    -0.237 OA
ATOM     98  O   UNL A   1      53.582  23.942  24.780  1.00  0.00    -0.744 OA
ENDBRANCH  94  95
ENDBRANCH  62  87
ENDBRANCH  36  37
ENDBRANCH  28  31
ENDBRANCH  26  27
ENDBRANCH   1  26
TORSDOF 16
ENDMDL
MODEL 3
REMARK VINA RESULT:     -12.6      6.608     12.013
REMARK SMILES C[C@@H](CC(=O)NCCCNC(=O)c1ccc(-c2c3nc(c(-c4c(F)cc(S(=O)(=O)[O-])cc4F)c4ccc([nH]4)c(-c4c(F)cc(S(=O)(=O)[O-])cc4F)c4nc(c(-c5c(F)cc(S(=O)(=O)[O-])cc5F)c5ccc2[nH]5)C=C4)C=C3)cc1)NC(=O)c1ccc2c(c1)NC(=O)CO2
REMARK SMILES IDX 8 1 7 2 6 3 4 4 5 5 3 7 2 8 1 9 79 10 80 11 81 13 82 14
REMARK SMILES IDX 83 15 87 16 84 17 86 18 85 19 88 20 92 21 89 22 91 24 90 25
REMARK SMILES IDX 9 26 10 27 11 28 12 30 13 31 14 32 78 33 15 34 77 35 16 36
REMARK SMILES IDX 17 37 18 38 71 39 19 40 76 41 70 42 72 43 20 44 75 45 69 46
REMARK SMILES IDX 68 47 21 49 55 50 34 51 54 52 35 53 38 54 53 55 73 56 36 57
REMARK SMILES IDX 37 58 52 60 74 61 39 62 22 63 23 64 32 65 24 66 25 67 31 68
REMARK SMILES IDX 33 69 26 70 27 71 28 72 29 73 30 74 56 75 57 76 66 77 58 78
REMARK SMILES IDX 59 79 65 80 67 81 60 82 61 83 62 84 63 85 64 86 40 87 41 88
REMARK SMILES IDX 50 89 42 90 43 91 49 92 51 93 44 94 45 95 46 96 47 97 48 98
REMARK H PARENT 6 6 79 12 88 23 10 29 72 48 38 59
REMARK Flexibility Score: inf
ROOT
ATOM      1  C   UNL A   1      34.865  29.936  27.464  1.00  0.00     0.042 C 
ENDROOT
BRANCH   1   2
ATOM      2  C   UNL A   1      33.470  30.296  26.963  1.00  0.00     0.117 C 
BRANCH   2   3
ATOM      3  N   UNL A   1      32.453  29.493  27.618  1.00  0.00    -0.356 N 
ATOM      4  C   UNL A   1      32.014  28.236  27.350  1.00  0.00     0.222 C 
ATOM      5  O   UNL A   1      31.019  27.826  27.951  1.00  0.00    -0.275 OA
ATOM      6  H   UNL A   1      32.009  29.931  28.380  1.00  0.00     0.163 HD
BRANCH   4   7
ATOM      7  C   UNL A   1      32.744  27.352  26.369  1.00  0.00     0.124 C 
BRANCH   7   8
ATOM      8  C   UNL A   1      31.895  26.252  25.724  1.00  0.00     0.088 C 
ATOM      9  C   UNL A   1      30.794  26.754  24.800  1.00  0.00     0.031 C 
BRANCH   8  10
ATOM     10  N   UNL A   1      31.337  25.318  26.707  1.00  0.00    -0.349 N 
ATOM     11  C   UNL A   1      31.516  23.961  26.795  1.00  0.00     0.251 C 
ATOM     12  H   UNL A   1      30.756  25.718  27.393  1.00  0.00     0.164 HD
ATOM     13  O   UNL A   1      30.749  23.256  27.453  1.00  0.00    -0.269 OA
BRANCH  11  14
ATOM     14  C   UNL A   1      32.659  23.342  26.103  1.00  0.00     0.042 A 
ATOM     15  C   UNL A   1      32.468  22.698  24.879  1.00  0.00     0.018 A 
ATOM     16  C   UNL A   1      33.929  23.413  26.682  1.00  0.00     0.044 A 
ATOM     17  C   UNL A   1      33.572  22.180  24.197  1.00  0.00     0.049 A 
ATOM     18  C   UNL A   1      35.027  22.949  25.971  1.00  0.00     0.084 A 
ATOM     19  C   UNL A   1      34.855  22.331  24.729  1.00  0.00     0.143 A 
ATOM     20  N   UNL A   1      36.301  23.126  26.503  1.00  0.00    -0.320 N 
ATOM     21  O   UNL A   1      35.888  21.816  23.998  1.00  0.00    -0.482 OA
ATOM     22  C   UNL A   1      37.422  22.802  25.796  1.00  0.00     0.262 C 
ATOM     23  H   UNL A   1      36.396  23.494  27.412  1.00  0.00     0.170 HD
ATOM     24  C   UNL A   1      37.172  22.287  24.377  1.00  0.00     0.329 C 
ATOM     25  O   UNL A   1      38.545  22.984  26.261  1.00  0.00    -0.271 OA
ENDBRANCH  11  14
ENDBRANCH   8  10
ENDBRANCH   7   8
ENDBRANCH   4   7
ENDBRANCH   2   3
ENDBRANCH   1   2
BRANCH   1  26
ATOM     26  C   UNL A   1      35.603  31.097  28.118  1.00  0.00     0.118 C 
BRANCH  26  27
ATOM     27  N   UNL A   1      35.516  31.046  29.566  1.00  0.00    -0.352 N 
ATOM     28  C   UNL A   1      36.388  30.504  30.478  1.00  0.00     0.251 C 
ATOM     29  H   UNL A   1      34.711  31.463  29.953  1.00  0.00     0.163 HD
ATOM     30  O   UNL A   1      36.016  30.349  31.638  1.00  0.00    -0.269 OA
BRANCH  28  31
ATOM     31  C   UNL A   1      37.755  30.093  30.076  1.00  0.00     0.039 A 
ATOM     32  C   UNL A   1      38.081  30.082  28.715  1.00  0.00     0.014 A 
ATOM     33  C   UNL A   1      38.700  29.670  31.015  1.00  0.00     0.014 A 
ATOM     34  C   UNL A   1      39.359  29.691  28.306  1.00  0.00     0.010 A 
ATOM     35  C   UNL A   1      39.999  29.361  30.613  1.00  0.00     0.010 A 
ATOM     36  C   UNL A   1      40.339  29.348  29.252  1.00  0.00    -0.014 A 
BRANCH  36  37
ATOM     37  C   UNL A   1      41.707  28.941  28.835  1.00  0.00     0.031 A 
ATOM     38  C   UNL A   1      42.809  29.968  28.757  1.00  0.00     0.074 A 
ATOM     39  C   UNL A   1      41.947  27.666  28.468  1.00  0.00     0.049 A 
ATOM     40  N   UNL A   1      44.043  29.825  28.348  1.00  0.00    -0.248 NA
ATOM     41  C   UNL A   1      42.470  31.343  29.160  1.00  0.00     0.031 C 
ATOM     42  C   UNL A   1      40.953  26.591  28.436  1.00  0.00     0.029 A 
ATOM     43  N   UNL A   1      43.101  27.061  28.034  1.00  0.00    -0.354 N 
ATOM     44  C   UNL A   1      44.615  31.090  28.411  1.00  0.00     0.074 A 
ATOM     45  C   UNL A   1      43.584  31.998  28.865  1.00  0.00     0.031 C 
ATOM     46  C   UNL A   1      41.541  25.459  28.016  1.00  0.00     0.029 A 
ATOM     47  C   UNL A   1      42.945  25.731  27.721  1.00  0.00     0.049 A 
ATOM     48  H   UNL A   1      43.959  27.535  27.954  1.00  0.00     0.167 HD
ATOM     49  C   UNL A   1      45.889  31.461  28.138  1.00  0.00     0.037 A 
ATOM     50  C   UNL A   1      43.829  24.833  27.244  1.00  0.00     0.037 A 
ATOM     51  C   UNL A   1      46.929  30.545  27.752  1.00  0.00     0.049 A 
ATOM     52  C   UNL A   1      45.253  25.257  27.008  1.00  0.00     0.074 A 
ATOM     53  C   UNL A   1      48.274  30.807  27.556  1.00  0.00     0.029 A 
ATOM     54  N   UNL A   1      46.745  29.194  27.507  1.00  0.00    -0.354 N 
ATOM     55  N   UNL A   1      45.795  26.442  27.160  1.00  0.00    -0.248 NA
ATOM     56  C   UNL A   1      46.190  24.222  26.547  1.00  0.00     0.031 C 
ATOM     57  C   UNL A   1      48.898  29.619  27.160  1.00  0.00     0.029 A 
ATOM     58  C   UNL A   1      47.948  28.611  27.147  1.00  0.00     0.049 A 
ATOM     59  H   UNL A   1      45.887  28.718  27.580  1.00  0.00     0.167 HD
ATOM     60  C   UNL A   1      47.139  26.289  26.837  1.00  0.00     0.074 A 
ATOM     61  C   UNL A   1      47.332  24.895  26.495  1.00  0.00     0.031 C 
ATOM     62  C   UNL A   1      48.125  27.219  26.824  1.00  0.00     0.037 A 
BRANCH  49  63
ATOM     63  C   UNL A   1      46.242  32.917  28.259  1.00  0.00     0.058 A 
ATOM     64  C   UNL A   1      46.083  33.806  27.185  1.00  0.00     0.135 A 
ATOM     65  C   UNL A   1      46.685  33.441  29.484  1.00  0.00     0.135 A 
ATOM     66  F   UNL A   1      45.678  33.355  25.987  1.00  0.00    -0.206 F 
ATOM     67  C   UNL A   1      46.363  35.162  27.318  1.00  0.00     0.059 A 
ATOM     68  C   UNL A   1      46.949  34.798  29.646  1.00  0.00     0.059 A 
ATOM     69  F   UNL A   1      46.857  32.632  30.542  1.00  0.00    -0.206 F 
ATOM     70  C   UNL A   1      46.794  35.650  28.553  1.00  0.00     0.060 A 
BRANCH  70  71
ATOM     71  S   UNL A   1      47.124  37.417  28.717  1.00  0.00     0.124 S 
ATOM     72  O   UNL A   1      46.769  37.903  27.388  1.00  0.00    -0.237 OA
ATOM     73  O   UNL A   1      46.220  37.805  29.796  1.00  0.00    -0.237 OA
ATOM     74  O   UNL A   1      48.545  37.468  29.047  1.00  0.00    -0.744 OA
ENDBRANCH  70  71
ENDBRANCH  49  63
BRANCH  50  75
ATOM     75  C   UNL A   1      43.400  23.436  26.967  1.00  0.00     0.058 A 
ATOM     76  C   UNL A   1      43.128  23.007  25.659  1.00  0.00     0.135 A 
ATOM     77  C   UNL A   1      43.247  22.506  28.006  1.00  0.00     0.135 A 
ATOM     78  F   UNL A   1      43.256  23.863  24.634  1.00  0.00    -0.206 F 
ATOM     79  C   UNL A   1      42.692  21.714  25.392  1.00  0.00     0.059 A 
ATOM     80  C   UNL A   1      42.836  21.199  27.762  1.00  0.00     0.059 A 
ATOM     81  F   UNL A   1      43.515  22.860  29.272  1.00  0.00    -0.206 F 
ATOM     82  C   UNL A   1      42.546  20.817  26.452  1.00  0.00     0.060 A 
BRANCH  82  83
ATOM     83  S   UNL A   1      42.012  19.129  26.096  1.00  0.00     0.124 S 
ATOM     84  O   UNL A   1      42.348  18.448  27.340  1.00  0.00    -0.237 OA
ATOM     85  O   UNL A   1      40.587  19.304  25.829  1.00  0.00    -0.237 OA
ATOM     86  O   UNL A   1      42.817  18.762  24.935  1.00  0.00    -0.744 OA
ENDBRANCH  82  83
ENDBRANCH  50  75
BRANCH  62  87
ATOM     87  C   UNL A   1      49.508  26.756  26.461  1.00  0.00     0.058 A 
ATOM     88  C   UNL A   1      50.348  26.143  27.402  1.00  0.00     0.135 A 
ATOM     89  C   UNL A   1      49.975  26.883  25.144  1.00  0.00     0.135 A 
ATOM     90  F   UNL A   1      49.948  26.003  28.676  1.00  0.00    -0.206 F 
ATOM     91  C   UNL A   1      51.616  25.689  27.054  1.00  0.00     0.059 A 
ATOM     92  C   UNL A   1      51.231  26.415  24.768  1.00  0.00     0.059 A 
ATOM     93  F   UNL A   1      49.205  27.454  24.204  1.00  0.00    -0.206 F 
ATOM     94  C   UNL A   1      52.049  25.830  25.735  1.00  0.00     0.060 A 
BRANCH  94  95
ATOM     95  S   UNL A   1      53.683  25.209  25.285  1.00  0.00     0.124 S 
ATOM     96  O   UNL A   1      53.489  23.767  25.396  1.00  0.00    -0.237 OA
ATOM     97  O   UNL A   1      53.854  25.723  23.930  1.00  0.00    -0.237 OA
ATOM     98  O   UNL A   1      54.560  25.805  26.290  1.00  0.00    -0.744 OA
ENDBRANCH  94  95
ENDBRANCH  62  87
ENDBRANCH  36  37
ENDBRANCH  28  31
ENDBRANCH  26  27
ENDBRANCH   1  26
TORSDOF 16
ENDMDL
