MODEL 1
REMARK VINA RESULT:     -10.6      0.000      0.000
REMARK SMILES CC(C)[NH2+][C@]1(C(=O)NCCCNC(=O)c2ccc(-c3c4nc(c(-c5c(F)cc(S(=O)(=O)[O-])cc5F)c5ccc([nH]5)c(-c5c(F)cc(S(=O)(=O)[O-])cc5F)c5nc(c(-c6c(F)cc(S(=O)(=O)[O-])cc6F)c6ccc3[nH]6)C=C5)C=C4)cc2)CCC[C@@H]1CCSc1cnccn1
REMARK SMILES IDX 9 1 8 2 6 3 7 4 5 6 81 7 84 8 82 9 83 10 4 11 2 14 1 15 3 16
REMARK SMILES IDX 85 17 86 18 87 19 88 20 89 21 93 22 90 23 92 24 91 25 10 26
REMARK SMILES IDX 11 27 12 28 13 29 14 31 15 32 16 33 80 34 17 35 79 36 18 37
REMARK SMILES IDX 19 38 20 39 73 40 21 41 78 42 72 43 74 44 22 45 77 46 71 47
REMARK SMILES IDX 70 48 23 50 57 51 36 52 56 53 37 54 40 55 55 56 75 57 38 58
REMARK SMILES IDX 39 59 54 61 76 62 41 63 24 64 25 65 34 66 26 67 27 68 33 69
REMARK SMILES IDX 35 70 28 71 29 72 30 73 31 74 32 75 58 76 59 77 68 78 60 79
REMARK SMILES IDX 61 80 67 81 69 82 62 83 63 84 64 85 65 86 66 87 42 88 43 89
REMARK SMILES IDX 52 90 44 91 45 92 51 93 53 94 46 95 47 96 48 97 49 98 50 99
REMARK H PARENT 8 5 4 12 4 13 12 30 74 49 40 60
REMARK Flexibility Score: inf
ROOT
ATOM      1  C   UNL A   1      32.853  27.269  24.125  1.00  0.00     0.118 C 
ENDROOT
BRANCH   1   2
ATOM      2  N   UNL A   1      33.123  26.587  22.868  1.00  0.00    -0.351 N 
ATOM      3  C   UNL A   1      33.229  25.297  22.463  1.00  0.00     0.281 C 
ATOM      4  O   UNL A   1      33.552  25.166  21.273  1.00  0.00    -0.268 OA
ATOM      5  H   UNL A   1      33.264  27.221  22.128  1.00  0.00     0.163 HD
BRANCH   3   6
ATOM      6  C   UNL A   1      33.067  24.036  23.367  1.00  0.00     0.178 C 
ATOM      7  C   UNL A   1      32.503  22.772  22.702  1.00  0.00     0.079 C 
ATOM      8  C   UNL A   1      34.512  23.502  23.693  1.00  0.00     0.061 C 
ATOM      9  C   UNL A   1      32.995  21.587  23.521  1.00  0.00     0.008 C 
ATOM     10  C   UNL A   1      34.333  22.027  24.100  1.00  0.00     0.011 C 
BRANCH   6  11
ATOM     11  N   UNL A   1      32.370  24.351  24.645  1.00  0.00    -0.331 N 
ATOM     12  H   UNL A   1      32.827  23.817  25.382  1.00  0.00     0.347 HD
ATOM     13  H   UNL A   1      32.438  25.366  24.733  1.00  0.00     0.347 HD
BRANCH  11  14
ATOM     14  C   UNL A   1      30.930  24.065  24.721  1.00  0.00     0.176 C 
ATOM     15  C   UNL A   1      30.699  23.254  26.000  1.00  0.00     0.075 C 
ATOM     16  C   UNL A   1      30.069  25.335  24.804  1.00  0.00     0.075 C 
ENDBRANCH  11  14
ENDBRANCH   6  11
BRANCH   8  17
ATOM     17  C   UNL A   1      35.349  24.280  24.733  1.00  0.00     0.022 C 
BRANCH  17  18
ATOM     18  C   UNL A   1      35.977  23.399  25.819  1.00  0.00     0.077 C 
BRANCH  18  19
ATOM     19  S   UNL A   1      37.772  23.677  26.082  1.00  0.00    -0.105 SA
BRANCH  19  20
ATOM     20  C   UNL A   1      38.407  22.046  25.802  1.00  0.00     0.114 A 
ATOM     21  C   UNL A   1      39.650  21.645  26.281  1.00  0.00     0.146 A 
ATOM     22  N   UNL A   1      37.604  21.178  25.147  1.00  0.00    -0.247 NA
ATOM     23  N   UNL A   1      40.116  20.374  26.168  1.00  0.00    -0.260 NA
ATOM     24  C   UNL A   1      38.061  19.912  25.029  1.00  0.00     0.132 A 
ATOM     25  C   UNL A   1      39.286  19.516  25.535  1.00  0.00     0.131 A 
ENDBRANCH  19  20
ENDBRANCH  18  19
ENDBRANCH  17  18
ENDBRANCH   8  17
ENDBRANCH   3   6
ENDBRANCH   1   2
BRANCH   1  26
ATOM     26  C   UNL A   1      33.852  28.374  24.437  1.00  0.00     0.042 C 
BRANCH  26  27
ATOM     27  C   UNL A   1      34.108  28.566  25.927  1.00  0.00     0.118 C 
BRANCH  27  28
ATOM     28  N   UNL A   1      33.909  29.949  26.337  1.00  0.00    -0.352 N 
ATOM     29  C   UNL A   1      34.511  30.679  27.331  1.00  0.00     0.251 C 
ATOM     30  H   UNL A   1      33.234  30.441  25.816  1.00  0.00     0.163 HD
ATOM     31  O   UNL A   1      33.992  31.736  27.685  1.00  0.00    -0.269 OA
BRANCH  29  32
ATOM     32  C   UNL A   1      35.765  30.217  27.970  1.00  0.00     0.039 A 
ATOM     33  C   UNL A   1      35.707  29.668  29.255  1.00  0.00     0.014 A 
ATOM     34  C   UNL A   1      37.004  30.399  27.350  1.00  0.00     0.014 A 
ATOM     35  C   UNL A   1      36.883  29.279  29.902  1.00  0.00     0.010 A 
ATOM     36  C   UNL A   1      38.165  29.930  27.958  1.00  0.00     0.010 A 
ATOM     37  C   UNL A   1      38.122  29.395  29.253  1.00  0.00    -0.014 A 
BRANCH  37  38
ATOM     38  C   UNL A   1      39.394  29.036  29.934  1.00  0.00     0.031 A 
ATOM     39  C   UNL A   1      39.812  29.785  31.173  1.00  0.00     0.074 A 
ATOM     40  C   UNL A   1      40.193  28.084  29.415  1.00  0.00     0.049 A 
ATOM     41  N   UNL A   1      40.921  29.694  31.862  1.00  0.00    -0.248 NA
ATOM     42  C   UNL A   1      38.873  30.797  31.685  1.00  0.00     0.031 C 
ATOM     43  C   UNL A   1      39.919  27.318  28.197  1.00  0.00     0.029 A 
ATOM     44  N   UNL A   1      41.405  27.605  29.843  1.00  0.00    -0.354 N 
ATOM     45  C   UNL A   1      40.823  30.651  32.866  1.00  0.00     0.074 A 
ATOM     46  C   UNL A   1      39.572  31.349  32.666  1.00  0.00     0.031 C 
ATOM     47  C   UNL A   1      40.923  26.452  27.988  1.00  0.00     0.029 A 
ATOM     48  C   UNL A   1      41.925  26.620  29.037  1.00  0.00     0.049 A 
ATOM     49  H   UNL A   1      41.859  27.934  30.652  1.00  0.00     0.167 HD
ATOM     50  C   UNL A   1      41.685  30.910  33.880  1.00  0.00     0.037 A 
ATOM     51  C   UNL A   1      43.079  25.932  29.134  1.00  0.00     0.037 A 
ATOM     52  C   UNL A   1      42.904  30.180  34.102  1.00  0.00     0.049 A 
ATOM     53  C   UNL A   1      44.000  26.207  30.292  1.00  0.00     0.074 A 
ATOM     54  C   UNL A   1      43.823  30.327  35.126  1.00  0.00     0.029 A 
ATOM     55  N   UNL A   1      43.367  29.153  33.293  1.00  0.00    -0.354 N 
ATOM     56  N   UNL A   1      43.874  27.089  31.255  1.00  0.00    -0.248 NA
ATOM     57  C   UNL A   1      45.215  25.384  30.385  1.00  0.00     0.031 C 
ATOM     58  C   UNL A   1      44.854  29.404  34.924  1.00  0.00     0.029 A 
ATOM     59  C   UNL A   1      44.559  28.657  33.794  1.00  0.00     0.049 A 
ATOM     60  H   UNL A   1      42.916  28.825  32.482  1.00  0.00     0.167 HD
ATOM     61  C   UNL A   1      44.973  26.903  32.086  1.00  0.00     0.074 A 
ATOM     62  C   UNL A   1      45.750  25.823  31.515  1.00  0.00     0.031 C 
ATOM     63  C   UNL A   1      45.306  27.566  33.221  1.00  0.00     0.037 A 
BRANCH  50  64
ATOM     64  C   UNL A   1      41.326  32.020  34.829  1.00  0.00     0.058 A 
ATOM     65  C   UNL A   1      40.515  31.795  35.953  1.00  0.00     0.135 A 
ATOM     66  C   UNL A   1      41.812  33.322  34.624  1.00  0.00     0.135 A 
ATOM     67  F   UNL A   1      40.010  30.574  36.189  1.00  0.00    -0.206 F 
ATOM     68  C   UNL A   1      40.168  32.827  36.819  1.00  0.00     0.059 A 
ATOM     69  C   UNL A   1      41.501  34.364  35.493  1.00  0.00     0.059 A 
ATOM     70  F   UNL A   1      42.592  33.594  33.566  1.00  0.00    -0.206 F 
ATOM     71  C   UNL A   1      40.663  34.109  36.579  1.00  0.00     0.060 A 
BRANCH  71  72
ATOM     72  S   UNL A   1      40.202  35.440  37.708  1.00  0.00     0.124 S 
ATOM     73  O   UNL A   1      38.955  34.925  38.269  1.00  0.00    -0.237 OA
ATOM     74  O   UNL A   1      41.338  35.481  38.625  1.00  0.00    -0.237 OA
ATOM     75  O   UNL A   1      40.066  36.597  36.833  1.00  0.00    -0.744 OA
ENDBRANCH  71  72
ENDBRANCH  50  64
BRANCH  51  76
ATOM     76  C   UNL A   1      43.407  24.887  28.129  1.00  0.00     0.058 A 
ATOM     77  C   UNL A   1      42.957  23.569  28.291  1.00  0.00     0.135 A 
ATOM     78  C   UNL A   1      44.159  25.186  26.983  1.00  0.00     0.135 A 
ATOM     79  F   UNL A   1      42.238  23.234  29.373  1.00  0.00    -0.206 F 
ATOM     80  C   UNL A   1      43.256  22.576  27.364  1.00  0.00     0.059 A 
ATOM     81  C   UNL A   1      44.451  24.216  26.028  1.00  0.00     0.059 A 
ATOM     82  F   UNL A   1      44.595  26.437  26.771  1.00  0.00    -0.206 F 
ATOM     83  C   UNL A   1      44.004  22.911  26.233  1.00  0.00     0.060 A 
BRANCH  83  84
ATOM     84  S   UNL A   1      44.346  21.627  25.009  1.00  0.00     0.124 S 
ATOM     85  O   UNL A   1      45.749  21.333  25.277  1.00  0.00    -0.237 OA
ATOM     86  O   UNL A   1      43.392  20.587  25.380  1.00  0.00    -0.237 OA
ATOM     87  O   UNL A   1      44.071  22.295  23.740  1.00  0.00    -0.744 OA
ENDBRANCH  83  84
ENDBRANCH  51  76
BRANCH  63  88
ATOM     88  C   UNL A   1      46.536  27.107  33.952  1.00  0.00     0.058 A 
ATOM     89  C   UNL A   1      46.469  26.185  35.007  1.00  0.00     0.135 A 
ATOM     90  C   UNL A   1      47.803  27.563  33.555  1.00  0.00     0.135 A 
ATOM     91  F   UNL A   1      45.280  25.724  35.427  1.00  0.00    -0.206 F 
ATOM     92  C   UNL A   1      47.616  25.750  35.662  1.00  0.00     0.059 A 
ATOM     93  C   UNL A   1      48.966  27.120  34.179  1.00  0.00     0.059 A 
ATOM     94  F   UNL A   1      47.922  28.436  32.542  1.00  0.00    -0.206 F 
ATOM     95  C   UNL A   1      48.860  26.224  35.240  1.00  0.00     0.060 A 
BRANCH  95  96
ATOM     96  S   UNL A   1      50.345  25.629  36.078  1.00  0.00     0.124 S 
ATOM     97  O   UNL A   1      50.634  24.409  35.333  1.00  0.00    -0.237 OA
ATOM     98  O   UNL A   1      51.282  26.732  35.878  1.00  0.00    -0.237 OA
ATOM     99  O   UNL A   1      49.901  25.435  37.455  1.00  0.00    -0.744 OA
ENDBRANCH  95  96
ENDBRANCH  63  88
ENDBRANCH  37  38
ENDBRANCH  29  32
ENDBRANCH  27  28
ENDBRANCH  26  27
ENDBRANCH   1  26
TORSDOF 19
ENDMDL
MODEL 2
REMARK VINA RESULT:     -10.5      1.843      3.006
REMARK SMILES CC(C)[NH2+][C@]1(C(=O)NCCCNC(=O)c2ccc(-c3c4nc(c(-c5c(F)cc(S(=O)(=O)[O-])cc5F)c5ccc([nH]5)c(-c5c(F)cc(S(=O)(=O)[O-])cc5F)c5nc(c(-c6c(F)cc(S(=O)(=O)[O-])cc6F)c6ccc3[nH]6)C=C5)C=C4)cc2)CCC[C@@H]1CCSc1cnccn1
REMARK SMILES IDX 9 1 8 2 6 3 7 4 5 6 81 7 84 8 82 9 83 10 4 11 2 14 1 15 3 16
REMARK SMILES IDX 85 17 86 18 87 19 88 20 89 21 93 22 90 23 92 24 91 25 10 26
REMARK SMILES IDX 11 27 12 28 13 29 14 31 15 32 16 33 80 34 17 35 79 36 18 37
REMARK SMILES IDX 19 38 20 39 73 40 21 41 78 42 72 43 74 44 22 45 77 46 71 47
REMARK SMILES IDX 70 48 23 50 57 51 36 52 56 53 37 54 40 55 55 56 75 57 38 58
REMARK SMILES IDX 39 59 54 61 76 62 41 63 24 64 25 65 34 66 26 67 27 68 33 69
REMARK SMILES IDX 35 70 28 71 29 72 30 73 31 74 32 75 58 76 59 77 68 78 60 79
REMARK SMILES IDX 61 80 67 81 69 82 62 83 63 84 64 85 65 86 66 87 42 88 43 89
REMARK SMILES IDX 52 90 44 91 45 92 51 93 53 94 46 95 47 96 48 97 49 98 50 99
REMARK H PARENT 8 5 4 12 4 13 12 30 74 49 40 60
REMARK Flexibility Score: inf
ROOT
ATOM      1  C   UNL A   1      32.946  26.510  24.863  1.00  0.00     0.118 C 
ENDROOT
BRANCH   1   2
ATOM      2  N   UNL A   1      33.255  25.639  23.740  1.00  0.00    -0.351 N 
ATOM      3  C   UNL A   1      33.680  24.360  23.587  1.00  0.00     0.281 C 
ATOM      4  O   UNL A   1      33.888  24.033  22.409  1.00  0.00    -0.268 OA
ATOM      5  H   UNL A   1      33.122  26.091  22.876  1.00  0.00     0.163 HD
BRANCH   3   6
ATOM      6  C   UNL A   1      33.992  23.354  24.738  1.00  0.00     0.178 C 
ATOM      7  C   UNL A   1      34.563  23.939  26.037  1.00  0.00     0.079 C 
ATOM      8  C   UNL A   1      32.613  22.841  25.301  1.00  0.00     0.061 C 
ATOM      9  C   UNL A   1      34.212  22.963  27.152  1.00  0.00     0.008 C 
ATOM     10  C   UNL A   1      32.909  22.308  26.716  1.00  0.00     0.011 C 
BRANCH   6  11
ATOM     11  N   UNL A   1      34.781  22.185  24.259  1.00  0.00    -0.331 N 
ATOM     12  H   UNL A   1      34.488  21.375  24.804  1.00  0.00     0.347 HD
ATOM     13  H   UNL A   1      34.586  22.133  23.259  1.00  0.00     0.347 HD
BRANCH  11  14
ATOM     14  C   UNL A   1      36.246  22.272  24.350  1.00  0.00     0.176 C 
ATOM     15  C   UNL A   1      36.762  20.863  24.660  1.00  0.00     0.075 C 
ATOM     16  C   UNL A   1      36.902  22.740  23.042  1.00  0.00     0.075 C 
ENDBRANCH  11  14
ENDBRANCH   6  11
BRANCH   8  17
ATOM     17  C   UNL A   1      31.830  21.811  24.457  1.00  0.00     0.022 C 
BRANCH  17  18
ATOM     18  C   UNL A   1      32.167  20.350  24.779  1.00  0.00     0.077 C 
BRANCH  18  19
ATOM     19  S   UNL A   1      32.541  19.313  23.313  1.00  0.00    -0.105 SA
BRANCH  19  20
ATOM     20  C   UNL A   1      32.881  17.754  24.084  1.00  0.00     0.114 A 
ATOM     21  C   UNL A   1      33.857  16.888  23.601  1.00  0.00     0.146 A 
ATOM     22  N   UNL A   1      32.188  17.460  25.207  1.00  0.00    -0.247 NA
ATOM     23  N   UNL A   1      34.207  15.736  24.231  1.00  0.00    -0.260 NA
ATOM     24  C   UNL A   1      32.529  16.315  25.839  1.00  0.00     0.132 A 
ATOM     25  C   UNL A   1      33.521  15.475  25.366  1.00  0.00     0.131 A 
ENDBRANCH  19  20
ENDBRANCH  18  19
ENDBRANCH  17  18
ENDBRANCH   8  17
ENDBRANCH   3   6
ENDBRANCH   1   2
BRANCH   1  26
ATOM     26  C   UNL A   1      33.604  27.879  24.762  1.00  0.00     0.042 C 
BRANCH  26  27
ATOM     27  C   UNL A   1      34.229  28.357  26.067  1.00  0.00     0.118 C 
BRANCH  27  28
ATOM     28  N   UNL A   1      33.941  29.763  26.322  1.00  0.00    -0.352 N 
ATOM     29  C   UNL A   1      34.454  30.619  27.263  1.00  0.00     0.251 C 
ATOM     30  H   UNL A   1      33.272  30.163  25.721  1.00  0.00     0.163 HD
ATOM     31  O   UNL A   1      33.866  31.678  27.481  1.00  0.00    -0.269 OA
BRANCH  29  32
ATOM     32  C   UNL A   1      35.692  30.292  28.006  1.00  0.00     0.039 A 
ATOM     33  C   UNL A   1      36.930  30.547  27.405  1.00  0.00     0.014 A 
ATOM     34  C   UNL A   1      35.645  29.659  29.251  1.00  0.00     0.014 A 
ATOM     35  C   UNL A   1      38.111  30.193  28.062  1.00  0.00     0.010 A 
ATOM     36  C   UNL A   1      36.822  29.389  29.943  1.00  0.00     0.010 A 
ATOM     37  C   UNL A   1      38.067  29.622  29.344  1.00  0.00    -0.014 A 
BRANCH  37  38
ATOM     38  C   UNL A   1      39.305  29.191  30.046  1.00  0.00     0.031 A 
ATOM     39  C   UNL A   1      39.721  29.888  31.316  1.00  0.00     0.074 A 
ATOM     40  C   UNL A   1      40.077  28.220  29.521  1.00  0.00     0.049 A 
ATOM     41  N   UNL A   1      40.807  29.731  32.029  1.00  0.00    -0.248 NA
ATOM     42  C   UNL A   1      38.811  30.924  31.833  1.00  0.00     0.031 C 
ATOM     43  C   UNL A   1      39.803  27.500  28.274  1.00  0.00     0.029 A 
ATOM     44  N   UNL A   1      41.256  27.679  29.965  1.00  0.00    -0.354 N 
ATOM     45  C   UNL A   1      40.722  30.664  33.058  1.00  0.00     0.074 A 
ATOM     46  C   UNL A   1      39.507  31.419  32.846  1.00  0.00     0.031 C 
ATOM     47  C   UNL A   1      40.776  26.598  28.066  1.00  0.00     0.029 A 
ATOM     48  C   UNL A   1      41.756  26.695  29.145  1.00  0.00     0.049 A 
ATOM     49  H   UNL A   1      41.702  27.967  30.794  1.00  0.00     0.167 HD
ATOM     50  C   UNL A   1      41.567  30.858  34.099  1.00  0.00     0.037 A 
ATOM     51  C   UNL A   1      42.877  25.957  29.252  1.00  0.00     0.037 A 
ATOM     52  C   UNL A   1      42.749  30.072  34.332  1.00  0.00     0.049 A 
ATOM     53  C   UNL A   1      43.779  26.160  30.439  1.00  0.00     0.074 A 
ATOM     54  C   UNL A   1      43.645  30.151  35.382  1.00  0.00     0.029 A 
ATOM     55  N   UNL A   1      43.190  29.048  33.506  1.00  0.00    -0.354 N 
ATOM     56  N   UNL A   1      43.664  27.021  31.424  1.00  0.00    -0.248 NA
ATOM     57  C   UNL A   1      44.955  25.285  30.539  1.00  0.00     0.031 C 
ATOM     58  C   UNL A   1      44.643  29.191  35.180  1.00  0.00     0.029 A 
ATOM     59  C   UNL A   1      44.346  28.488  34.023  1.00  0.00     0.049 A 
ATOM     60  H   UNL A   1      42.747  28.762  32.674  1.00  0.00     0.167 HD
ATOM     61  C   UNL A   1      44.732  26.766  32.277  1.00  0.00     0.074 A 
ATOM     62  C   UNL A   1      45.478  25.670  31.695  1.00  0.00     0.031 C 
ATOM     63  C   UNL A   1      45.062  27.383  33.438  1.00  0.00     0.037 A 
BRANCH  50  64
ATOM     64  C   UNL A   1      41.230  31.957  35.071  1.00  0.00     0.058 A 
ATOM     65  C   UNL A   1      40.262  31.783  36.072  1.00  0.00     0.135 A 
ATOM     66  C   UNL A   1      41.895  33.192  35.012  1.00  0.00     0.135 A 
ATOM     67  F   UNL A   1      39.584  30.627  36.164  1.00  0.00    -0.206 F 
ATOM     68  C   UNL A   1      39.937  32.805  36.957  1.00  0.00     0.059 A 
ATOM     69  C   UNL A   1      41.606  34.221  35.904  1.00  0.00     0.059 A 
ATOM     70  F   UNL A   1      42.830  33.413  34.075  1.00  0.00    -0.206 F 
ATOM     71  C   UNL A   1      40.612  34.022  36.863  1.00  0.00     0.060 A 
BRANCH  71  72
ATOM     72  S   UNL A   1      40.179  35.344  38.014  1.00  0.00     0.124 S 
ATOM     73  O   UNL A   1      41.376  35.402  38.851  1.00  0.00    -0.237 OA
ATOM     74  O   UNL A   1      39.977  36.483  37.123  1.00  0.00    -0.237 OA
ATOM     75  O   UNL A   1      38.978  34.845  38.671  1.00  0.00    -0.744 OA
ENDBRANCH  71  72
ENDBRANCH  50  64
BRANCH  51  76
ATOM     76  C   UNL A   1      43.188  24.927  28.225  1.00  0.00     0.058 A 
ATOM     77  C   UNL A   1      44.034  25.222  27.146  1.00  0.00     0.135 A 
ATOM     78  C   UNL A   1      42.662  23.629  28.310  1.00  0.00     0.135 A 
ATOM     79  F   UNL A   1      44.558  26.451  27.021  1.00  0.00    -0.206 F 
ATOM     80  C   UNL A   1      44.335  24.273  26.174  1.00  0.00     0.059 A 
ATOM     81  C   UNL A   1      42.967  22.655  27.363  1.00  0.00     0.059 A 
ATOM     82  F   UNL A   1      41.865  23.291  29.333  1.00  0.00    -0.206 F 
ATOM     83  C   UNL A   1      43.796  22.990  26.293  1.00  0.00     0.060 A 
BRANCH  83  84
ATOM     84  S   UNL A   1      44.231  21.751  25.053  1.00  0.00     0.124 S 
ATOM     85  O   UNL A   1      44.026  22.491  23.813  1.00  0.00    -0.237 OA
ATOM     86  O   UNL A   1      45.617  21.446  25.395  1.00  0.00    -0.237 OA
ATOM     87  O   UNL A   1      43.279  20.674  25.310  1.00  0.00    -0.744 OA
ENDBRANCH  83  84
ENDBRANCH  51  76
BRANCH  63  88
ATOM     88  C   UNL A   1      46.252  26.853  34.186  1.00  0.00     0.058 A 
ATOM     89  C   UNL A   1      47.543  27.363  33.978  1.00  0.00     0.135 A 
ATOM     90  C   UNL A   1      46.088  25.854  35.158  1.00  0.00     0.135 A 
ATOM     91  F   UNL A   1      47.753  28.315  33.055  1.00  0.00    -0.206 F 
ATOM     92  C   UNL A   1      48.635  26.882  34.691  1.00  0.00     0.059 A 
ATOM     93  C   UNL A   1      47.162  25.376  35.902  1.00  0.00     0.059 A 
ATOM     94  F   UNL A   1      44.871  25.343  35.404  1.00  0.00    -0.206 F 
ATOM     95  C   UNL A   1      48.435  25.887  35.652  1.00  0.00     0.060 A 
BRANCH  95  96
ATOM     96  S   UNL A   1      49.855  25.290  36.593  1.00  0.00     0.124 S 
ATOM     97  O   UNL A   1      49.435  25.562  37.963  1.00  0.00    -0.237 OA
ATOM     98  O   UNL A   1      49.912  23.881  36.215  1.00  0.00    -0.237 OA
ATOM     99  O   UNL A   1      50.957  26.109  36.098  1.00  0.00    -0.744 OA
ENDBRANCH  95  96
ENDBRANCH  63  88
ENDBRANCH  37  38
ENDBRANCH  29  32
ENDBRANCH  27  28
ENDBRANCH  26  27
ENDBRANCH   1  26
TORSDOF 19
ENDMDL
MODEL 3
REMARK VINA RESULT:     -10.5      4.437     10.115
REMARK SMILES CC(C)[NH2+][C@]1(C(=O)NCCCNC(=O)c2ccc(-c3c4nc(c(-c5c(F)cc(S(=O)(=O)[O-])cc5F)c5ccc([nH]5)c(-c5c(F)cc(S(=O)(=O)[O-])cc5F)c5nc(c(-c6c(F)cc(S(=O)(=O)[O-])cc6F)c6ccc3[nH]6)C=C5)C=C4)cc2)CCC[C@@H]1CCSc1cnccn1
REMARK SMILES IDX 9 1 8 2 6 3 7 4 5 6 81 7 84 8 82 9 83 10 4 11 2 14 1 15 3 16
REMARK SMILES IDX 85 17 86 18 87 19 88 20 89 21 93 22 90 23 92 24 91 25 10 26
REMARK SMILES IDX 11 27 12 28 13 29 14 31 15 32 16 33 80 34 17 35 79 36 18 37
REMARK SMILES IDX 19 38 20 39 73 40 21 41 78 42 72 43 74 44 22 45 77 46 71 47
REMARK SMILES IDX 70 48 23 50 57 51 36 52 56 53 37 54 40 55 55 56 75 57 38 58
REMARK SMILES IDX 39 59 54 61 76 62 41 63 24 64 25 65 34 66 26 67 27 68 33 69
REMARK SMILES IDX 35 70 28 71 29 72 30 73 31 74 32 75 58 76 59 77 68 78 60 79
REMARK SMILES IDX 61 80 67 81 69 82 62 83 63 84 64 85 65 86 66 87 42 88 43 89
REMARK SMILES IDX 52 90 44 91 45 92 51 93 53 94 46 95 47 96 48 97 49 98 50 99
REMARK H PARENT 8 5 4 12 4 13 12 30 74 49 40 60
REMARK Flexibility Score: inf
ROOT
ATOM      1  C   UNL A   1      34.141  23.069  25.714  1.00  0.00     0.118 C 
ENDROOT
BRANCH   1   2
ATOM      2  N   UNL A   1      32.910  23.319  26.447  1.00  0.00    -0.351 N 
ATOM      3  C   UNL A   1      31.868  24.180  26.335  1.00  0.00     0.281 C 
ATOM      4  O   UNL A   1      31.037  24.090  27.251  1.00  0.00    -0.268 OA
ATOM      5  H   UNL A   1      32.809  22.713  27.216  1.00  0.00     0.163 HD
BRANCH   3   6
ATOM      6  C   UNL A   1      31.698  25.276  25.239  1.00  0.00     0.178 C 
ATOM      7  C   UNL A   1      30.265  25.599  24.794  1.00  0.00     0.079 C 
ATOM      8  C   UNL A   1      32.054  26.661  25.899  1.00  0.00     0.061 C 
ATOM      9  C   UNL A   1      30.282  27.020  24.247  1.00  0.00     0.008 C 
ATOM     10  C   UNL A   1      31.387  27.732  25.015  1.00  0.00     0.011 C 
BRANCH   6  11
ATOM     11  N   UNL A   1      32.603  25.049  24.078  1.00  0.00    -0.331 N 
ATOM     12  H   UNL A   1      32.996  25.952  23.816  1.00  0.00     0.347 HD
ATOM     13  H   UNL A   1      33.277  24.357  24.406  1.00  0.00     0.347 HD
BRANCH  11  14
ATOM     14  C   UNL A   1      32.018  24.456  22.867  1.00  0.00     0.176 C 
ATOM     15  C   UNL A   1      32.446  25.330  21.684  1.00  0.00     0.075 C 
ATOM     16  C   UNL A   1      32.510  23.025  22.602  1.00  0.00     0.075 C 
ENDBRANCH  11  14
ENDBRANCH   6  11
BRANCH   8  17
ATOM     17  C   UNL A   1      33.546  26.978  26.147  1.00  0.00     0.022 C 
BRANCH  17  18
ATOM     18  C   UNL A   1      33.939  28.428  25.840  1.00  0.00     0.077 C 
BRANCH  18  19
ATOM     19  S   UNL A   1      34.691  29.328  27.251  1.00  0.00    -0.105 SA
BRANCH  19  20
ATOM     20  C   UNL A   1      33.658  30.767  27.318  1.00  0.00     0.114 A 
ATOM     21  C   UNL A   1      34.099  31.967  27.864  1.00  0.00     0.146 A 
ATOM     22  N   UNL A   1      32.430  30.667  26.762  1.00  0.00    -0.247 NA
ATOM     23  N   UNL A   1      33.365  33.111  27.837  1.00  0.00    -0.260 NA
ATOM     24  C   UNL A   1      31.693  31.800  26.732  1.00  0.00     0.132 A 
ATOM     25  C   UNL A   1      32.153  32.997  27.251  1.00  0.00     0.131 A 
ENDBRANCH  19  20
ENDBRANCH  18  19
ENDBRANCH  17  18
ENDBRANCH   8  17
ENDBRANCH   3   6
ENDBRANCH   1   2
BRANCH   1  26
ATOM     26  C   UNL A   1      35.369  23.681  26.373  1.00  0.00     0.042 C 
BRANCH  26  27
ATOM     27  C   UNL A   1      36.627  23.608  25.514  1.00  0.00     0.118 C 
BRANCH  27  28
ATOM     28  N   UNL A   1      37.565  22.611  26.013  1.00  0.00    -0.352 N 
ATOM     29  C   UNL A   1      38.839  22.755  26.501  1.00  0.00     0.251 C 
ATOM     30  H   UNL A   1      37.230  21.686  25.999  1.00  0.00     0.163 HD
ATOM     31  O   UNL A   1      39.550  21.756  26.600  1.00  0.00    -0.269 OA
BRANCH  29  32
ATOM     32  C   UNL A   1      39.361  24.079  26.909  1.00  0.00     0.039 A 
ATOM     33  C   UNL A   1      39.991  24.883  25.953  1.00  0.00     0.014 A 
ATOM     34  C   UNL A   1      39.311  24.499  28.240  1.00  0.00     0.014 A 
ATOM     35  C   UNL A   1      40.543  26.111  26.326  1.00  0.00     0.010 A 
ATOM     36  C   UNL A   1      39.781  25.761  28.594  1.00  0.00     0.010 A 
ATOM     37  C   UNL A   1      40.431  26.567  27.649  1.00  0.00    -0.014 A 
BRANCH  37  38
ATOM     38  C   UNL A   1      41.050  27.845  28.086  1.00  0.00     0.031 A 
ATOM     39  C   UNL A   1      42.541  28.028  27.970  1.00  0.00     0.074 A 
ATOM     40  C   UNL A   1      40.289  28.812  28.634  1.00  0.00     0.049 A 
ATOM     41  N   UNL A   1      43.289  29.022  28.377  1.00  0.00    -0.248 NA
ATOM     42  C   UNL A   1      43.298  26.931  27.342  1.00  0.00     0.031 C 
ATOM     43  C   UNL A   1      38.841  28.737  28.841  1.00  0.00     0.029 A 
ATOM     44  N   UNL A   1      40.631  30.046  29.126  1.00  0.00    -0.354 N 
ATOM     45  C   UNL A   1      44.598  28.658  28.081  1.00  0.00     0.074 A 
ATOM     46  C   UNL A   1      44.549  27.330  27.510  1.00  0.00     0.031 C 
ATOM     47  C   UNL A   1      38.417  29.883  29.398  1.00  0.00     0.029 A 
ATOM     48  C   UNL A   1      39.563  30.761  29.616  1.00  0.00     0.049 A 
ATOM     49  H   UNL A   1      41.554  30.389  29.128  1.00  0.00     0.167 HD
ATOM     50  C   UNL A   1      45.737  29.374  28.247  1.00  0.00     0.037 A 
ATOM     51  C   UNL A   1      39.516  31.984  30.176  1.00  0.00     0.037 A 
ATOM     52  C   UNL A   1      45.774  30.713  28.771  1.00  0.00     0.049 A 
ATOM     53  C   UNL A   1      40.787  32.779  30.311  1.00  0.00     0.074 A 
ATOM     54  C   UNL A   1      46.866  31.546  28.933  1.00  0.00     0.029 A 
ATOM     55  N   UNL A   1      44.662  31.421  29.204  1.00  0.00    -0.354 N 
ATOM     56  N   UNL A   1      42.012  32.434  29.990  1.00  0.00    -0.248 NA
ATOM     57  C   UNL A   1      40.669  34.132  30.871  1.00  0.00     0.031 C 
ATOM     58  C   UNL A   1      46.419  32.751  29.486  1.00  0.00     0.029 A 
ATOM     59  C   UNL A   1      45.043  32.681  29.634  1.00  0.00     0.049 A 
ATOM     60  H   UNL A   1      43.740  31.079  29.207  1.00  0.00     0.167 HD
ATOM     61  C   UNL A   1      42.804  33.540  30.276  1.00  0.00     0.074 A 
ATOM     62  C   UNL A   1      41.919  34.565  30.792  1.00  0.00     0.031 C 
ATOM     63  C   UNL A   1      44.142  33.694  30.123  1.00  0.00     0.037 A 
BRANCH  50  64
ATOM     64  C   UNL A   1      47.031  28.722  27.843  1.00  0.00     0.058 A 
ATOM     65  C   UNL A   1      47.820  28.018  28.765  1.00  0.00     0.135 A 
ATOM     66  C   UNL A   1      47.481  28.788  26.514  1.00  0.00     0.135 A 
ATOM     67  F   UNL A   1      47.447  27.938  30.053  1.00  0.00    -0.206 F 
ATOM     68  C   UNL A   1      49.026  27.433  28.395  1.00  0.00     0.059 A 
ATOM     69  C   UNL A   1      48.671  28.186  26.114  1.00  0.00     0.059 A 
ATOM     70  F   UNL A   1      46.766  29.448  25.589  1.00  0.00    -0.206 F 
ATOM     71  C   UNL A   1      49.445  27.525  27.068  1.00  0.00     0.060 A 
BRANCH  71  72
ATOM     72  S   UNL A   1      51.015  26.765  26.600  1.00  0.00     0.124 S 
ATOM     73  O   UNL A   1      50.831  25.400  27.087  1.00  0.00    -0.237 OA
ATOM     74  O   UNL A   1      51.020  26.922  25.148  1.00  0.00    -0.237 OA
ATOM     75  O   UNL A   1      52.005  27.558  27.316  1.00  0.00    -0.744 OA
ENDBRANCH  71  72
ENDBRANCH  50  64
BRANCH  51  76
ATOM     76  C   UNL A   1      38.212  32.551  30.613  1.00  0.00     0.058 A 
ATOM     77  C   UNL A   1      37.772  32.400  31.936  1.00  0.00     0.135 A 
ATOM     78  C   UNL A   1      37.391  33.264  29.727  1.00  0.00     0.135 A 
ATOM     79  F   UNL A   1      38.521  31.723  32.819  1.00  0.00    -0.206 F 
ATOM     80  C   UNL A   1      36.554  32.920  32.364  1.00  0.00     0.059 A 
ATOM     81  C   UNL A   1      36.180  33.814  30.136  1.00  0.00     0.059 A 
ATOM     82  F   UNL A   1      37.777  33.453  28.456  1.00  0.00    -0.206 F 
ATOM     83  C   UNL A   1      35.765  33.627  31.455  1.00  0.00     0.060 A 
BRANCH  83  84
ATOM     84  S   UNL A   1      34.209  34.341  32.031  1.00  0.00     0.124 S 
ATOM     85  O   UNL A   1      34.674  35.530  32.736  1.00  0.00    -0.237 OA
ATOM     86  O   UNL A   1      33.496  34.577  30.780  1.00  0.00    -0.237 OA
ATOM     87  O   UNL A   1      33.650  33.286  32.871  1.00  0.00    -0.744 OA
ENDBRANCH  83  84
ENDBRANCH  51  76
BRANCH  63  88
ATOM     88  C   UNL A   1      44.726  35.035  30.467  1.00  0.00     0.058 A 
ATOM     89  C   UNL A   1      44.785  36.078  29.529  1.00  0.00     0.135 A 
ATOM     90  C   UNL A   1      45.188  35.292  31.767  1.00  0.00     0.135 A 
ATOM     91  F   UNL A   1      44.361  35.880  28.271  1.00  0.00    -0.206 F 
ATOM     92  C   UNL A   1      45.307  37.323  29.864  1.00  0.00     0.059 A 
ATOM     93  C   UNL A   1      45.689  36.538  32.131  1.00  0.00     0.059 A 
ATOM     94  F   UNL A   1      45.141  34.331  32.704  1.00  0.00    -0.206 F 
ATOM     95  C   UNL A   1      45.757  37.543  31.168  1.00  0.00     0.060 A 
BRANCH  95  96
ATOM     96  S   UNL A   1      46.405  39.172  31.599  1.00  0.00     0.124 S 
ATOM     97  O   UNL A   1      47.841  38.919  31.628  1.00  0.00    -0.237 OA
ATOM     98  O   UNL A   1      45.929  40.002  30.496  1.00  0.00    -0.237 OA
ATOM     99  O   UNL A   1      45.789  39.449  32.893  1.00  0.00    -0.744 OA
ENDBRANCH  95  96
ENDBRANCH  63  88
ENDBRANCH  37  38
ENDBRANCH  29  32
ENDBRANCH  27  28
ENDBRANCH  26  27
ENDBRANCH   1  26
TORSDOF 19
ENDMDL
