MODEL 1
REMARK VINA RESULT:     -13.0      0.000      0.000
REMARK SMILES Cc1ncc(CO)c([C@H]2[NH2+][C@@H](C(=O)NCCCNC(=O)c3ccc(-c4c5nc(c(-c6c(F)cc(S(=O)(=O)[O-])cc6F)c6ccc([nH]6)c(-c6c(F)cc(S(=O)(=O)[O-])cc6F)c6nc(c(-c7c(F)cc(S(=O)(=O)[O-])cc7F)c7ccc4[nH]7)C=C6)C=C5)cc3)Cc3[nH]cnc32)c1O
REMARK SMILES IDX 16 1 15 2 14 3 12 4 13 5 11 7 9 8 10 9 92 10 88 13 91 14
REMARK SMILES IDX 87 15 89 16 90 17 8 19 1 20 2 21 3 22 93 23 4 24 5 25 94 26
REMARK SMILES IDX 6 28 7 29 17 31 18 32 19 33 20 35 21 36 22 37 86 38 23 39
REMARK SMILES IDX 85 40 24 41 25 42 26 43 79 44 27 45 84 46 78 47 80 48 28 49
REMARK SMILES IDX 83 50 77 51 76 52 29 54 63 55 42 56 62 57 43 58 46 59 61 60
REMARK SMILES IDX 81 61 44 62 45 63 60 65 82 66 47 67 30 68 31 69 40 70 32 71
REMARK SMILES IDX 33 72 39 73 41 74 34 75 35 76 36 77 37 78 38 79 64 80 65 81
REMARK SMILES IDX 74 82 66 83 67 84 73 85 75 86 68 87 69 88 70 89 71 90 72 91
REMARK SMILES IDX 48 92 49 93 58 94 50 95 51 96 57 97 59 98 52 99 53 100
REMARK SMILES IDX 54 101 55 102 56 103
REMARK H PARENT 14 6 10 11 10 12 89 18 94 27 7 30 18 34 80 53 46 64
REMARK Flexibility Score: inf
ROOT
ATOM      1  C   UNL A   1      34.134  27.962  26.160  1.00  0.00     0.042 C 
ENDROOT
BRANCH   1   2
ATOM      2  C   UNL A   1      32.683  27.931  25.702  1.00  0.00     0.118 C 
BRANCH   2   3
ATOM      3  N   UNL A   1      31.884  26.983  26.471  1.00  0.00    -0.351 N 
ATOM      4  C   UNL A   1      31.425  25.747  26.112  1.00  0.00     0.278 C 
ATOM      5  O   UNL A   1      30.731  25.105  26.895  1.00  0.00    -0.268 OA
ATOM      6  H   UNL A   1      31.642  27.275  27.380  1.00  0.00     0.163 HD
BRANCH   4   7
ATOM      7  C   UNL A   1      31.787  25.270  24.722  1.00  0.00     0.279 C 
ATOM      8  C   UNL A   1      33.162  23.775  23.501  1.00  0.00     0.270 C 
ATOM      9  N   UNL A   1      33.129  24.661  24.685  1.00  0.00    -0.324 N 
ATOM     10  C   UNL A   1      33.073  24.676  22.287  1.00  0.00     0.124 A 
ATOM     11  H   UNL A   1      33.842  25.386  24.602  1.00  0.00     0.347 HD
ATOM     12  H   UNL A   1      33.318  24.136  25.539  1.00  0.00     0.347 HD
ATOM     13  C   UNL A   1      32.266  25.820  22.386  1.00  0.00     0.051 A 
ATOM     14  N   UNL A   1      33.274  24.394  20.956  1.00  0.00    -0.235 NA
ATOM     15  C   UNL A   1      31.646  26.356  23.644  1.00  0.00     0.131 C 
ATOM     16  N   UNL A   1      32.018  26.244  21.122  1.00  0.00    -0.348 N 
ATOM     17  C   UNL A   1      32.661  25.363  20.294  1.00  0.00     0.197 A 
ATOM     18  H   UNL A   1      31.485  27.027  20.855  1.00  0.00     0.167 HD
BRANCH   8  19
ATOM     19  C   UNL A   1      33.965  22.547  23.840  1.00  0.00     0.066 A 
ATOM     20  C   UNL A   1      32.826  19.175  25.359  1.00  0.00     0.071 C 
ATOM     21  C   UNL A   1      33.707  20.277  24.827  1.00  0.00     0.079 A 
ATOM     22  N   UNL A   1      35.036  20.150  24.982  1.00  0.00    -0.257 NA
ATOM     23  C   UNL A   1      33.160  21.416  24.241  1.00  0.00     0.146 A 
ATOM     24  C   UNL A   1      35.801  21.207  24.602  1.00  0.00     0.118 A 
ATOM     25  C   UNL A   1      35.341  22.423  24.057  1.00  0.00     0.009 A 
BRANCH  23  26
ATOM     26  O   UNL A   1      31.780  21.412  24.184  1.00  0.00    -0.505 OA
ATOM     27  H   UNL A   1      31.298  22.169  24.455  1.00  0.00     0.293 HD
ENDBRANCH  23  26
BRANCH  25  28
ATOM     28  C   UNL A   1      36.363  23.484  23.784  1.00  0.00     0.194 C 
BRANCH  28  29
ATOM     29  O   UNL A   1      36.972  23.273  22.513  1.00  0.00    -0.392 OA
ATOM     30  H   UNL A   1      36.344  23.501  21.811  1.00  0.00     0.211 HD
ENDBRANCH  28  29
ENDBRANCH  25  28
ENDBRANCH   8  19
ENDBRANCH   4   7
ENDBRANCH   2   3
ENDBRANCH   1   2
BRANCH   1  31
ATOM     31  C   UNL A   1      34.284  28.855  27.365  1.00  0.00     0.118 C 
BRANCH  31  32
ATOM     32  N   UNL A   1      34.505  30.264  27.018  1.00  0.00    -0.352 N 
ATOM     33  C   UNL A   1      35.396  31.162  27.620  1.00  0.00     0.251 C 
ATOM     34  H   UNL A   1      33.964  30.620  26.276  1.00  0.00     0.163 HD
ATOM     35  O   UNL A   1      35.292  32.344  27.476  1.00  0.00    -0.269 OA
BRANCH  33  36
ATOM     36  C   UNL A   1      36.557  30.538  28.306  1.00  0.00     0.039 A 
ATOM     37  C   UNL A   1      36.854  30.497  29.666  1.00  0.00     0.014 A 
ATOM     38  C   UNL A   1      37.561  30.121  27.466  1.00  0.00     0.014 A 
ATOM     39  C   UNL A   1      38.203  30.140  30.009  1.00  0.00     0.010 A 
ATOM     40  C   UNL A   1      38.396  29.186  27.938  1.00  0.00     0.010 A 
ATOM     41  C   UNL A   1      39.098  29.711  28.976  1.00  0.00    -0.014 A 
BRANCH  41  42
ATOM     42  C   UNL A   1      40.440  29.035  29.011  1.00  0.00     0.031 A 
ATOM     43  C   UNL A   1      40.660  28.849  30.555  1.00  0.00     0.074 A 
ATOM     44  C   UNL A   1      41.174  28.522  27.909  1.00  0.00     0.049 A 
ATOM     45  N   UNL A   1      41.244  29.736  31.307  1.00  0.00    -0.248 NA
ATOM     46  C   UNL A   1      39.816  27.968  31.455  1.00  0.00     0.031 C 
ATOM     47  C   UNL A   1      40.993  28.529  26.400  1.00  0.00     0.029 A 
ATOM     48  N   UNL A   1      42.428  27.873  27.898  1.00  0.00    -0.354 N 
ATOM     49  C   UNL A   1      41.301  29.185  32.590  1.00  0.00     0.074 A 
ATOM     50  C   UNL A   1      40.167  28.340  32.695  1.00  0.00     0.031 C 
ATOM     51  C   UNL A   1      41.863  27.674  25.755  1.00  0.00     0.029 A 
ATOM     52  C   UNL A   1      42.805  27.118  26.709  1.00  0.00     0.049 A 
ATOM     53  H   UNL A   1      43.033  27.930  28.672  1.00  0.00     0.167 HD
ATOM     54  C   UNL A   1      42.507  29.120  33.220  1.00  0.00     0.037 A 
ATOM     55  C   UNL A   1      43.973  26.373  26.462  1.00  0.00     0.037 A 
ATOM     56  C   UNL A   1      43.414  29.997  32.515  1.00  0.00     0.049 A 
ATOM     57  C   UNL A   1      44.908  26.788  27.549  1.00  0.00     0.074 A 
ATOM     58  C   UNL A   1      43.458  31.352  32.265  1.00  0.00     0.029 A 
ATOM     59  N   UNL A   1      44.019  29.373  31.458  1.00  0.00    -0.354 N 
ATOM     60  N   UNL A   1      45.368  28.013  27.605  1.00  0.00    -0.248 NA
ATOM     61  C   UNL A   1      44.681  26.103  28.819  1.00  0.00     0.031 C 
ATOM     62  C   UNL A   1      43.847  31.478  30.895  1.00  0.00     0.029 A 
ATOM     63  C   UNL A   1      44.225  30.227  30.414  1.00  0.00     0.049 A 
ATOM     64  H   UNL A   1      44.276  28.422  31.451  1.00  0.00     0.167 HD
ATOM     65  C   UNL A   1      45.013  28.442  28.875  1.00  0.00     0.074 A 
ATOM     66  C   UNL A   1      44.569  27.206  29.571  1.00  0.00     0.031 C 
ATOM     67  C   UNL A   1      44.720  29.760  29.139  1.00  0.00     0.037 A 
BRANCH  54  68
ATOM     68  C   UNL A   1      43.031  27.939  34.026  1.00  0.00     0.058 A 
ATOM     69  C   UNL A   1      43.323  28.160  35.386  1.00  0.00     0.135 A 
ATOM     70  C   UNL A   1      43.509  26.713  33.501  1.00  0.00     0.135 A 
ATOM     71  F   UNL A   1      42.924  29.291  35.991  1.00  0.00    -0.206 F 
ATOM     72  C   UNL A   1      44.058  27.261  36.159  1.00  0.00     0.059 A 
ATOM     73  C   UNL A   1      44.207  25.774  34.270  1.00  0.00     0.059 A 
ATOM     74  F   UNL A   1      43.377  26.390  32.208  1.00  0.00    -0.206 F 
ATOM     75  C   UNL A   1      44.486  26.064  35.598  1.00  0.00     0.060 A 
BRANCH  75  76
ATOM     76  S   UNL A   1      45.359  24.888  36.650  1.00  0.00     0.124 S 
ATOM     77  O   UNL A   1      44.326  24.510  37.607  1.00  0.00    -0.237 OA
ATOM     78  O   UNL A   1      45.740  23.862  35.684  1.00  0.00    -0.237 OA
ATOM     79  O   UNL A   1      46.466  25.672  37.190  1.00  0.00    -0.744 OA
ENDBRANCH  75  76
ENDBRANCH  54  68
BRANCH  55  80
ATOM     80  C   UNL A   1      44.159  24.989  25.788  1.00  0.00     0.058 A 
ATOM     81  C   UNL A   1      45.246  24.485  24.991  1.00  0.00     0.135 A 
ATOM     82  C   UNL A   1      43.281  23.986  26.216  1.00  0.00     0.135 A 
ATOM     83  F   UNL A   1      46.210  25.307  24.540  1.00  0.00    -0.206 F 
ATOM     84  C   UNL A   1      45.404  23.096  24.656  1.00  0.00     0.059 A 
ATOM     85  C   UNL A   1      43.424  22.626  25.914  1.00  0.00     0.059 A 
ATOM     86  F   UNL A   1      42.276  24.300  27.041  1.00  0.00    -0.206 F 
ATOM     87  C   UNL A   1      44.483  22.169  25.144  1.00  0.00     0.060 A 
BRANCH  87  88
ATOM     88  S   UNL A   1      44.666  20.366  24.895  1.00  0.00     0.124 S 
ATOM     89  O   UNL A   1      44.597  20.236  23.444  1.00  0.00    -0.237 OA
ATOM     90  O   UNL A   1      45.965  20.088  25.497  1.00  0.00    -0.237 OA
ATOM     91  O   UNL A   1      43.522  19.811  25.616  1.00  0.00    -0.744 OA
ENDBRANCH  87  88
ENDBRANCH  55  80
BRANCH  67  92
ATOM     92  C   UNL A   1      44.954  30.831  28.085  1.00  0.00     0.058 A 
ATOM     93  C   UNL A   1      44.034  31.306  27.122  1.00  0.00     0.135 A 
ATOM     94  C   UNL A   1      46.132  31.571  28.219  1.00  0.00     0.135 A 
ATOM     95  F   UNL A   1      42.806  30.785  27.025  1.00  0.00    -0.206 F 
ATOM     96  C   UNL A   1      44.312  32.403  26.287  1.00  0.00     0.059 A 
ATOM     97  C   UNL A   1      46.412  32.688  27.438  1.00  0.00     0.059 A 
ATOM     98  F   UNL A   1      46.998  31.261  29.196  1.00  0.00    -0.206 F 
ATOM     99  C   UNL A   1      45.513  33.086  26.453  1.00  0.00     0.060 A 
BRANCH  99 100
ATOM    100  S   UNL A   1      45.878  34.538  25.436  1.00  0.00     0.124 S 
ATOM    101  O   UNL A   1      45.091  34.279  24.235  1.00  0.00    -0.237 OA
ATOM    102  O   UNL A   1      45.408  35.637  26.275  1.00  0.00    -0.237 OA
ATOM    103  O   UNL A   1      47.326  34.474  25.257  1.00  0.00    -0.744 OA
ENDBRANCH  99 100
ENDBRANCH  67  92
ENDBRANCH  41  42
ENDBRANCH  33  36
ENDBRANCH  31  32
ENDBRANCH   1  31
TORSDOF 17
ENDMDL
MODEL 2
REMARK VINA RESULT:     -12.8      3.919      8.569
REMARK SMILES Cc1ncc(CO)c([C@H]2[NH2+][C@@H](C(=O)NCCCNC(=O)c3ccc(-c4c5nc(c(-c6c(F)cc(S(=O)(=O)[O-])cc6F)c6ccc([nH]6)c(-c6c(F)cc(S(=O)(=O)[O-])cc6F)c6nc(c(-c7c(F)cc(S(=O)(=O)[O-])cc7F)c7ccc4[nH]7)C=C6)C=C5)cc3)Cc3[nH]cnc32)c1O
REMARK SMILES IDX 16 1 15 2 14 3 12 4 13 5 11 7 9 8 10 9 92 10 88 13 91 14
REMARK SMILES IDX 87 15 89 16 90 17 8 19 1 20 2 21 3 22 93 23 4 24 5 25 94 26
REMARK SMILES IDX 6 28 7 29 17 31 18 32 19 33 20 35 21 36 22 37 86 38 23 39
REMARK SMILES IDX 85 40 24 41 25 42 26 43 79 44 27 45 84 46 78 47 80 48 28 49
REMARK SMILES IDX 83 50 77 51 76 52 29 54 63 55 42 56 62 57 43 58 46 59 61 60
REMARK SMILES IDX 81 61 44 62 45 63 60 65 82 66 47 67 30 68 31 69 40 70 32 71
REMARK SMILES IDX 33 72 39 73 41 74 34 75 35 76 36 77 37 78 38 79 64 80 65 81
REMARK SMILES IDX 74 82 66 83 67 84 73 85 75 86 68 87 69 88 70 89 71 90 72 91
REMARK SMILES IDX 48 92 49 93 58 94 50 95 51 96 57 97 59 98 52 99 53 100
REMARK SMILES IDX 54 101 55 102 56 103
REMARK H PARENT 14 6 10 11 10 12 89 18 94 27 7 30 18 34 80 53 46 64
REMARK Flexibility Score: inf
ROOT
ATOM      1  C   UNL A   1      33.563  28.559  24.827  1.00  0.00     0.042 C 
ENDROOT
BRANCH   1   2
ATOM      2  C   UNL A   1      32.628  28.516  23.627  1.00  0.00     0.118 C 
BRANCH   2   3
ATOM      3  N   UNL A   1      33.135  27.653  22.566  1.00  0.00    -0.351 N 
ATOM      4  C   UNL A   1      33.186  26.288  22.510  1.00  0.00     0.278 C 
ATOM      5  O   UNL A   1      33.686  25.737  21.533  1.00  0.00    -0.268 OA
ATOM      6  H   UNL A   1      33.491  28.121  21.776  1.00  0.00     0.163 HD
BRANCH   4   7
ATOM      7  C   UNL A   1      32.640  25.543  23.708  1.00  0.00     0.279 C 
ATOM      8  C   UNL A   1      32.880  23.592  25.032  1.00  0.00     0.270 C 
ATOM      9  N   UNL A   1      32.949  24.103  23.646  1.00  0.00    -0.324 N 
ATOM     10  C   UNL A   1      31.431  23.694  25.458  1.00  0.00     0.124 A 
ATOM     11  H   UNL A   1      32.267  23.622  23.060  1.00  0.00     0.347 HD
ATOM     12  H   UNL A   1      33.872  23.943  23.243  1.00  0.00     0.347 HD
ATOM     13  C   UNL A   1      30.695  24.795  24.992  1.00  0.00     0.051 A 
ATOM     14  N   UNL A   1      30.788  23.167  26.553  1.00  0.00    -0.235 NA
ATOM     15  C   UNL A   1      31.139  25.773  23.943  1.00  0.00     0.131 C 
ATOM     16  N   UNL A   1      29.597  24.902  25.781  1.00  0.00    -0.348 N 
ATOM     17  C   UNL A   1      29.687  23.889  26.697  1.00  0.00     0.197 A 
ATOM     18  H   UNL A   1      28.880  25.573  25.707  1.00  0.00     0.167 HD
BRANCH   8  19
ATOM     19  C   UNL A   1      33.958  22.556  25.217  1.00  0.00     0.066 A 
ATOM     20  C   UNL A   1      37.776  22.997  25.672  1.00  0.00     0.071 C 
ATOM     21  C   UNL A   1      36.425  22.356  25.485  1.00  0.00     0.079 A 
ATOM     22  N   UNL A   1      36.384  21.037  25.231  1.00  0.00    -0.257 NA
ATOM     23  C   UNL A   1      35.256  23.114  25.522  1.00  0.00     0.146 A 
ATOM     24  C   UNL A   1      35.167  20.503  24.949  1.00  0.00     0.118 A 
ATOM     25  C   UNL A   1      33.938  21.195  24.902  1.00  0.00     0.009 A 
BRANCH  23  26
ATOM     26  O   UNL A   1      35.465  24.458  25.761  1.00  0.00    -0.505 OA
ATOM     27  H   UNL A   1      34.908  25.097  25.361  1.00  0.00     0.293 HD
ENDBRANCH  23  26
BRANCH  25  28
ATOM     28  C   UNL A   1      32.727  20.415  24.491  1.00  0.00     0.194 C 
BRANCH  28  29
ATOM     29  O   UNL A   1      31.818  20.296  25.582  1.00  0.00    -0.392 OA
ATOM     30  H   UNL A   1      31.496  21.176  25.832  1.00  0.00     0.211 HD
ENDBRANCH  28  29
ENDBRANCH  25  28
ENDBRANCH   8  19
ENDBRANCH   4   7
ENDBRANCH   2   3
ENDBRANCH   1   2
BRANCH   1  31
ATOM     31  C   UNL A   1      32.781  28.812  26.091  1.00  0.00     0.118 C 
BRANCH  31  32
ATOM     32  N   UNL A   1      32.413  30.221  26.274  1.00  0.00    -0.352 N 
ATOM     33  C   UNL A   1      32.935  31.126  27.208  1.00  0.00     0.251 C 
ATOM     34  H   UNL A   1      31.719  30.571  25.670  1.00  0.00     0.163 HD
ATOM     35  O   UNL A   1      32.373  32.144  27.479  1.00  0.00    -0.269 OA
BRANCH  33  36
ATOM     36  C   UNL A   1      34.299  30.807  27.704  1.00  0.00     0.039 A 
ATOM     37  C   UNL A   1      34.747  29.664  28.363  1.00  0.00     0.014 A 
ATOM     38  C   UNL A   1      35.178  31.862  27.680  1.00  0.00     0.014 A 
ATOM     39  C   UNL A   1      36.014  29.776  29.032  1.00  0.00     0.010 A 
ATOM     40  C   UNL A   1      36.483  31.563  27.682  1.00  0.00     0.010 A 
ATOM     41  C   UNL A   1      36.793  30.966  28.862  1.00  0.00    -0.014 A 
BRANCH  41  42
ATOM     42  C   UNL A   1      38.224  31.298  29.183  1.00  0.00     0.031 A 
ATOM     43  C   UNL A   1      38.948  29.949  28.830  1.00  0.00     0.074 A 
ATOM     44  C   UNL A   1      38.760  32.572  29.504  1.00  0.00     0.049 A 
ATOM     45  N   UNL A   1      39.125  28.986  29.689  1.00  0.00    -0.248 NA
ATOM     46  C   UNL A   1      39.044  29.349  27.442  1.00  0.00     0.031 C 
ATOM     47  C   UNL A   1      38.177  33.956  29.738  1.00  0.00     0.029 A 
ATOM     48  N   UNL A   1      40.093  32.929  29.801  1.00  0.00    -0.354 N 
ATOM     49  C   UNL A   1      39.850  27.996  29.021  1.00  0.00     0.074 A 
ATOM     50  C   UNL A   1      39.470  28.095  27.659  1.00  0.00     0.031 C 
ATOM     51  C   UNL A   1      39.142  34.941  29.785  1.00  0.00     0.029 A 
ATOM     52  C   UNL A   1      40.463  34.338  29.738  1.00  0.00     0.049 A 
ATOM     53  H   UNL A   1      40.758  32.245  30.044  1.00  0.00     0.167 HD
ATOM     54  C   UNL A   1      41.007  27.543  29.580  1.00  0.00     0.037 A 
ATOM     55  C   UNL A   1      41.714  34.941  29.962  1.00  0.00     0.037 A 
ATOM     56  C   UNL A   1      41.018  27.970  30.961  1.00  0.00     0.049 A 
ATOM     57  C   UNL A   1      42.526  33.868  30.609  1.00  0.00     0.074 A 
ATOM     58  C   UNL A   1      40.224  27.723  32.060  1.00  0.00     0.029 A 
ATOM     59  N   UNL A   1      41.529  29.231  31.109  1.00  0.00    -0.354 N 
ATOM     60  N   UNL A   1      42.216  33.421  31.801  1.00  0.00    -0.248 NA
ATOM     61  C   UNL A   1      43.101  32.911  29.666  1.00  0.00     0.031 C 
ATOM     62  C   UNL A   1      40.058  28.986  32.707  1.00  0.00     0.029 A 
ATOM     63  C   UNL A   1      40.910  29.915  32.113  1.00  0.00     0.049 A 
ATOM     64  H   UNL A   1      42.258  29.599  30.557  1.00  0.00     0.167 HD
ATOM     65  C   UNL A   1      42.071  32.055  31.614  1.00  0.00     0.074 A 
ATOM     66  C   UNL A   1      42.617  31.809  30.254  1.00  0.00     0.031 C 
ATOM     67  C   UNL A   1      41.185  31.312  32.360  1.00  0.00     0.037 A 
BRANCH  54  68
ATOM     68  C   UNL A   1      42.307  27.264  28.838  1.00  0.00     0.058 A 
ATOM     69  C   UNL A   1      42.849  28.308  28.063  1.00  0.00     0.135 A 
ATOM     70  C   UNL A   1      42.895  25.992  28.627  1.00  0.00     0.135 A 
ATOM     71  F   UNL A   1      42.368  29.556  28.176  1.00  0.00    -0.206 F 
ATOM     72  C   UNL A   1      43.864  28.108  27.127  1.00  0.00     0.059 A 
ATOM     73  C   UNL A   1      43.946  25.777  27.728  1.00  0.00     0.059 A 
ATOM     74  F   UNL A   1      42.441  24.887  29.232  1.00  0.00    -0.206 F 
ATOM     75  C   UNL A   1      44.417  26.842  26.975  1.00  0.00     0.060 A 
BRANCH  75  76
ATOM     76  S   UNL A   1      45.786  26.639  25.818  1.00  0.00     0.124 S 
ATOM     77  O   UNL A   1      46.938  26.616  26.712  1.00  0.00    -0.237 OA
ATOM     78  O   UNL A   1      45.445  25.368  25.185  1.00  0.00    -0.237 OA
ATOM     79  O   UNL A   1      45.678  27.811  24.955  1.00  0.00    -0.744 OA
ENDBRANCH  75  76
ENDBRANCH  54  68
BRANCH  55  80
ATOM     80  C   UNL A   1      42.435  36.079  29.193  1.00  0.00     0.058 A 
ATOM     81  C   UNL A   1      42.224  36.573  27.858  1.00  0.00     0.135 A 
ATOM     82  C   UNL A   1      43.225  36.929  29.975  1.00  0.00     0.135 A 
ATOM     83  F   UNL A   1      41.446  35.904  26.990  1.00  0.00    -0.206 F 
ATOM     84  C   UNL A   1      42.783  37.805  27.373  1.00  0.00     0.059 A 
ATOM     85  C   UNL A   1      43.767  38.141  29.528  1.00  0.00     0.059 A 
ATOM     86  F   UNL A   1      43.426  36.639  31.265  1.00  0.00    -0.206 F 
ATOM     87  C   UNL A   1      43.546  38.593  28.235  1.00  0.00     0.060 A 
BRANCH  87  88
ATOM     88  S   UNL A   1      44.185  40.240  27.765  1.00  0.00     0.124 S 
ATOM     89  O   UNL A   1      43.445  41.134  28.650  1.00  0.00    -0.237 OA
ATOM     90  O   UNL A   1      45.614  40.121  28.033  1.00  0.00    -0.237 OA
ATOM     91  O   UNL A   1      43.831  40.345  26.351  1.00  0.00    -0.744 OA
ENDBRANCH  87  88
ENDBRANCH  55  80
BRANCH  67  92
ATOM     92  C   UNL A   1      40.463  31.932  33.547  1.00  0.00     0.058 A 
ATOM     93  C   UNL A   1      39.119  32.367  33.604  1.00  0.00     0.135 A 
ATOM     94  C   UNL A   1      41.136  31.869  34.769  1.00  0.00     0.135 A 
ATOM     95  F   UNL A   1      38.327  32.304  32.529  1.00  0.00    -0.206 F 
ATOM     96  C   UNL A   1      38.513  32.794  34.800  1.00  0.00     0.059 A 
ATOM     97  C   UNL A   1      40.546  32.241  35.974  1.00  0.00     0.059 A 
ATOM     98  F   UNL A   1      42.372  31.347  34.817  1.00  0.00    -0.206 F 
ATOM     99  C   UNL A   1      39.244  32.730  35.984  1.00  0.00     0.060 A 
BRANCH  99 100
ATOM    100  S   UNL A   1      38.476  33.216  37.549  1.00  0.00     0.124 S 
ATOM    101  O   UNL A   1      39.129  32.324  38.502  1.00  0.00    -0.237 OA
ATOM    102  O   UNL A   1      38.837  34.627  37.653  1.00  0.00    -0.237 OA
ATOM    103  O   UNL A   1      37.056  32.958  37.327  1.00  0.00    -0.744 OA
ENDBRANCH  99 100
ENDBRANCH  67  92
ENDBRANCH  41  42
ENDBRANCH  33  36
ENDBRANCH  31  32
ENDBRANCH   1  31
TORSDOF 17
ENDMDL
MODEL 3
REMARK VINA RESULT:     -12.6      2.338      4.080
REMARK SMILES Cc1ncc(CO)c([C@H]2[NH2+][C@@H](C(=O)NCCCNC(=O)c3ccc(-c4c5nc(c(-c6c(F)cc(S(=O)(=O)[O-])cc6F)c6ccc([nH]6)c(-c6c(F)cc(S(=O)(=O)[O-])cc6F)c6nc(c(-c7c(F)cc(S(=O)(=O)[O-])cc7F)c7ccc4[nH]7)C=C6)C=C5)cc3)Cc3[nH]cnc32)c1O
REMARK SMILES IDX 16 1 15 2 14 3 12 4 13 5 11 7 9 8 10 9 92 10 88 13 91 14
REMARK SMILES IDX 87 15 89 16 90 17 8 19 1 20 2 21 3 22 93 23 4 24 5 25 94 26
REMARK SMILES IDX 6 28 7 29 17 31 18 32 19 33 20 35 21 36 22 37 86 38 23 39
REMARK SMILES IDX 85 40 24 41 25 42 26 43 79 44 27 45 84 46 78 47 80 48 28 49
REMARK SMILES IDX 83 50 77 51 76 52 29 54 63 55 42 56 62 57 43 58 46 59 61 60
REMARK SMILES IDX 81 61 44 62 45 63 60 65 82 66 47 67 30 68 31 69 40 70 32 71
REMARK SMILES IDX 33 72 39 73 41 74 34 75 35 76 36 77 37 78 38 79 64 80 65 81
REMARK SMILES IDX 74 82 66 83 67 84 73 85 75 86 68 87 69 88 70 89 71 90 72 91
REMARK SMILES IDX 48 92 49 93 58 94 50 95 51 96 57 97 59 98 52 99 53 100
REMARK SMILES IDX 54 101 55 102 56 103
REMARK H PARENT 14 6 10 11 10 12 89 18 94 27 7 30 18 34 80 53 46 64
REMARK Flexibility Score: inf
ROOT
ATOM      1  C   UNL A   1      34.158  31.138  27.319  1.00  0.00     0.042 C 
ENDROOT
BRANCH   1   2
ATOM      2  C   UNL A   1      33.773  29.865  26.581  1.00  0.00     0.118 C 
BRANCH   2   3
ATOM      3  N   UNL A   1      32.818  29.060  27.335  1.00  0.00    -0.351 N 
ATOM      4  C   UNL A   1      31.972  28.080  26.895  1.00  0.00     0.278 C 
ATOM      5  O   UNL A   1      31.210  27.534  27.686  1.00  0.00    -0.268 OA
ATOM      6  H   UNL A   1      32.777  29.248  28.301  1.00  0.00     0.163 HD
BRANCH   4   7
ATOM      7  C   UNL A   1      32.018  27.765  25.415  1.00  0.00     0.279 C 
ATOM      8  C   UNL A   1      30.747  27.742  23.415  1.00  0.00     0.270 C 
ATOM      9  N   UNL A   1      30.675  27.494  24.871  1.00  0.00    -0.324 N 
ATOM     10  C   UNL A   1      31.657  26.677  22.841  1.00  0.00     0.124 A 
ATOM     11  H   UNL A   1      30.411  26.525  25.050  1.00  0.00     0.347 HD
ATOM     12  H   UNL A   1      29.974  28.093  25.309  1.00  0.00     0.347 HD
ATOM     13  C   UNL A   1      32.752  26.271  23.622  1.00  0.00     0.051 A 
ATOM     14  N   UNL A   1      31.893  26.320  21.535  1.00  0.00    -0.235 NA
ATOM     15  C   UNL A   1      32.994  26.633  25.058  1.00  0.00     0.131 C 
ATOM     16  N   UNL A   1      33.619  25.639  22.793  1.00  0.00    -0.348 N 
ATOM     17  C   UNL A   1      33.051  25.677  21.548  1.00  0.00     0.197 A 
ATOM     18  H   UNL A   1      34.482  25.233  23.038  1.00  0.00     0.167 HD
BRANCH   8  19
ATOM     19  C   UNL A   1      29.452  28.368  22.968  1.00  0.00     0.066 A 
ATOM     20  C   UNL A   1      28.780  31.851  21.421  1.00  0.00     0.071 C 
ATOM     21  C   UNL A   1      28.553  30.483  22.011  1.00  0.00     0.079 A 
ATOM     22  N   UNL A   1      27.293  30.130  22.316  1.00  0.00    -0.257 NA
ATOM     23  C   UNL A   1      29.620  29.630  22.283  1.00  0.00     0.146 A 
ATOM     24  C   UNL A   1      27.125  28.943  22.955  1.00  0.00     0.118 A 
ATOM     25  C   UNL A   1      28.142  28.039  23.327  1.00  0.00     0.009 A 
BRANCH  23  26
ATOM     26  O   UNL A   1      30.855  30.147  21.943  1.00  0.00    -0.505 OA
ATOM     27  H   UNL A   1      31.095  30.233  21.042  1.00  0.00     0.293 HD
ENDBRANCH  23  26
BRANCH  25  28
ATOM     28  C   UNL A   1      27.731  26.822  24.097  1.00  0.00     0.194 C 
BRANCH  28  29
ATOM     29  O   UNL A   1      28.336  25.655  23.545  1.00  0.00    -0.392 OA
ATOM     30  H   UNL A   1      28.754  25.143  24.253  1.00  0.00     0.211 HD
ENDBRANCH  28  29
ENDBRANCH  25  28
ENDBRANCH   8  19
ENDBRANCH   4   7
ENDBRANCH   2   3
ENDBRANCH   1   2
BRANCH   1  31
ATOM     31  C   UNL A   1      35.410  30.916  28.129  1.00  0.00     0.118 C 
BRANCH  31  32
ATOM     32  N   UNL A   1      35.536  31.835  29.266  1.00  0.00    -0.352 N 
ATOM     33  C   UNL A   1      36.127  31.580  30.510  1.00  0.00     0.251 C 
ATOM     34  H   UNL A   1      35.162  32.737  29.139  1.00  0.00     0.163 HD
ATOM     35  O   UNL A   1      35.918  32.272  31.460  1.00  0.00    -0.269 OA
BRANCH  33  36
ATOM     36  C   UNL A   1      37.144  30.496  30.517  1.00  0.00     0.039 A 
ATOM     37  C   UNL A   1      37.009  29.170  30.919  1.00  0.00     0.014 A 
ATOM     38  C   UNL A   1      38.430  30.917  30.278  1.00  0.00     0.014 A 
ATOM     39  C   UNL A   1      38.233  28.451  31.147  1.00  0.00     0.010 A 
ATOM     40  C   UNL A   1      39.296  29.996  29.838  1.00  0.00     0.010 A 
ATOM     41  C   UNL A   1      39.481  29.068  30.812  1.00  0.00    -0.014 A 
BRANCH  41  42
ATOM     42  C   UNL A   1      40.877  28.527  30.673  1.00  0.00     0.031 A 
ATOM     43  C   UNL A   1      41.389  28.591  32.158  1.00  0.00     0.074 A 
ATOM     44  C   UNL A   1      41.457  27.926  29.526  1.00  0.00     0.049 A 
ATOM     45  N   UNL A   1      41.991  29.629  32.663  1.00  0.00    -0.248 NA
ATOM     46  C   UNL A   1      40.827  27.780  33.308  1.00  0.00     0.031 C 
ATOM     47  C   UNL A   1      41.010  27.694  28.092  1.00  0.00     0.029 A 
ATOM     48  N   UNL A   1      42.755  27.398  29.356  1.00  0.00    -0.354 N 
ATOM     49  C   UNL A   1      42.340  29.279  33.970  1.00  0.00     0.074 A 
ATOM     50  C   UNL A   1      41.348  28.361  34.400  1.00  0.00     0.031 C 
ATOM     51  C   UNL A   1      41.843  26.836  27.406  1.00  0.00     0.029 A 
ATOM     52  C   UNL A   1      42.999  26.513  28.223  1.00  0.00     0.049 A 
ATOM     53  H   UNL A   1      43.478  27.622  29.985  1.00  0.00     0.167 HD
ATOM     54  C   UNL A   1      43.638  29.416  34.359  1.00  0.00     0.037 A 
ATOM     55  C   UNL A   1      44.182  25.847  27.853  1.00  0.00     0.037 A 
ATOM     56  C   UNL A   1      44.297  30.258  33.386  1.00  0.00     0.049 A 
ATOM     57  C   UNL A   1      45.242  26.500  28.677  1.00  0.00     0.074 A 
ATOM     58  C   UNL A   1      44.139  31.559  32.961  1.00  0.00     0.029 A 
ATOM     59  N   UNL A   1      44.771  29.541  32.321  1.00  0.00    -0.354 N 
ATOM     60  N   UNL A   1      45.559  27.756  28.486  1.00  0.00    -0.248 NA
ATOM     61  C   UNL A   1      45.326  25.991  30.044  1.00  0.00     0.031 C 
ATOM     62  C   UNL A   1      44.260  31.517  31.538  1.00  0.00     0.029 A 
ATOM     63  C   UNL A   1      44.688  30.248  31.157  1.00  0.00     0.049 A 
ATOM     64  H   UNL A   1      45.131  28.626  32.387  1.00  0.00     0.167 HD
ATOM     65  C   UNL A   1      45.389  28.333  29.735  1.00  0.00     0.074 A 
ATOM     66  C   UNL A   1      45.222  27.179  30.656  1.00  0.00     0.031 C 
ATOM     67  C   UNL A   1      44.998  29.644  29.881  1.00  0.00     0.037 A 
BRANCH  54  68
ATOM     68  C   UNL A   1      44.430  28.419  35.193  1.00  0.00     0.058 A 
ATOM     69  C   UNL A   1      44.462  27.082  34.749  1.00  0.00     0.135 A 
ATOM     70  C   UNL A   1      44.921  28.626  36.506  1.00  0.00     0.135 A 
ATOM     71  F   UNL A   1      44.018  26.765  33.522  1.00  0.00    -0.206 F 
ATOM     72  C   UNL A   1      44.906  26.029  35.548  1.00  0.00     0.059 A 
ATOM     73  C   UNL A   1      45.416  27.591  37.308  1.00  0.00     0.059 A 
ATOM     74  F   UNL A   1      44.888  29.826  37.099  1.00  0.00    -0.206 F 
ATOM     75  C   UNL A   1      45.395  26.292  36.822  1.00  0.00     0.060 A 
BRANCH  75  76
ATOM     76  S   UNL A   1      46.041  24.917  37.793  1.00  0.00     0.124 S 
ATOM     77  O   UNL A   1      44.845  24.437  38.474  1.00  0.00    -0.237 OA
ATOM     78  O   UNL A   1      46.572  24.048  36.747  1.00  0.00    -0.237 OA
ATOM     79  O   UNL A   1      47.046  25.546  38.645  1.00  0.00    -0.744 OA
ENDBRANCH  75  76
ENDBRANCH  54  68
BRANCH  55  80
ATOM     80  C   UNL A   1      44.403  24.401  27.338  1.00  0.00     0.058 A 
ATOM     81  C   UNL A   1      43.501  23.281  27.305  1.00  0.00     0.135 A 
ATOM     82  C   UNL A   1      45.547  24.208  26.555  1.00  0.00     0.135 A 
ATOM     83  F   UNL A   1      42.328  23.320  27.962  1.00  0.00    -0.206 F 
ATOM     84  C   UNL A   1      43.756  22.081  26.557  1.00  0.00     0.059 A 
ATOM     85  C   UNL A   1      45.809  23.054  25.806  1.00  0.00     0.059 A 
ATOM     86  F   UNL A   1      46.428  25.205  26.419  1.00  0.00    -0.206 F 
ATOM     87  C   UNL A   1      44.919  21.989  25.792  1.00  0.00     0.060 A 
BRANCH  87  88
ATOM     88  S   UNL A   1      45.275  20.569  24.696  1.00  0.00     0.124 S 
ATOM     89  O   UNL A   1      44.606  19.466  25.377  1.00  0.00    -0.237 OA
ATOM     90  O   UNL A   1      44.687  20.985  23.428  1.00  0.00    -0.237 OA
ATOM     91  O   UNL A   1      46.735  20.499  24.704  1.00  0.00    -0.744 OA
ENDBRANCH  87  88
ENDBRANCH  55  80
BRANCH  67  92
ATOM     92  C   UNL A   1      44.914  30.565  28.672  1.00  0.00     0.058 A 
ATOM     93  C   UNL A   1      43.753  30.957  27.969  1.00  0.00     0.135 A 
ATOM     94  C   UNL A   1      46.083  31.263  28.357  1.00  0.00     0.135 A 
ATOM     95  F   UNL A   1      42.549  30.483  28.306  1.00  0.00    -0.206 F 
ATOM     96  C   UNL A   1      43.776  31.930  26.952  1.00  0.00     0.059 A 
ATOM     97  C   UNL A   1      46.125  32.262  27.388  1.00  0.00     0.059 A 
ATOM     98  F   UNL A   1      47.199  31.039  29.068  1.00  0.00    -0.206 F 
ATOM     99  C   UNL A   1      44.977  32.574  26.667  1.00  0.00     0.060 A 
BRANCH  99 100
ATOM    100  S   UNL A   1      45.031  33.871  25.406  1.00  0.00     0.124 S 
ATOM    101  O   UNL A   1      44.189  34.907  25.993  1.00  0.00    -0.237 OA
ATOM    102  O   UNL A   1      46.457  34.180  25.332  1.00  0.00    -0.237 OA
ATOM    103  O   UNL A   1      44.481  33.218  24.221  1.00  0.00    -0.744 OA
ENDBRANCH  99 100
ENDBRANCH  67  92
ENDBRANCH  41  42
ENDBRANCH  33  36
ENDBRANCH  31  32
ENDBRANCH   1  31
TORSDOF 17
ENDMDL
