MODEL 1
REMARK VINA RESULT:     -13.0      0.000      0.000
REMARK SMILES Cc1cscc1C(=O)N1Cc2nc[nH]c2C[C@H]1C(=O)NCCCNC(=O)c1ccc(-c2c3nc(c(-c4c(F)cc(S(=O)(=O)[O-])cc4F)c4ccc([nH]4)c(-c4c(F)cc(S(=O)(=O)[O-])cc4F)c4nc(c(-c5c(F)cc(S(=O)(=O)[O-])cc5F)c5ccc2[nH]5)C=C4)C=C3)cc1
REMARK SMILES IDX 22 1 21 2 20 3 18 4 19 5 17 7 9 8 10 9 11 10 16 11 12 12
REMARK SMILES IDX 15 13 13 14 14 15 7 17 8 18 6 19 1 20 2 21 3 22 4 23 5 24
REMARK SMILES IDX 23 25 24 26 25 27 26 29 27 30 28 31 92 32 29 33 91 34 30 35
REMARK SMILES IDX 31 36 32 37 85 38 33 39 90 40 84 41 86 42 34 43 89 44 83 45
REMARK SMILES IDX 82 46 35 48 69 49 48 50 68 51 49 52 52 53 67 54 87 55 50 56
REMARK SMILES IDX 51 57 66 59 88 60 53 61 36 62 37 63 46 64 38 65 39 66 45 67
REMARK SMILES IDX 47 68 40 69 41 70 42 71 43 72 44 73 70 74 71 75 80 76 72 77
REMARK SMILES IDX 73 78 79 79 81 80 74 81 75 82 76 83 77 84 78 85 54 86 55 87
REMARK SMILES IDX 64 88 56 89 57 90 63 91 65 92 58 93 59 94 60 95 61 96 62 97
REMARK H PARENT 20 6 14 16 24 28 86 47 52 58
REMARK Flexibility Score: inf
ROOT
ATOM      1  C   UNL A   1      36.507  22.428  24.746  1.00  0.00     0.042 C 
ENDROOT
BRANCH   1   2
ATOM      2  C   UNL A   1      36.247  23.197  23.454  1.00  0.00     0.117 C 
BRANCH   2   3
ATOM      3  N   UNL A   1      34.836  23.388  23.150  1.00  0.00    -0.354 N 
ATOM      4  C   UNL A   1      34.096  24.530  23.194  1.00  0.00     0.243 C 
ATOM      5  O   UNL A   1      33.491  24.803  22.146  1.00  0.00    -0.273 OA
ATOM      6  H   UNL A   1      34.349  22.579  22.875  1.00  0.00     0.163 HD
BRANCH   4   7
ATOM      7  C   UNL A   1      34.044  25.553  24.367  1.00  0.00     0.181 C 
ATOM      8  N   UNL A   1      33.125  26.742  24.345  1.00  0.00    -0.320 N 
ATOM      9  C   UNL A   1      31.722  26.585  24.796  1.00  0.00     0.178 C 
ATOM     10  C   UNL A   1      31.555  25.424  25.705  1.00  0.00     0.081 A 
ATOM     11  C   UNL A   1      33.990  24.764  25.715  1.00  0.00     0.091 C 
ATOM     12  N   UNL A   1      30.348  24.917  26.113  1.00  0.00    -0.240 NA
ATOM     13  C   UNL A   1      32.578  24.607  26.121  1.00  0.00     0.042 A 
ATOM     14  C   UNL A   1      30.639  23.816  26.771  1.00  0.00     0.197 A 
ATOM     15  N   UNL A   1      31.991  23.596  26.823  1.00  0.00    -0.348 N 
ATOM     16  H   UNL A   1      32.450  22.852  27.279  1.00  0.00     0.167 HD
BRANCH   8  17
ATOM     17  C   UNL A   1      33.580  28.069  24.391  1.00  0.00     0.256 C 
ATOM     18  O   UNL A   1      34.330  28.460  23.490  1.00  0.00    -0.269 OA
BRANCH  17  19
ATOM     19  C   UNL A   1      33.259  29.026  25.478  1.00  0.00     0.053 A 
ATOM     20  C   UNL A   1      35.241  29.015  27.242  1.00  0.00     0.046 C 
ATOM     21  C   UNL A   1      33.943  29.473  26.682  1.00  0.00    -0.028 A 
ATOM     22  C   UNL A   1      33.243  30.489  27.321  1.00  0.00     0.069 A 
ATOM     23  S   UNL A   1      31.826  30.953  26.514  1.00  0.00    -0.151 S 
ATOM     24  C   UNL A   1      32.110  29.798  25.303  1.00  0.00     0.079 A 
ENDBRANCH  17  19
ENDBRANCH   8  17
ENDBRANCH   4   7
ENDBRANCH   2   3
ENDBRANCH   1   2
BRANCH   1  25
ATOM     25  C   UNL A   1      37.518  23.093  25.658  1.00  0.00     0.118 C 
BRANCH  25  26
ATOM     26  N   UNL A   1      38.387  22.140  26.353  1.00  0.00    -0.352 N 
ATOM     27  C   UNL A   1      39.658  22.373  26.857  1.00  0.00     0.251 C 
ATOM     28  H   UNL A   1      38.028  21.231  26.475  1.00  0.00     0.163 HD
ATOM     29  O   UNL A   1      40.416  21.463  27.136  1.00  0.00    -0.269 OA
BRANCH  27  30
ATOM     30  C   UNL A   1      40.060  23.783  27.022  1.00  0.00     0.039 A 
ATOM     31  C   UNL A   1      39.116  24.810  26.992  1.00  0.00     0.014 A 
ATOM     32  C   UNL A   1      41.368  24.012  27.427  1.00  0.00     0.014 A 
ATOM     33  C   UNL A   1      39.467  26.059  27.507  1.00  0.00     0.010 A 
ATOM     34  C   UNL A   1      41.643  25.180  28.096  1.00  0.00     0.010 A 
ATOM     35  C   UNL A   1      40.722  26.231  28.109  1.00  0.00    -0.014 A 
BRANCH  35  36
ATOM     36  C   UNL A   1      41.045  27.451  28.863  1.00  0.00     0.031 A 
ATOM     37  C   UNL A   1      42.137  28.321  28.319  1.00  0.00     0.074 A 
ATOM     38  C   UNL A   1      40.243  27.921  29.845  1.00  0.00     0.049 A 
ATOM     39  N   UNL A   1      43.226  28.698  28.910  1.00  0.00    -0.248 NA
ATOM     40  C   UNL A   1      42.045  28.775  26.921  1.00  0.00     0.031 C 
ATOM     41  C   UNL A   1      38.975  27.356  30.331  1.00  0.00     0.029 A 
ATOM     42  N   UNL A   1      40.314  29.100  30.522  1.00  0.00    -0.354 N 
ATOM     43  C   UNL A   1      43.864  29.590  28.044  1.00  0.00     0.074 A 
ATOM     44  C   UNL A   1      43.171  29.481  26.786  1.00  0.00     0.031 C 
ATOM     45  C   UNL A   1      38.278  28.305  30.988  1.00  0.00     0.029 A 
ATOM     46  C   UNL A   1      39.129  29.467  31.147  1.00  0.00     0.049 A 
ATOM     47  H   UNL A   1      41.134  29.645  30.564  1.00  0.00     0.167 HD
ATOM     48  C   UNL A   1      44.789  30.492  28.483  1.00  0.00     0.037 A 
ATOM     49  C   UNL A   1      38.842  30.647  31.744  1.00  0.00     0.037 A 
ATOM     50  C   UNL A   1      45.257  30.162  29.806  1.00  0.00     0.049 A 
ATOM     51  C   UNL A   1      40.137  31.279  32.093  1.00  0.00     0.074 A 
ATOM     52  C   UNL A   1      45.882  29.068  30.372  1.00  0.00     0.029 A 
ATOM     53  N   UNL A   1      44.779  30.901  30.862  1.00  0.00    -0.354 N 
ATOM     54  N   UNL A   1      40.968  30.791  32.974  1.00  0.00    -0.248 NA
ATOM     55  C   UNL A   1      40.718  32.223  31.151  1.00  0.00     0.031 C 
ATOM     56  C   UNL A   1      45.310  28.949  31.672  1.00  0.00     0.029 A 
ATOM     57  C   UNL A   1      44.419  30.010  31.841  1.00  0.00     0.049 A 
ATOM     58  H   UNL A   1      44.709  31.881  30.907  1.00  0.00     0.167 HD
ATOM     59  C   UNL A   1      42.227  31.016  32.440  1.00  0.00     0.074 A 
ATOM     60  C   UNL A   1      42.015  32.001  31.382  1.00  0.00     0.031 C 
ATOM     61  C   UNL A   1      43.274  30.180  32.710  1.00  0.00     0.037 A 
BRANCH  48  62
ATOM     62  C   UNL A   1      45.042  31.856  27.874  1.00  0.00     0.058 A 
ATOM     63  C   UNL A   1      46.308  32.150  27.319  1.00  0.00     0.135 A 
ATOM     64  C   UNL A   1      44.196  32.968  28.073  1.00  0.00     0.135 A 
ATOM     65  F   UNL A   1      47.197  31.171  27.084  1.00  0.00    -0.206 F 
ATOM     66  C   UNL A   1      46.733  33.457  27.069  1.00  0.00     0.059 A 
ATOM     67  C   UNL A   1      44.580  34.274  27.779  1.00  0.00     0.059 A 
ATOM     68  F   UNL A   1      42.998  32.855  28.658  1.00  0.00    -0.206 F 
ATOM     69  C   UNL A   1      45.867  34.515  27.327  1.00  0.00     0.060 A 
BRANCH  69  70
ATOM     70  S   UNL A   1      46.456  36.209  27.149  1.00  0.00     0.124 S 
ATOM     71  O   UNL A   1      47.184  36.128  25.887  1.00  0.00    -0.237 OA
ATOM     72  O   UNL A   1      45.209  36.967  27.119  1.00  0.00    -0.237 OA
ATOM     73  O   UNL A   1      47.275  36.405  28.340  1.00  0.00    -0.744 OA
ENDBRANCH  69  70
ENDBRANCH  48  62
BRANCH  49  74
ATOM     74  C   UNL A   1      37.534  31.346  31.799  1.00  0.00     0.058 A 
ATOM     75  C   UNL A   1      36.904  31.621  33.024  1.00  0.00     0.135 A 
ATOM     76  C   UNL A   1      36.993  31.989  30.664  1.00  0.00     0.135 A 
ATOM     77  F   UNL A   1      37.362  31.068  34.157  1.00  0.00    -0.206 F 
ATOM     78  C   UNL A   1      35.835  32.518  33.127  1.00  0.00     0.059 A 
ATOM     79  C   UNL A   1      35.918  32.873  30.741  1.00  0.00     0.059 A 
ATOM     80  F   UNL A   1      37.553  31.850  29.454  1.00  0.00    -0.206 F 
ATOM     81  C   UNL A   1      35.362  33.156  31.981  1.00  0.00     0.060 A 
BRANCH  81  82
ATOM     82  S   UNL A   1      34.117  34.458  32.135  1.00  0.00     0.124 S 
ATOM     83  O   UNL A   1      34.904  35.569  32.655  1.00  0.00    -0.237 OA
ATOM     84  O   UNL A   1      33.645  34.596  30.762  1.00  0.00    -0.237 OA
ATOM     85  O   UNL A   1      33.147  33.887  33.067  1.00  0.00    -0.744 OA
ENDBRANCH  81  82
ENDBRANCH  49  74
BRANCH  61  86
ATOM     86  C   UNL A   1      43.126  29.179  33.830  1.00  0.00     0.058 A 
ATOM     87  C   UNL A   1      43.330  29.476  35.189  1.00  0.00     0.135 A 
ATOM     88  C   UNL A   1      42.592  27.916  33.529  1.00  0.00     0.135 A 
ATOM     89  F   UNL A   1      43.730  30.692  35.578  1.00  0.00    -0.206 F 
ATOM     90  C   UNL A   1      43.056  28.551  36.198  1.00  0.00     0.059 A 
ATOM     91  C   UNL A   1      42.282  26.988  34.521  1.00  0.00     0.059 A 
ATOM     92  F   UNL A   1      42.310  27.593  32.257  1.00  0.00    -0.206 F 
ATOM     93  C   UNL A   1      42.530  27.308  35.854  1.00  0.00     0.060 A 
BRANCH  93  94
ATOM     94  S   UNL A   1      42.094  26.149  37.168  1.00  0.00     0.124 S 
ATOM     95  O   UNL A   1      42.286  24.859  36.514  1.00  0.00    -0.237 OA
ATOM     96  O   UNL A   1      43.057  26.476  38.216  1.00  0.00    -0.237 OA
ATOM     97  O   UNL A   1      40.708  26.491  37.479  1.00  0.00    -0.744 OA
ENDBRANCH  93  94
ENDBRANCH  61  86
ENDBRANCH  35  36
ENDBRANCH  27  30
ENDBRANCH  25  26
ENDBRANCH   1  25
TORSDOF 15
ENDMDL
MODEL 2
REMARK VINA RESULT:     -13.0      3.094      9.312
REMARK SMILES Cc1cscc1C(=O)N1Cc2nc[nH]c2C[C@H]1C(=O)NCCCNC(=O)c1ccc(-c2c3nc(c(-c4c(F)cc(S(=O)(=O)[O-])cc4F)c4ccc([nH]4)c(-c4c(F)cc(S(=O)(=O)[O-])cc4F)c4nc(c(-c5c(F)cc(S(=O)(=O)[O-])cc5F)c5ccc2[nH]5)C=C4)C=C3)cc1
REMARK SMILES IDX 22 1 21 2 20 3 18 4 19 5 17 7 9 8 10 9 11 10 16 11 12 12
REMARK SMILES IDX 15 13 13 14 14 15 7 17 8 18 6 19 1 20 2 21 3 22 4 23 5 24
REMARK SMILES IDX 23 25 24 26 25 27 26 29 27 30 28 31 92 32 29 33 91 34 30 35
REMARK SMILES IDX 31 36 32 37 85 38 33 39 90 40 84 41 86 42 34 43 89 44 83 45
REMARK SMILES IDX 82 46 35 48 69 49 48 50 68 51 49 52 52 53 67 54 87 55 50 56
REMARK SMILES IDX 51 57 66 59 88 60 53 61 36 62 37 63 46 64 38 65 39 66 45 67
REMARK SMILES IDX 47 68 40 69 41 70 42 71 43 72 44 73 70 74 71 75 80 76 72 77
REMARK SMILES IDX 73 78 79 79 81 80 74 81 75 82 76 83 77 84 78 85 54 86 55 87
REMARK SMILES IDX 64 88 56 89 57 90 63 91 65 92 58 93 59 94 60 95 61 96 62 97
REMARK H PARENT 20 6 14 16 24 28 86 47 52 58
REMARK Flexibility Score: inf
ROOT
ATOM      1  C   UNL A   1      32.160  29.277  27.134  1.00  0.00     0.042 C 
ENDROOT
BRANCH   1   2
ATOM      2  C   UNL A   1      31.686  27.957  27.735  1.00  0.00     0.117 C 
BRANCH   2   3
ATOM      3  N   UNL A   1      31.191  27.002  26.754  1.00  0.00    -0.354 N 
ATOM      4  C   UNL A   1      31.656  25.757  26.458  1.00  0.00     0.243 C 
ATOM      5  O   UNL A   1      30.809  24.853  26.517  1.00  0.00    -0.273 OA
ATOM      6  H   UNL A   1      30.411  27.297  26.232  1.00  0.00     0.163 HD
BRANCH   4   7
ATOM      7  C   UNL A   1      33.137  25.367  26.180  1.00  0.00     0.181 C 
ATOM      8  N   UNL A   1      33.522  23.994  25.703  1.00  0.00    -0.320 N 
ATOM      9  C   UNL A   1      33.466  23.683  24.256  1.00  0.00     0.178 C 
ATOM     10  C   UNL A   1      33.556  24.907  23.420  1.00  0.00     0.081 A 
ATOM     11  C   UNL A   1      33.808  26.510  25.351  1.00  0.00     0.091 C 
ATOM     12  N   UNL A   1      33.329  24.948  22.069  1.00  0.00    -0.240 NA
ATOM     13  C   UNL A   1      33.713  26.178  23.915  1.00  0.00     0.042 A 
ATOM     14  C   UNL A   1      33.356  26.225  21.751  1.00  0.00     0.197 A 
ATOM     15  N   UNL A   1      33.611  27.015  22.842  1.00  0.00    -0.348 N 
ATOM     16  H   UNL A   1      33.702  27.996  22.851  1.00  0.00     0.167 HD
BRANCH   8  17
ATOM     17  C   UNL A   1      34.369  23.137  26.425  1.00  0.00     0.256 C 
ATOM     18  O   UNL A   1      34.134  22.959  27.626  1.00  0.00    -0.269 OA
BRANCH  17  19
ATOM     19  C   UNL A   1      35.560  22.464  25.855  1.00  0.00     0.053 A 
ATOM     20  C   UNL A   1      37.642  24.098  26.044  1.00  0.00     0.046 C 
ATOM     21  C   UNL A   1      36.962  22.822  25.699  1.00  0.00    -0.028 A 
ATOM     22  C   UNL A   1      37.706  21.769  25.184  1.00  0.00     0.069 A 
ATOM     23  S   UNL A   1      36.802  20.359  24.920  1.00  0.00    -0.151 S 
ATOM     24  C   UNL A   1      35.396  21.131  25.475  1.00  0.00     0.079 A 
ENDBRANCH  17  19
ENDBRANCH   8  17
ENDBRANCH   4   7
ENDBRANCH   2   3
ENDBRANCH   1   2
BRANCH   1  25
ATOM     25  C   UNL A   1      33.626  29.568  27.382  1.00  0.00     0.118 C 
BRANCH  25  26
ATOM     26  N   UNL A   1      33.999  30.955  27.091  1.00  0.00    -0.352 N 
ATOM     27  C   UNL A   1      35.058  31.672  27.630  1.00  0.00     0.251 C 
ATOM     28  H   UNL A   1      33.434  31.432  26.441  1.00  0.00     0.163 HD
ATOM     29  O   UNL A   1      35.109  32.886  27.570  1.00  0.00    -0.269 OA
BRANCH  27  30
ATOM     30  C   UNL A   1      36.116  30.893  28.300  1.00  0.00     0.039 A 
ATOM     31  C   UNL A   1      36.524  29.654  27.803  1.00  0.00     0.014 A 
ATOM     32  C   UNL A   1      36.829  31.543  29.298  1.00  0.00     0.014 A 
ATOM     33  C   UNL A   1      37.745  29.129  28.229  1.00  0.00     0.010 A 
ATOM     34  C   UNL A   1      38.105  31.112  29.569  1.00  0.00     0.010 A 
ATOM     35  C   UNL A   1      38.565  29.887  29.079  1.00  0.00    -0.014 A 
BRANCH  35  36
ATOM     36  C   UNL A   1      39.947  29.479  29.367  1.00  0.00     0.031 A 
ATOM     37  C   UNL A   1      40.297  29.217  30.801  1.00  0.00     0.074 A 
ATOM     38  C   UNL A   1      40.802  29.098  28.390  1.00  0.00     0.049 A 
ATOM     39  N   UNL A   1      41.223  29.778  31.511  1.00  0.00    -0.248 NA
ATOM     40  C   UNL A   1      39.474  28.264  31.564  1.00  0.00     0.031 C 
ATOM     41  C   UNL A   1      40.550  29.017  26.944  1.00  0.00     0.029 A 
ATOM     42  N   UNL A   1      42.043  28.552  28.501  1.00  0.00    -0.354 N 
ATOM     43  C   UNL A   1      41.236  29.121  32.744  1.00  0.00     0.074 A 
ATOM     44  C   UNL A   1      40.048  28.307  32.769  1.00  0.00     0.031 C 
ATOM     45  C   UNL A   1      41.464  28.211  26.369  1.00  0.00     0.029 A 
ATOM     46  C   UNL A   1      42.475  27.891  27.357  1.00  0.00     0.049 A 
ATOM     47  H   UNL A   1      42.588  28.619  29.319  1.00  0.00     0.167 HD
ATOM     48  C   UNL A   1      42.324  29.146  33.569  1.00  0.00     0.037 A 
ATOM     49  C   UNL A   1      43.575  27.115  27.217  1.00  0.00     0.037 A 
ATOM     50  C   UNL A   1      43.248  30.183  33.187  1.00  0.00     0.049 A 
ATOM     51  C   UNL A   1      44.514  27.504  28.297  1.00  0.00     0.074 A 
ATOM     52  C   UNL A   1      43.170  31.556  33.054  1.00  0.00     0.029 A 
ATOM     53  N   UNL A   1      44.394  29.813  32.523  1.00  0.00    -0.354 N 
ATOM     54  N   UNL A   1      45.088  28.674  28.373  1.00  0.00    -0.248 NA
ATOM     55  C   UNL A   1      44.488  26.746  29.539  1.00  0.00     0.031 C 
ATOM     56  C   UNL A   1      43.968  31.861  31.913  1.00  0.00     0.029 A 
ATOM     57  C   UNL A   1      44.531  30.668  31.459  1.00  0.00     0.049 A 
ATOM     58  H   UNL A   1      45.000  29.076  32.765  1.00  0.00     0.167 HD
ATOM     59  C   UNL A   1      45.097  28.979  29.725  1.00  0.00     0.074 A 
ATOM     60  C   UNL A   1      44.826  27.711  30.398  1.00  0.00     0.031 C 
ATOM     61  C   UNL A   1      45.042  30.274  30.163  1.00  0.00     0.037 A 
BRANCH  48  62
ATOM     62  C   UNL A   1      42.728  28.038  34.519  1.00  0.00     0.058 A 
ATOM     63  C   UNL A   1      42.882  28.318  35.896  1.00  0.00     0.135 A 
ATOM     64  C   UNL A   1      43.250  26.797  34.094  1.00  0.00     0.135 A 
ATOM     65  F   UNL A   1      42.424  29.469  36.415  1.00  0.00    -0.206 F 
ATOM     66  C   UNL A   1      43.580  27.473  36.762  1.00  0.00     0.059 A 
ATOM     67  C   UNL A   1      43.901  25.914  34.952  1.00  0.00     0.059 A 
ATOM     68  F   UNL A   1      43.246  26.427  32.808  1.00  0.00    -0.206 F 
ATOM     69  C   UNL A   1      44.108  26.283  36.271  1.00  0.00     0.060 A 
BRANCH  69  70
ATOM     70  S   UNL A   1      45.135  25.258  37.341  1.00  0.00     0.124 S 
ATOM     71  O   UNL A   1      46.399  25.986  37.307  1.00  0.00    -0.237 OA
ATOM     72  O   UNL A   1      44.405  25.303  38.604  1.00  0.00    -0.237 OA
ATOM     73  O   UNL A   1      45.132  23.964  36.667  1.00  0.00    -0.744 OA
ENDBRANCH  69  70
ENDBRANCH  48  62
BRANCH  49  74
ATOM     74  C   UNL A   1      43.740  25.912  26.364  1.00  0.00     0.058 A 
ATOM     75  C   UNL A   1      44.844  25.769  25.508  1.00  0.00     0.135 A 
ATOM     76  C   UNL A   1      42.950  24.757  26.558  1.00  0.00     0.135 A 
ATOM     77  F   UNL A   1      45.660  26.810  25.281  1.00  0.00    -0.206 F 
ATOM     78  C   UNL A   1      45.177  24.545  24.920  1.00  0.00     0.059 A 
ATOM     79  C   UNL A   1      43.253  23.531  25.969  1.00  0.00     0.059 A 
ATOM     80  F   UNL A   1      41.909  24.761  27.403  1.00  0.00    -0.206 F 
ATOM     81  C   UNL A   1      44.386  23.424  25.173  1.00  0.00     0.060 A 
BRANCH  81  82
ATOM     82  S   UNL A   1      44.919  21.804  24.577  1.00  0.00     0.124 S 
ATOM     83  O   UNL A   1      44.194  20.902  25.463  1.00  0.00    -0.237 OA
ATOM     84  O   UNL A   1      44.477  21.826  23.187  1.00  0.00    -0.237 OA
ATOM     85  O   UNL A   1      46.368  21.835  24.765  1.00  0.00    -0.744 OA
ENDBRANCH  81  82
ENDBRANCH  49  74
BRANCH  61  86
ATOM     86  C   UNL A   1      45.269  31.382  29.164  1.00  0.00     0.058 A 
ATOM     87  C   UNL A   1      46.538  31.828  28.753  1.00  0.00     0.135 A 
ATOM     88  C   UNL A   1      44.161  31.893  28.472  1.00  0.00     0.135 A 
ATOM     89  F   UNL A   1      47.656  31.314  29.279  1.00  0.00    -0.206 F 
ATOM     90  C   UNL A   1      46.697  32.768  27.733  1.00  0.00     0.059 A 
ATOM     91  C   UNL A   1      44.297  32.808  27.430  1.00  0.00     0.059 A 
ATOM     92  F   UNL A   1      42.925  31.458  28.768  1.00  0.00    -0.206 F 
ATOM     93  C   UNL A   1      45.569  33.251  27.074  1.00  0.00     0.060 A 
BRANCH  93  94
ATOM     94  S   UNL A   1      45.785  34.398  25.697  1.00  0.00     0.124 S 
ATOM     95  O   UNL A   1      44.921  33.816  24.676  1.00  0.00    -0.237 OA
ATOM     96  O   UNL A   1      45.331  35.666  26.262  1.00  0.00    -0.237 OA
ATOM     97  O   UNL A   1      47.217  34.329  25.417  1.00  0.00    -0.744 OA
ENDBRANCH  93  94
ENDBRANCH  61  86
ENDBRANCH  35  36
ENDBRANCH  27  30
ENDBRANCH  25  26
ENDBRANCH   1  25
TORSDOF 15
ENDMDL
MODEL 3
REMARK VINA RESULT:     -12.8      3.015      9.130
REMARK SMILES Cc1cscc1C(=O)N1Cc2nc[nH]c2C[C@H]1C(=O)NCCCNC(=O)c1ccc(-c2c3nc(c(-c4c(F)cc(S(=O)(=O)[O-])cc4F)c4ccc([nH]4)c(-c4c(F)cc(S(=O)(=O)[O-])cc4F)c4nc(c(-c5c(F)cc(S(=O)(=O)[O-])cc5F)c5ccc2[nH]5)C=C4)C=C3)cc1
REMARK SMILES IDX 22 1 21 2 20 3 18 4 19 5 17 7 9 8 10 9 11 10 16 11 12 12
REMARK SMILES IDX 15 13 13 14 14 15 7 17 8 18 6 19 1 20 2 21 3 22 4 23 5 24
REMARK SMILES IDX 23 25 24 26 25 27 26 29 27 30 28 31 92 32 29 33 91 34 30 35
REMARK SMILES IDX 31 36 32 37 85 38 33 39 90 40 84 41 86 42 34 43 89 44 83 45
REMARK SMILES IDX 82 46 35 48 69 49 48 50 68 51 49 52 52 53 67 54 87 55 50 56
REMARK SMILES IDX 51 57 66 59 88 60 53 61 36 62 37 63 46 64 38 65 39 66 45 67
REMARK SMILES IDX 47 68 40 69 41 70 42 71 43 72 44 73 70 74 71 75 80 76 72 77
REMARK SMILES IDX 73 78 79 79 81 80 74 81 75 82 76 83 77 84 78 85 54 86 55 87
REMARK SMILES IDX 64 88 56 89 57 90 63 91 65 92 58 93 59 94 60 95 61 96 62 97
REMARK H PARENT 20 6 14 16 24 28 86 47 52 58
REMARK Flexibility Score: inf
ROOT
ATOM      1  C   UNL A   1      32.114  29.665  27.004  1.00  0.00     0.042 C 
ENDROOT
BRANCH   1   2
ATOM      2  C   UNL A   1      31.480  28.440  27.658  1.00  0.00     0.117 C 
BRANCH   2   3
ATOM      3  N   UNL A   1      32.158  27.188  27.355  1.00  0.00    -0.354 N 
ATOM      4  C   UNL A   1      32.016  26.375  26.273  1.00  0.00     0.243 C 
ATOM      5  O   UNL A   1      33.069  26.113  25.672  1.00  0.00    -0.273 OA
ATOM      6  H   UNL A   1      32.812  26.888  28.027  1.00  0.00     0.163 HD
BRANCH   4   7
ATOM      7  C   UNL A   1      30.674  25.862  25.673  1.00  0.00     0.181 C 
ATOM      8  N   UNL A   1      30.316  26.072  24.228  1.00  0.00    -0.320 N 
ATOM      9  C   UNL A   1      30.808  25.115  23.210  1.00  0.00     0.178 C 
ATOM     10  C   UNL A   1      31.133  23.792  23.800  1.00  0.00     0.081 A 
ATOM     11  C   UNL A   1      30.442  24.392  26.151  1.00  0.00     0.091 C 
ATOM     12  N   UNL A   1      31.793  22.785  23.145  1.00  0.00    -0.240 NA
ATOM     13  C   UNL A   1      30.964  23.468  25.124  1.00  0.00     0.042 A 
ATOM     14  C   UNL A   1      32.012  21.863  24.058  1.00  0.00     0.197 A 
ATOM     15  N   UNL A   1      31.504  22.224  25.279  1.00  0.00    -0.348 N 
ATOM     16  H   UNL A   1      31.524  21.691  26.107  1.00  0.00     0.167 HD
BRANCH   8  17
ATOM     17  C   UNL A   1      29.191  26.800  23.810  1.00  0.00     0.256 C 
ATOM     18  O   UNL A   1      28.075  26.289  23.962  1.00  0.00    -0.269 OA
BRANCH  17  19
ATOM     19  C   UNL A   1      29.250  28.128  23.153  1.00  0.00     0.053 A 
ATOM     20  C   UNL A   1      31.791  28.757  22.719  1.00  0.00     0.046 C 
ATOM     21  C   UNL A   1      30.322  28.975  22.653  1.00  0.00    -0.028 A 
ATOM     22  C   UNL A   1      29.827  30.104  22.012  1.00  0.00     0.069 A 
ATOM     23  S   UNL A   1      28.134  30.165  21.950  1.00  0.00    -0.151 S 
ATOM     24  C   UNL A   1      28.028  28.694  22.790  1.00  0.00     0.079 A 
ENDBRANCH  17  19
ENDBRANCH   8  17
ENDBRANCH   4   7
ENDBRANCH   2   3
ENDBRANCH   1   2
BRANCH   1  25
ATOM     25  C   UNL A   1      33.532  29.936  27.466  1.00  0.00     0.118 C 
BRANCH  25  26
ATOM     26  N   UNL A   1      33.992  31.293  27.157  1.00  0.00    -0.352 N 
ATOM     27  C   UNL A   1      35.136  31.920  27.629  1.00  0.00     0.251 C 
ATOM     28  H   UNL A   1      33.425  31.818  26.547  1.00  0.00     0.163 HD
ATOM     29  O   UNL A   1      35.278  33.127  27.570  1.00  0.00    -0.269 OA
BRANCH  27  30
ATOM     30  C   UNL A   1      36.172  31.055  28.224  1.00  0.00     0.039 A 
ATOM     31  C   UNL A   1      36.600  29.894  27.578  1.00  0.00     0.014 A 
ATOM     32  C   UNL A   1      36.847  31.563  29.325  1.00  0.00     0.014 A 
ATOM     33  C   UNL A   1      37.806  29.313  27.973  1.00  0.00     0.010 A 
ATOM     34  C   UNL A   1      38.114  31.096  29.580  1.00  0.00     0.010 A 
ATOM     35  C   UNL A   1      38.594  29.947  28.946  1.00  0.00    -0.014 A 
BRANCH  35  36
ATOM     36  C   UNL A   1      39.966  29.500  29.225  1.00  0.00     0.031 A 
ATOM     37  C   UNL A   1      40.356  29.349  30.664  1.00  0.00     0.074 A 
ATOM     38  C   UNL A   1      40.767  28.995  28.259  1.00  0.00     0.049 A 
ATOM     39  N   UNL A   1      41.331  29.926  31.291  1.00  0.00    -0.248 NA
ATOM     40  C   UNL A   1      39.519  28.507  31.535  1.00  0.00     0.031 C 
ATOM     41  C   UNL A   1      40.459  28.798  26.835  1.00  0.00     0.029 A 
ATOM     42  N   UNL A   1      41.986  28.401  28.378  1.00  0.00    -0.354 N 
ATOM     43  C   UNL A   1      41.359  29.379  32.576  1.00  0.00     0.074 A 
ATOM     44  C   UNL A   1      40.137  28.629  32.713  1.00  0.00     0.031 C 
ATOM     45  C   UNL A   1      41.315  27.902  26.305  1.00  0.00     0.029 A 
ATOM     46  C   UNL A   1      42.346  27.622  27.285  1.00  0.00     0.049 A 
ATOM     47  H   UNL A   1      42.562  28.514  29.169  1.00  0.00     0.167 HD
ATOM     48  C   UNL A   1      42.476  29.425  33.361  1.00  0.00     0.037 A 
ATOM     49  C   UNL A   1      43.404  26.786  27.180  1.00  0.00     0.037 A 
ATOM     50  C   UNL A   1      43.432  30.379  32.858  1.00  0.00     0.049 A 
ATOM     51  C   UNL A   1      44.398  27.222  28.190  1.00  0.00     0.074 A 
ATOM     52  C   UNL A   1      43.410  31.737  32.605  1.00  0.00     0.029 A 
ATOM     53  N   UNL A   1      44.535  29.897  32.193  1.00  0.00    -0.354 N 
ATOM     54  N   UNL A   1      45.026  28.366  28.142  1.00  0.00    -0.248 NA
ATOM     55  C   UNL A   1      44.383  26.579  29.494  1.00  0.00     0.031 C 
ATOM     56  C   UNL A   1      44.180  31.902  31.416  1.00  0.00     0.029 A 
ATOM     57  C   UNL A   1      44.672  30.648  31.052  1.00  0.00     0.049 A 
ATOM     58  H   UNL A   1      45.115  29.157  32.480  1.00  0.00     0.167 HD
ATOM     59  C   UNL A   1      45.098  28.788  29.460  1.00  0.00     0.074 A 
ATOM     60  C   UNL A   1      44.795  27.598  30.253  1.00  0.00     0.031 C 
ATOM     61  C   UNL A   1      45.117  30.117  29.782  1.00  0.00     0.037 A 
BRANCH  48  62
ATOM     62  C   UNL A   1      42.865  28.387  34.393  1.00  0.00     0.058 A 
ATOM     63  C   UNL A   1      43.118  28.785  35.725  1.00  0.00     0.135 A 
ATOM     64  C   UNL A   1      43.280  27.078  34.065  1.00  0.00     0.135 A 
ATOM     65  F   UNL A   1      42.766  30.009  36.152  1.00  0.00    -0.206 F 
ATOM     66  C   UNL A   1      43.810  27.979  36.632  1.00  0.00     0.059 A 
ATOM     67  C   UNL A   1      43.923  26.238  34.971  1.00  0.00     0.059 A 
ATOM     68  F   UNL A   1      43.176  26.588  32.824  1.00  0.00    -0.206 F 
ATOM     69  C   UNL A   1      44.231  26.715  36.234  1.00  0.00     0.060 A 
BRANCH  69  70
ATOM     70  S   UNL A   1      45.252  25.728  37.344  1.00  0.00     0.124 S 
ATOM     71  O   UNL A   1      46.488  26.503  37.362  1.00  0.00    -0.237 OA
ATOM     72  O   UNL A   1      44.470  25.741  38.576  1.00  0.00    -0.237 OA
ATOM     73  O   UNL A   1      45.327  24.436  36.669  1.00  0.00    -0.744 OA
ENDBRANCH  69  70
ENDBRANCH  48  62
BRANCH  49  74
ATOM     74  C   UNL A   1      43.483  25.505  26.433  1.00  0.00     0.058 A 
ATOM     75  C   UNL A   1      44.389  25.333  25.374  1.00  0.00     0.135 A 
ATOM     76  C   UNL A   1      42.852  24.334  26.907  1.00  0.00     0.135 A 
ATOM     77  F   UNL A   1      45.049  26.388  24.872  1.00  0.00    -0.206 F 
ATOM     78  C   UNL A   1      44.690  24.071  24.849  1.00  0.00     0.059 A 
ATOM     79  C   UNL A   1      43.123  23.070  26.389  1.00  0.00     0.059 A 
ATOM     80  F   UNL A   1      42.017  24.372  27.957  1.00  0.00    -0.206 F 
ATOM     81  C   UNL A   1      44.067  22.942  25.379  1.00  0.00     0.060 A 
BRANCH  81  82
ATOM     82  S   UNL A   1      44.594  21.299  24.841  1.00  0.00     0.124 S 
ATOM     83  O   UNL A   1      44.634  21.453  23.392  1.00  0.00    -0.237 OA
ATOM     84  O   UNL A   1      45.886  21.158  25.504  1.00  0.00    -0.237 OA
ATOM     85  O   UNL A   1      43.540  20.423  25.348  1.00  0.00    -0.744 OA
ENDBRANCH  81  82
ENDBRANCH  49  74
BRANCH  61  86
ATOM     86  C   UNL A   1      45.357  31.120  28.681  1.00  0.00     0.058 A 
ATOM     87  C   UNL A   1      44.344  31.666  27.873  1.00  0.00     0.135 A 
ATOM     88  C   UNL A   1      46.639  31.676  28.553  1.00  0.00     0.135 A 
ATOM     89  F   UNL A   1      43.070  31.277  28.004  1.00  0.00    -0.206 F 
ATOM     90  C   UNL A   1      44.599  32.685  26.954  1.00  0.00     0.059 A 
ATOM     91  C   UNL A   1      46.911  32.715  27.665  1.00  0.00     0.059 A 
ATOM     92  F   UNL A   1      47.638  31.247  29.342  1.00  0.00    -0.206 F 
ATOM     93  C   UNL A   1      45.886  33.206  26.858  1.00  0.00     0.060 A 
BRANCH  93  94
ATOM     94  S   UNL A   1      46.192  34.583  25.732  1.00  0.00     0.124 S 
ATOM     95  O   UNL A   1      45.272  34.295  24.637  1.00  0.00    -0.237 OA
ATOM     96  O   UNL A   1      45.857  35.746  26.550  1.00  0.00    -0.237 OA
ATOM     97  O   UNL A   1      47.611  34.450  25.408  1.00  0.00    -0.744 OA
ENDBRANCH  93  94
ENDBRANCH  61  86
ENDBRANCH  35  36
ENDBRANCH  27  30
ENDBRANCH  25  26
ENDBRANCH   1  25
TORSDOF 15
ENDMDL
