MODEL 1
REMARK VINA RESULT:     -12.3      0.000      0.000
REMARK SMILES COc1cc(/C=C2/CCc3cc(OC(C)(C)C(=O)NCCCNC(=O)c4ccc(-c5c6nc(c(-c7c(F)cc(S(=O)(=O)[O-])cc7F)c7ccc([nH]7)c(-c7c(F)cc(S(=O)(=O)[O-])cc7F)c7nc(c(-c8c(F)cc(S(=O)(=O)[O-])cc8F)c8ccc5[nH]8)C=C7)C=C6)cc4)ccc3C2=O)cc(OC)c1O
REMARK SMILES IDX 20 1 19 2 17 3 18 4 14 6 15 7 16 8 13 9 12 10 6 11 7 12 8 13
REMARK SMILES IDX 95 14 9 15 94 16 96 17 10 18 93 19 11 20 92 21 5 22 3 23
REMARK SMILES IDX 4 24 101 25 98 26 97 27 2 28 1 29 102 30 99 32 100 33 21 34
REMARK SMILES IDX 22 35 23 36 24 37 25 39 26 40 27 41 91 42 28 43 90 44 29 45
REMARK SMILES IDX 30 46 31 47 84 48 32 49 89 50 83 51 85 52 33 53 88 54 82 55
REMARK SMILES IDX 81 56 34 58 68 59 47 60 67 61 48 62 51 63 66 64 86 65 49 66
REMARK SMILES IDX 50 67 65 69 87 70 52 71 35 72 36 73 45 74 37 75 38 76 44 77
REMARK SMILES IDX 46 78 39 79 40 80 41 81 42 82 43 83 69 84 70 85 79 86 71 87
REMARK SMILES IDX 72 88 78 89 80 90 73 91 74 92 75 93 76 94 77 95 53 96 54 97
REMARK SMILES IDX 63 98 55 99 56 100 62 101 64 102 57 103 58 104 59 105 60 106
REMARK SMILES IDX 61 107
REMARK H PARENT 19 5 102 31 23 38 85 57 51 68
REMARK Flexibility Score: inf
ROOT
ATOM      1  C   UNL A   1      37.963  22.274  25.673  1.00  0.00     0.118 C 
ENDROOT
BRANCH   1   2
ATOM      2  N   UNL A   1      37.662  22.305  24.239  1.00  0.00    -0.353 N 
ATOM      3  C   UNL A   1      36.528  22.804  23.574  1.00  0.00     0.263 C 
ATOM      4  O   UNL A   1      36.664  23.101  22.383  1.00  0.00    -0.270 OA
ATOM      5  H   UNL A   1      38.355  21.920  23.655  1.00  0.00     0.163 HD
BRANCH   3   6
ATOM      6  C   UNL A   1      35.096  22.762  24.262  1.00  0.00     0.181 C 
ATOM      7  C   UNL A   1      34.021  22.726  23.167  1.00  0.00     0.067 C 
ATOM      8  C   UNL A   1      35.298  24.030  25.133  1.00  0.00     0.067 C 
BRANCH   6   9
ATOM      9  O   UNL A   1      34.802  21.528  25.050  1.00  0.00    -0.478 OA
BRANCH   9  10
ATOM     10  C   UNL A   1      33.855  21.676  26.067  1.00  0.00     0.121 A 
ATOM     11  C   UNL A   1      30.595  26.330  26.187  1.00  0.00     0.016 C 
ATOM     12  C   UNL A   1      30.539  24.999  26.394  1.00  0.00     0.001 C 
ATOM     13  C   UNL A   1      29.523  23.924  26.784  1.00  0.00     0.044 C 
ATOM     14  C   UNL A   1      31.756  24.304  26.050  1.00  0.00     0.189 C 
ATOM     15  C   UNL A   1      30.019  22.400  26.372  1.00  0.00     0.041 C 
ATOM     16  C   UNL A   1      32.112  23.327  27.136  1.00  0.00     0.026 A 
ATOM     17  O   UNL A   1      32.030  24.176  24.860  1.00  0.00    -0.289 OA
ATOM     18  C   UNL A   1      31.534  22.183  26.617  1.00  0.00    -0.033 A 
ATOM     19  C   UNL A   1      33.400  23.357  27.654  1.00  0.00     0.016 A 
ATOM     20  C   UNL A   1      32.462  21.360  25.949  1.00  0.00     0.051 A 
ATOM     21  C   UNL A   1      34.306  22.460  27.128  1.00  0.00     0.047 A 
BRANCH  11  22
ATOM     22  C   UNL A   1      31.656  26.971  25.325  1.00  0.00    -0.018 A 
ATOM     23  C   UNL A   1      33.440  28.654  25.297  1.00  0.00     0.165 A 
ATOM     24  C   UNL A   1      32.466  27.912  25.978  1.00  0.00     0.058 A 
ATOM     25  C   UNL A   1      33.612  28.476  23.922  1.00  0.00     0.200 A 
ATOM     26  C   UNL A   1      32.758  27.618  23.213  1.00  0.00     0.165 A 
ATOM     27  C   UNL A   1      31.813  26.839  23.928  1.00  0.00     0.058 A 
BRANCH  23  28
ATOM     28  O   UNL A   1      34.253  29.420  26.094  1.00  0.00    -0.493 OA
ATOM     29  C   UNL A   1      34.394  28.991  27.445  1.00  0.00     0.278 C 
ENDBRANCH  23  28
BRANCH  25  30
ATOM     30  O   UNL A   1      34.677  29.066  23.294  1.00  0.00    -0.502 OA
ATOM     31  H   UNL A   1      34.939  29.934  23.532  1.00  0.00     0.293 HD
ENDBRANCH  25  30
BRANCH  26  32
ATOM     32  O   UNL A   1      32.778  27.406  21.852  1.00  0.00    -0.493 OA
ATOM     33  C   UNL A   1      33.082  26.082  21.406  1.00  0.00     0.278 C 
ENDBRANCH  26  32
ENDBRANCH  11  22
ENDBRANCH   9  10
ENDBRANCH   6   9
ENDBRANCH   3   6
ENDBRANCH   1   2
BRANCH   1  34
ATOM     34  C   UNL A   1      39.302  21.742  26.204  1.00  0.00     0.042 C 
BRANCH  34  35
ATOM     35  C   UNL A   1      40.182  22.592  27.112  1.00  0.00     0.118 C 
BRANCH  35  36
ATOM     36  N   UNL A   1      41.184  23.333  26.354  1.00  0.00    -0.352 N 
ATOM     37  C   UNL A   1      41.556  24.658  26.315  1.00  0.00     0.251 C 
ATOM     38  H   UNL A   1      41.705  22.766  25.741  1.00  0.00     0.163 HD
ATOM     39  O   UNL A   1      42.229  25.010  25.343  1.00  0.00    -0.269 OA
BRANCH  37  40
ATOM     40  C   UNL A   1      41.221  25.687  27.348  1.00  0.00     0.039 A 
ATOM     41  C   UNL A   1      42.156  26.715  27.567  1.00  0.00     0.014 A 
ATOM     42  C   UNL A   1      40.129  25.605  28.215  1.00  0.00     0.014 A 
ATOM     43  C   UNL A   1      42.004  27.634  28.621  1.00  0.00     0.010 A 
ATOM     44  C   UNL A   1      39.949  26.558  29.239  1.00  0.00     0.010 A 
ATOM     45  C   UNL A   1      40.890  27.575  29.471  1.00  0.00    -0.014 A 
BRANCH  45  46
ATOM     46  C   UNL A   1      40.726  28.552  30.595  1.00  0.00     0.031 A 
ATOM     47  C   UNL A   1      41.596  28.483  31.830  1.00  0.00     0.074 A 
ATOM     48  C   UNL A   1      39.784  29.516  30.525  1.00  0.00     0.049 A 
ATOM     49  N   UNL A   1      41.571  29.228  32.909  1.00  0.00    -0.248 NA
ATOM     50  C   UNL A   1      42.623  27.431  31.857  1.00  0.00     0.031 C 
ATOM     51  C   UNL A   1      38.869  29.718  29.402  1.00  0.00     0.029 A 
ATOM     52  N   UNL A   1      39.436  30.505  31.416  1.00  0.00    -0.354 N 
ATOM     53  C   UNL A   1      42.567  28.733  33.746  1.00  0.00     0.074 A 
ATOM     54  C   UNL A   1      43.148  27.594  33.065  1.00  0.00     0.031 C 
ATOM     55  C   UNL A   1      38.080  30.774  29.662  1.00  0.00     0.029 A 
ATOM     56  C   UNL A   1      38.399  31.302  30.986  1.00  0.00     0.049 A 
ATOM     57  H   UNL A   1      39.887  30.632  32.283  1.00  0.00     0.167 HD
ATOM     58  C   UNL A   1      42.975  29.187  34.960  1.00  0.00     0.037 A 
ATOM     59  C   UNL A   1      37.764  32.332  31.583  1.00  0.00     0.037 A 
ATOM     60  C   UNL A   1      42.407  30.325  35.643  1.00  0.00     0.049 A 
ATOM     61  C   UNL A   1      38.194  32.785  32.953  1.00  0.00     0.074 A 
ATOM     62  C   UNL A   1      42.785  30.877  36.856  1.00  0.00     0.029 A 
ATOM     63  N   UNL A   1      41.337  31.080  35.183  1.00  0.00    -0.354 N 
ATOM     64  N   UNL A   1      39.163  32.328  33.708  1.00  0.00    -0.248 NA
ATOM     65  C   UNL A   1      37.440  33.897  33.554  1.00  0.00     0.031 C 
ATOM     66  C   UNL A   1      41.911  31.928  37.156  1.00  0.00     0.029 A 
ATOM     67  C   UNL A   1      41.023  32.070  36.102  1.00  0.00     0.049 A 
ATOM     68  H   UNL A   1      40.869  30.933  34.329  1.00  0.00     0.167 HD
ATOM     69  C   UNL A   1      39.153  33.111  34.858  1.00  0.00     0.074 A 
ATOM     70  C   UNL A   1      38.089  34.078  34.697  1.00  0.00     0.031 C 
ATOM     71  C   UNL A   1      39.961  33.034  35.946  1.00  0.00     0.037 A 
BRANCH  58  72
ATOM     72  C   UNL A   1      44.090  28.437  35.645  1.00  0.00     0.058 A 
ATOM     73  C   UNL A   1      43.834  27.391  36.548  1.00  0.00     0.135 A 
ATOM     74  C   UNL A   1      45.434  28.749  35.379  1.00  0.00     0.135 A 
ATOM     75  F   UNL A   1      42.570  27.049  36.844  1.00  0.00    -0.206 F 
ATOM     76  C   UNL A   1      44.864  26.722  37.201  1.00  0.00     0.059 A 
ATOM     77  C   UNL A   1      46.482  28.071  35.996  1.00  0.00     0.059 A 
ATOM     78  F   UNL A   1      45.742  29.729  34.513  1.00  0.00    -0.206 F 
ATOM     79  C   UNL A   1      46.186  27.075  36.925  1.00  0.00     0.060 A 
BRANCH  79  80
ATOM     80  S   UNL A   1      47.511  26.225  37.810  1.00  0.00     0.124 S 
ATOM     81  O   UNL A   1      48.083  25.400  36.750  1.00  0.00    -0.237 OA
ATOM     82  O   UNL A   1      48.343  27.333  38.268  1.00  0.00    -0.237 OA
ATOM     83  O   UNL A   1      46.806  25.497  38.861  1.00  0.00    -0.744 OA
ENDBRANCH  79  80
ENDBRANCH  58  72
BRANCH  59  84
ATOM     84  C   UNL A   1      36.652  33.022  30.874  1.00  0.00     0.058 A 
ATOM     85  C   UNL A   1      35.315  32.788  31.228  1.00  0.00     0.135 A 
ATOM     86  C   UNL A   1      36.904  33.949  29.850  1.00  0.00     0.135 A 
ATOM     87  F   UNL A   1      35.023  31.900  32.190  1.00  0.00    -0.206 F 
ATOM     88  C   UNL A   1      34.266  33.447  30.595  1.00  0.00     0.059 A 
ATOM     89  C   UNL A   1      35.875  34.640  29.219  1.00  0.00     0.059 A 
ATOM     90  F   UNL A   1      38.166  34.214  29.479  1.00  0.00    -0.206 F 
ATOM     91  C   UNL A   1      34.558  34.380  29.597  1.00  0.00     0.060 A 
BRANCH  91  92
ATOM     92  S   UNL A   1      33.191  35.286  28.839  1.00  0.00     0.124 S 
ATOM     93  O   UNL A   1      32.575  34.256  28.015  1.00  0.00    -0.237 OA
ATOM     94  O   UNL A   1      32.429  35.719  30.003  1.00  0.00    -0.237 OA
ATOM     95  O   UNL A   1      33.867  36.359  28.108  1.00  0.00    -0.744 OA
ENDBRANCH  91  92
ENDBRANCH  59  84
BRANCH  71  96
ATOM     96  C   UNL A   1      39.749  34.040  37.049  1.00  0.00     0.058 A 
ATOM     97  C   UNL A   1      39.072  33.709  38.233  1.00  0.00     0.135 A 
ATOM     98  C   UNL A   1      40.278  35.338  36.942  1.00  0.00     0.135 A 
ATOM     99  F   UNL A   1      38.539  32.487  38.388  1.00  0.00    -0.206 F 
ATOM    100  C   UNL A   1      38.912  34.632  39.264  1.00  0.00     0.059 A 
ATOM    101  C   UNL A   1      40.153  36.268  37.970  1.00  0.00     0.059 A 
ATOM    102  F   UNL A   1      40.939  35.709  35.834  1.00  0.00    -0.206 F 
ATOM    103  C   UNL A   1      39.460  35.908  39.125  1.00  0.00     0.060 A 
BRANCH 103 104
ATOM    104  S   UNL A   1      39.282  37.080  40.488  1.00  0.00     0.124 S 
ATOM    105  O   UNL A   1      38.398  36.351  41.392  1.00  0.00    -0.237 OA
ATOM    106  O   UNL A   1      40.660  37.243  40.942  1.00  0.00    -0.237 OA
ATOM    107  O   UNL A   1      38.696  38.257  39.851  1.00  0.00    -0.744 OA
ENDBRANCH 103 104
ENDBRANCH  71  96
ENDBRANCH  45  46
ENDBRANCH  37  40
ENDBRANCH  35  36
ENDBRANCH  34  35
ENDBRANCH   1  34
TORSDOF 19
ENDMDL
MODEL 2
REMARK VINA RESULT:     -12.2      6.071     11.606
REMARK SMILES COc1cc(/C=C2/CCc3cc(OC(C)(C)C(=O)NCCCNC(=O)c4ccc(-c5c6nc(c(-c7c(F)cc(S(=O)(=O)[O-])cc7F)c7ccc([nH]7)c(-c7c(F)cc(S(=O)(=O)[O-])cc7F)c7nc(c(-c8c(F)cc(S(=O)(=O)[O-])cc8F)c8ccc5[nH]8)C=C7)C=C6)cc4)ccc3C2=O)cc(OC)c1O
REMARK SMILES IDX 20 1 19 2 17 3 18 4 14 6 15 7 16 8 13 9 12 10 6 11 7 12 8 13
REMARK SMILES IDX 95 14 9 15 94 16 96 17 10 18 93 19 11 20 92 21 5 22 3 23
REMARK SMILES IDX 4 24 101 25 98 26 97 27 2 28 1 29 102 30 99 32 100 33 21 34
REMARK SMILES IDX 22 35 23 36 24 37 25 39 26 40 27 41 91 42 28 43 90 44 29 45
REMARK SMILES IDX 30 46 31 47 84 48 32 49 89 50 83 51 85 52 33 53 88 54 82 55
REMARK SMILES IDX 81 56 34 58 68 59 47 60 67 61 48 62 51 63 66 64 86 65 49 66
REMARK SMILES IDX 50 67 65 69 87 70 52 71 35 72 36 73 45 74 37 75 38 76 44 77
REMARK SMILES IDX 46 78 39 79 40 80 41 81 42 82 43 83 69 84 70 85 79 86 71 87
REMARK SMILES IDX 72 88 78 89 80 90 73 91 74 92 75 93 76 94 77 95 53 96 54 97
REMARK SMILES IDX 63 98 55 99 56 100 62 101 64 102 57 103 58 104 59 105 60 106
REMARK SMILES IDX 61 107
REMARK H PARENT 19 5 102 31 23 38 85 57 51 68
REMARK Flexibility Score: inf
ROOT
ATOM      1  C   UNL A   1      33.128  30.593  27.104  1.00  0.00     0.118 C 
ENDROOT
BRANCH   1   2
ATOM      2  N   UNL A   1      32.066  29.736  27.639  1.00  0.00    -0.353 N 
ATOM      3  C   UNL A   1      31.695  28.433  27.262  1.00  0.00     0.263 C 
ATOM      4  O   UNL A   1      31.075  27.767  28.097  1.00  0.00    -0.270 OA
ATOM      5  H   UNL A   1      31.535  30.130  28.368  1.00  0.00     0.163 HD
BRANCH   3   6
ATOM      6  C   UNL A   1      31.861  27.940  25.761  1.00  0.00     0.181 C 
ATOM      7  C   UNL A   1      30.660  27.057  25.394  1.00  0.00     0.067 C 
ATOM      8  C   UNL A   1      33.271  27.320  25.950  1.00  0.00     0.067 C 
BRANCH   6   9
ATOM      9  O   UNL A   1      31.807  29.014  24.726  1.00  0.00    -0.478 OA
BRANCH   9  10
ATOM     10  C   UNL A   1      32.305  28.663  23.468  1.00  0.00     0.121 A 
ATOM     11  C   UNL A   1      33.973  23.312  22.525  1.00  0.00     0.016 C 
ATOM     12  C   UNL A   1      33.326  24.335  21.930  1.00  0.00     0.001 C 
ATOM     13  C   UNL A   1      32.625  24.657  20.608  1.00  0.00     0.044 C 
ATOM     14  C   UNL A   1      33.095  25.462  22.799  1.00  0.00     0.189 C 
ATOM     15  C   UNL A   1      31.606  25.955  20.728  1.00  0.00     0.041 C 
ATOM     16  C   UNL A   1      33.441  26.739  22.085  1.00  0.00     0.026 A 
ATOM     17  O   UNL A   1      32.246  25.348  23.679  1.00  0.00    -0.289 OA
ATOM     18  C   UNL A   1      32.190  27.088  21.610  1.00  0.00    -0.033 A 
ATOM     19  C   UNL A   1      34.289  27.639  22.716  1.00  0.00     0.016 A 
ATOM     20  C   UNL A   1      31.545  28.039  22.425  1.00  0.00     0.051 A 
ATOM     21  C   UNL A   1      33.697  28.678  23.405  1.00  0.00     0.047 A 
BRANCH  11  22
ATOM     22  C   UNL A   1      34.090  23.192  24.025  1.00  0.00    -0.018 A 
ATOM     23  C   UNL A   1      35.682  23.025  25.884  1.00  0.00     0.165 A 
ATOM     24  C   UNL A   1      35.401  23.210  24.524  1.00  0.00     0.058 A 
ATOM     25  C   UNL A   1      34.636  22.798  26.783  1.00  0.00     0.200 A 
ATOM     26  C   UNL A   1      33.320  22.676  26.313  1.00  0.00     0.165 A 
ATOM     27  C   UNL A   1      33.052  22.917  24.941  1.00  0.00     0.058 A 
BRANCH  23  28
ATOM     28  O   UNL A   1      36.992  23.219  26.242  1.00  0.00    -0.493 OA
ATOM     29  C   UNL A   1      37.935  22.305  25.692  1.00  0.00     0.278 C 
ENDBRANCH  23  28
BRANCH  25  30
ATOM     30  O   UNL A   1      34.893  22.796  28.129  1.00  0.00    -0.502 OA
ATOM     31  H   UNL A   1      34.690  22.040  28.643  1.00  0.00     0.293 HD
ENDBRANCH  25  30
BRANCH  26  32
ATOM     32  O   UNL A   1      32.213  22.387  27.081  1.00  0.00    -0.493 OA
ATOM     33  C   UNL A   1      30.942  22.786  26.563  1.00  0.00     0.278 C 
ENDBRANCH  26  32
ENDBRANCH  11  22
ENDBRANCH   9  10
ENDBRANCH   6   9
ENDBRANCH   3   6
ENDBRANCH   1   2
BRANCH   1  34
ATOM     34  C   UNL A   1      34.560  30.544  27.657  1.00  0.00     0.042 C 
BRANCH  34  35
ATOM     35  C   UNL A   1      35.169  31.742  28.372  1.00  0.00     0.118 C 
BRANCH  35  36
ATOM     36  N   UNL A   1      35.337  31.492  29.800  1.00  0.00    -0.352 N 
ATOM     37  C   UNL A   1      36.217  30.728  30.533  1.00  0.00     0.251 C 
ATOM     38  H   UNL A   1      34.682  31.971  30.358  1.00  0.00     0.163 HD
ATOM     39  O   UNL A   1      35.896  30.490  31.700  1.00  0.00    -0.269 OA
BRANCH  37  40
ATOM     40  C   UNL A   1      37.516  30.178  30.034  1.00  0.00     0.039 A 
ATOM     41  C   UNL A   1      38.473  29.804  30.995  1.00  0.00     0.014 A 
ATOM     42  C   UNL A   1      37.901  30.163  28.692  1.00  0.00     0.014 A 
ATOM     43  C   UNL A   1      39.776  29.426  30.625  1.00  0.00     0.010 A 
ATOM     44  C   UNL A   1      39.191  29.734  28.317  1.00  0.00     0.010 A 
ATOM     45  C   UNL A   1      40.154  29.377  29.275  1.00  0.00    -0.014 A 
BRANCH  45  46
ATOM     46  C   UNL A   1      41.542  28.976  28.878  1.00  0.00     0.031 A 
ATOM     47  C   UNL A   1      42.683  29.969  28.895  1.00  0.00     0.074 A 
ATOM     48  C   UNL A   1      41.798  27.709  28.489  1.00  0.00     0.049 A 
ATOM     49  N   UNL A   1      43.939  29.800  28.555  1.00  0.00    -0.248 NA
ATOM     50  C   UNL A   1      42.366  31.332  29.345  1.00  0.00     0.031 C 
ATOM     51  C   UNL A   1      40.809  26.633  28.421  1.00  0.00     0.029 A 
ATOM     52  N   UNL A   1      42.965  27.110  28.072  1.00  0.00    -0.354 N 
ATOM     53  C   UNL A   1      44.559  31.033  28.739  1.00  0.00     0.074 A 
ATOM     54  C   UNL A   1      43.528  31.950  29.180  1.00  0.00     0.031 C 
ATOM     55  C   UNL A   1      41.412  25.505  28.010  1.00  0.00     0.029 A 
ATOM     56  C   UNL A   1      42.822  25.782  27.741  1.00  0.00     0.049 A 
ATOM     57  H   UNL A   1      43.825  27.588  28.016  1.00  0.00     0.167 HD
ATOM     58  C   UNL A   1      45.864  31.371  28.574  1.00  0.00     0.037 A 
ATOM     59  C   UNL A   1      43.710  24.884  27.266  1.00  0.00     0.037 A 
ATOM     60  C   UNL A   1      46.899  30.463  28.143  1.00  0.00     0.049 A 
ATOM     61  C   UNL A   1      45.141  25.294  27.037  1.00  0.00     0.074 A 
ATOM     62  C   UNL A   1      48.253  30.712  27.987  1.00  0.00     0.029 A 
ATOM     63  N   UNL A   1      46.700  29.137  27.788  1.00  0.00    -0.354 N 
ATOM     64  N   UNL A   1      45.713  26.453  27.256  1.00  0.00    -0.248 NA
ATOM     65  C   UNL A   1      46.048  24.271  26.493  1.00  0.00     0.031 C 
ATOM     66  C   UNL A   1      48.862  29.556  27.486  1.00  0.00     0.029 A 
ATOM     67  C   UNL A   1      47.898  28.566  27.384  1.00  0.00     0.049 A 
ATOM     68  H   UNL A   1      45.834  28.669  27.818  1.00  0.00     0.167 HD
ATOM     69  C   UNL A   1      47.049  26.291  26.903  1.00  0.00     0.074 A 
ATOM     70  C   UNL A   1      47.204  24.920  26.466  1.00  0.00     0.031 C 
ATOM     71  C   UNL A   1      48.056  27.200  26.945  1.00  0.00     0.037 A 
BRANCH  58  72
ATOM     72  C   UNL A   1      46.252  32.804  28.848  1.00  0.00     0.058 A 
ATOM     73  C   UNL A   1      46.655  33.231  30.125  1.00  0.00     0.135 A 
ATOM     74  C   UNL A   1      46.243  33.759  27.817  1.00  0.00     0.135 A 
ATOM     75  F   UNL A   1      46.682  32.365  31.150  1.00  0.00    -0.206 F 
ATOM     76  C   UNL A   1      46.983  34.559  30.380  1.00  0.00     0.059 A 
ATOM     77  C   UNL A   1      46.597  35.087  28.042  1.00  0.00     0.059 A 
ATOM     78  F   UNL A   1      45.880  33.407  26.573  1.00  0.00    -0.206 F 
ATOM     79  C   UNL A   1      46.942  35.483  29.334  1.00  0.00     0.060 A 
BRANCH  79  80
ATOM     80  S   UNL A   1      47.330  37.210  29.689  1.00  0.00     0.124 S 
ATOM     81  O   UNL A   1      47.164  37.250  31.139  1.00  0.00    -0.237 OA
ATOM     82  O   UNL A   1      48.701  37.329  29.206  1.00  0.00    -0.237 OA
ATOM     83  O   UNL A   1      46.331  37.948  28.923  1.00  0.00    -0.744 OA
ENDBRANCH  79  80
ENDBRANCH  58  72
BRANCH  59  84
ATOM     84  C   UNL A   1      43.270  23.489  26.988  1.00  0.00     0.058 A 
ATOM     85  C   UNL A   1      42.978  23.072  25.680  1.00  0.00     0.135 A 
ATOM     86  C   UNL A   1      43.161  22.540  28.016  1.00  0.00     0.135 A 
ATOM     87  F   UNL A   1      43.052  23.948  24.667  1.00  0.00    -0.206 F 
ATOM     88  C   UNL A   1      42.594  21.765  25.400  1.00  0.00     0.059 A 
ATOM     89  C   UNL A   1      42.805  21.220  27.758  1.00  0.00     0.059 A 
ATOM     90  F   UNL A   1      43.437  22.886  29.283  1.00  0.00    -0.206 F 
ATOM     91  C   UNL A   1      42.520  20.843  26.446  1.00  0.00     0.060 A 
BRANCH  91  92
ATOM     92  S   UNL A   1      42.098  19.130  26.056  1.00  0.00     0.124 S 
ATOM     93  O   UNL A   1      40.666  19.227  25.813  1.00  0.00    -0.237 OA
ATOM     94  O   UNL A   1      42.932  18.868  24.890  1.00  0.00    -0.237 OA
ATOM     95  O   UNL A   1      42.484  18.407  27.269  1.00  0.00    -0.744 OA
ENDBRANCH  91  92
ENDBRANCH  59  84
BRANCH  71  96
ATOM     96  C   UNL A   1      49.431  26.743  26.530  1.00  0.00     0.058 A 
ATOM     97  C   UNL A   1      50.304  26.110  27.429  1.00  0.00     0.135 A 
ATOM     98  C   UNL A   1      49.860  26.892  25.200  1.00  0.00     0.135 A 
ATOM     99  F   UNL A   1      49.949  25.948  28.714  1.00  0.00    -0.206 F 
ATOM    100  C   UNL A   1      51.558  25.656  27.029  1.00  0.00     0.059 A 
ATOM    101  C   UNL A   1      51.100  26.422  24.773  1.00  0.00     0.059 A 
ATOM    102  F   UNL A   1      49.066  27.485  24.295  1.00  0.00    -0.206 F 
ATOM    103  C   UNL A   1      51.946  25.812  25.698  1.00  0.00     0.060 A 
BRANCH 103 104
ATOM    104  S   UNL A   1      53.559  25.180  25.185  1.00  0.00     0.124 S 
ATOM    105  O   UNL A   1      53.379  23.742  25.353  1.00  0.00    -0.237 OA
ATOM    106  O   UNL A   1      53.654  25.652  23.807  1.00  0.00    -0.237 OA
ATOM    107  O   UNL A   1      54.485  25.810  26.122  1.00  0.00    -0.744 OA
ENDBRANCH 103 104
ENDBRANCH  71  96
ENDBRANCH  45  46
ENDBRANCH  37  40
ENDBRANCH  35  36
ENDBRANCH  34  35
ENDBRANCH   1  34
TORSDOF 19
ENDMDL
MODEL 3
REMARK VINA RESULT:     -12.1      0.606      7.914
REMARK SMILES COc1cc(/C=C2/CCc3cc(OC(C)(C)C(=O)NCCCNC(=O)c4ccc(-c5c6nc(c(-c7c(F)cc(S(=O)(=O)[O-])cc7F)c7ccc([nH]7)c(-c7c(F)cc(S(=O)(=O)[O-])cc7F)c7nc(c(-c8c(F)cc(S(=O)(=O)[O-])cc8F)c8ccc5[nH]8)C=C7)C=C6)cc4)ccc3C2=O)cc(OC)c1O
REMARK SMILES IDX 20 1 19 2 17 3 18 4 14 6 15 7 16 8 13 9 12 10 6 11 7 12 8 13
REMARK SMILES IDX 95 14 9 15 94 16 96 17 10 18 93 19 11 20 92 21 5 22 3 23
REMARK SMILES IDX 4 24 101 25 98 26 97 27 2 28 1 29 102 30 99 32 100 33 21 34
REMARK SMILES IDX 22 35 23 36 24 37 25 39 26 40 27 41 91 42 28 43 90 44 29 45
REMARK SMILES IDX 30 46 31 47 84 48 32 49 89 50 83 51 85 52 33 53 88 54 82 55
REMARK SMILES IDX 81 56 34 58 68 59 47 60 67 61 48 62 51 63 66 64 86 65 49 66
REMARK SMILES IDX 50 67 65 69 87 70 52 71 35 72 36 73 45 74 37 75 38 76 44 77
REMARK SMILES IDX 46 78 39 79 40 80 41 81 42 82 43 83 69 84 70 85 79 86 71 87
REMARK SMILES IDX 72 88 78 89 80 90 73 91 74 92 75 93 76 94 77 95 53 96 54 97
REMARK SMILES IDX 63 98 55 99 56 100 62 101 64 102 57 103 58 104 59 105 60 106
REMARK SMILES IDX 61 107
REMARK H PARENT 19 5 102 31 23 38 85 57 51 68
REMARK Flexibility Score: inf
ROOT
ATOM      1  C   UNL A   1      37.956  22.507  25.805  1.00  0.00     0.118 C 
ENDROOT
BRANCH   1   2
ATOM      2  N   UNL A   1      37.757  22.550  24.354  1.00  0.00    -0.353 N 
ATOM      3  C   UNL A   1      36.653  23.012  23.616  1.00  0.00     0.263 C 
ATOM      4  O   UNL A   1      36.861  23.334  22.442  1.00  0.00    -0.270 OA
ATOM      5  H   UNL A   1      38.506  22.204  23.817  1.00  0.00     0.163 HD
BRANCH   3   6
ATOM      6  C   UNL A   1      35.179  22.898  24.199  1.00  0.00     0.181 C 
ATOM      7  C   UNL A   1      34.177  23.057  23.046  1.00  0.00     0.067 C 
ATOM      8  C   UNL A   1      35.341  24.010  25.267  1.00  0.00     0.067 C 
BRANCH   6   9
ATOM      9  O   UNL A   1      34.817  21.564  24.764  1.00  0.00    -0.478 OA
BRANCH   9  10
ATOM     10  C   UNL A   1      33.898  21.587  25.816  1.00  0.00     0.121 A 
ATOM     11  C   UNL A   1      30.504  26.101  26.458  1.00  0.00     0.016 C 
ATOM     12  C   UNL A   1      30.495  24.755  26.543  1.00  0.00     0.001 C 
ATOM     13  C   UNL A   1      29.524  23.616  26.860  1.00  0.00     0.044 C 
ATOM     14  C   UNL A   1      31.721  24.136  26.102  1.00  0.00     0.189 C 
ATOM     15  C   UNL A   1      30.053  22.153  26.295  1.00  0.00     0.041 C 
ATOM     16  C   UNL A   1      32.140  23.075  27.082  1.00  0.00     0.026 A 
ATOM     17  O   UNL A   1      31.962  24.125  24.898  1.00  0.00    -0.289 OA
ATOM     18  C   UNL A   1      31.581  21.965  26.477  1.00  0.00    -0.033 A 
ATOM     19  C   UNL A   1      33.442  23.100  27.565  1.00  0.00     0.016 A 
ATOM     20  C   UNL A   1      32.512  21.237  25.709  1.00  0.00     0.051 A 
ATOM     21  C   UNL A   1      34.358  22.285  26.932  1.00  0.00     0.047 A 
BRANCH  11  22
ATOM     22  C   UNL A   1      31.518  26.852  25.629  1.00  0.00    -0.018 A 
ATOM     23  C   UNL A   1      33.686  27.997  25.706  1.00  0.00     0.165 A 
ATOM     24  C   UNL A   1      32.687  27.224  26.311  1.00  0.00     0.058 A 
ATOM     25  C   UNL A   1      33.522  28.435  24.388  1.00  0.00     0.200 A 
ATOM     26  C   UNL A   1      32.327  28.169  23.704  1.00  0.00     0.165 A 
ATOM     27  C   UNL A   1      31.350  27.342  24.316  1.00  0.00     0.058 A 
BRANCH  23  28
ATOM     28  O   UNL A   1      34.833  28.151  26.443  1.00  0.00    -0.493 OA
ATOM     29  C   UNL A   1      34.859  29.255  27.341  1.00  0.00     0.278 C 
ENDBRANCH  23  28
BRANCH  25  30
ATOM     30  O   UNL A   1      34.570  29.035  23.742  1.00  0.00    -0.502 OA
ATOM     31  H   UNL A   1      35.058  29.712  24.169  1.00  0.00     0.293 HD
ENDBRANCH  25  30
BRANCH  26  32
ATOM     32  O   UNL A   1      32.012  28.599  22.433  1.00  0.00    -0.493 OA
ATOM     33  C   UNL A   1      30.644  28.921  22.177  1.00  0.00     0.278 C 
ENDBRANCH  26  32
ENDBRANCH  11  22
ENDBRANCH   9  10
ENDBRANCH   6   9
ENDBRANCH   3   6
ENDBRANCH   1   2
BRANCH   1  34
ATOM     34  C   UNL A   1      39.267  22.002  26.425  1.00  0.00     0.042 C 
BRANCH  34  35
ATOM     35  C   UNL A   1      40.245  22.961  27.089  1.00  0.00     0.118 C 
BRANCH  35  36
ATOM     36  N   UNL A   1      40.784  23.928  26.139  1.00  0.00    -0.352 N 
ATOM     37  C   UNL A   1      40.998  25.287  26.185  1.00  0.00     0.251 C 
ATOM     38  H   UNL A   1      41.052  23.523  25.282  1.00  0.00     0.163 HD
ATOM     39  O   UNL A   1      41.181  25.851  25.103  1.00  0.00    -0.269 OA
BRANCH  37  40
ATOM     40  C   UNL A   1      41.032  26.121  27.427  1.00  0.00     0.039 A 
ATOM     41  C   UNL A   1      39.931  26.034  28.297  1.00  0.00     0.014 A 
ATOM     42  C   UNL A   1      41.999  27.093  27.695  1.00  0.00     0.014 A 
ATOM     43  C   UNL A   1      39.800  26.891  29.404  1.00  0.00     0.010 A 
ATOM     44  C   UNL A   1      41.894  27.918  28.834  1.00  0.00     0.010 A 
ATOM     45  C   UNL A   1      40.786  27.844  29.696  1.00  0.00    -0.014 A 
BRANCH  45  46
ATOM     46  C   UNL A   1      40.649  28.760  30.874  1.00  0.00     0.031 A 
ATOM     47  C   UNL A   1      39.614  29.863  30.895  1.00  0.00     0.074 A 
ATOM     48  C   UNL A   1      41.460  28.618  31.943  1.00  0.00     0.049 A 
ATOM     49  N   UNL A   1      39.377  30.764  31.819  1.00  0.00    -0.248 NA
ATOM     50  C   UNL A   1      38.738  29.970  29.720  1.00  0.00     0.031 C 
ATOM     51  C   UNL A   1      42.505  27.603  32.078  1.00  0.00     0.029 A 
ATOM     52  N   UNL A   1      41.537  29.329  33.119  1.00  0.00    -0.354 N 
ATOM     53  C   UNL A   1      38.335  31.550  31.335  1.00  0.00     0.074 A 
ATOM     54  C   UNL A   1      38.016  31.044  30.016  1.00  0.00     0.031 C 
ATOM     55  C   UNL A   1      43.103  27.743  33.273  1.00  0.00     0.029 A 
ATOM     56  C   UNL A   1      42.518  28.883  33.976  1.00  0.00     0.049 A 
ATOM     57  H   UNL A   1      40.945  30.087  33.329  1.00  0.00     0.167 HD
ATOM     58  C   UNL A   1      37.689  32.585  31.933  1.00  0.00     0.037 A 
ATOM     59  C   UNL A   1      42.917  29.336  35.182  1.00  0.00     0.037 A 
ATOM     60  C   UNL A   1      37.995  33.092  33.249  1.00  0.00     0.049 A 
ATOM     61  C   UNL A   1      42.226  30.521  35.804  1.00  0.00     0.074 A 
ATOM     62  C   UNL A   1      37.366  34.111  33.947  1.00  0.00     0.029 A 
ATOM     63  N   UNL A   1      39.018  32.629  34.065  1.00  0.00    -0.354 N 
ATOM     64  N   UNL A   1      41.217  31.222  35.347  1.00  0.00    -0.248 NA
ATOM     65  C   UNL A   1      42.730  30.976  37.109  1.00  0.00     0.031 C 
ATOM     66  C   UNL A   1      38.043  34.302  35.158  1.00  0.00     0.029 A 
ATOM     67  C   UNL A   1      39.057  33.363  35.242  1.00  0.00     0.049 A 
ATOM     68  H   UNL A   1      39.627  31.889  33.840  1.00  0.00     0.167 HD
ATOM     69  C   UNL A   1      40.949  32.183  36.317  1.00  0.00     0.074 A 
ATOM     70  C   UNL A   1      41.894  31.967  37.392  1.00  0.00     0.031 C 
ATOM     71  C   UNL A   1      40.000  33.152  36.315  1.00  0.00     0.037 A 
BRANCH  58  72
ATOM     72  C   UNL A   1      36.586  33.260  31.156  1.00  0.00     0.058 A 
ATOM     73  C   UNL A   1      36.857  34.093  30.057  1.00  0.00     0.135 A 
ATOM     74  C   UNL A   1      35.238  33.054  31.497  1.00  0.00     0.135 A 
ATOM     75  F   UNL A   1      38.125  34.330  29.685  1.00  0.00    -0.206 F 
ATOM     76  C   UNL A   1      35.838  34.737  29.361  1.00  0.00     0.059 A 
ATOM     77  C   UNL A   1      34.201  33.662  30.795  1.00  0.00     0.059 A 
ATOM     78  F   UNL A   1      34.917  32.256  32.528  1.00  0.00    -0.206 F 
ATOM     79  C   UNL A   1      34.513  34.523  29.743  1.00  0.00     0.060 A 
BRANCH  79  80
ATOM     80  S   UNL A   1      33.206  35.398  28.857  1.00  0.00     0.124 S 
ATOM     81  O   UNL A   1      33.981  36.329  28.044  1.00  0.00    -0.237 OA
ATOM     82  O   UNL A   1      32.546  34.320  28.128  1.00  0.00    -0.237 OA
ATOM     83  O   UNL A   1      32.417  36.004  29.925  1.00  0.00    -0.744 OA
ENDBRANCH  79  80
ENDBRANCH  58  72
BRANCH  59  84
ATOM     84  C   UNL A   1      44.028  28.649  35.896  1.00  0.00     0.058 A 
ATOM     85  C   UNL A   1      45.361  29.039  35.700  1.00  0.00     0.135 A 
ATOM     86  C   UNL A   1      43.778  27.612  36.810  1.00  0.00     0.135 A 
ATOM     87  F   UNL A   1      45.652  30.014  34.826  1.00  0.00    -0.206 F 
ATOM     88  C   UNL A   1      46.408  28.427  36.382  1.00  0.00     0.059 A 
ATOM     89  C   UNL A   1      44.805  27.003  37.523  1.00  0.00     0.059 A 
ATOM     90  F   UNL A   1      42.519  27.208  37.039  1.00  0.00    -0.206 F 
ATOM     91  C   UNL A   1      46.118  27.415  37.299  1.00  0.00     0.060 A 
BRANCH  91  92
ATOM     92  S   UNL A   1      47.479  26.685  38.236  1.00  0.00     0.124 S 
ATOM     93  O   UNL A   1      47.951  27.826  39.008  1.00  0.00    -0.237 OA
ATOM     94  O   UNL A   1      46.804  25.635  38.988  1.00  0.00    -0.237 OA
ATOM     95  O   UNL A   1      48.387  26.212  37.191  1.00  0.00    -0.744 OA
ENDBRANCH  91  92
ENDBRANCH  59  84
BRANCH  71  96
ATOM     96  C   UNL A   1      39.909  34.048  37.524  1.00  0.00     0.058 A 
ATOM     97  C   UNL A   1      40.578  35.280  37.585  1.00  0.00     0.135 A 
ATOM     98  C   UNL A   1      39.096  33.693  38.614  1.00  0.00     0.135 A 
ATOM     99  F   UNL A   1      41.375  35.667  36.576  1.00  0.00    -0.206 F 
ATOM    100  C   UNL A   1      40.460  36.120  38.690  1.00  0.00     0.059 A 
ATOM    101  C   UNL A   1      38.942  34.529  39.717  1.00  0.00     0.059 A 
ATOM    102  F   UNL A   1      38.428  32.529  38.609  1.00  0.00    -0.206 F 
ATOM    103  C   UNL A   1      39.636  35.738  39.749  1.00  0.00     0.060 A 
BRANCH 103 104
ATOM    104  S   UNL A   1      39.459  36.857  41.156  1.00  0.00     0.124 S 
ATOM    105  O   UNL A   1      40.849  37.047  41.559  1.00  0.00    -0.237 OA
ATOM    106  O   UNL A   1      38.809  38.016  40.553  1.00  0.00    -0.237 OA
ATOM    107  O   UNL A   1      38.632  36.100  42.092  1.00  0.00    -0.744 OA
ENDBRANCH 103 104
ENDBRANCH  71  96
ENDBRANCH  45  46
ENDBRANCH  37  40
ENDBRANCH  35  36
ENDBRANCH  34  35
ENDBRANCH   1  34
TORSDOF 19
ENDMDL
