MODEL 1
REMARK VINA RESULT:     -12.8      0.000      0.000
REMARK SMILES O=C(NCCCNC(=O)[C@@H](Cc1ccc(O)cc1)Nc1c2ccccc2nc2ccccc12)c1ccc(-c2c3nc(c(-c4c(F)cc(S(=O)(=O)[O-])cc4F)c4ccc([nH]4)c(-c4c(F)cc(S(=O)(=O)[O-])cc4F)c4nc(c(-c5c(F)cc(S(=O)(=O)[O-])cc5F)c5ccc2[nH]5)C=C4)C=C3)cc1
REMARK SMILES IDX 5 1 4 2 3 3 1 4 2 5 34 7 35 8 99 9 36 10 98 11 37 12 38 13
REMARK SMILES IDX 39 14 92 15 40 16 97 17 91 18 93 19 41 20 96 21 90 22 89 23
REMARK SMILES IDX 42 25 76 26 55 27 75 28 56 29 59 30 74 31 94 32 57 33 58 34
REMARK SMILES IDX 73 36 95 37 60 38 43 39 44 40 53 41 45 42 46 43 52 44 54 45
REMARK SMILES IDX 47 46 48 47 49 48 50 49 51 50 77 51 78 52 87 53 79 54 80 55
REMARK SMILES IDX 86 56 88 57 81 58 82 59 83 60 84 61 85 62 61 63 62 64 71 65
REMARK SMILES IDX 63 66 64 67 70 68 72 69 65 70 66 71 67 72 68 73 69 74 6 75
REMARK SMILES IDX 7 76 8 77 9 79 10 80 11 81 12 82 13 83 18 84 14 85 17 86
REMARK SMILES IDX 15 87 16 88 19 90 20 92 21 93 33 94 22 95 26 96 28 97 32 98
REMARK SMILES IDX 23 99 25 100 27 101 29 102 31 103 24 104 30 105
REMARK H PARENT 3 6 93 24 59 35 7 78 16 89 19 91
REMARK Flexibility Score: inf
ROOT
ATOM      1  C   UNL A   1      33.214  28.043  25.793  1.00  0.00     0.042 C 
ENDROOT
BRANCH   1   2
ATOM      2  C   UNL A   1      32.935  28.437  27.233  1.00  0.00     0.118 C 
BRANCH   2   3
ATOM      3  N   UNL A   1      33.158  29.856  27.449  1.00  0.00    -0.352 N 
ATOM      4  O   UNL A   1      34.014  31.699  28.362  1.00  0.00    -0.269 OA
ATOM      5  C   UNL A   1      34.216  30.538  28.004  1.00  0.00     0.251 C 
ATOM      6  H   UNL A   1      32.421  30.433  27.145  1.00  0.00     0.163 HD
BRANCH   5   7
ATOM      7  C   UNL A   1      35.575  29.948  28.176  1.00  0.00     0.039 A 
ATOM      8  C   UNL A   1      36.539  29.959  27.168  1.00  0.00     0.014 A 
ATOM      9  C   UNL A   1      35.952  29.505  29.454  1.00  0.00     0.014 A 
ATOM     10  C   UNL A   1      37.822  29.461  27.399  1.00  0.00     0.010 A 
ATOM     11  C   UNL A   1      37.273  29.108  29.718  1.00  0.00     0.010 A 
ATOM     12  C   UNL A   1      38.224  29.094  28.691  1.00  0.00    -0.014 A 
BRANCH  12  13
ATOM     13  C   UNL A   1      39.674  28.889  28.970  1.00  0.00     0.031 A 
ATOM     14  C   UNL A   1      40.534  29.976  29.552  1.00  0.00     0.074 A 
ATOM     15  C   UNL A   1      40.216  27.688  28.670  1.00  0.00     0.049 A 
ATOM     16  N   UNL A   1      41.813  29.946  29.830  1.00  0.00    -0.248 NA
ATOM     17  C   UNL A   1      39.887  31.263  29.851  1.00  0.00     0.031 C 
ATOM     18  C   UNL A   1      39.492  26.567  28.060  1.00  0.00     0.029 A 
ATOM     19  N   UNL A   1      41.490  27.201  28.832  1.00  0.00    -0.354 N 
ATOM     20  C   UNL A   1      42.132  31.209  30.315  1.00  0.00     0.074 A 
ATOM     21  C   UNL A   1      40.912  31.989  30.284  1.00  0.00     0.031 C 
ATOM     22  C   UNL A   1      40.318  25.519  27.933  1.00  0.00     0.029 A 
ATOM     23  C   UNL A   1      41.647  25.909  28.382  1.00  0.00     0.049 A 
ATOM     24  H   UNL A   1      42.220  27.725  29.232  1.00  0.00     0.167 HD
ATOM     25  C   UNL A   1      43.333  31.667  30.746  1.00  0.00     0.037 A 
ATOM     26  C   UNL A   1      42.742  25.129  28.302  1.00  0.00     0.037 A 
ATOM     27  C   UNL A   1      44.534  30.871  30.800  1.00  0.00     0.049 A 
ATOM     28  C   UNL A   1      44.060  25.675  28.776  1.00  0.00     0.074 A 
ATOM     29  C   UNL A   1      45.773  31.225  31.308  1.00  0.00     0.029 A 
ATOM     30  N   UNL A   1      44.656  29.576  30.321  1.00  0.00    -0.354 N 
ATOM     31  N   UNL A   1      44.318  26.845  29.306  1.00  0.00    -0.248 NA
ATOM     32  C   UNL A   1      45.233  24.803  28.630  1.00  0.00     0.031 C 
ATOM     33  C   UNL A   1      46.659  30.166  31.085  1.00  0.00     0.029 A 
ATOM     34  C   UNL A   1      45.961  29.133  30.482  1.00  0.00     0.049 A 
ATOM     35  H   UNL A   1      43.926  29.049  29.925  1.00  0.00     0.167 HD
ATOM     36  C   UNL A   1      45.684  26.850  29.559  1.00  0.00     0.074 A 
ATOM     37  C   UNL A   1      46.191  25.554  29.154  1.00  0.00     0.031 C 
ATOM     38  C   UNL A   1      46.452  27.843  30.069  1.00  0.00     0.037 A 
BRANCH  25  39
ATOM     39  C   UNL A   1      43.436  33.100  31.194  1.00  0.00     0.058 A 
ATOM     40  C   UNL A   1      43.268  33.467  32.538  1.00  0.00     0.135 A 
ATOM     41  C   UNL A   1      43.829  34.097  30.286  1.00  0.00     0.135 A 
ATOM     42  F   UNL A   1      42.884  32.556  33.446  1.00  0.00    -0.206 F 
ATOM     43  C   UNL A   1      43.489  34.773  32.966  1.00  0.00     0.059 A 
ATOM     44  C   UNL A   1      44.074  35.404  30.696  1.00  0.00     0.059 A 
ATOM     45  F   UNL A   1      44.002  33.798  28.989  1.00  0.00    -0.206 F 
ATOM     46  C   UNL A   1      43.901  35.733  32.038  1.00  0.00     0.060 A 
BRANCH  46  47
ATOM     47  S   UNL A   1      44.242  37.407  32.625  1.00  0.00     0.124 S 
ATOM     48  O   UNL A   1      43.196  37.585  33.628  1.00  0.00    -0.237 OA
ATOM     49  O   UNL A   1      45.600  37.288  33.139  1.00  0.00    -0.237 OA
ATOM     50  O   UNL A   1      44.101  38.226  31.421  1.00  0.00    -0.744 OA
ENDBRANCH  46  47
ENDBRANCH  25  39
BRANCH  26  51
ATOM     51  C   UNL A   1      42.652  23.771  27.700  1.00  0.00     0.058 A 
ATOM     52  C   UNL A   1      42.477  22.631  28.497  1.00  0.00     0.135 A 
ATOM     53  C   UNL A   1      42.754  23.589  26.312  1.00  0.00     0.135 A 
ATOM     54  F   UNL A   1      42.380  22.751  29.829  1.00  0.00    -0.206 F 
ATOM     55  C   UNL A   1      42.435  21.355  27.942  1.00  0.00     0.059 A 
ATOM     56  C   UNL A   1      42.683  22.328  25.731  1.00  0.00     0.059 A 
ATOM     57  F   UNL A   1      42.904  24.650  25.503  1.00  0.00    -0.206 F 
ATOM     58  C   UNL A   1      42.543  21.215  26.557  1.00  0.00     0.060 A 
BRANCH  58  59
ATOM     59  S   UNL A   1      42.474  19.559  25.840  1.00  0.00     0.124 S 
ATOM     60  O   UNL A   1      43.439  19.671  24.753  1.00  0.00    -0.237 OA
ATOM     61  O   UNL A   1      42.874  18.718  26.965  1.00  0.00    -0.237 OA
ATOM     62  O   UNL A   1      41.077  19.429  25.436  1.00  0.00    -0.744 OA
ENDBRANCH  58  59
ENDBRANCH  26  51
BRANCH  38  63
ATOM     63  C   UNL A   1      47.921  27.565  30.219  1.00  0.00     0.058 A 
ATOM     64  C   UNL A   1      48.434  26.955  31.374  1.00  0.00     0.135 A 
ATOM     65  C   UNL A   1      48.817  27.872  29.184  1.00  0.00     0.135 A 
ATOM     66  F   UNL A   1      47.619  26.655  32.398  1.00  0.00    -0.206 F 
ATOM     67  C   UNL A   1      49.789  26.673  31.505  1.00  0.00     0.059 A 
ATOM     68  C   UNL A   1      50.173  27.575  29.282  1.00  0.00     0.059 A 
ATOM     69  F   UNL A   1      48.376  28.451  28.055  1.00  0.00    -0.206 F 
ATOM     70  C   UNL A   1      50.651  26.985  30.451  1.00  0.00     0.060 A 
BRANCH  70  71
ATOM     71  S   UNL A   1      52.402  26.578  30.618  1.00  0.00     0.124 S 
ATOM     72  O   UNL A   1      52.780  26.332  29.230  1.00  0.00    -0.237 OA
ATOM     73  O   UNL A   1      52.949  27.792  31.218  1.00  0.00    -0.237 OA
ATOM     74  O   UNL A   1      52.397  25.405  31.485  1.00  0.00    -0.744 OA
ENDBRANCH  70  71
ENDBRANCH  38  63
ENDBRANCH  12  13
ENDBRANCH   5   7
ENDBRANCH   2   3
ENDBRANCH   1   2
BRANCH   1  75
ATOM     75  C   UNL A   1      33.578  26.578  25.593  1.00  0.00     0.117 C 
BRANCH  75  76
ATOM     76  N   UNL A   1      32.876  25.731  26.542  1.00  0.00    -0.354 N 
ATOM     77  C   UNL A   1      32.174  24.573  26.403  1.00  0.00     0.242 C 
ATOM     78  H   UNL A   1      32.915  26.060  27.468  1.00  0.00     0.163 HD
ATOM     79  O   UNL A   1      31.496  24.248  27.389  1.00  0.00    -0.273 OA
BRANCH  77  80
ATOM     80  C   UNL A   1      32.162  23.673  25.140  1.00  0.00     0.173 C 
BRANCH  80  81
ATOM     81  C   UNL A   1      31.009  23.982  24.150  1.00  0.00     0.070 C 
BRANCH  81  82
ATOM     82  C   UNL A   1      30.782  25.356  23.560  1.00  0.00    -0.045 A 
ATOM     83  C   UNL A   1      29.811  26.240  24.052  1.00  0.00     0.007 A 
ATOM     84  C   UNL A   1      31.636  25.808  22.538  1.00  0.00     0.007 A 
ATOM     85  C   UNL A   1      29.609  27.487  23.446  1.00  0.00     0.046 A 
ATOM     86  C   UNL A   1      31.442  27.054  21.939  1.00  0.00     0.046 A 
ATOM     87  C   UNL A   1      30.409  27.869  22.375  1.00  0.00     0.115 A 
BRANCH  87  88
ATOM     88  O   UNL A   1      30.200  29.035  21.704  1.00  0.00    -0.508 OA
ATOM     89  H   UNL A   1      30.786  29.757  21.824  1.00  0.00     0.293 HD
ENDBRANCH  87  88
ENDBRANCH  81  82
ENDBRANCH  80  81
BRANCH  80  90
ATOM     90  N   UNL A   1      33.489  23.516  24.513  1.00  0.00    -0.372 N 
ATOM     91  H   UNL A   1      33.801  24.222  23.902  1.00  0.00     0.161 HD
BRANCH  90  92
ATOM     92  C   UNL A   1      34.333  22.408  24.738  1.00  0.00     0.054 A 
ATOM     93  C   UNL A   1      33.911  21.057  24.516  1.00  0.00     0.024 A 
ATOM     94  C   UNL A   1      35.669  22.638  25.202  1.00  0.00     0.024 A 
ATOM     95  C   UNL A   1      32.634  20.650  24.056  1.00  0.00     0.012 A 
ATOM     96  C   UNL A   1      34.859  20.035  24.729  1.00  0.00     0.073 A 
ATOM     97  C   UNL A   1      36.514  21.517  25.340  1.00  0.00     0.073 A 
ATOM     98  C   UNL A   1      36.208  23.908  25.543  1.00  0.00     0.012 A 
ATOM     99  C   UNL A   1      32.287  19.310  23.873  1.00  0.00     0.001 A 
ATOM    100  C   UNL A   1      34.507  18.706  24.524  1.00  0.00     0.029 A 
ATOM    101  N   UNL A   1      36.118  20.265  25.110  1.00  0.00    -0.248 NA
ATOM    102  C   UNL A   1      37.832  21.689  25.740  1.00  0.00     0.029 A 
ATOM    103  C   UNL A   1      37.532  24.057  25.961  1.00  0.00     0.001 A 
ATOM    104  C   UNL A   1      33.231  18.330  24.110  1.00  0.00     0.002 A 
ATOM    105  C   UNL A   1      38.352  22.944  26.048  1.00  0.00     0.002 A 
ENDBRANCH  90  92
ENDBRANCH  80  90
ENDBRANCH  77  80
ENDBRANCH  75  76
ENDBRANCH   1  75
TORSDOF 18
ENDMDL
MODEL 2
REMARK VINA RESULT:     -12.5      0.564      7.955
REMARK SMILES O=C(NCCCNC(=O)[C@@H](Cc1ccc(O)cc1)Nc1c2ccccc2nc2ccccc12)c1ccc(-c2c3nc(c(-c4c(F)cc(S(=O)(=O)[O-])cc4F)c4ccc([nH]4)c(-c4c(F)cc(S(=O)(=O)[O-])cc4F)c4nc(c(-c5c(F)cc(S(=O)(=O)[O-])cc5F)c5ccc2[nH]5)C=C4)C=C3)cc1
REMARK SMILES IDX 5 1 4 2 3 3 1 4 2 5 34 7 35 8 99 9 36 10 98 11 37 12 38 13
REMARK SMILES IDX 39 14 92 15 40 16 97 17 91 18 93 19 41 20 96 21 90 22 89 23
REMARK SMILES IDX 42 25 76 26 55 27 75 28 56 29 59 30 74 31 94 32 57 33 58 34
REMARK SMILES IDX 73 36 95 37 60 38 43 39 44 40 53 41 45 42 46 43 52 44 54 45
REMARK SMILES IDX 47 46 48 47 49 48 50 49 51 50 77 51 78 52 87 53 79 54 80 55
REMARK SMILES IDX 86 56 88 57 81 58 82 59 83 60 84 61 85 62 61 63 62 64 71 65
REMARK SMILES IDX 63 66 64 67 70 68 72 69 65 70 66 71 67 72 68 73 69 74 6 75
REMARK SMILES IDX 7 76 8 77 9 79 10 80 11 81 12 82 13 83 18 84 14 85 17 86
REMARK SMILES IDX 15 87 16 88 19 90 20 92 21 93 33 94 22 95 26 96 28 97 32 98
REMARK SMILES IDX 23 99 25 100 27 101 29 102 31 103 24 104 30 105
REMARK H PARENT 3 6 93 24 59 35 7 78 16 89 19 91
REMARK Flexibility Score: inf
ROOT
ATOM      1  C   UNL A   1      33.202  28.237  25.815  1.00  0.00     0.042 C 
ENDROOT
BRANCH   1   2
ATOM      2  C   UNL A   1      33.017  28.592  27.281  1.00  0.00     0.118 C 
BRANCH   2   3
ATOM      3  N   UNL A   1      33.296  29.996  27.527  1.00  0.00    -0.352 N 
ATOM      4  O   UNL A   1      34.232  31.783  28.470  1.00  0.00    -0.269 OA
ATOM      5  C   UNL A   1      34.387  30.625  28.080  1.00  0.00     0.251 C 
ATOM      6  H   UNL A   1      32.576  30.607  27.248  1.00  0.00     0.163 HD
BRANCH   5   7
ATOM      7  C   UNL A   1      35.724  29.982  28.218  1.00  0.00     0.039 A 
ATOM      8  C   UNL A   1      36.661  29.954  27.184  1.00  0.00     0.014 A 
ATOM      9  C   UNL A   1      36.118  29.525  29.486  1.00  0.00     0.014 A 
ATOM     10  C   UNL A   1      37.929  29.404  27.382  1.00  0.00     0.010 A 
ATOM     11  C   UNL A   1      37.428  29.075  29.715  1.00  0.00     0.010 A 
ATOM     12  C   UNL A   1      38.351  29.023  28.663  1.00  0.00    -0.014 A 
BRANCH  12  13
ATOM     13  C   UNL A   1      39.798  28.760  28.904  1.00  0.00     0.031 A 
ATOM     14  C   UNL A   1      40.453  27.472  28.488  1.00  0.00     0.074 A 
ATOM     15  C   UNL A   1      40.522  29.713  29.531  1.00  0.00     0.049 A 
ATOM     16  N   UNL A   1      41.697  27.098  28.649  1.00  0.00    -0.248 NA
ATOM     17  C   UNL A   1      39.610  26.471  27.815  1.00  0.00     0.031 C 
ATOM     18  C   UNL A   1      39.988  30.988  30.024  1.00  0.00     0.029 A 
ATOM     19  N   UNL A   1      41.853  29.770  29.864  1.00  0.00    -0.354 N 
ATOM     20  C   UNL A   1      41.786  25.815  28.121  1.00  0.00     0.074 A 
ATOM     21  C   UNL A   1      40.464  25.468  27.642  1.00  0.00     0.031 C 
ATOM     22  C   UNL A   1      40.982  31.710  30.559  1.00  0.00     0.029 A 
ATOM     23  C   UNL A   1      42.209  30.928  30.518  1.00  0.00     0.049 A 
ATOM     24  H   UNL A   1      42.492  29.052  29.654  1.00  0.00     0.167 HD
ATOM     25  C   UNL A   1      42.873  25.009  28.045  1.00  0.00     0.037 A 
ATOM     26  C   UNL A   1      43.381  31.312  31.060  1.00  0.00     0.037 A 
ATOM     27  C   UNL A   1      44.192  25.378  28.498  1.00  0.00     0.049 A 
ATOM     28  C   UNL A   1      44.561  30.387  30.969  1.00  0.00     0.074 A 
ATOM     29  C   UNL A   1      45.370  24.661  28.378  1.00  0.00     0.029 A 
ATOM     30  N   UNL A   1      44.507  26.551  29.169  1.00  0.00    -0.354 N 
ATOM     31  N   UNL A   1      44.639  29.212  30.393  1.00  0.00    -0.248 NA
ATOM     32  C   UNL A   1      45.805  30.831  31.611  1.00  0.00     0.031 C 
ATOM     33  C   UNL A   1      46.386  25.372  29.025  1.00  0.00     0.029 A 
ATOM     34  C   UNL A   1      45.852  26.556  29.506  1.00  0.00     0.049 A 
ATOM     35  H   UNL A   1      43.870  27.272  29.375  1.00  0.00     0.167 HD
ATOM     36  C   UNL A   1      45.942  28.777  30.602  1.00  0.00     0.074 A 
ATOM     37  C   UNL A   1      46.625  29.828  31.328  1.00  0.00     0.031 C 
ATOM     38  C   UNL A   1      46.517  27.606  30.235  1.00  0.00     0.037 A 
BRANCH  25  39
ATOM     39  C   UNL A   1      42.708  23.634  27.458  1.00  0.00     0.058 A 
ATOM     40  C   UNL A   1      42.902  23.387  26.090  1.00  0.00     0.135 A 
ATOM     41  C   UNL A   1      42.472  22.532  28.296  1.00  0.00     0.135 A 
ATOM     42  F   UNL A   1      43.121  24.404  25.243  1.00  0.00    -0.206 F 
ATOM     43  C   UNL A   1      42.872  22.094  25.575  1.00  0.00     0.059 A 
ATOM     44  C   UNL A   1      42.458  21.229  27.806  1.00  0.00     0.059 A 
ATOM     45  F   UNL A   1      42.279  22.714  29.612  1.00  0.00    -0.206 F 
ATOM     46  C   UNL A   1      42.658  21.020  26.444  1.00  0.00     0.060 A 
BRANCH  46  47
ATOM     47  S   UNL A   1      42.684  19.346  25.766  1.00  0.00     0.124 S 
ATOM     48  O   UNL A   1      41.293  19.173  25.359  1.00  0.00    -0.237 OA
ATOM     49  O   UNL A   1      43.651  19.462  24.682  1.00  0.00    -0.237 OA
ATOM     50  O   UNL A   1      43.111  18.526  26.899  1.00  0.00    -0.744 OA
ENDBRANCH  46  47
ENDBRANCH  25  39
BRANCH  26  51
ATOM     51  C   UNL A   1      43.482  32.608  31.785  1.00  0.00     0.058 A 
ATOM     52  C   UNL A   1      43.874  33.782  31.127  1.00  0.00     0.135 A 
ATOM     53  C   UNL A   1      43.199  32.690  33.158  1.00  0.00     0.135 A 
ATOM     54  F   UNL A   1      44.161  33.754  29.817  1.00  0.00    -0.206 F 
ATOM     55  C   UNL A   1      44.012  34.987  31.810  1.00  0.00     0.059 A 
ATOM     56  C   UNL A   1      43.297  33.889  33.855  1.00  0.00     0.059 A 
ATOM     57  F   UNL A   1      42.802  31.599  33.830  1.00  0.00    -0.206 F 
ATOM     58  C   UNL A   1      43.724  35.029  33.176  1.00  0.00     0.060 A 
BRANCH  58  59
ATOM     59  S   UNL A   1      43.889  36.597  34.054  1.00  0.00     0.124 S 
ATOM     60  O   UNL A   1      42.496  37.004  34.188  1.00  0.00    -0.237 OA
ATOM     61  O   UNL A   1      44.558  36.192  35.287  1.00  0.00    -0.237 OA
ATOM     62  O   UNL A   1      44.700  37.404  33.147  1.00  0.00    -0.744 OA
ENDBRANCH  58  59
ENDBRANCH  26  51
BRANCH  38  63
ATOM     63  C   UNL A   1      47.957  27.401  30.613  1.00  0.00     0.058 A 
ATOM     64  C   UNL A   1      48.312  26.743  31.800  1.00  0.00     0.135 A 
ATOM     65  C   UNL A   1      48.988  27.827  29.763  1.00  0.00     0.135 A 
ATOM     66  F   UNL A   1      47.362  26.329  32.653  1.00  0.00    -0.206 F 
ATOM     67  C   UNL A   1      49.643  26.530  32.141  1.00  0.00     0.059 A 
ATOM     68  C   UNL A   1      50.326  27.601  30.070  1.00  0.00     0.059 A 
ATOM     69  F   UNL A   1      48.701  28.457  28.612  1.00  0.00    -0.206 F 
ATOM     70  C   UNL A   1      50.644  26.960  31.267  1.00  0.00     0.060 A 
BRANCH  70  71
ATOM     71  S   UNL A   1      52.366  26.642  31.702  1.00  0.00     0.124 S 
ATOM     72  O   UNL A   1      52.888  26.092  30.455  1.00  0.00    -0.237 OA
ATOM     73  O   UNL A   1      52.850  27.973  32.059  1.00  0.00    -0.237 OA
ATOM     74  O   UNL A   1      52.268  25.700  32.811  1.00  0.00    -0.744 OA
ENDBRANCH  70  71
ENDBRANCH  38  63
ENDBRANCH  12  13
ENDBRANCH   5   7
ENDBRANCH   2   3
ENDBRANCH   1   2
BRANCH   1  75
ATOM     75  C   UNL A   1      33.474  26.762  25.547  1.00  0.00     0.117 C 
BRANCH  75  76
ATOM     76  N   UNL A   1      32.783  25.920  26.508  1.00  0.00    -0.354 N 
ATOM     77  C   UNL A   1      32.107  24.745  26.389  1.00  0.00     0.242 C 
ATOM     78  H   UNL A   1      32.810  26.269  27.428  1.00  0.00     0.163 HD
ATOM     79  O   UNL A   1      31.428  24.426  27.377  1.00  0.00    -0.273 OA
BRANCH  77  80
ATOM     80  C   UNL A   1      32.121  23.820  25.144  1.00  0.00     0.173 C 
BRANCH  80  81
ATOM     81  C   UNL A   1      30.983  24.102  24.129  1.00  0.00     0.070 C 
BRANCH  81  82
ATOM     82  C   UNL A   1      30.726  25.473  23.545  1.00  0.00    -0.045 A 
ATOM     83  C   UNL A   1      29.712  26.319  24.015  1.00  0.00     0.007 A 
ATOM     84  C   UNL A   1      31.595  25.965  22.554  1.00  0.00     0.007 A 
ATOM     85  C   UNL A   1      29.485  27.565  23.416  1.00  0.00     0.046 A 
ATOM     86  C   UNL A   1      31.377  27.210  21.961  1.00  0.00     0.046 A 
ATOM     87  C   UNL A   1      30.303  27.985  22.373  1.00  0.00     0.115 A 
BRANCH  87  88
ATOM     88  O   UNL A   1      30.074  29.150  21.708  1.00  0.00    -0.508 OA
ATOM     89  H   UNL A   1      29.849  29.135  20.797  1.00  0.00     0.293 HD
ENDBRANCH  87  88
ENDBRANCH  81  82
ENDBRANCH  80  81
BRANCH  80  90
ATOM     90  N   UNL A   1      33.460  23.659  24.542  1.00  0.00    -0.372 N 
ATOM     91  H   UNL A   1      33.798  24.379  23.962  1.00  0.00     0.161 HD
BRANCH  90  92
ATOM     92  C   UNL A   1      34.279  22.529  24.750  1.00  0.00     0.054 A 
ATOM     93  C   UNL A   1      33.826  21.192  24.513  1.00  0.00     0.024 A 
ATOM     94  C   UNL A   1      35.621  22.723  25.214  1.00  0.00     0.024 A 
ATOM     95  C   UNL A   1      32.538  20.820  24.050  1.00  0.00     0.012 A 
ATOM     96  C   UNL A   1      34.751  20.146  24.710  1.00  0.00     0.073 A 
ATOM     97  C   UNL A   1      36.440  21.582  25.336  1.00  0.00     0.073 A 
ATOM     98  C   UNL A   1      36.189  23.977  25.569  1.00  0.00     0.012 A 
ATOM     99  C   UNL A   1      32.161  19.491  23.852  1.00  0.00     0.001 A 
ATOM    100  C   UNL A   1      34.369  18.828  24.489  1.00  0.00     0.029 A 
ATOM    101  N   UNL A   1      36.016  20.342  25.090  1.00  0.00    -0.248 NA
ATOM    102  C   UNL A   1      37.763  21.719  25.734  1.00  0.00     0.029 A 
ATOM    103  C   UNL A   1      37.517  24.091  25.986  1.00  0.00     0.001 A 
ATOM    104  C   UNL A   1      33.083  18.486  24.074  1.00  0.00     0.002 A 
ATOM    105  C   UNL A   1      38.312  22.958  26.056  1.00  0.00     0.002 A 
ENDBRANCH  90  92
ENDBRANCH  80  90
ENDBRANCH  77  80
ENDBRANCH  75  76
ENDBRANCH   1  75
TORSDOF 18
ENDMDL
MODEL 3
REMARK VINA RESULT:     -12.4      2.959      9.456
REMARK SMILES O=C(NCCCNC(=O)[C@@H](Cc1ccc(O)cc1)Nc1c2ccccc2nc2ccccc12)c1ccc(-c2c3nc(c(-c4c(F)cc(S(=O)(=O)[O-])cc4F)c4ccc([nH]4)c(-c4c(F)cc(S(=O)(=O)[O-])cc4F)c4nc(c(-c5c(F)cc(S(=O)(=O)[O-])cc5F)c5ccc2[nH]5)C=C4)C=C3)cc1
REMARK SMILES IDX 5 1 4 2 3 3 1 4 2 5 34 7 35 8 99 9 36 10 98 11 37 12 38 13
REMARK SMILES IDX 39 14 92 15 40 16 97 17 91 18 93 19 41 20 96 21 90 22 89 23
REMARK SMILES IDX 42 25 76 26 55 27 75 28 56 29 59 30 74 31 94 32 57 33 58 34
REMARK SMILES IDX 73 36 95 37 60 38 43 39 44 40 53 41 45 42 46 43 52 44 54 45
REMARK SMILES IDX 47 46 48 47 49 48 50 49 51 50 77 51 78 52 87 53 79 54 80 55
REMARK SMILES IDX 86 56 88 57 81 58 82 59 83 60 84 61 85 62 61 63 62 64 71 65
REMARK SMILES IDX 63 66 64 67 70 68 72 69 65 70 66 71 67 72 68 73 69 74 6 75
REMARK SMILES IDX 7 76 8 77 9 79 10 80 11 81 12 82 13 83 18 84 14 85 17 86
REMARK SMILES IDX 15 87 16 88 19 90 20 92 21 93 33 94 22 95 26 96 28 97 32 98
REMARK SMILES IDX 23 99 25 100 27 101 29 102 31 103 24 104 30 105
REMARK H PARENT 3 6 93 24 59 35 7 78 16 89 19 91
REMARK Flexibility Score: inf
ROOT
ATOM      1  C   UNL A   1      35.491  23.232  25.169  1.00  0.00     0.042 C 
ENDROOT
BRANCH   1   2
ATOM      2  C   UNL A   1      36.841  23.432  24.503  1.00  0.00     0.118 C 
BRANCH   2   3
ATOM      3  N   UNL A   1      37.858  22.581  25.097  1.00  0.00    -0.352 N 
ATOM      4  O   UNL A   1      39.830  22.012  25.964  1.00  0.00    -0.269 OA
ATOM      5  C   UNL A   1      38.959  22.877  25.868  1.00  0.00     0.251 C 
ATOM      6  H   UNL A   1      37.739  21.621  24.916  1.00  0.00     0.163 HD
BRANCH   5   7
ATOM      7  C   UNL A   1      39.135  24.172  26.585  1.00  0.00     0.039 A 
ATOM      8  C   UNL A   1      38.554  24.436  27.826  1.00  0.00     0.014 A 
ATOM      9  C   UNL A   1      40.049  25.103  26.066  1.00  0.00     0.014 A 
ATOM     10  C   UNL A   1      38.807  25.635  28.494  1.00  0.00     0.010 A 
ATOM     11  C   UNL A   1      40.390  26.258  26.789  1.00  0.00     0.010 A 
ATOM     12  C   UNL A   1      39.778  26.528  28.019  1.00  0.00    -0.014 A 
BRANCH  12  13
ATOM     13  C   UNL A   1      40.262  27.618  28.912  1.00  0.00     0.031 A 
ATOM     14  C   UNL A   1      41.566  27.519  29.653  1.00  0.00     0.074 A 
ATOM     15  C   UNL A   1      39.484  28.713  29.059  1.00  0.00     0.049 A 
ATOM     16  N   UNL A   1      42.105  28.381  30.479  1.00  0.00    -0.248 NA
ATOM     17  C   UNL A   1      42.365  26.299  29.457  1.00  0.00     0.031 C 
ATOM     18  C   UNL A   1      38.175  28.906  28.426  1.00  0.00     0.029 A 
ATOM     19  N   UNL A   1      39.669  29.868  29.778  1.00  0.00    -0.354 N 
ATOM     20  C   UNL A   1      43.291  27.804  30.918  1.00  0.00     0.074 A 
ATOM     21  C   UNL A   1      43.390  26.510  30.275  1.00  0.00     0.031 C 
ATOM     22  C   UNL A   1      37.695  30.114  28.753  1.00  0.00     0.029 A 
ATOM     23  C   UNL A   1      38.621  30.755  29.676  1.00  0.00     0.049 A 
ATOM     24  H   UNL A   1      40.474  30.046  30.315  1.00  0.00     0.167 HD
ATOM     25  C   UNL A   1      44.208  28.314  31.776  1.00  0.00     0.037 A 
ATOM     26  C   UNL A   1      38.403  31.938  30.282  1.00  0.00     0.037 A 
ATOM     27  C   UNL A   1      44.113  29.617  32.387  1.00  0.00     0.049 A 
ATOM     28  C   UNL A   1      39.434  32.466  31.239  1.00  0.00     0.074 A 
ATOM     29  C   UNL A   1      45.040  30.253  33.196  1.00  0.00     0.029 A 
ATOM     30  N   UNL A   1      43.031  30.476  32.272  1.00  0.00    -0.354 N 
ATOM     31  N   UNL A   1      40.586  31.938  31.574  1.00  0.00    -0.248 NA
ATOM     32  C   UNL A   1      39.133  33.739  31.906  1.00  0.00     0.031 C 
ATOM     33  C   UNL A   1      44.495  31.470  33.617  1.00  0.00     0.029 A 
ATOM     34  C   UNL A   1      43.248  31.616  33.031  1.00  0.00     0.049 A 
ATOM     35  H   UNL A   1      42.227  30.302  31.732  1.00  0.00     0.167 HD
ATOM     36  C   UNL A   1      41.148  32.816  32.492  1.00  0.00     0.074 A 
ATOM     37  C   UNL A   1      40.225  33.924  32.633  1.00  0.00     0.031 C 
ATOM     38  C   UNL A   1      42.319  32.708  33.167  1.00  0.00     0.037 A 
BRANCH  25  39
ATOM     39  C   UNL A   1      45.406  27.475  32.129  1.00  0.00     0.058 A 
ATOM     40  C   UNL A   1      46.586  27.515  31.372  1.00  0.00     0.135 A 
ATOM     41  C   UNL A   1      45.411  26.715  33.311  1.00  0.00     0.135 A 
ATOM     42  F   UNL A   1      46.633  28.218  30.229  1.00  0.00    -0.206 F 
ATOM     43  C   UNL A   1      47.731  26.835  31.775  1.00  0.00     0.059 A 
ATOM     44  C   UNL A   1      46.551  26.042  33.744  1.00  0.00     0.059 A 
ATOM     45  F   UNL A   1      44.308  26.642  34.072  1.00  0.00    -0.206 F 
ATOM     46  C   UNL A   1      47.706  26.108  32.968  1.00  0.00     0.060 A 
BRANCH  46  47
ATOM     47  S   UNL A   1      49.220  25.282  33.505  1.00  0.00     0.124 S 
ATOM     48  O   UNL A   1      49.912  26.362  34.202  1.00  0.00    -0.237 OA
ATOM     49  O   UNL A   1      48.709  24.209  34.348  1.00  0.00    -0.237 OA
ATOM     50  O   UNL A   1      49.836  24.850  32.251  1.00  0.00    -0.744 OA
ENDBRANCH  46  47
ENDBRANCH  25  39
BRANCH  26  51
ATOM     51  C   UNL A   1      37.132  32.677  30.047  1.00  0.00     0.058 A 
ATOM     52  C   UNL A   1      37.053  33.706  29.098  1.00  0.00     0.135 A 
ATOM     53  C   UNL A   1      35.975  32.373  30.781  1.00  0.00     0.135 A 
ATOM     54  F   UNL A   1      38.133  34.038  28.375  1.00  0.00    -0.206 F 
ATOM     55  C   UNL A   1      35.879  34.428  28.905  1.00  0.00     0.059 A 
ATOM     56  C   UNL A   1      34.781  33.058  30.583  1.00  0.00     0.059 A 
ATOM     57  F   UNL A   1      35.993  31.384  31.688  1.00  0.00    -0.206 F 
ATOM     58  C   UNL A   1      34.749  34.099  29.656  1.00  0.00     0.060 A 
BRANCH  58  59
ATOM     59  S   UNL A   1      33.225  35.029  29.392  1.00  0.00     0.124 S 
ATOM     60  O   UNL A   1      33.742  36.310  28.928  1.00  0.00    -0.237 OA
ATOM     61  O   UNL A   1      32.537  34.217  28.392  1.00  0.00    -0.237 OA
ATOM     62  O   UNL A   1      32.605  35.037  30.715  1.00  0.00    -0.744 OA
ENDBRANCH  58  59
ENDBRANCH  26  51
BRANCH  38  63
ATOM     63  C   UNL A   1      42.667  33.818  34.118  1.00  0.00     0.058 A 
ATOM     64  C   UNL A   1      42.366  33.728  35.486  1.00  0.00     0.135 A 
ATOM     65  C   UNL A   1      43.344  34.961  33.668  1.00  0.00     0.135 A 
ATOM     66  F   UNL A   1      41.707  32.661  35.963  1.00  0.00    -0.206 F 
ATOM     67  C   UNL A   1      42.709  34.742  36.373  1.00  0.00     0.059 A 
ATOM     68  C   UNL A   1      43.721  35.977  34.541  1.00  0.00     0.059 A 
ATOM     69  F   UNL A   1      43.660  35.094  32.369  1.00  0.00    -0.206 F 
ATOM     70  C   UNL A   1      43.390  35.862  35.891  1.00  0.00     0.060 A 
BRANCH  70  71
ATOM     71  S   UNL A   1      43.864  37.154  37.059  1.00  0.00     0.124 S 
ATOM     72  O   UNL A   1      45.050  36.569  37.678  1.00  0.00    -0.237 OA
ATOM     73  O   UNL A   1      44.106  38.296  36.182  1.00  0.00    -0.237 OA
ATOM     74  O   UNL A   1      42.697  37.272  37.926  1.00  0.00    -0.744 OA
ENDBRANCH  70  71
ENDBRANCH  38  63
ENDBRANCH  12  13
ENDBRANCH   5   7
ENDBRANCH   2   3
ENDBRANCH   1   2
BRANCH   1  75
ATOM     75  C   UNL A   1      34.588  24.459  25.160  1.00  0.00     0.117 C 
BRANCH  75  76
ATOM     76  N   UNL A   1      34.626  25.125  23.870  1.00  0.00    -0.354 N 
ATOM     77  C   UNL A   1      33.651  25.588  23.041  1.00  0.00     0.242 C 
ATOM     78  H   UNL A   1      35.537  25.269  23.527  1.00  0.00     0.163 HD
ATOM     79  O   UNL A   1      34.029  25.886  21.898  1.00  0.00    -0.273 OA
BRANCH  77  80
ATOM     80  C   UNL A   1      32.155  25.755  23.415  1.00  0.00     0.173 C 
BRANCH  80  81
ATOM     81  C   UNL A   1      31.295  24.487  23.175  1.00  0.00     0.070 C 
BRANCH  81  82
ATOM     82  C   UNL A   1      31.623  23.145  23.789  1.00  0.00    -0.045 A 
ATOM     83  C   UNL A   1      32.303  22.138  23.090  1.00  0.00     0.007 A 
ATOM     84  C   UNL A   1      31.320  22.925  25.146  1.00  0.00     0.007 A 
ATOM     85  C   UNL A   1      32.549  20.895  23.688  1.00  0.00     0.046 A 
ATOM     86  C   UNL A   1      31.573  21.690  25.746  1.00  0.00     0.046 A 
ATOM     87  C   UNL A   1      32.153  20.674  25.002  1.00  0.00     0.115 A 
BRANCH  87  88
ATOM     88  O   UNL A   1      32.300  19.459  25.600  1.00  0.00    -0.508 OA
ATOM     89  H   UNL A   1      31.993  19.327  26.477  1.00  0.00     0.293 HD
ENDBRANCH  87  88
ENDBRANCH  81  82
ENDBRANCH  80  81
BRANCH  80  90
ATOM     90  N   UNL A   1      31.941  26.408  24.722  1.00  0.00    -0.372 N 
ATOM     91  H   UNL A   1      31.926  25.842  25.527  1.00  0.00     0.161 HD
BRANCH  90  92
ATOM     92  C   UNL A   1      31.753  27.797  24.879  1.00  0.00     0.054 A 
ATOM     93  C   UNL A   1      30.708  28.516  24.215  1.00  0.00     0.024 A 
ATOM     94  C   UNL A   1      32.639  28.522  25.741  1.00  0.00     0.024 A 
ATOM     95  C   UNL A   1      29.744  27.960  23.337  1.00  0.00     0.012 A 
ATOM     96  C   UNL A   1      30.589  29.895  24.488  1.00  0.00     0.073 A 
ATOM     97  C   UNL A   1      32.378  29.894  25.940  1.00  0.00     0.073 A 
ATOM     98  C   UNL A   1      33.768  27.969  26.404  1.00  0.00     0.012 A 
ATOM     99  C   UNL A   1      28.757  28.725  22.714  1.00  0.00     0.001 A 
ATOM    100  C   UNL A   1      29.589  30.642  23.877  1.00  0.00     0.029 A 
ATOM    101  N   UNL A   1      31.387  30.549  25.335  1.00  0.00    -0.248 NA
ATOM    102  C   UNL A   1      33.176  30.631  26.803  1.00  0.00     0.029 A 
ATOM    103  C   UNL A   1      34.570  28.734  27.254  1.00  0.00     0.001 A 
ATOM    104  C   UNL A   1      28.679  30.078  22.985  1.00  0.00     0.002 A 
ATOM    105  C   UNL A   1      34.266  30.069  27.465  1.00  0.00     0.002 A 
ENDBRANCH  90  92
ENDBRANCH  80  90
ENDBRANCH  77  80
ENDBRANCH  75  76
ENDBRANCH   1  75
TORSDOF 18
ENDMDL
