MODEL 1
REMARK VINA RESULT:     -13.0      0.000      0.000
REMARK SMILES CC(C)(C(=O)N1C[C@@H]2c3ccccc3OC[C@]2(C(=O)NCCCNC(=O)c2ccc(-c3c4nc(c(-c5c(F)cc(S(=O)(=O)[O-])cc5F)c5ccc([nH]5)c(-c5c(F)cc(S(=O)(=O)[O-])cc5F)c5nc(c(-c6c(F)cc(S(=O)(=O)[O-])cc6F)c6ccc3[nH]6)C=C5)C=C4)cc2)C1)[NH+]1CCOCC1
REMARK SMILES IDX 22 1 21 2 20 3 18 4 19 5 17 7 6 8 7 9 93 10 8 11 9 12 16 13
REMARK SMILES IDX 10 14 14 15 15 16 11 17 13 18 12 19 4 20 5 21 2 22 1 23 3 24
REMARK SMILES IDX 94 25 95 26 99 27 96 29 98 30 97 31 23 32 24 33 25 34 26 36
REMARK SMILES IDX 27 37 28 38 92 39 29 40 91 41 30 42 31 43 32 44 85 45 33 46
REMARK SMILES IDX 90 47 84 48 86 49 34 50 89 51 83 52 82 53 35 55 69 56 48 57
REMARK SMILES IDX 68 58 49 59 52 60 67 61 87 62 50 63 51 64 66 66 88 67 53 68
REMARK SMILES IDX 36 69 37 70 46 71 38 72 39 73 45 74 47 75 40 76 41 77 42 78
REMARK SMILES IDX 43 79 44 80 70 81 71 82 80 83 72 84 73 85 79 86 81 87 74 88
REMARK SMILES IDX 75 89 76 90 77 91 78 92 54 93 55 94 64 95 56 96 57 97 63 98
REMARK SMILES IDX 65 99 58 100 59 101 60 102 61 103 62 104
REMARK H PARENT 20 6 94 28 24 35 86 54 52 65
REMARK Flexibility Score: inf
ROOT
ATOM      1  C   UNL A   1      38.870  22.207  26.193  1.00  0.00     0.042 C 
ENDROOT
BRANCH   1   2
ATOM      2  C   UNL A   1      37.582  22.981  26.025  1.00  0.00     0.117 C 
BRANCH   2   3
ATOM      3  N   UNL A   1      37.252  23.375  24.654  1.00  0.00    -0.355 N 
ATOM      4  C   UNL A   1      35.977  23.446  24.109  1.00  0.00     0.232 C 
ATOM      5  O   UNL A   1      35.768  24.237  23.187  1.00  0.00    -0.274 OA
ATOM      6  H   UNL A   1      38.004  23.610  24.064  1.00  0.00     0.163 HD
BRANCH   4   7
ATOM      7  C   UNL A   1      34.910  22.463  24.711  1.00  0.00     0.109 C 
ATOM      8  N   UNL A   1      32.827  23.605  25.328  1.00  0.00    -0.335 N 
ATOM      9  C   UNL A   1      32.566  22.191  25.347  1.00  0.00     0.129 C 
ATOM     10  C   UNL A   1      34.006  23.797  24.515  1.00  0.00     0.141 C 
ATOM     11  C   UNL A   1      33.591  21.629  24.347  1.00  0.00     0.063 C 
ATOM     12  C   UNL A   1      33.596  20.121  24.440  1.00  0.00     0.000 A 
ATOM     13  C   UNL A   1      35.927  21.371  24.160  1.00  0.00     0.249 C 
ATOM     14  C   UNL A   1      32.450  19.354  24.180  1.00  0.00     0.008 A 
ATOM     15  C   UNL A   1      34.780  19.461  24.736  1.00  0.00     0.122 A 
ATOM     16  O   UNL A   1      35.912  20.176  24.969  1.00  0.00    -0.492 OA
ATOM     17  C   UNL A   1      32.504  17.959  24.228  1.00  0.00     0.001 A 
ATOM     18  C   UNL A   1      34.844  18.071  24.800  1.00  0.00     0.047 A 
ATOM     19  C   UNL A   1      33.704  17.316  24.535  1.00  0.00     0.004 A 
BRANCH   8  20
ATOM     20  C   UNL A   1      32.069  24.465  26.101  1.00  0.00     0.283 C 
ATOM     21  O   UNL A   1      31.761  24.070  27.238  1.00  0.00    -0.268 OA
BRANCH  20  22
ATOM     22  C   UNL A   1      31.450  25.841  25.559  1.00  0.00     0.171 C 
ATOM     23  C   UNL A   1      31.203  25.983  24.053  1.00  0.00     0.090 C 
ATOM     24  C   UNL A   1      30.040  25.809  26.210  1.00  0.00     0.090 C 
BRANCH  22  25
ATOM     25  N   UNL A   1      32.142  27.042  26.140  1.00  0.00    -0.319 N 
ATOM     26  C   UNL A   1      31.432  28.339  26.104  1.00  0.00     0.291 C 
ATOM     27  C   UNL A   1      33.567  27.284  25.847  1.00  0.00     0.291 C 
ATOM     28  H   UNL A   1      32.101  26.666  27.086  1.00  0.00     0.349 HD
ATOM     29  C   UNL A   1      31.738  29.206  24.863  1.00  0.00     0.221 C 
ATOM     30  C   UNL A   1      33.833  28.159  24.614  1.00  0.00     0.221 C 
ATOM     31  O   UNL A   1      33.143  29.411  24.692  1.00  0.00    -0.370 OA
ENDBRANCH  22  25
ENDBRANCH  20  22
ENDBRANCH   8  20
ENDBRANCH   4   7
ENDBRANCH   2   3
ENDBRANCH   1   2
BRANCH   1  32
ATOM     32  C   UNL A   1      39.922  22.942  27.007  1.00  0.00     0.118 C 
BRANCH  32  33
ATOM     33  N   UNL A   1      40.955  23.596  26.206  1.00  0.00    -0.352 N 
ATOM     34  C   UNL A   1      41.475  24.873  26.213  1.00  0.00     0.251 C 
ATOM     35  H   UNL A   1      41.361  23.009  25.527  1.00  0.00     0.163 HD
ATOM     36  O   UNL A   1      42.296  25.180  25.350  1.00  0.00    -0.269 OA
BRANCH  34  37
ATOM     37  C   UNL A   1      41.020  25.885  27.192  1.00  0.00     0.039 A 
ATOM     38  C   UNL A   1      41.542  27.172  27.189  1.00  0.00     0.014 A 
ATOM     39  C   UNL A   1      40.062  25.542  28.153  1.00  0.00     0.014 A 
ATOM     40  C   UNL A   1      41.348  27.997  28.287  1.00  0.00     0.010 A 
ATOM     41  C   UNL A   1      39.740  26.445  29.177  1.00  0.00     0.010 A 
ATOM     42  C   UNL A   1      40.446  27.650  29.303  1.00  0.00    -0.014 A 
BRANCH  42  43
ATOM     43  C   UNL A   1      40.307  28.552  30.484  1.00  0.00     0.031 A 
ATOM     44  C   UNL A   1      41.310  28.507  31.614  1.00  0.00     0.074 A 
ATOM     45  C   UNL A   1      39.341  29.497  30.490  1.00  0.00     0.049 A 
ATOM     46  N   UNL A   1      41.358  29.235  32.701  1.00  0.00    -0.248 NA
ATOM     47  C   UNL A   1      42.395  27.514  31.521  1.00  0.00     0.031 C 
ATOM     48  C   UNL A   1      38.315  29.660  29.454  1.00  0.00     0.029 A 
ATOM     49  N   UNL A   1      39.093  30.531  31.357  1.00  0.00    -0.354 N 
ATOM     50  C   UNL A   1      42.443  28.765  33.433  1.00  0.00     0.074 A 
ATOM     51  C   UNL A   1      43.020  27.676  32.679  1.00  0.00     0.031 C 
ATOM     52  C   UNL A   1      37.623  30.784  29.689  1.00  0.00     0.029 A 
ATOM     53  C   UNL A   1      38.083  31.369  30.944  1.00  0.00     0.049 A 
ATOM     54  H   UNL A   1      39.591  30.661  32.197  1.00  0.00     0.167 HD
ATOM     55  C   UNL A   1      42.924  29.208  34.620  1.00  0.00     0.037 A 
ATOM     56  C   UNL A   1      37.566  32.476  31.511  1.00  0.00     0.037 A 
ATOM     57  C   UNL A   1      42.383  30.330  35.344  1.00  0.00     0.049 A 
ATOM     58  C   UNL A   1      38.108  32.937  32.832  1.00  0.00     0.074 A 
ATOM     59  C   UNL A   1      42.810  30.859  36.550  1.00  0.00     0.029 A 
ATOM     60  N   UNL A   1      41.314  31.105  34.923  1.00  0.00    -0.354 N 
ATOM     61  N   UNL A   1      39.106  32.446  33.526  1.00  0.00    -0.248 NA
ATOM     62  C   UNL A   1      37.436  34.080  33.463  1.00  0.00     0.031 C 
ATOM     63  C   UNL A   1      41.977  31.935  36.874  1.00  0.00     0.029 A 
ATOM     64  C   UNL A   1      41.058  32.101  35.851  1.00  0.00     0.049 A 
ATOM     65  H   UNL A   1      40.811  30.967  34.088  1.00  0.00     0.167 HD
ATOM     66  C   UNL A   1      39.179  33.217  34.678  1.00  0.00     0.074 A 
ATOM     67  C   UNL A   1      38.144  34.225  34.575  1.00  0.00     0.031 C 
ATOM     68  C   UNL A   1      40.019  33.092  35.734  1.00  0.00     0.037 A 
BRANCH  55  69
ATOM     69  C   UNL A   1      44.093  28.480  35.224  1.00  0.00     0.058 A 
ATOM     70  C   UNL A   1      45.415  28.901  35.015  1.00  0.00     0.135 A 
ATOM     71  C   UNL A   1      43.881  27.387  36.082  1.00  0.00     0.135 A 
ATOM     72  F   UNL A   1      45.675  29.926  34.188  1.00  0.00    -0.206 F 
ATOM     73  C   UNL A   1      46.488  28.260  35.629  1.00  0.00     0.059 A 
ATOM     74  C   UNL A   1      44.936  26.745  36.723  1.00  0.00     0.059 A 
ATOM     75  F   UNL A   1      42.636  26.943  36.314  1.00  0.00    -0.206 F 
ATOM     76  C   UNL A   1      46.237  27.186  36.485  1.00  0.00     0.060 A 
BRANCH  76  77
ATOM     77  S   UNL A   1      47.637  26.388  37.301  1.00  0.00     0.124 S 
ATOM     78  O   UNL A   1      47.655  25.086  36.643  1.00  0.00    -0.237 OA
ATOM     79  O   UNL A   1      48.743  27.281  36.967  1.00  0.00    -0.237 OA
ATOM     80  O   UNL A   1      47.249  26.374  38.708  1.00  0.00    -0.744 OA
ENDBRANCH  76  77
ENDBRANCH  55  69
BRANCH  56  81
ATOM     81  C   UNL A   1      36.456  33.204  30.840  1.00  0.00     0.058 A 
ATOM     82  C   UNL A   1      35.148  33.149  31.342  1.00  0.00     0.135 A 
ATOM     83  C   UNL A   1      36.689  33.996  29.704  1.00  0.00     0.135 A 
ATOM     84  F   UNL A   1      34.873  32.400  32.420  1.00  0.00    -0.206 F 
ATOM     85  C   UNL A   1      34.109  33.855  30.743  1.00  0.00     0.059 A 
ATOM     86  C   UNL A   1      35.673  34.732  29.104  1.00  0.00     0.059 A 
ATOM     87  F   UNL A   1      37.926  34.091  29.193  1.00  0.00    -0.206 F 
ATOM     88  C   UNL A   1      34.383  34.649  29.627  1.00  0.00     0.060 A 
BRANCH  88  89
ATOM     89  S   UNL A   1      33.045  35.616  28.897  1.00  0.00     0.124 S 
ATOM     90  O   UNL A   1      33.786  36.636  28.165  1.00  0.00    -0.237 OA
ATOM     91  O   UNL A   1      32.354  34.620  28.083  1.00  0.00    -0.237 OA
ATOM     92  O   UNL A   1      32.300  36.087  30.060  1.00  0.00    -0.744 OA
ENDBRANCH  88  89
ENDBRANCH  56  81
BRANCH  68  93
ATOM     93  C   UNL A   1      39.856  34.067  36.862  1.00  0.00     0.058 A 
ATOM     94  C   UNL A   1      40.419  35.351  36.800  1.00  0.00     0.135 A 
ATOM     95  C   UNL A   1      39.085  33.737  37.987  1.00  0.00     0.135 A 
ATOM     96  F   UNL A   1      41.172  35.708  35.748  1.00  0.00    -0.206 F 
ATOM     97  C   UNL A   1      40.235  36.272  37.826  1.00  0.00     0.059 A 
ATOM     98  C   UNL A   1      38.869  34.651  39.014  1.00  0.00     0.059 A 
ATOM     99  F   UNL A   1      38.521  32.524  38.087  1.00  0.00    -0.206 F 
ATOM    100  C   UNL A   1      39.456  35.913  38.927  1.00  0.00     0.060 A 
BRANCH 100 101
ATOM    101  S   UNL A   1      39.194  37.133  40.232  1.00  0.00     0.124 S 
ATOM    102  O   UNL A   1      38.364  36.384  41.171  1.00  0.00    -0.237 OA
ATOM    103  O   UNL A   1      40.556  37.415  40.674  1.00  0.00    -0.237 OA
ATOM    104  O   UNL A   1      38.525  38.231  39.541  1.00  0.00    -0.744 OA
ENDBRANCH 100 101
ENDBRANCH  68  93
ENDBRANCH  42  43
ENDBRANCH  34  37
ENDBRANCH  32  33
ENDBRANCH   1  32
TORSDOF 16
ENDMDL
MODEL 2
REMARK VINA RESULT:     -12.6      2.616      8.437
REMARK SMILES CC(C)(C(=O)N1C[C@@H]2c3ccccc3OC[C@]2(C(=O)NCCCNC(=O)c2ccc(-c3c4nc(c(-c5c(F)cc(S(=O)(=O)[O-])cc5F)c5ccc([nH]5)c(-c5c(F)cc(S(=O)(=O)[O-])cc5F)c5nc(c(-c6c(F)cc(S(=O)(=O)[O-])cc6F)c6ccc3[nH]6)C=C5)C=C4)cc2)C1)[NH+]1CCOCC1
REMARK SMILES IDX 22 1 21 2 20 3 18 4 19 5 17 7 6 8 7 9 93 10 8 11 9 12 16 13
REMARK SMILES IDX 10 14 14 15 15 16 11 17 13 18 12 19 4 20 5 21 2 22 1 23 3 24
REMARK SMILES IDX 94 25 95 26 99 27 96 29 98 30 97 31 23 32 24 33 25 34 26 36
REMARK SMILES IDX 27 37 28 38 92 39 29 40 91 41 30 42 31 43 32 44 85 45 33 46
REMARK SMILES IDX 90 47 84 48 86 49 34 50 89 51 83 52 82 53 35 55 69 56 48 57
REMARK SMILES IDX 68 58 49 59 52 60 67 61 87 62 50 63 51 64 66 66 88 67 53 68
REMARK SMILES IDX 36 69 37 70 46 71 38 72 39 73 45 74 47 75 40 76 41 77 42 78
REMARK SMILES IDX 43 79 44 80 70 81 71 82 80 83 72 84 73 85 79 86 81 87 74 88
REMARK SMILES IDX 75 89 76 90 77 91 78 92 54 93 55 94 64 95 56 96 57 97 63 98
REMARK SMILES IDX 65 99 58 100 59 101 60 102 61 103 62 104
REMARK H PARENT 20 6 94 28 24 35 86 54 52 65
REMARK Flexibility Score: inf
ROOT
ATOM      1  C   UNL A   1      36.118  23.862  25.312  1.00  0.00     0.042 C 
ENDROOT
BRANCH   1   2
ATOM      2  C   UNL A   1      35.558  22.660  26.039  1.00  0.00     0.117 C 
BRANCH   2   3
ATOM      3  N   UNL A   1      34.775  22.953  27.240  1.00  0.00    -0.355 N 
ATOM      4  C   UNL A   1      33.502  22.475  27.522  1.00  0.00     0.232 C 
ATOM      5  O   UNL A   1      33.162  22.348  28.701  1.00  0.00    -0.274 OA
ATOM      6  H   UNL A   1      35.188  23.545  27.910  1.00  0.00     0.163 HD
BRANCH   4   7
ATOM      7  C   UNL A   1      32.586  22.171  26.283  1.00  0.00     0.109 C 
ATOM      8  N   UNL A   1      31.467  24.181  25.428  1.00  0.00    -0.335 N 
ATOM      9  C   UNL A   1      31.315  23.149  24.439  1.00  0.00     0.129 C 
ATOM     10  C   UNL A   1      32.583  23.794  26.262  1.00  0.00     0.141 C 
ATOM     11  C   UNL A   1      32.534  22.243  24.683  1.00  0.00     0.063 C 
ATOM     12  C   UNL A   1      32.379  20.978  23.870  1.00  0.00     0.000 A 
ATOM     13  C   UNL A   1      33.348  20.776  26.339  1.00  0.00     0.249 C 
ATOM     14  C   UNL A   1      32.278  20.999  22.471  1.00  0.00     0.008 A 
ATOM     15  C   UNL A   1      32.393  19.750  24.514  1.00  0.00     0.122 A 
ATOM     16  O   UNL A   1      32.514  19.696  25.867  1.00  0.00    -0.492 OA
ATOM     17  C   UNL A   1      32.186  19.806  21.749  1.00  0.00     0.001 A 
ATOM     18  C   UNL A   1      32.288  18.553  23.807  1.00  0.00     0.047 A 
ATOM     19  C   UNL A   1      32.194  18.582  22.417  1.00  0.00     0.004 A 
BRANCH   8  20
ATOM     20  C   UNL A   1      30.554  25.216  25.504  1.00  0.00     0.283 C 
ATOM     21  O   UNL A   1      29.608  25.070  26.296  1.00  0.00    -0.268 OA
BRANCH  20  22
ATOM     22  C   UNL A   1      30.565  26.489  24.530  1.00  0.00     0.171 C 
ATOM     23  C   UNL A   1      31.257  26.357  23.168  1.00  0.00     0.090 C 
ATOM     24  C   UNL A   1      29.051  26.636  24.214  1.00  0.00     0.090 C 
BRANCH  22  25
ATOM     25  N   UNL A   1      30.957  27.750  25.249  1.00  0.00    -0.319 N 
ATOM     26  C   UNL A   1      31.418  28.899  24.439  1.00  0.00     0.291 C 
ATOM     27  C   UNL A   1      31.787  27.676  26.466  1.00  0.00     0.291 C 
ATOM     28  H   UNL A   1      30.002  27.924  25.560  1.00  0.00     0.349 HD
ATOM     29  C   UNL A   1      32.947  28.966  24.230  1.00  0.00     0.221 C 
ATOM     30  C   UNL A   1      33.299  27.758  26.220  1.00  0.00     0.221 C 
ATOM     31  O   UNL A   1      33.654  28.925  25.471  1.00  0.00    -0.370 OA
ENDBRANCH  22  25
ENDBRANCH  20  22
ENDBRANCH   8  20
ENDBRANCH   4   7
ENDBRANCH   2   3
ENDBRANCH   1   2
BRANCH   1  32
ATOM     32  C   UNL A   1      37.422  23.582  24.583  1.00  0.00     0.118 C 
BRANCH  32  33
ATOM     33  N   UNL A   1      38.338  22.700  25.304  1.00  0.00    -0.352 N 
ATOM     34  C   UNL A   1      39.231  22.918  26.332  1.00  0.00     0.251 C 
ATOM     35  H   UNL A   1      38.313  21.765  24.995  1.00  0.00     0.163 HD
ATOM     36  O   UNL A   1      39.951  21.989  26.693  1.00  0.00    -0.269 OA
BRANCH  34  37
ATOM     37  C   UNL A   1      39.376  24.252  26.956  1.00  0.00     0.039 A 
ATOM     38  C   UNL A   1      40.107  25.257  26.337  1.00  0.00     0.014 A 
ATOM     39  C   UNL A   1      38.785  24.507  28.199  1.00  0.00     0.014 A 
ATOM     40  C   UNL A   1      40.497  26.373  27.064  1.00  0.00     0.010 A 
ATOM     41  C   UNL A   1      39.046  25.713  28.865  1.00  0.00     0.010 A 
ATOM     42  C   UNL A   1      39.975  26.623  28.342  1.00  0.00    -0.014 A 
BRANCH  42  43
ATOM     43  C   UNL A   1      40.459  27.815  29.099  1.00  0.00     0.031 A 
ATOM     44  C   UNL A   1      39.551  29.000  29.337  1.00  0.00     0.074 A 
ATOM     45  C   UNL A   1      41.681  27.786  29.674  1.00  0.00     0.049 A 
ATOM     46  N   UNL A   1      39.798  30.105  29.995  1.00  0.00    -0.248 NA
ATOM     47  C   UNL A   1      38.198  28.947  28.759  1.00  0.00     0.031 C 
ATOM     48  C   UNL A   1      42.653  26.696  29.536  1.00  0.00     0.029 A 
ATOM     49  N   UNL A   1      42.296  28.662  30.533  1.00  0.00    -0.354 N 
ATOM     50  C   UNL A   1      38.655  30.888  29.876  1.00  0.00     0.074 A 
ATOM     51  C   UNL A   1      37.717  30.144  29.068  1.00  0.00     0.031 C 
ATOM     52  C   UNL A   1      43.687  26.917  30.360  1.00  0.00     0.029 A 
ATOM     53  C   UNL A   1      43.505  28.210  31.011  1.00  0.00     0.049 A 
ATOM     54  H   UNL A   1      41.909  29.532  30.784  1.00  0.00     0.167 HD
ATOM     55  C   UNL A   1      38.403  32.111  30.402  1.00  0.00     0.037 A 
ATOM     56  C   UNL A   1      44.383  28.771  31.863  1.00  0.00     0.037 A 
ATOM     57  C   UNL A   1      39.317  32.829  31.254  1.00  0.00     0.049 A 
ATOM     58  C   UNL A   1      44.087  30.133  32.420  1.00  0.00     0.074 A 
ATOM     59  C   UNL A   1      39.146  34.070  31.843  1.00  0.00     0.029 A 
ATOM     60  N   UNL A   1      40.560  32.364  31.653  1.00  0.00    -0.354 N 
ATOM     61  N   UNL A   1      43.017  30.872  32.255  1.00  0.00    -0.248 NA
ATOM     62  C   UNL A   1      45.127  30.750  33.254  1.00  0.00     0.031 C 
ATOM     63  C   UNL A   1      40.301  34.370  32.573  1.00  0.00     0.029 A 
ATOM     64  C   UNL A   1      41.173  33.299  32.471  1.00  0.00     0.049 A 
ATOM     65  H   UNL A   1      40.950  31.498  31.393  1.00  0.00     0.167 HD
ATOM     66  C   UNL A   1      43.257  32.045  32.959  1.00  0.00     0.074 A 
ATOM     67  C   UNL A   1      44.560  31.905  33.576  1.00  0.00     0.031 C 
ATOM     68  C   UNL A   1      42.474  33.145  33.072  1.00  0.00     0.037 A 
BRANCH  55  69
ATOM     69  C   UNL A   1      37.090  32.766  30.072  1.00  0.00     0.058 A 
ATOM     70  C   UNL A   1      35.954  32.592  30.877  1.00  0.00     0.135 A 
ATOM     71  C   UNL A   1      36.987  33.636  28.973  1.00  0.00     0.135 A 
ATOM     72  F   UNL A   1      35.991  31.756  31.927  1.00  0.00    -0.206 F 
ATOM     73  C   UNL A   1      34.759  33.251  30.600  1.00  0.00     0.059 A 
ATOM     74  C   UNL A   1      35.810  34.321  28.690  1.00  0.00     0.059 A 
ATOM     75  F   UNL A   1      38.044  33.835  28.170  1.00  0.00    -0.206 F 
ATOM     76  C   UNL A   1      34.699  34.118  29.507  1.00  0.00     0.060 A 
BRANCH  76  77
ATOM     77  S   UNL A   1      33.152  34.992  29.183  1.00  0.00     0.124 S 
ATOM     78  O   UNL A   1      33.641  36.286  28.719  1.00  0.00    -0.237 OA
ATOM     79  O   UNL A   1      32.525  34.150  28.168  1.00  0.00    -0.237 OA
ATOM     80  O   UNL A   1      32.488  35.002  30.483  1.00  0.00    -0.744 OA
ENDBRANCH  76  77
ENDBRANCH  55  69
BRANCH  56  81
ATOM     81  C   UNL A   1      45.638  28.054  32.215  1.00  0.00     0.058 A 
ATOM     82  C   UNL A   1      45.681  27.155  33.289  1.00  0.00     0.135 A 
ATOM     83  C   UNL A   1      46.810  28.230  31.461  1.00  0.00     0.135 A 
ATOM     84  F   UNL A   1      44.590  26.960  34.045  1.00  0.00    -0.206 F 
ATOM     85  C   UNL A   1      46.841  26.453  33.604  1.00  0.00     0.059 A 
ATOM     86  C   UNL A   1      47.973  27.520  31.739  1.00  0.00     0.059 A 
ATOM     87  F   UNL A   1      46.817  29.070  30.415  1.00  0.00    -0.206 F 
ATOM     88  C   UNL A   1      47.980  26.638  32.818  1.00  0.00     0.060 A 
BRANCH  88  89
ATOM     89  S   UNL A   1      49.460  25.672  33.190  1.00  0.00     0.124 S 
ATOM     90  O   UNL A   1      49.661  24.951  31.939  1.00  0.00    -0.237 OA
ATOM     91  O   UNL A   1      50.438  26.712  33.493  1.00  0.00    -0.237 OA
ATOM     92  O   UNL A   1      49.050  24.859  34.331  1.00  0.00    -0.744 OA
ENDBRANCH  88  89
ENDBRANCH  56  81
BRANCH  68  93
ATOM     93  C   UNL A   1      43.002  34.284  33.892  1.00  0.00     0.058 A 
ATOM     94  C   UNL A   1      43.740  35.323  33.304  1.00  0.00     0.135 A 
ATOM     95  C   UNL A   1      42.724  34.366  35.265  1.00  0.00     0.135 A 
ATOM     96  F   UNL A   1      44.038  35.283  31.997  1.00  0.00    -0.206 F 
ATOM     97  C   UNL A   1      44.196  36.401  34.055  1.00  0.00     0.059 A 
ATOM     98  C   UNL A   1      43.152  35.446  36.030  1.00  0.00     0.059 A 
ATOM     99  F   UNL A   1      42.017  33.399  35.871  1.00  0.00    -0.206 F 
ATOM    100  C   UNL A   1      43.894  36.455  35.417  1.00  0.00     0.060 A 
BRANCH 100 101
ATOM    101  S   UNL A   1      44.460  37.880  36.370  1.00  0.00     0.124 S 
ATOM    102  O   UNL A   1      44.136  38.982  35.471  1.00  0.00    -0.237 OA
ATOM    103  O   UNL A   1      43.649  37.788  37.580  1.00  0.00    -0.237 OA
ATOM    104  O   UNL A   1      45.885  37.619  36.556  1.00  0.00    -0.744 OA
ENDBRANCH 100 101
ENDBRANCH  68  93
ENDBRANCH  42  43
ENDBRANCH  34  37
ENDBRANCH  32  33
ENDBRANCH   1  32
TORSDOF 16
ENDMDL
MODEL 3
REMARK VINA RESULT:     -12.4      1.036      8.028
REMARK SMILES CC(C)(C(=O)N1C[C@@H]2c3ccccc3OC[C@]2(C(=O)NCCCNC(=O)c2ccc(-c3c4nc(c(-c5c(F)cc(S(=O)(=O)[O-])cc5F)c5ccc([nH]5)c(-c5c(F)cc(S(=O)(=O)[O-])cc5F)c5nc(c(-c6c(F)cc(S(=O)(=O)[O-])cc6F)c6ccc3[nH]6)C=C5)C=C4)cc2)C1)[NH+]1CCOCC1
REMARK SMILES IDX 22 1 21 2 20 3 18 4 19 5 17 7 6 8 7 9 93 10 8 11 9 12 16 13
REMARK SMILES IDX 10 14 14 15 15 16 11 17 13 18 12 19 4 20 5 21 2 22 1 23 3 24
REMARK SMILES IDX 94 25 95 26 99 27 96 29 98 30 97 31 23 32 24 33 25 34 26 36
REMARK SMILES IDX 27 37 28 38 92 39 29 40 91 41 30 42 31 43 32 44 85 45 33 46
REMARK SMILES IDX 90 47 84 48 86 49 34 50 89 51 83 52 82 53 35 55 69 56 48 57
REMARK SMILES IDX 68 58 49 59 52 60 67 61 87 62 50 63 51 64 66 66 88 67 53 68
REMARK SMILES IDX 36 69 37 70 46 71 38 72 39 73 45 74 47 75 40 76 41 77 42 78
REMARK SMILES IDX 43 79 44 80 70 81 71 82 80 83 72 84 73 85 79 86 81 87 74 88
REMARK SMILES IDX 75 89 76 90 77 91 78 92 54 93 55 94 64 95 56 96 57 97 63 98
REMARK SMILES IDX 65 99 58 100 59 101 60 102 61 103 62 104
REMARK H PARENT 20 6 94 28 24 35 86 54 52 65
REMARK Flexibility Score: inf
ROOT
ATOM      1  C   UNL A   1      38.917  23.630  26.809  1.00  0.00     0.042 C 
ENDROOT
BRANCH   1   2
ATOM      2  C   UNL A   1      37.549  23.294  26.258  1.00  0.00     0.117 C 
BRANCH   2   3
ATOM      3  N   UNL A   1      37.402  23.413  24.807  1.00  0.00    -0.355 N 
ATOM      4  C   UNL A   1      36.216  23.297  24.094  1.00  0.00     0.232 C 
ATOM      5  O   UNL A   1      36.106  23.894  23.021  1.00  0.00    -0.274 OA
ATOM      6  H   UNL A   1      38.219  23.590  24.288  1.00  0.00     0.163 HD
BRANCH   4   7
ATOM      7  C   UNL A   1      35.118  22.364  24.721  1.00  0.00     0.109 C 
ATOM      8  N   UNL A   1      33.090  23.596  25.348  1.00  0.00    -0.335 N 
ATOM      9  C   UNL A   1      32.774  22.194  25.388  1.00  0.00     0.129 C 
ATOM     10  C   UNL A   1      34.266  23.731  24.518  1.00  0.00     0.141 C 
ATOM     11  C   UNL A   1      33.763  21.578  24.384  1.00  0.00     0.063 C 
ATOM     12  C   UNL A   1      33.710  20.073  24.497  1.00  0.00     0.000 A 
ATOM     13  C   UNL A   1      36.085  21.225  24.173  1.00  0.00     0.249 C 
ATOM     14  C   UNL A   1      32.531  19.349  24.261  1.00  0.00     0.008 A 
ATOM     15  C   UNL A   1      34.870  19.370  24.788  1.00  0.00     0.122 A 
ATOM     16  O   UNL A   1      36.033  20.043  24.998  1.00  0.00    -0.492 OA
ATOM     17  C   UNL A   1      32.531  17.953  24.327  1.00  0.00     0.001 A 
ATOM     18  C   UNL A   1      34.881  17.980  24.870  1.00  0.00     0.047 A 
ATOM     19  C   UNL A   1      33.708  17.267  24.628  1.00  0.00     0.004 A 
BRANCH   8  20
ATOM     20  C   UNL A   1      32.376  24.495  26.118  1.00  0.00     0.283 C 
ATOM     21  O   UNL A   1      31.869  24.056  27.163  1.00  0.00    -0.268 OA
BRANCH  20  22
ATOM     22  C   UNL A   1      32.045  25.995  25.661  1.00  0.00     0.171 C 
ATOM     23  C   UNL A   1      31.054  26.810  26.501  1.00  0.00     0.090 C 
ATOM     24  C   UNL A   1      33.424  26.680  25.867  1.00  0.00     0.090 C 
BRANCH  22  25
ATOM     25  N   UNL A   1      31.757  26.089  24.188  1.00  0.00    -0.319 N 
ATOM     26  C   UNL A   1      32.260  27.271  23.455  1.00  0.00     0.291 C 
ATOM     27  C   UNL A   1      30.412  25.764  23.679  1.00  0.00     0.291 C 
ATOM     28  H   UNL A   1      32.350  25.288  23.974  1.00  0.00     0.349 HD
ATOM     29  C   UNL A   1      31.260  28.445  23.363  1.00  0.00     0.221 C 
ATOM     30  C   UNL A   1      29.450  26.956  23.591  1.00  0.00     0.221 C 
ATOM     31  O   UNL A   1      30.003  28.030  22.823  1.00  0.00    -0.370 OA
ENDBRANCH  22  25
ENDBRANCH  20  22
ENDBRANCH   8  20
ENDBRANCH   4   7
ENDBRANCH   2   3
ENDBRANCH   1   2
BRANCH   1  32
ATOM     32  C   UNL A   1      39.462  24.961  26.318  1.00  0.00     0.118 C 
BRANCH  32  33
ATOM     33  N   UNL A   1      40.809  24.889  25.752  1.00  0.00    -0.352 N 
ATOM     34  C   UNL A   1      42.009  25.457  26.122  1.00  0.00     0.251 C 
ATOM     35  H   UNL A   1      40.871  24.323  24.949  1.00  0.00     0.163 HD
ATOM     36  O   UNL A   1      42.988  25.290  25.397  1.00  0.00    -0.269 OA
BRANCH  34  37
ATOM     37  C   UNL A   1      42.121  26.305  27.330  1.00  0.00     0.039 A 
ATOM     38  C   UNL A   1      41.764  25.820  28.582  1.00  0.00     0.014 A 
ATOM     39  C   UNL A   1      42.576  27.623  27.216  1.00  0.00     0.014 A 
ATOM     40  C   UNL A   1      41.573  26.703  29.634  1.00  0.00     0.010 A 
ATOM     41  C   UNL A   1      42.539  28.477  28.328  1.00  0.00     0.010 A 
ATOM     42  C   UNL A   1      41.955  28.049  29.529  1.00  0.00    -0.014 A 
BRANCH  42  43
ATOM     43  C   UNL A   1      41.688  28.967  30.675  1.00  0.00     0.031 A 
ATOM     44  C   UNL A   1      40.478  29.873  30.673  1.00  0.00     0.074 A 
ATOM     45  C   UNL A   1      42.471  28.905  31.773  1.00  0.00     0.049 A 
ATOM     46  N   UNL A   1      40.079  30.714  31.595  1.00  0.00    -0.248 NA
ATOM     47  C   UNL A   1      39.607  29.844  29.485  1.00  0.00     0.031 C 
ATOM     48  C   UNL A   1      43.664  28.062  31.912  1.00  0.00     0.029 A 
ATOM     49  N   UNL A   1      42.358  29.511  32.999  1.00  0.00    -0.354 N 
ATOM     50  C   UNL A   1      38.944  31.335  31.085  1.00  0.00     0.074 A 
ATOM     51  C   UNL A   1      38.723  30.792  29.765  1.00  0.00     0.031 C 
ATOM     52  C   UNL A   1      44.105  28.124  33.176  1.00  0.00     0.029 A 
ATOM     53  C   UNL A   1      43.294  29.085  33.914  1.00  0.00     0.049 A 
ATOM     54  H   UNL A   1      41.672  30.187  33.205  1.00  0.00     0.167 HD
ATOM     55  C   UNL A   1      38.149  32.265  31.668  1.00  0.00     0.037 A 
ATOM     56  C   UNL A   1      43.495  29.435  35.199  1.00  0.00     0.037 A 
ATOM     57  C   UNL A   1      38.337  32.765  33.006  1.00  0.00     0.049 A 
ATOM     58  C   UNL A   1      42.610  30.478  35.816  1.00  0.00     0.074 A 
ATOM     59  C   UNL A   1      37.577  33.701  33.687  1.00  0.00     0.029 A 
ATOM     60  N   UNL A   1      39.341  32.358  33.871  1.00  0.00    -0.354 N 
ATOM     61  N   UNL A   1      41.570  31.084  35.296  1.00  0.00    -0.248 NA
ATOM     62  C   UNL A   1      42.941  30.907  37.181  1.00  0.00     0.031 C 
ATOM     63  C   UNL A   1      38.141  33.884  34.954  1.00  0.00     0.029 A 
ATOM     64  C   UNL A   1      39.228  33.033  35.076  1.00  0.00     0.049 A 
ATOM     65  H   UNL A   1      40.031  31.690  33.660  1.00  0.00     0.167 HD
ATOM     66  C   UNL A   1      41.125  31.970  36.268  1.00  0.00     0.074 A 
ATOM     67  C   UNL A   1      41.990  31.801  37.418  1.00  0.00     0.031 C 
ATOM     68  C   UNL A   1      40.102  32.856  36.207  1.00  0.00     0.037 A 
BRANCH  55  69
ATOM     69  C   UNL A   1      37.002  32.816  30.868  1.00  0.00     0.058 A 
ATOM     70  C   UNL A   1      35.674  32.436  31.119  1.00  0.00     0.135 A 
ATOM     71  C   UNL A   1      37.228  33.791  29.881  1.00  0.00     0.135 A 
ATOM     72  F   UNL A   1      35.404  31.494  32.036  1.00  0.00    -0.206 F 
ATOM     73  C   UNL A   1      34.612  32.998  30.416  1.00  0.00     0.059 A 
ATOM     74  C   UNL A   1      36.181  34.381  29.181  1.00  0.00     0.059 A 
ATOM     75  F   UNL A   1      38.479  34.187  29.600  1.00  0.00    -0.206 F 
ATOM     76  C   UNL A   1      34.875  33.973  29.452  1.00  0.00     0.060 A 
BRANCH  76  77
ATOM     77  S   UNL A   1      33.483  34.717  28.574  1.00  0.00     0.124 S 
ATOM     78  O   UNL A   1      34.104  35.903  27.994  1.00  0.00    -0.237 OA
ATOM     79  O   UNL A   1      33.116  33.667  27.628  1.00  0.00    -0.237 OA
ATOM     80  O   UNL A   1      32.510  34.972  29.632  1.00  0.00    -0.744 OA
ENDBRANCH  76  77
ENDBRANCH  55  69
BRANCH  56  81
ATOM     81  C   UNL A   1      44.601  28.811  35.974  1.00  0.00     0.058 A 
ATOM     82  C   UNL A   1      44.380  27.674  36.762  1.00  0.00     0.135 A 
ATOM     83  C   UNL A   1      45.908  29.321  35.911  1.00  0.00     0.135 A 
ATOM     84  F   UNL A   1      43.147  27.155  36.862  1.00  0.00    -0.206 F 
ATOM     85  C   UNL A   1      45.416  27.062  37.463  1.00  0.00     0.059 A 
ATOM     86  C   UNL A   1      46.964  28.711  36.580  1.00  0.00     0.059 A 
ATOM     87  F   UNL A   1      46.174  30.400  35.159  1.00  0.00    -0.206 F 
ATOM     88  C   UNL A   1      46.706  27.586  37.360  1.00  0.00     0.060 A 
BRANCH  88  89
ATOM     89  S   UNL A   1      48.057  26.745  38.215  1.00  0.00     0.124 S 
ATOM     90  O   UNL A   1      49.188  27.607  37.892  1.00  0.00    -0.237 OA
ATOM     91  O   UNL A   1      47.607  26.774  39.603  1.00  0.00    -0.237 OA
ATOM     92  O   UNL A   1      48.071  25.423  37.597  1.00  0.00    -0.744 OA
ENDBRANCH  88  89
ENDBRANCH  56  81
BRANCH  68  93
ATOM     93  C   UNL A   1      39.859  33.709  37.416  1.00  0.00     0.058 A 
ATOM     94  C   UNL A   1      40.486  34.956  37.565  1.00  0.00     0.135 A 
ATOM     95  C   UNL A   1      38.951  33.304  38.407  1.00  0.00     0.135 A 
ATOM     96  F   UNL A   1      41.369  35.381  36.648  1.00  0.00    -0.206 F 
ATOM     97  C   UNL A   1      40.232  35.768  38.665  1.00  0.00     0.059 A 
ATOM     98  C   UNL A   1      38.665  34.110  39.504  1.00  0.00     0.059 A 
ATOM     99  F   UNL A   1      38.322  32.123  38.305  1.00  0.00    -0.206 F 
ATOM    100  C   UNL A   1      39.317  35.337  39.628  1.00  0.00     0.060 A 
BRANCH 100 101
ATOM    101  S   UNL A   1      38.968  36.419  41.031  1.00  0.00     0.124 S 
ATOM    102  O   UNL A   1      40.270  36.476  41.688  1.00  0.00    -0.237 OA
ATOM    103  O   UNL A   1      38.534  37.649  40.376  1.00  0.00    -0.237 OA
ATOM    104  O   UNL A   1      37.926  35.703  41.760  1.00  0.00    -0.744 OA
ENDBRANCH 100 101
ENDBRANCH  68  93
ENDBRANCH  42  43
ENDBRANCH  34  37
ENDBRANCH  32  33
ENDBRANCH   1  32
TORSDOF 16
ENDMDL
