MODEL 1
REMARK VINA RESULT:     -13.8      0.000      0.000
REMARK SMILES O=C(NCCCNC(=O)[C@@]12C[C@H]3C[C@@H](C1)C[C@](n1cc([N+](=O)[O-])cn1)(C3)C2)c1ccc(-c2c3nc(c(-c4c(F)cc(S(=O)(=O)[O-])cc4F)c4ccc([nH]4)c(-c4c(F)cc(S(=O)(=O)[O-])cc4F)c4nc(c(-c5c(F)cc(S(=O)(=O)[O-])cc5F)c5ccc2[nH]5)C=C4)C=C3)cc1
REMARK SMILES IDX 4 1 3 2 1 3 2 4 28 6 29 7 93 8 30 9 92 10 31 11 32 12 33 13
REMARK SMILES IDX 86 14 34 15 91 16 85 17 87 18 35 19 90 20 84 21 83 22 36 24
REMARK SMILES IDX 70 25 49 26 69 27 50 28 53 29 68 30 88 31 51 32 52 33 67 35
REMARK SMILES IDX 89 36 54 37 37 38 38 39 47 40 39 41 40 42 46 43 48 44 41 45
REMARK SMILES IDX 42 46 43 47 44 48 45 49 71 50 72 51 81 52 73 53 74 54 80 55
REMARK SMILES IDX 82 56 75 57 76 58 77 59 78 60 79 61 55 62 56 63 65 64 57 65
REMARK SMILES IDX 58 66 64 67 66 68 59 69 60 70 61 71 62 72 63 73 5 74 6 75
REMARK SMILES IDX 7 76 8 77 9 79 10 80 11 81 15 82 27 83 12 84 14 85 17 86
REMARK SMILES IDX 13 87 26 88 16 89 18 90 19 91 25 92 20 93 24 94 21 95 22 96
REMARK SMILES IDX 23 97
REMARK H PARENT 3 5 87 23 53 34 7 78
REMARK Flexibility Score: inf
ROOT
ATOM      1  C   UNL A   1      36.587  22.476  25.847  1.00  0.00     0.118 C 
ENDROOT
BRANCH   1   2
ATOM      2  N   UNL A   1      37.914  21.894  25.892  1.00  0.00    -0.352 N 
ATOM      3  O   UNL A   1      40.002  21.385  26.336  1.00  0.00    -0.269 OA
ATOM      4  C   UNL A   1      39.130  22.257  26.402  1.00  0.00     0.251 C 
ATOM      5  H   UNL A   1      37.949  21.018  25.443  1.00  0.00     0.163 HD
BRANCH   4   6
ATOM      6  C   UNL A   1      39.491  23.584  26.985  1.00  0.00     0.039 A 
ATOM      7  C   UNL A   1      38.775  24.773  26.853  1.00  0.00     0.014 A 
ATOM      8  C   UNL A   1      40.696  23.615  27.720  1.00  0.00     0.014 A 
ATOM      9  C   UNL A   1      39.265  25.961  27.413  1.00  0.00     0.010 A 
ATOM     10  C   UNL A   1      41.187  24.795  28.278  1.00  0.00     0.010 A 
ATOM     11  C   UNL A   1      40.482  25.981  28.109  1.00  0.00    -0.014 A 
BRANCH  11  12
ATOM     12  C   UNL A   1      40.915  27.230  28.748  1.00  0.00     0.031 A 
ATOM     13  C   UNL A   1      42.149  27.853  28.176  1.00  0.00     0.074 A 
ATOM     14  C   UNL A   1      40.206  27.917  29.670  1.00  0.00     0.049 A 
ATOM     15  N   UNL A   1      43.285  28.076  28.757  1.00  0.00    -0.248 NA
ATOM     16  C   UNL A   1      42.129  28.210  26.750  1.00  0.00     0.031 C 
ATOM     17  C   UNL A   1      38.835  27.678  30.124  1.00  0.00     0.029 A 
ATOM     18  N   UNL A   1      40.554  29.059  30.337  1.00  0.00    -0.354 N 
ATOM     19  C   UNL A   1      44.068  28.766  27.830  1.00  0.00     0.074 A 
ATOM     20  C   UNL A   1      43.354  28.712  26.580  1.00  0.00     0.031 C 
ATOM     21  C   UNL A   1      38.401  28.750  30.829  1.00  0.00     0.029 A 
ATOM     22  C   UNL A   1      39.502  29.683  30.999  1.00  0.00     0.049 A 
ATOM     23  H   UNL A   1      41.473  29.410  30.348  1.00  0.00     0.167 HD
ATOM     24  C   UNL A   1      45.172  29.482  28.192  1.00  0.00     0.037 A 
ATOM     25  C   UNL A   1      39.523  30.898  31.606  1.00  0.00     0.037 A 
ATOM     26  C   UNL A   1      45.635  29.119  29.503  1.00  0.00     0.049 A 
ATOM     27  C   UNL A   1      40.940  31.227  31.899  1.00  0.00     0.074 A 
ATOM     28  C   UNL A   1      46.085  27.950  30.087  1.00  0.00     0.029 A 
ATOM     29  N   UNL A   1      45.370  29.973  30.545  1.00  0.00    -0.354 N 
ATOM     30  N   UNL A   1      41.683  30.589  32.762  1.00  0.00    -0.248 NA
ATOM     31  C   UNL A   1      41.661  32.043  30.936  1.00  0.00     0.031 C 
ATOM     32  C   UNL A   1      45.589  27.991  31.422  1.00  0.00     0.029 A 
ATOM     33  C   UNL A   1      44.910  29.201  31.580  1.00  0.00     0.049 A 
ATOM     34  H   UNL A   1      45.488  30.950  30.548  1.00  0.00     0.167 HD
ATOM     35  C   UNL A   1      42.952  30.589  32.203  1.00  0.00     0.074 A 
ATOM     36  C   UNL A   1      42.897  31.581  31.134  1.00  0.00     0.031 C 
ATOM     37  C   UNL A   1      43.850  29.600  32.481  1.00  0.00     0.037 A 
BRANCH  24  38
ATOM     38  C   UNL A   1      45.666  30.725  27.486  1.00  0.00     0.058 A 
ATOM     39  C   UNL A   1      47.030  30.840  27.138  1.00  0.00     0.135 A 
ATOM     40  C   UNL A   1      44.913  31.915  27.392  1.00  0.00     0.135 A 
ATOM     41  F   UNL A   1      47.845  29.775  27.202  1.00  0.00    -0.206 F 
ATOM     42  C   UNL A   1      47.615  32.060  26.792  1.00  0.00     0.059 A 
ATOM     43  C   UNL A   1      45.465  33.131  26.998  1.00  0.00     0.059 A 
ATOM     44  F   UNL A   1      43.631  31.975  27.772  1.00  0.00    -0.206 F 
ATOM     45  C   UNL A   1      46.825  33.204  26.742  1.00  0.00     0.060 A 
BRANCH  45  46
ATOM     46  S   UNL A   1      47.598  34.800  26.414  1.00  0.00     0.124 S 
ATOM     47  O   UNL A   1      46.538  35.721  26.808  1.00  0.00    -0.237 OA
ATOM     48  O   UNL A   1      48.766  34.757  27.288  1.00  0.00    -0.237 OA
ATOM     49  O   UNL A   1      47.889  34.743  24.986  1.00  0.00    -0.744 OA
ENDBRANCH  45  46
ENDBRANCH  24  38
BRANCH  25  50
ATOM     50  C   UNL A   1      38.449  31.926  31.667  1.00  0.00     0.058 A 
ATOM     51  C   UNL A   1      37.759  32.338  30.511  1.00  0.00     0.135 A 
ATOM     52  C   UNL A   1      37.873  32.302  32.898  1.00  0.00     0.135 A 
ATOM     53  F   UNL A   1      38.221  32.004  29.296  1.00  0.00    -0.206 F 
ATOM     54  C   UNL A   1      36.548  33.035  30.571  1.00  0.00     0.059 A 
ATOM     55  C   UNL A   1      36.672  33.005  32.983  1.00  0.00     0.059 A 
ATOM     56  F   UNL A   1      38.417  31.911  34.060  1.00  0.00    -0.206 F 
ATOM     57  C   UNL A   1      35.999  33.345  31.815  1.00  0.00     0.060 A 
BRANCH  57  58
ATOM     58  S   UNL A   1      34.350  34.085  31.902  1.00  0.00     0.124 S 
ATOM     59  O   UNL A   1      33.656  33.170  32.801  1.00  0.00    -0.237 OA
ATOM     60  O   UNL A   1      34.635  35.413  32.439  1.00  0.00    -0.237 OA
ATOM     61  O   UNL A   1      33.895  34.063  30.515  1.00  0.00    -0.744 OA
ENDBRANCH  57  58
ENDBRANCH  25  50
BRANCH  37  62
ATOM     62  C   UNL A   1      43.589  28.686  33.649  1.00  0.00     0.058 A 
ATOM     63  C   UNL A   1      43.977  28.958  34.972  1.00  0.00     0.135 A 
ATOM     64  C   UNL A   1      42.742  27.586  33.442  1.00  0.00     0.135 A 
ATOM     65  F   UNL A   1      44.709  30.042  35.268  1.00  0.00    -0.206 F 
ATOM     66  C   UNL A   1      43.551  28.164  36.039  1.00  0.00     0.059 A 
ATOM     67  C   UNL A   1      42.280  26.800  34.494  1.00  0.00     0.059 A 
ATOM     68  F   UNL A   1      42.293  27.306  32.207  1.00  0.00    -0.206 F 
ATOM     69  C   UNL A   1      42.690  27.094  35.791  1.00  0.00     0.060 A 
BRANCH  69  70
ATOM     70  S   UNL A   1      42.027  26.160  37.188  1.00  0.00     0.124 S 
ATOM     71  O   UNL A   1      41.927  24.814  36.640  1.00  0.00    -0.237 OA
ATOM     72  O   UNL A   1      43.047  26.354  38.215  1.00  0.00    -0.237 OA
ATOM     73  O   UNL A   1      40.751  26.820  37.464  1.00  0.00    -0.744 OA
ENDBRANCH  69  70
ENDBRANCH  37  62
ENDBRANCH  11  12
ENDBRANCH   4   6
ENDBRANCH   1   2
BRANCH   1  74
ATOM     74  C   UNL A   1      36.248  23.110  24.501  1.00  0.00     0.042 C 
BRANCH  74  75
ATOM     75  C   UNL A   1      34.927  23.881  24.494  1.00  0.00     0.117 C 
BRANCH  75  76
ATOM     76  N   UNL A   1      34.593  24.450  23.183  1.00  0.00    -0.356 N 
ATOM     77  C   UNL A   1      33.632  25.330  22.756  1.00  0.00     0.226 C 
ATOM     78  H   UNL A   1      35.181  24.135  22.459  1.00  0.00     0.163 HD
ATOM     79  O   UNL A   1      33.649  25.648  21.565  1.00  0.00    -0.274 OA
BRANCH  77  80
ATOM     80  C   UNL A   1      32.611  25.948  23.727  1.00  0.00     0.052 C 
ATOM     81  C   UNL A   1      31.833  24.893  24.568  1.00  0.00     0.020 C 
ATOM     82  C   UNL A   1      33.294  26.906  24.723  1.00  0.00     0.020 C 
ATOM     83  C   UNL A   1      31.529  26.623  22.887  1.00  0.00     0.047 C 
ATOM     84  C   UNL A   1      30.775  25.592  25.464  1.00  0.00    -0.007 C 
ATOM     85  C   UNL A   1      32.255  27.613  25.603  1.00  0.00    -0.007 C 
ATOM     86  C   UNL A   1      30.530  27.443  23.740  1.00  0.00     0.065 C 
ATOM     87  C   UNL A   1      31.491  26.558  26.416  1.00  0.00     0.007 C 
ATOM     88  C   UNL A   1      29.771  26.405  24.611  1.00  0.00     0.034 C 
ATOM     89  C   UNL A   1      31.288  28.398  24.695  1.00  0.00     0.034 C 
BRANCH  86  90
ATOM     90  N   UNL A   1      29.684  28.191  22.780  1.00  0.00    -0.259 N 
ATOM     91  C   UNL A   1      28.493  28.788  23.182  1.00  0.00     0.195 A 
ATOM     92  N   UNL A   1      30.264  28.905  21.780  1.00  0.00    -0.173 NA
ATOM     93  C   UNL A   1      28.684  30.119  22.863  1.00  0.00     0.307 A 
ATOM     94  C   UNL A   1      29.692  30.112  21.889  1.00  0.00     0.220 A 
BRANCH  93  95
ATOM     95  N   UNL A   1      28.103  31.246  23.518  1.00  0.00     0.066 N 
ATOM     96  O   UNL A   1      26.935  31.129  23.907  1.00  0.00    -0.258 OA
ATOM     97  O   UNL A   1      28.785  32.280  23.550  1.00  0.00    -0.258 OA
ENDBRANCH  93  95
ENDBRANCH  86  90
ENDBRANCH  77  80
ENDBRANCH  75  76
ENDBRANCH  74  75
ENDBRANCH   1  74
TORSDOF 15
ENDMDL
MODEL 2
REMARK VINA RESULT:     -13.7      2.856      4.401
REMARK SMILES O=C(NCCCNC(=O)[C@@]12C[C@H]3C[C@@H](C1)C[C@](n1cc([N+](=O)[O-])cn1)(C3)C2)c1ccc(-c2c3nc(c(-c4c(F)cc(S(=O)(=O)[O-])cc4F)c4ccc([nH]4)c(-c4c(F)cc(S(=O)(=O)[O-])cc4F)c4nc(c(-c5c(F)cc(S(=O)(=O)[O-])cc5F)c5ccc2[nH]5)C=C4)C=C3)cc1
REMARK SMILES IDX 4 1 3 2 1 3 2 4 28 6 29 7 93 8 30 9 92 10 31 11 32 12 33 13
REMARK SMILES IDX 86 14 34 15 91 16 85 17 87 18 35 19 90 20 84 21 83 22 36 24
REMARK SMILES IDX 70 25 49 26 69 27 50 28 53 29 68 30 88 31 51 32 52 33 67 35
REMARK SMILES IDX 89 36 54 37 37 38 38 39 47 40 39 41 40 42 46 43 48 44 41 45
REMARK SMILES IDX 42 46 43 47 44 48 45 49 71 50 72 51 81 52 73 53 74 54 80 55
REMARK SMILES IDX 82 56 75 57 76 58 77 59 78 60 79 61 55 62 56 63 65 64 57 65
REMARK SMILES IDX 58 66 64 67 66 68 59 69 60 70 61 71 62 72 63 73 5 74 6 75
REMARK SMILES IDX 7 76 8 77 9 79 10 80 11 81 15 82 27 83 12 84 14 85 17 86
REMARK SMILES IDX 13 87 26 88 16 89 18 90 19 91 25 92 20 93 24 94 21 95 22 96
REMARK SMILES IDX 23 97
REMARK H PARENT 3 5 87 23 53 34 7 78
REMARK Flexibility Score: inf
ROOT
ATOM      1  C   UNL A   1      37.679  22.039  25.646  1.00  0.00     0.118 C 
ENDROOT
BRANCH   1   2
ATOM      2  N   UNL A   1      39.096  21.736  25.707  1.00  0.00    -0.352 N 
ATOM      3  O   UNL A   1      41.233  21.637  26.194  1.00  0.00    -0.269 OA
ATOM      4  C   UNL A   1      40.200  22.310  26.273  1.00  0.00     0.251 C 
ATOM      5  H   UNL A   1      39.317  20.909  25.220  1.00  0.00     0.163 HD
BRANCH   4   6
ATOM      6  C   UNL A   1      40.271  23.651  26.927  1.00  0.00     0.039 A 
ATOM      7  C   UNL A   1      39.320  24.667  26.846  1.00  0.00     0.014 A 
ATOM      8  C   UNL A   1      41.440  23.897  27.680  1.00  0.00     0.014 A 
ATOM      9  C   UNL A   1      39.547  25.900  27.472  1.00  0.00     0.010 A 
ATOM     10  C   UNL A   1      41.669  25.122  28.304  1.00  0.00     0.010 A 
ATOM     11  C   UNL A   1      40.730  26.140  28.185  1.00  0.00    -0.014 A 
BRANCH  11  12
ATOM     12  C   UNL A   1      40.887  27.417  28.894  1.00  0.00     0.031 A 
ATOM     13  C   UNL A   1      41.970  28.311  28.378  1.00  0.00     0.074 A 
ATOM     14  C   UNL A   1      40.042  27.893  29.833  1.00  0.00     0.049 A 
ATOM     15  N   UNL A   1      43.028  28.734  28.991  1.00  0.00    -0.248 NA
ATOM     16  C   UNL A   1      41.890  28.730  26.971  1.00  0.00     0.031 C 
ATOM     17  C   UNL A   1      38.746  27.352  30.248  1.00  0.00     0.029 A 
ATOM     18  N   UNL A   1      40.137  29.047  30.562  1.00  0.00    -0.354 N 
ATOM     19  C   UNL A   1      43.660  29.620  28.115  1.00  0.00     0.074 A 
ATOM     20  C   UNL A   1      42.985  29.483  26.850  1.00  0.00     0.031 C 
ATOM     21  C   UNL A   1      38.092  28.272  30.994  1.00  0.00     0.029 A 
ATOM     22  C   UNL A   1      38.972  29.404  31.232  1.00  0.00     0.049 A 
ATOM     23  H   UNL A   1      40.963  29.580  30.609  1.00  0.00     0.167 HD
ATOM     24  C   UNL A   1      44.587  30.529  28.534  1.00  0.00     0.037 A 
ATOM     25  C   UNL A   1      38.734  30.563  31.898  1.00  0.00     0.037 A 
ATOM     26  C   UNL A   1      45.103  30.202  29.835  1.00  0.00     0.049 A 
ATOM     27  C   UNL A   1      40.049  31.163  32.235  1.00  0.00     0.074 A 
ATOM     28  C   UNL A   1      45.781  29.124  30.370  1.00  0.00     0.029 A 
ATOM     29  N   UNL A   1      44.656  30.927  30.911  1.00  0.00    -0.354 N 
ATOM     30  N   UNL A   1      40.900  30.650  33.081  1.00  0.00    -0.248 NA
ATOM     31  C   UNL A   1      40.594  32.160  31.328  1.00  0.00     0.031 C 
ATOM     32  C   UNL A   1      45.274  28.991  31.695  1.00  0.00     0.029 A 
ATOM     33  C   UNL A   1      44.356  30.024  31.898  1.00  0.00     0.049 A 
ATOM     34  H   UNL A   1      44.568  31.906  30.964  1.00  0.00     0.167 HD
ATOM     35  C   UNL A   1      42.146  30.942  32.548  1.00  0.00     0.074 A 
ATOM     36  C   UNL A   1      41.896  31.955  31.529  1.00  0.00     0.031 C 
ATOM     37  C   UNL A   1      43.228  30.147  32.796  1.00  0.00     0.037 A 
BRANCH  24  38
ATOM     38  C   UNL A   1      44.818  31.882  27.899  1.00  0.00     0.058 A 
ATOM     39  C   UNL A   1      46.027  32.141  27.218  1.00  0.00     0.135 A 
ATOM     40  C   UNL A   1      44.023  33.015  28.176  1.00  0.00     0.135 A 
ATOM     41  F   UNL A   1      46.869  31.140  26.912  1.00  0.00    -0.206 F 
ATOM     42  C   UNL A   1      46.446  33.434  26.898  1.00  0.00     0.059 A 
ATOM     43  C   UNL A   1      44.397  34.308  27.820  1.00  0.00     0.059 A 
ATOM     44  F   UNL A   1      42.895  32.932  28.892  1.00  0.00    -0.206 F 
ATOM     45  C   UNL A   1      45.629  34.514  27.221  1.00  0.00     0.060 A 
BRANCH  45  46
ATOM     46  S   UNL A   1      46.219  36.191  26.921  1.00  0.00     0.124 S 
ATOM     47  O   UNL A   1      47.057  35.996  25.743  1.00  0.00    -0.237 OA
ATOM     48  O   UNL A   1      44.973  36.918  26.706  1.00  0.00    -0.237 OA
ATOM     49  O   UNL A   1      46.926  36.522  28.153  1.00  0.00    -0.744 OA
ENDBRANCH  45  46
ENDBRANCH  24  38
BRANCH  25  50
ATOM     50  C   UNL A   1      37.469  31.341  31.988  1.00  0.00     0.058 A 
ATOM     51  C   UNL A   1      36.925  31.719  33.231  1.00  0.00     0.135 A 
ATOM     52  C   UNL A   1      36.930  31.984  30.855  1.00  0.00     0.135 A 
ATOM     53  F   UNL A   1      37.394  31.176  34.364  1.00  0.00    -0.206 F 
ATOM     54  C   UNL A   1      35.945  32.711  33.347  1.00  0.00     0.059 A 
ATOM     55  C   UNL A   1      35.946  32.968  30.946  1.00  0.00     0.059 A 
ATOM     56  F   UNL A   1      37.415  31.741  29.628  1.00  0.00    -0.206 F 
ATOM     57  C   UNL A   1      35.477  33.347  32.199  1.00  0.00     0.060 A 
BRANCH  57  58
ATOM     58  S   UNL A   1      34.345  34.750  32.356  1.00  0.00     0.124 S 
ATOM     59  O   UNL A   1      33.180  34.130  32.977  1.00  0.00    -0.237 OA
ATOM     60  O   UNL A   1      35.105  35.667  33.200  1.00  0.00    -0.237 OA
ATOM     61  O   UNL A   1      34.157  35.190  30.976  1.00  0.00    -0.744 OA
ENDBRANCH  57  58
ENDBRANCH  25  50
BRANCH  37  62
ATOM     62  C   UNL A   1      43.152  29.140  33.912  1.00  0.00     0.058 A 
ATOM     63  C   UNL A   1      43.406  29.431  35.263  1.00  0.00     0.135 A 
ATOM     64  C   UNL A   1      42.610  27.878  33.619  1.00  0.00     0.135 A 
ATOM     65  F   UNL A   1      43.837  30.644  35.639  1.00  0.00    -0.206 F 
ATOM     66  C   UNL A   1      43.145  28.504  36.275  1.00  0.00     0.059 A 
ATOM     67  C   UNL A   1      42.313  26.951  34.614  1.00  0.00     0.059 A 
ATOM     68  F   UNL A   1      42.295  27.560  32.352  1.00  0.00    -0.206 F 
ATOM     69  C   UNL A   1      42.584  27.271  35.942  1.00  0.00     0.060 A 
BRANCH  69  70
ATOM     70  S   UNL A   1      42.115  26.134  37.265  1.00  0.00     0.124 S 
ATOM     71  O   UNL A   1      42.314  24.834  36.640  1.00  0.00    -0.237 OA
ATOM     72  O   UNL A   1      43.052  26.479  38.330  1.00  0.00    -0.237 OA
ATOM     73  O   UNL A   1      40.722  26.490  37.540  1.00  0.00    -0.744 OA
ENDBRANCH  69  70
ENDBRANCH  37  62
ENDBRANCH  11  12
ENDBRANCH   4   6
ENDBRANCH   1   2
BRANCH   1  74
ATOM     74  C   UNL A   1      37.058  21.764  24.280  1.00  0.00     0.042 C 
BRANCH  74  75
ATOM     75  C   UNL A   1      36.560  23.018  23.561  1.00  0.00     0.117 C 
BRANCH  75  76
ATOM     76  N   UNL A   1      36.132  24.082  24.477  1.00  0.00    -0.356 N 
ATOM     77  C   UNL A   1      34.914  24.451  24.988  1.00  0.00     0.226 C 
ATOM     78  H   UNL A   1      36.874  24.649  24.790  1.00  0.00     0.163 HD
ATOM     79  O   UNL A   1      34.901  25.388  25.790  1.00  0.00    -0.274 OA
BRANCH  77  80
ATOM     80  C   UNL A   1      33.623  23.695  24.629  1.00  0.00     0.052 C 
ATOM     81  C   UNL A   1      32.360  24.237  25.362  1.00  0.00     0.020 C 
ATOM     82  C   UNL A   1      33.334  23.767  23.117  1.00  0.00     0.020 C 
ATOM     83  C   UNL A   1      33.769  22.267  25.148  1.00  0.00     0.047 C 
ATOM     84  C   UNL A   1      31.119  23.376  25.004  1.00  0.00    -0.007 C 
ATOM     85  C   UNL A   1      32.118  22.907  22.751  1.00  0.00    -0.007 C 
ATOM     86  C   UNL A   1      32.611  21.342  24.696  1.00  0.00     0.065 C 
ATOM     87  C   UNL A   1      30.885  23.448  23.489  1.00  0.00     0.007 C 
ATOM     88  C   UNL A   1      31.337  21.894  25.392  1.00  0.00     0.034 C 
ATOM     89  C   UNL A   1      32.398  21.449  23.166  1.00  0.00     0.034 C 
BRANCH  86  90
ATOM     90  N   UNL A   1      32.998  19.969  25.098  1.00  0.00    -0.259 N 
ATOM     91  C   UNL A   1      32.350  18.855  24.573  1.00  0.00     0.195 A 
ATOM     92  N   UNL A   1      34.299  19.684  25.366  1.00  0.00    -0.173 NA
ATOM     93  C   UNL A   1      33.376  18.141  23.984  1.00  0.00     0.307 A 
ATOM     94  C   UNL A   1      34.540  18.599  24.618  1.00  0.00     0.220 A 
BRANCH  93  95
ATOM     95  N   UNL A   1      33.274  17.269  22.859  1.00  0.00     0.066 N 
ATOM     96  O   UNL A   1      34.031  16.292  22.835  1.00  0.00    -0.258 OA
ATOM     97  O   UNL A   1      32.504  17.621  21.954  1.00  0.00    -0.258 OA
ENDBRANCH  93  95
ENDBRANCH  86  90
ENDBRANCH  77  80
ENDBRANCH  75  76
ENDBRANCH  74  75
ENDBRANCH   1  74
TORSDOF 15
ENDMDL
MODEL 3
REMARK VINA RESULT:     -13.7      3.569      5.326
REMARK SMILES O=C(NCCCNC(=O)[C@@]12C[C@H]3C[C@@H](C1)C[C@](n1cc([N+](=O)[O-])cn1)(C3)C2)c1ccc(-c2c3nc(c(-c4c(F)cc(S(=O)(=O)[O-])cc4F)c4ccc([nH]4)c(-c4c(F)cc(S(=O)(=O)[O-])cc4F)c4nc(c(-c5c(F)cc(S(=O)(=O)[O-])cc5F)c5ccc2[nH]5)C=C4)C=C3)cc1
REMARK SMILES IDX 4 1 3 2 1 3 2 4 28 6 29 7 93 8 30 9 92 10 31 11 32 12 33 13
REMARK SMILES IDX 86 14 34 15 91 16 85 17 87 18 35 19 90 20 84 21 83 22 36 24
REMARK SMILES IDX 70 25 49 26 69 27 50 28 53 29 68 30 88 31 51 32 52 33 67 35
REMARK SMILES IDX 89 36 54 37 37 38 38 39 47 40 39 41 40 42 46 43 48 44 41 45
REMARK SMILES IDX 42 46 43 47 44 48 45 49 71 50 72 51 81 52 73 53 74 54 80 55
REMARK SMILES IDX 82 56 75 57 76 58 77 59 78 60 79 61 55 62 56 63 65 64 57 65
REMARK SMILES IDX 58 66 64 67 66 68 59 69 60 70 61 71 62 72 63 73 5 74 6 75
REMARK SMILES IDX 7 76 8 77 9 79 10 80 11 81 15 82 27 83 12 84 14 85 17 86
REMARK SMILES IDX 13 87 26 88 16 89 18 90 19 91 25 92 20 93 24 94 21 95 22 96
REMARK SMILES IDX 23 97
REMARK H PARENT 3 5 87 23 53 34 7 78
REMARK Flexibility Score: inf
ROOT
ATOM      1  C   UNL A   1      40.635  21.481  26.468  1.00  0.00     0.118 C 
ENDROOT
BRANCH   1   2
ATOM      2  N   UNL A   1      41.661  21.953  25.560  1.00  0.00    -0.352 N 
ATOM      3  O   UNL A   1      43.262  23.060  24.546  1.00  0.00    -0.269 OA
ATOM      4  C   UNL A   1      42.349  23.121  25.376  1.00  0.00     0.251 C 
ATOM      5  H   UNL A   1      41.930  21.260  24.914  1.00  0.00     0.163 HD
BRANCH   4   6
ATOM      6  C   UNL A   1      42.081  24.428  26.046  1.00  0.00     0.039 A 
ATOM      7  C   UNL A   1      41.327  25.485  25.536  1.00  0.00     0.014 A 
ATOM      8  C   UNL A   1      42.681  24.595  27.313  1.00  0.00     0.014 A 
ATOM      9  C   UNL A   1      41.205  26.680  26.257  1.00  0.00     0.010 A 
ATOM     10  C   UNL A   1      42.561  25.783  28.033  1.00  0.00     0.010 A 
ATOM     11  C   UNL A   1      41.838  26.842  27.497  1.00  0.00    -0.014 A 
BRANCH  11  12
ATOM     12  C   UNL A   1      41.614  28.080  28.254  1.00  0.00     0.031 A 
ATOM     13  C   UNL A   1      42.695  29.108  28.143  1.00  0.00     0.074 A 
ATOM     14  C   UNL A   1      40.464  28.410  28.881  1.00  0.00     0.049 A 
ATOM     15  N   UNL A   1      43.446  29.594  29.078  1.00  0.00    -0.248 NA
ATOM     16  C   UNL A   1      43.021  29.606  26.799  1.00  0.00     0.031 C 
ATOM     17  C   UNL A   1      39.174  27.717  28.838  1.00  0.00     0.029 A 
ATOM     18  N   UNL A   1      40.189  29.518  29.635  1.00  0.00    -0.354 N 
ATOM     19  C   UNL A   1      44.219  30.592  28.480  1.00  0.00     0.074 A 
ATOM     20  C   UNL A   1      44.003  30.470  27.061  1.00  0.00     0.031 C 
ATOM     21  C   UNL A   1      38.215  28.519  29.358  1.00  0.00     0.029 A 
ATOM     22  C   UNL A   1      38.838  29.714  29.901  1.00  0.00     0.049 A 
ATOM     23  H   UNL A   1      40.890  30.126  29.962  1.00  0.00     0.167 HD
ATOM     24  C   UNL A   1      44.853  31.560  29.203  1.00  0.00     0.037 A 
ATOM     25  C   UNL A   1      38.269  30.800  30.485  1.00  0.00     0.037 A 
ATOM     26  C   UNL A   1      44.960  31.203  30.591  1.00  0.00     0.049 A 
ATOM     27  C   UNL A   1      39.330  31.504  31.248  1.00  0.00     0.074 A 
ATOM     28  C   UNL A   1      45.551  30.165  31.286  1.00  0.00     0.029 A 
ATOM     29  N   UNL A   1      44.114  31.810  31.484  1.00  0.00    -0.354 N 
ATOM     30  N   UNL A   1      39.919  31.025  32.309  1.00  0.00    -0.248 NA
ATOM     31  C   UNL A   1      40.018  32.606  30.596  1.00  0.00     0.031 C 
ATOM     32  C   UNL A   1      44.665  29.899  32.371  1.00  0.00     0.029 A 
ATOM     33  C   UNL A   1      43.620  30.820  32.295  1.00  0.00     0.049 A 
ATOM     34  H   UNL A   1      43.902  32.770  31.534  1.00  0.00     0.167 HD
ATOM     35  C   UNL A   1      41.228  31.472  32.218  1.00  0.00     0.074 A 
ATOM     36  C   UNL A   1      41.203  32.518  31.202  1.00  0.00     0.031 C 
ATOM     37  C   UNL A   1      42.258  30.774  32.781  1.00  0.00     0.037 A 
BRANCH  24  38
ATOM     38  C   UNL A   1      45.119  32.966  28.716  1.00  0.00     0.058 A 
ATOM     39  C   UNL A   1      46.441  33.463  28.691  1.00  0.00     0.135 A 
ATOM     40  C   UNL A   1      44.104  33.932  28.543  1.00  0.00     0.135 A 
ATOM     41  F   UNL A   1      47.486  32.637  28.858  1.00  0.00    -0.206 F 
ATOM     42  C   UNL A   1      46.728  34.825  28.573  1.00  0.00     0.059 A 
ATOM     43  C   UNL A   1      44.370  35.288  28.371  1.00  0.00     0.059 A 
ATOM     44  F   UNL A   1      42.806  33.620  28.631  1.00  0.00    -0.206 F 
ATOM     45  C   UNL A   1      45.681  35.731  28.431  1.00  0.00     0.060 A 
BRANCH  45  46
ATOM     46  S   UNL A   1      46.040  37.498  28.400  1.00  0.00     0.124 S 
ATOM     47  O   UNL A   1      44.697  38.065  28.351  1.00  0.00    -0.237 OA
ATOM     48  O   UNL A   1      46.768  37.683  29.651  1.00  0.00    -0.237 OA
ATOM     49  O   UNL A   1      46.838  37.656  27.189  1.00  0.00    -0.744 OA
ENDBRANCH  45  46
ENDBRANCH  24  38
BRANCH  25  50
ATOM     50  C   UNL A   1      36.962  31.441  30.182  1.00  0.00     0.058 A 
ATOM     51  C   UNL A   1      36.113  31.900  31.207  1.00  0.00     0.135 A 
ATOM     52  C   UNL A   1      36.656  31.886  28.880  1.00  0.00     0.135 A 
ATOM     53  F   UNL A   1      36.342  31.546  32.481  1.00  0.00    -0.206 F 
ATOM     54  C   UNL A   1      35.058  32.787  30.964  1.00  0.00     0.059 A 
ATOM     55  C   UNL A   1      35.604  32.762  28.612  1.00  0.00     0.059 A 
ATOM     56  F   UNL A   1      37.434  31.556  27.838  1.00  0.00    -0.206 F 
ATOM     57  C   UNL A   1      34.825  33.231  29.663  1.00  0.00     0.060 A 
BRANCH  57  58
ATOM     58  S   UNL A   1      33.581  34.512  29.368  1.00  0.00     0.124 S 
ATOM     59  O   UNL A   1      32.607  33.803  28.547  1.00  0.00    -0.237 OA
ATOM     60  O   UNL A   1      33.152  34.843  30.724  1.00  0.00    -0.237 OA
ATOM     61  O   UNL A   1      34.332  35.560  28.682  1.00  0.00    -0.744 OA
ENDBRANCH  57  58
ENDBRANCH  25  50
BRANCH  37  62
ATOM     62  C   UNL A   1      41.944  29.695  33.783  1.00  0.00     0.058 A 
ATOM     63  C   UNL A   1      41.656  28.361  33.448  1.00  0.00     0.135 A 
ATOM     64  C   UNL A   1      42.136  29.989  35.142  1.00  0.00     0.135 A 
ATOM     65  F   UNL A   1      41.550  27.976  32.168  1.00  0.00    -0.206 F 
ATOM     66  C   UNL A   1      41.552  27.366  34.424  1.00  0.00     0.059 A 
ATOM     67  C   UNL A   1      42.067  29.008  36.128  1.00  0.00     0.059 A 
ATOM     68  F   UNL A   1      42.466  31.235  35.520  1.00  0.00    -0.206 F 
ATOM     69  C   UNL A   1      41.773  27.698  35.761  1.00  0.00     0.060 A 
BRANCH  69  70
ATOM     70  S   UNL A   1      41.779  26.384  37.001  1.00  0.00     0.124 S 
ATOM     71  O   UNL A   1      41.920  25.187  36.183  1.00  0.00    -0.237 OA
ATOM     72  O   UNL A   1      42.933  26.729  37.827  1.00  0.00    -0.237 OA
ATOM     73  O   UNL A   1      40.485  26.539  37.667  1.00  0.00    -0.744 OA
ENDBRANCH  69  70
ENDBRANCH  37  62
ENDBRANCH  11  12
ENDBRANCH   4   6
ENDBRANCH   1   2
BRANCH   1  74
ATOM     74  C   UNL A   1      39.333  22.271  26.376  1.00  0.00     0.042 C 
BRANCH  74  75
ATOM     75  C   UNL A   1      38.188  21.505  25.710  1.00  0.00     0.117 C 
BRANCH  75  76
ATOM     76  N   UNL A   1      37.719  22.126  24.466  1.00  0.00    -0.356 N 
ATOM     77  C   UNL A   1      36.475  22.435  23.980  1.00  0.00     0.226 C 
ATOM     78  H   UNL A   1      38.449  22.374  23.853  1.00  0.00     0.163 HD
ATOM     79  O   UNL A   1      36.423  23.010  22.890  1.00  0.00    -0.274 OA
BRANCH  77  80
ATOM     80  C   UNL A   1      35.195  22.136  24.780  1.00  0.00     0.052 C 
ATOM     81  C   UNL A   1      35.404  22.161  26.322  1.00  0.00     0.020 C 
ATOM     82  C   UNL A   1      34.083  23.154  24.458  1.00  0.00     0.020 C 
ATOM     83  C   UNL A   1      34.794  20.693  24.482  1.00  0.00     0.047 C 
ATOM     84  C   UNL A   1      34.088  21.778  27.051  1.00  0.00    -0.007 C 
ATOM     85  C   UNL A   1      32.774  22.776  25.161  1.00  0.00    -0.007 C 
ATOM     86  C   UNL A   1      33.417  20.316  25.083  1.00  0.00     0.065 C 
ATOM     87  C   UNL A   1      33.001  22.796  26.679  1.00  0.00     0.007 C 
ATOM     88  C   UNL A   1      33.603  20.371  26.625  1.00  0.00     0.034 C 
ATOM     89  C   UNL A   1      32.349  21.369  24.697  1.00  0.00     0.034 C 
BRANCH  86  90
ATOM     90  N   UNL A   1      33.083  18.977  24.543  1.00  0.00    -0.259 N 
ATOM     91  C   UNL A   1      34.074  18.120  24.077  1.00  0.00     0.195 A 
ATOM     92  N   UNL A   1      32.050  18.271  25.076  1.00  0.00    -0.173 NA
ATOM     93  C   UNL A   1      33.911  16.992  24.861  1.00  0.00     0.307 A 
ATOM     94  C   UNL A   1      32.594  17.074  25.334  1.00  0.00     0.220 A 
BRANCH  93  95
ATOM     95  N   UNL A   1      34.924  16.060  25.237  1.00  0.00     0.066 N 
ATOM     96  O   UNL A   1      34.589  14.874  25.328  1.00  0.00    -0.258 OA
ATOM     97  O   UNL A   1      36.028  16.535  25.539  1.00  0.00    -0.258 OA
ENDBRANCH  93  95
ENDBRANCH  86  90
ENDBRANCH  77  80
ENDBRANCH  75  76
ENDBRANCH  74  75
ENDBRANCH   1  74
TORSDOF 15
ENDMDL
