MODEL 1
REMARK VINA RESULT:     -12.5      0.000      0.000
REMARK SMILES O=C(CCn1ccnc1)N[C@H]1C=C[C@H](C(=O)NCCCNC(=O)c2ccc(-c3c4nc(c(-c5c(F)cc(S(=O)(=O)[O-])cc5F)c5ccc([nH]5)c(-c5c(F)cc(S(=O)(=O)[O-])cc5F)c5nc(c(-c6c(F)cc(S(=O)(=O)[O-])cc6F)c6ccc3[nH]6)C=C5)C=C4)cc2)C1
REMARK SMILES IDX 18 1 17 2 15 3 16 4 14 6 11 7 12 8 90 9 13 10 10 11 1 12
REMARK SMILES IDX 2 13 3 15 4 16 5 17 6 18 9 19 7 20 8 21 19 22 20 23 21 24
REMARK SMILES IDX 22 25 23 27 24 28 25 29 89 30 26 31 88 32 27 33 28 34 29 35
REMARK SMILES IDX 82 36 30 37 87 38 81 39 83 40 31 41 86 42 80 43 79 44 32 46
REMARK SMILES IDX 66 47 45 48 65 49 46 50 49 51 64 52 84 53 47 54 48 55 63 57
REMARK SMILES IDX 85 58 50 59 33 60 34 61 43 62 35 63 36 64 42 65 44 66 37 67
REMARK SMILES IDX 38 68 39 69 40 70 41 71 67 72 68 73 77 74 69 75 70 76 76 77
REMARK SMILES IDX 78 78 71 79 72 80 73 81 74 82 75 83 51 84 52 85 61 86 53 87
REMARK SMILES IDX 54 88 60 89 62 90 55 91 56 92 57 93 58 94 59 95
REMARK H PARENT 17 5 10 14 21 26 83 45 49 56
REMARK Flexibility Score: inf
ROOT
ATOM      1  C   UNL A   1      36.357  20.824  24.971  1.00  0.00     0.117 C 
ENDROOT
BRANCH   1   2
ATOM      2  N   UNL A   1      35.083  21.047  25.634  1.00  0.00    -0.356 N 
ATOM      3  C   UNL A   1      33.895  21.559  25.222  1.00  0.00     0.227 C 
ATOM      4  O   UNL A   1      32.971  21.490  26.041  1.00  0.00    -0.274 OA
ATOM      5  H   UNL A   1      35.081  20.769  26.578  1.00  0.00     0.163 HD
BRANCH   3   6
ATOM      6  C   UNL A   1      33.677  22.273  23.874  1.00  0.00     0.103 C 
ATOM      7  C   UNL A   1      32.295  24.265  24.250  1.00  0.00     0.106 C 
ATOM      8  C   UNL A   1      31.549  23.200  23.511  1.00  0.00    -0.006 C 
ATOM      9  C   UNL A   1      33.751  23.801  24.081  1.00  0.00     0.047 C 
ATOM     10  C   UNL A   1      32.335  22.160  23.222  1.00  0.00    -0.016 C 
BRANCH   7  11
ATOM     11  N   UNL A   1      32.046  25.480  23.517  1.00  0.00    -0.350 N 
ATOM     12  O   UNL A   1      30.196  26.157  24.680  1.00  0.00    -0.275 OA
ATOM     13  C   UNL A   1      30.956  26.282  23.725  1.00  0.00     0.222 C 
ATOM     14  H   UNL A   1      32.695  25.750  22.829  1.00  0.00     0.164 HD
BRANCH  13  15
ATOM     15  C   UNL A   1      30.641  27.255  22.603  1.00  0.00     0.122 C 
BRANCH  15  16
ATOM     16  C   UNL A   1      30.592  28.727  22.999  1.00  0.00     0.133 C 
BRANCH  16  17
ATOM     17  N   UNL A   1      29.280  29.334  23.140  1.00  0.00    -0.337 N 
ATOM     18  C   UNL A   1      29.064  30.673  23.332  1.00  0.00     0.107 A 
ATOM     19  C   UNL A   1      28.054  28.736  23.055  1.00  0.00     0.199 A 
ATOM     20  C   UNL A   1      27.700  30.832  23.268  1.00  0.00     0.130 A 
ATOM     21  N   UNL A   1      27.084  29.621  23.088  1.00  0.00    -0.245 NA
ENDBRANCH  16  17
ENDBRANCH  15  16
ENDBRANCH  13  15
ENDBRANCH   7  11
ENDBRANCH   3   6
ENDBRANCH   1   2
BRANCH   1  22
ATOM     22  C   UNL A   1      37.027  22.113  24.500  1.00  0.00     0.042 C 
BRANCH  22  23
ATOM     23  C   UNL A   1      37.719  22.840  25.642  1.00  0.00     0.118 C 
BRANCH  23  24
ATOM     24  N   UNL A   1      38.647  21.975  26.385  1.00  0.00    -0.352 N 
ATOM     25  C   UNL A   1      39.844  22.317  26.991  1.00  0.00     0.251 C 
ATOM     26  H   UNL A   1      38.385  21.030  26.461  1.00  0.00     0.163 HD
ATOM     27  O   UNL A   1      40.663  21.457  27.301  1.00  0.00    -0.269 OA
BRANCH  25  28
ATOM     28  C   UNL A   1      40.106  23.740  27.249  1.00  0.00     0.039 A 
ATOM     29  C   UNL A   1      39.115  24.717  27.127  1.00  0.00     0.014 A 
ATOM     30  C   UNL A   1      41.366  24.055  27.740  1.00  0.00     0.014 A 
ATOM     31  C   UNL A   1      39.380  25.997  27.610  1.00  0.00     0.010 A 
ATOM     32  C   UNL A   1      41.537  25.232  28.411  1.00  0.00     0.010 A 
ATOM     33  C   UNL A   1      40.587  26.239  28.282  1.00  0.00    -0.014 A 
BRANCH  33  34
ATOM     34  C   UNL A   1      40.860  27.507  28.949  1.00  0.00     0.031 A 
ATOM     35  C   UNL A   1      41.949  28.315  28.335  1.00  0.00     0.074 A 
ATOM     36  C   UNL A   1      40.024  28.029  29.875  1.00  0.00     0.049 A 
ATOM     37  N   UNL A   1      43.127  28.553  28.809  1.00  0.00    -0.248 NA
ATOM     38  C   UNL A   1      41.765  28.784  26.952  1.00  0.00     0.031 C 
ATOM     39  C   UNL A   1      38.726  27.505  30.331  1.00  0.00     0.029 A 
ATOM     40  N   UNL A   1      40.101  29.217  30.527  1.00  0.00    -0.354 N 
ATOM     41  C   UNL A   1      43.732  29.423  27.903  1.00  0.00     0.074 A 
ATOM     42  C   UNL A   1      42.957  29.327  26.695  1.00  0.00     0.031 C 
ATOM     43  C   UNL A   1      38.042  28.475  30.973  1.00  0.00     0.029 A 
ATOM     44  C   UNL A   1      38.922  29.611  31.154  1.00  0.00     0.049 A 
ATOM     45  H   UNL A   1      40.924  29.757  30.554  1.00  0.00     0.167 HD
ATOM     46  C   UNL A   1      44.638  30.355  28.319  1.00  0.00     0.037 A 
ATOM     47  C   UNL A   1      38.683  30.793  31.773  1.00  0.00     0.037 A 
ATOM     48  C   UNL A   1      45.102  30.049  29.654  1.00  0.00     0.049 A 
ATOM     49  C   UNL A   1      40.010  31.377  32.097  1.00  0.00     0.074 A 
ATOM     50  C   UNL A   1      45.722  28.968  30.251  1.00  0.00     0.029 A 
ATOM     51  N   UNL A   1      44.585  30.796  30.686  1.00  0.00    -0.354 N 
ATOM     52  N   UNL A   1      40.853  30.844  32.940  1.00  0.00    -0.248 NA
ATOM     53  C   UNL A   1      40.591  32.307  31.143  1.00  0.00     0.031 C 
ATOM     54  C   UNL A   1      45.131  28.871  31.546  1.00  0.00     0.029 A 
ATOM     55  C   UNL A   1      44.242  29.938  31.699  1.00  0.00     0.049 A 
ATOM     56  H   UNL A   1      44.478  31.775  30.697  1.00  0.00     0.167 HD
ATOM     57  C   UNL A   1      42.100  31.025  32.361  1.00  0.00     0.074 A 
ATOM     58  C   UNL A   1      41.885  32.023  31.314  1.00  0.00     0.031 C 
ATOM     59  C   UNL A   1      43.121  30.146  32.592  1.00  0.00     0.037 A 
BRANCH  46  60
ATOM     60  C   UNL A   1      44.798  31.744  27.720  1.00  0.00     0.058 A 
ATOM     61  C   UNL A   1      45.974  32.037  26.992  1.00  0.00     0.135 A 
ATOM     62  C   UNL A   1      44.016  32.868  28.067  1.00  0.00     0.135 A 
ATOM     63  F   UNL A   1      46.787  31.052  26.579  1.00  0.00    -0.206 F 
ATOM     64  C   UNL A   1      46.398  33.343  26.742  1.00  0.00     0.059 A 
ATOM     65  C   UNL A   1      44.395  34.176  27.781  1.00  0.00     0.059 A 
ATOM     66  F   UNL A   1      42.889  32.778  28.780  1.00  0.00    -0.206 F 
ATOM     67  C   UNL A   1      45.612  34.407  27.167  1.00  0.00     0.060 A 
BRANCH  67  68
ATOM     68  S   UNL A   1      46.217  36.092  26.975  1.00  0.00     0.124 S 
ATOM     69  O   UNL A   1      44.967  36.835  26.869  1.00  0.00    -0.237 OA
ATOM     70  O   UNL A   1      46.976  36.282  28.206  1.00  0.00    -0.237 OA
ATOM     71  O   UNL A   1      47.017  36.021  25.755  1.00  0.00    -0.744 OA
ENDBRANCH  67  68
ENDBRANCH  46  60
BRANCH  47  72
ATOM     72  C   UNL A   1      37.420  31.573  31.814  1.00  0.00     0.058 A 
ATOM     73  C   UNL A   1      36.777  31.850  33.033  1.00  0.00     0.135 A 
ATOM     74  C   UNL A   1      36.971  32.304  30.694  1.00  0.00     0.135 A 
ATOM     75  F   UNL A   1      37.150  31.211  34.152  1.00  0.00    -0.206 F 
ATOM     76  C   UNL A   1      35.791  32.836  33.150  1.00  0.00     0.059 A 
ATOM     77  C   UNL A   1      35.983  33.284  30.784  1.00  0.00     0.059 A 
ATOM     78  F   UNL A   1      37.548  32.152  29.493  1.00  0.00    -0.206 F 
ATOM     79  C   UNL A   1      35.416  33.566  32.021  1.00  0.00     0.060 A 
BRANCH  79  80
ATOM     80  S   UNL A   1      34.282  34.964  32.204  1.00  0.00     0.124 S 
ATOM     81  O   UNL A   1      35.102  35.926  32.931  1.00  0.00    -0.237 OA
ATOM     82  O   UNL A   1      33.984  35.303  30.816  1.00  0.00    -0.237 OA
ATOM     83  O   UNL A   1      33.165  34.400  32.956  1.00  0.00    -0.744 OA
ENDBRANCH  79  80
ENDBRANCH  47  72
BRANCH  59  84
ATOM     84  C   UNL A   1      42.978  29.170  33.735  1.00  0.00     0.058 A 
ATOM     85  C   UNL A   1      43.195  29.481  35.089  1.00  0.00     0.135 A 
ATOM     86  C   UNL A   1      42.448  27.902  33.452  1.00  0.00     0.135 A 
ATOM     87  F   UNL A   1      43.602  30.701  35.461  1.00  0.00    -0.206 F 
ATOM     88  C   UNL A   1      42.937  28.561  36.109  1.00  0.00     0.059 A 
ATOM     89  C   UNL A   1      42.153  26.981  34.453  1.00  0.00     0.059 A 
ATOM     90  F   UNL A   1      42.159  27.563  32.185  1.00  0.00    -0.206 F 
ATOM     91  C   UNL A   1      42.413  27.312  35.781  1.00  0.00     0.060 A 
BRANCH  91  92
ATOM     92  S   UNL A   1      42.006  26.151  37.103  1.00  0.00     0.124 S 
ATOM     93  O   UNL A   1      40.632  26.519  37.425  1.00  0.00    -0.237 OA
ATOM     94  O   UNL A   1      42.181  24.855  36.455  1.00  0.00    -0.237 OA
ATOM     95  O   UNL A   1      42.991  26.454  38.139  1.00  0.00    -0.744 OA
ENDBRANCH  91  92
ENDBRANCH  59  84
ENDBRANCH  33  34
ENDBRANCH  25  28
ENDBRANCH  23  24
ENDBRANCH  22  23
ENDBRANCH   1  22
TORSDOF 17
ENDMDL
MODEL 2
REMARK VINA RESULT:     -12.3      3.013      9.661
REMARK SMILES O=C(CCn1ccnc1)N[C@H]1C=C[C@H](C(=O)NCCCNC(=O)c2ccc(-c3c4nc(c(-c5c(F)cc(S(=O)(=O)[O-])cc5F)c5ccc([nH]5)c(-c5c(F)cc(S(=O)(=O)[O-])cc5F)c5nc(c(-c6c(F)cc(S(=O)(=O)[O-])cc6F)c6ccc3[nH]6)C=C5)C=C4)cc2)C1
REMARK SMILES IDX 18 1 17 2 15 3 16 4 14 6 11 7 12 8 90 9 13 10 10 11 1 12
REMARK SMILES IDX 2 13 3 15 4 16 5 17 6 18 9 19 7 20 8 21 19 22 20 23 21 24
REMARK SMILES IDX 22 25 23 27 24 28 25 29 89 30 26 31 88 32 27 33 28 34 29 35
REMARK SMILES IDX 82 36 30 37 87 38 81 39 83 40 31 41 86 42 80 43 79 44 32 46
REMARK SMILES IDX 66 47 45 48 65 49 46 50 49 51 64 52 84 53 47 54 48 55 63 57
REMARK SMILES IDX 85 58 50 59 33 60 34 61 43 62 35 63 36 64 42 65 44 66 37 67
REMARK SMILES IDX 38 68 39 69 40 70 41 71 67 72 68 73 77 74 69 75 70 76 76 77
REMARK SMILES IDX 78 78 71 79 72 80 73 81 74 82 75 83 51 84 52 85 61 86 53 87
REMARK SMILES IDX 54 88 60 89 62 90 55 91 56 92 57 93 58 94 59 95
REMARK H PARENT 17 5 10 14 21 26 83 45 49 56
REMARK Flexibility Score: inf
ROOT
ATOM      1  C   UNL A   1      32.450  29.662  25.358  1.00  0.00     0.117 C 
ENDROOT
BRANCH   1   2
ATOM      2  N   UNL A   1      31.217  30.033  24.685  1.00  0.00    -0.356 N 
ATOM      3  C   UNL A   1      30.361  29.363  23.871  1.00  0.00     0.227 C 
ATOM      4  O   UNL A   1      29.328  29.971  23.567  1.00  0.00    -0.274 OA
ATOM      5  H   UNL A   1      30.945  30.964  24.854  1.00  0.00     0.163 HD
BRANCH   3   6
ATOM      6  C   UNL A   1      30.647  27.978  23.260  1.00  0.00     0.103 C 
ATOM      7  C   UNL A   1      30.494  26.288  25.031  1.00  0.00     0.106 C 
ATOM      8  C   UNL A   1      31.904  26.492  24.575  1.00  0.00    -0.006 C 
ATOM      9  C   UNL A   1      29.699  26.932  23.884  1.00  0.00     0.047 C 
ATOM     10  C   UNL A   1      31.970  27.338  23.545  1.00  0.00    -0.016 C 
BRANCH   7  11
ATOM     11  N   UNL A   1      30.308  24.859  25.057  1.00  0.00    -0.350 N 
ATOM     12  O   UNL A   1      31.180  24.481  27.138  1.00  0.00    -0.275 OA
ATOM     13  C   UNL A   1      30.757  24.053  26.068  1.00  0.00     0.222 C 
ATOM     14  H   UNL A   1      29.831  24.438  24.306  1.00  0.00     0.164 HD
BRANCH  13  15
ATOM     15  C   UNL A   1      30.852  22.576  25.730  1.00  0.00     0.122 C 
BRANCH  15  16
ATOM     16  C   UNL A   1      32.255  22.050  25.450  1.00  0.00     0.133 C 
BRANCH  16  17
ATOM     17  N   UNL A   1      32.886  22.464  24.209  1.00  0.00    -0.337 N 
ATOM     18  C   UNL A   1      32.218  22.659  23.029  1.00  0.00     0.107 A 
ATOM     19  C   UNL A   1      34.195  22.787  23.989  1.00  0.00     0.199 A 
ATOM     20  C   UNL A   1      33.154  23.177  22.165  1.00  0.00     0.130 A 
ATOM     21  N   UNL A   1      34.377  23.259  22.777  1.00  0.00    -0.245 NA
ENDBRANCH  16  17
ENDBRANCH  15  16
ENDBRANCH  13  15
ENDBRANCH   7  11
ENDBRANCH   3   6
ENDBRANCH   1   2
BRANCH   1  22
ATOM     22  C   UNL A   1      32.306  29.575  26.877  1.00  0.00     0.042 C 
BRANCH  22  23
ATOM     23  C   UNL A   1      33.604  29.923  27.588  1.00  0.00     0.118 C 
BRANCH  23  24
ATOM     24  N   UNL A   1      34.049  31.298  27.314  1.00  0.00    -0.352 N 
ATOM     25  C   UNL A   1      35.205  31.928  27.739  1.00  0.00     0.251 C 
ATOM     26  H   UNL A   1      33.446  31.841  26.758  1.00  0.00     0.163 HD
ATOM     27  O   UNL A   1      35.307  33.151  27.707  1.00  0.00    -0.269 OA
BRANCH  25  28
ATOM     28  C   UNL A   1      36.308  31.091  28.232  1.00  0.00     0.039 A 
ATOM     29  C   UNL A   1      36.544  29.803  27.745  1.00  0.00     0.014 A 
ATOM     30  C   UNL A   1      37.184  31.689  29.129  1.00  0.00     0.014 A 
ATOM     31  C   UNL A   1      37.735  29.168  28.093  1.00  0.00     0.010 A 
ATOM     32  C   UNL A   1      38.436  31.164  29.277  1.00  0.00     0.010 A 
ATOM     33  C   UNL A   1      38.694  29.872  28.837  1.00  0.00    -0.014 A 
BRANCH  33  34
ATOM     34  C   UNL A   1      40.022  29.328  29.098  1.00  0.00     0.031 A 
ATOM     35  C   UNL A   1      40.352  29.147  30.538  1.00  0.00     0.074 A 
ATOM     36  C   UNL A   1      40.782  28.783  28.120  1.00  0.00     0.049 A 
ATOM     37  N   UNL A   1      41.194  29.818  31.251  1.00  0.00    -0.248 NA
ATOM     38  C   UNL A   1      39.529  28.211  31.322  1.00  0.00     0.031 C 
ATOM     39  C   UNL A   1      40.439  28.577  26.705  1.00  0.00     0.029 A 
ATOM     40  N   UNL A   1      41.995  28.178  28.214  1.00  0.00    -0.354 N 
ATOM     41  C   UNL A   1      41.198  29.210  32.505  1.00  0.00     0.074 A 
ATOM     42  C   UNL A   1      40.003  28.411  32.554  1.00  0.00     0.031 C 
ATOM     43  C   UNL A   1      41.292  27.691  26.150  1.00  0.00     0.029 A 
ATOM     44  C   UNL A   1      42.354  27.426  27.100  1.00  0.00     0.049 A 
ATOM     45  H   UNL A   1      42.573  28.266  29.006  1.00  0.00     0.167 HD
ATOM     46  C   UNL A   1      42.324  29.192  33.276  1.00  0.00     0.037 A 
ATOM     47  C   UNL A   1      43.445  26.632  26.969  1.00  0.00     0.037 A 
ATOM     48  C   UNL A   1      43.289  30.152  32.785  1.00  0.00     0.049 A 
ATOM     49  C   UNL A   1      44.420  27.081  27.994  1.00  0.00     0.074 A 
ATOM     50  C   UNL A   1      43.286  31.516  32.564  1.00  0.00     0.029 A 
ATOM     51  N   UNL A   1      44.355  29.663  32.067  1.00  0.00    -0.354 N 
ATOM     52  N   UNL A   1      44.991  28.257  27.990  1.00  0.00    -0.248 NA
ATOM     53  C   UNL A   1      44.417  26.399  29.278  1.00  0.00     0.031 C 
ATOM     54  C   UNL A   1      44.033  31.698  31.363  1.00  0.00     0.029 A 
ATOM     55  C   UNL A   1      44.515  30.451  30.958  1.00  0.00     0.049 A 
ATOM     56  H   UNL A   1      44.906  28.883  32.308  1.00  0.00     0.167 HD
ATOM     57  C   UNL A   1      45.026  28.642  29.322  1.00  0.00     0.074 A 
ATOM     58  C   UNL A   1      44.758  27.416  30.073  1.00  0.00     0.031 C 
ATOM     59  C   UNL A   1      44.983  29.961  29.678  1.00  0.00     0.037 A 
BRANCH  46  60
ATOM     60  C   UNL A   1      42.735  28.051  34.194  1.00  0.00     0.058 A 
ATOM     61  C   UNL A   1      42.865  28.308  35.578  1.00  0.00     0.135 A 
ATOM     62  C   UNL A   1      43.285  26.824  33.762  1.00  0.00     0.135 A 
ATOM     63  F   UNL A   1      42.358  29.429  36.117  1.00  0.00    -0.206 F 
ATOM     64  C   UNL A   1      43.591  27.477  36.433  1.00  0.00     0.059 A 
ATOM     65  C   UNL A   1      43.966  25.956  34.609  1.00  0.00     0.059 A 
ATOM     66  F   UNL A   1      43.278  26.434  32.484  1.00  0.00    -0.206 F 
ATOM     67  C   UNL A   1      44.161  26.315  35.929  1.00  0.00     0.060 A 
BRANCH  67  68
ATOM     68  S   UNL A   1      45.213  25.310  36.989  1.00  0.00     0.124 S 
ATOM     69  O   UNL A   1      46.367  26.184  37.160  1.00  0.00    -0.237 OA
ATOM     70  O   UNL A   1      44.368  25.125  38.164  1.00  0.00    -0.237 OA
ATOM     71  O   UNL A   1      45.441  24.108  36.192  1.00  0.00    -0.744 OA
ENDBRANCH  67  68
ENDBRANCH  46  60
BRANCH  47  72
ATOM     72  C   UNL A   1      43.564  25.341  26.245  1.00  0.00     0.058 A 
ATOM     73  C   UNL A   1      44.568  25.138  25.283  1.00  0.00     0.135 A 
ATOM     74  C   UNL A   1      42.881  24.187  26.683  1.00  0.00     0.135 A 
ATOM     75  F   UNL A   1      45.277  26.179  24.820  1.00  0.00    -0.206 F 
ATOM     76  C   UNL A   1      44.918  23.862  24.826  1.00  0.00     0.059 A 
ATOM     77  C   UNL A   1      43.204  22.907  26.235  1.00  0.00     0.059 A 
ATOM     78  F   UNL A   1      41.938  24.261  27.634  1.00  0.00    -0.206 F 
ATOM     79  C   UNL A   1      44.244  22.748  25.326  1.00  0.00     0.060 A 
BRANCH  79  80
ATOM     80  S   UNL A   1      44.817  21.090  24.882  1.00  0.00     0.124 S 
ATOM     81  O   UNL A   1      43.883  20.242  25.613  1.00  0.00    -0.237 OA
ATOM     82  O   UNL A   1      44.670  21.092  23.430  1.00  0.00    -0.237 OA
ATOM     83  O   UNL A   1      46.194  21.065  25.365  1.00  0.00    -0.744 OA
ENDBRANCH  79  80
ENDBRANCH  47  72
BRANCH  59  84
ATOM     84  C   UNL A   1      45.231  30.997  28.607  1.00  0.00     0.058 A 
ATOM     85  C   UNL A   1      44.237  31.553  27.782  1.00  0.00     0.135 A 
ATOM     86  C   UNL A   1      46.514  31.558  28.521  1.00  0.00     0.135 A 
ATOM     87  F   UNL A   1      42.963  31.151  27.868  1.00  0.00    -0.206 F 
ATOM     88  C   UNL A   1      44.515  32.589  26.886  1.00  0.00     0.059 A 
ATOM     89  C   UNL A   1      46.807  32.611  27.660  1.00  0.00     0.059 A 
ATOM     90  F   UNL A   1      47.495  31.115  29.325  1.00  0.00    -0.206 F 
ATOM     91  C   UNL A   1      45.805  33.114  26.834  1.00  0.00     0.060 A 
BRANCH  91  92
ATOM     92  S   UNL A   1      46.147  34.504  25.732  1.00  0.00     0.124 S 
ATOM     93  O   UNL A   1      47.574  34.348  25.474  1.00  0.00    -0.237 OA
ATOM     94  O   UNL A   1      45.264  34.239  24.601  1.00  0.00    -0.237 OA
ATOM     95  O   UNL A   1      45.784  35.671  26.532  1.00  0.00    -0.744 OA
ENDBRANCH  91  92
ENDBRANCH  59  84
ENDBRANCH  33  34
ENDBRANCH  25  28
ENDBRANCH  23  24
ENDBRANCH  22  23
ENDBRANCH   1  22
TORSDOF 17
ENDMDL
MODEL 3
REMARK VINA RESULT:     -12.2      2.661      3.989
REMARK SMILES O=C(CCn1ccnc1)N[C@H]1C=C[C@H](C(=O)NCCCNC(=O)c2ccc(-c3c4nc(c(-c5c(F)cc(S(=O)(=O)[O-])cc5F)c5ccc([nH]5)c(-c5c(F)cc(S(=O)(=O)[O-])cc5F)c5nc(c(-c6c(F)cc(S(=O)(=O)[O-])cc6F)c6ccc3[nH]6)C=C5)C=C4)cc2)C1
REMARK SMILES IDX 18 1 17 2 15 3 16 4 14 6 11 7 12 8 90 9 13 10 10 11 1 12
REMARK SMILES IDX 2 13 3 15 4 16 5 17 6 18 9 19 7 20 8 21 19 22 20 23 21 24
REMARK SMILES IDX 22 25 23 27 24 28 25 29 89 30 26 31 88 32 27 33 28 34 29 35
REMARK SMILES IDX 82 36 30 37 87 38 81 39 83 40 31 41 86 42 80 43 79 44 32 46
REMARK SMILES IDX 66 47 45 48 65 49 46 50 49 51 64 52 84 53 47 54 48 55 63 57
REMARK SMILES IDX 85 58 50 59 33 60 34 61 43 62 35 63 36 64 42 65 44 66 37 67
REMARK SMILES IDX 38 68 39 69 40 70 41 71 67 72 68 73 77 74 69 75 70 76 76 77
REMARK SMILES IDX 78 78 71 79 72 80 73 81 74 82 75 83 51 84 52 85 61 86 53 87
REMARK SMILES IDX 54 88 60 89 62 90 55 91 56 92 57 93 58 94 59 95
REMARK H PARENT 17 5 10 14 21 26 83 45 49 56
REMARK Flexibility Score: inf
ROOT
ATOM      1  C   UNL A   1      40.201  20.235  25.756  1.00  0.00     0.117 C 
ENDROOT
BRANCH   1   2
ATOM      2  N   UNL A   1      39.791  21.534  26.265  1.00  0.00    -0.356 N 
ATOM      3  C   UNL A   1      38.713  22.326  26.036  1.00  0.00     0.227 C 
ATOM      4  O   UNL A   1      38.632  23.336  26.746  1.00  0.00    -0.274 OA
ATOM      5  H   UNL A   1      40.428  21.918  26.910  1.00  0.00     0.163 HD
BRANCH   3   6
ATOM      6  C   UNL A   1      37.678  22.086  24.919  1.00  0.00     0.103 C 
ATOM      7  C   UNL A   1      35.429  22.383  25.850  1.00  0.00     0.106 C 
ATOM      8  C   UNL A   1      35.717  20.950  25.534  1.00  0.00    -0.006 C 
ATOM      9  C   UNL A   1      36.527  23.106  25.054  1.00  0.00     0.047 C 
ATOM     10  C   UNL A   1      36.902  20.807  24.937  1.00  0.00    -0.016 C 
BRANCH   7  11
ATOM     11  N   UNL A   1      34.125  22.639  25.292  1.00  0.00    -0.350 N 
ATOM     12  O   UNL A   1      33.895  24.788  26.042  1.00  0.00    -0.275 OA
ATOM     13  C   UNL A   1      33.416  23.788  25.516  1.00  0.00     0.222 C 
ATOM     14  H   UNL A   1      33.721  21.950  24.717  1.00  0.00     0.164 HD
BRANCH  13  15
ATOM     15  C   UNL A   1      31.930  23.705  25.214  1.00  0.00     0.122 C 
BRANCH  15  16
ATOM     16  C   UNL A   1      31.565  23.409  23.764  1.00  0.00     0.133 C 
BRANCH  16  17
ATOM     17  N   UNL A   1      31.998  24.365  22.760  1.00  0.00    -0.337 N 
ATOM     18  C   UNL A   1      31.426  25.594  22.564  1.00  0.00     0.107 A 
ATOM     19  C   UNL A   1      33.047  24.265  21.891  1.00  0.00     0.199 A 
ATOM     20  C   UNL A   1      32.220  26.218  21.632  1.00  0.00     0.130 A 
ATOM     21  N   UNL A   1      33.230  25.385  21.227  1.00  0.00    -0.245 NA
ENDBRANCH  16  17
ENDBRANCH  15  16
ENDBRANCH  13  15
ENDBRANCH   7  11
ENDBRANCH   3   6
ENDBRANCH   1   2
BRANCH   1  22
ATOM     22  C   UNL A   1      40.960  19.397  26.783  1.00  0.00     0.042 C 
BRANCH  22  23
ATOM     23  C   UNL A   1      42.320  19.994  27.107  1.00  0.00     0.118 C 
BRANCH  23  24
ATOM     24  N   UNL A   1      43.331  19.688  26.084  1.00  0.00    -0.352 N 
ATOM     25  C   UNL A   1      43.974  20.559  25.223  1.00  0.00     0.251 C 
ATOM     26  H   UNL A   1      43.583  18.740  26.000  1.00  0.00     0.163 HD
ATOM     27  O   UNL A   1      44.553  20.147  24.222  1.00  0.00    -0.269 OA
BRANCH  25  28
ATOM     28  C   UNL A   1      43.942  21.994  25.539  1.00  0.00     0.039 A 
ATOM     29  C   UNL A   1      42.979  22.855  25.008  1.00  0.00     0.014 A 
ATOM     30  C   UNL A   1      44.850  22.436  26.492  1.00  0.00     0.014 A 
ATOM     31  C   UNL A   1      42.875  24.142  25.534  1.00  0.00     0.010 A 
ATOM     32  C   UNL A   1      44.596  23.604  27.154  1.00  0.00     0.010 A 
ATOM     33  C   UNL A   1      43.670  24.499  26.632  1.00  0.00    -0.014 A 
BRANCH  33  34
ATOM     34  C   UNL A   1      43.500  25.769  27.329  1.00  0.00     0.031 A 
ATOM     35  C   UNL A   1      44.531  26.797  27.018  1.00  0.00     0.074 A 
ATOM     36  C   UNL A   1      42.362  26.082  27.991  1.00  0.00     0.049 A 
ATOM     37  N   UNL A   1      45.470  27.241  27.786  1.00  0.00    -0.248 NA
ATOM     38  C   UNL A   1      44.630  27.275  25.628  1.00  0.00     0.031 C 
ATOM     39  C   UNL A   1      41.121  25.299  28.090  1.00  0.00     0.029 A 
ATOM     40  N   UNL A   1      42.027  27.236  28.622  1.00  0.00    -0.354 N 
ATOM     41  C   UNL A   1      46.108  28.246  27.061  1.00  0.00     0.074 A 
ATOM     42  C   UNL A   1      45.716  28.049  25.692  1.00  0.00     0.031 C 
ATOM     43  C   UNL A   1      40.112  26.091  28.512  1.00  0.00     0.029 A 
ATOM     44  C   UNL A   1      40.671  27.368  28.905  1.00  0.00     0.049 A 
ATOM     45  H   UNL A   1      42.690  27.924  28.861  1.00  0.00     0.167 HD
ATOM     46  C   UNL A   1      46.670  29.319  27.691  1.00  0.00     0.037 A 
ATOM     47  C   UNL A   1      40.047  28.456  29.420  1.00  0.00     0.037 A 
ATOM     48  C   UNL A   1      46.814  29.058  29.107  1.00  0.00     0.049 A 
ATOM     49  C   UNL A   1      41.098  29.274  30.079  1.00  0.00     0.074 A 
ATOM     50  C   UNL A   1      47.454  28.096  29.863  1.00  0.00     0.029 A 
ATOM     51  N   UNL A   1      45.904  29.649  29.952  1.00  0.00    -0.354 N 
ATOM     52  N   UNL A   1      41.776  28.882  31.124  1.00  0.00    -0.248 NA
ATOM     53  C   UNL A   1      41.716  30.336  29.302  1.00  0.00     0.031 C 
ATOM     54  C   UNL A   1      46.573  27.835  30.954  1.00  0.00     0.029 A 
ATOM     55  C   UNL A   1      45.483  28.702  30.848  1.00  0.00     0.049 A 
ATOM     56  H   UNL A   1      45.607  30.588  29.919  1.00  0.00     0.167 HD
ATOM     57  C   UNL A   1      43.070  29.325  30.898  1.00  0.00     0.074 A 
ATOM     58  C   UNL A   1      42.948  30.302  29.816  1.00  0.00     0.031 C 
ATOM     59  C   UNL A   1      44.147  28.653  31.406  1.00  0.00     0.037 A 
BRANCH  46  60
ATOM     60  C   UNL A   1      46.704  30.735  27.137  1.00  0.00     0.058 A 
ATOM     61  C   UNL A   1      47.928  31.442  27.158  1.00  0.00     0.135 A 
ATOM     62  C   UNL A   1      45.565  31.526  26.867  1.00  0.00     0.135 A 
ATOM     63  F   UNL A   1      49.086  30.799  27.375  1.00  0.00    -0.206 F 
ATOM     64  C   UNL A   1      47.997  32.832  27.048  1.00  0.00     0.059 A 
ATOM     65  C   UNL A   1      45.618  32.906  26.701  1.00  0.00     0.059 A 
ATOM     66  F   UNL A   1      44.324  31.028  26.839  1.00  0.00    -0.206 F 
ATOM     67  C   UNL A   1      46.829  33.557  26.847  1.00  0.00     0.060 A 
BRANCH  67  68
ATOM     68  S   UNL A   1      46.890  35.356  26.843  1.00  0.00     0.124 S 
ATOM     69  O   UNL A   1      48.300  35.596  27.124  1.00  0.00    -0.237 OA
ATOM     70  O   UNL A   1      46.443  35.670  25.490  1.00  0.00    -0.237 OA
ATOM     71  O   UNL A   1      45.959  35.724  27.906  1.00  0.00    -0.744 OA
ENDBRANCH  67  68
ENDBRANCH  46  60
BRANCH  47  72
ATOM     72  C   UNL A   1      38.690  28.973  29.111  1.00  0.00     0.058 A 
ATOM     73  C   UNL A   1      37.739  29.169  30.126  1.00  0.00     0.135 A 
ATOM     74  C   UNL A   1      38.393  29.555  27.860  1.00  0.00     0.135 A 
ATOM     75  F   UNL A   1      37.947  28.663  31.351  1.00  0.00    -0.206 F 
ATOM     76  C   UNL A   1      36.591  29.946  29.935  1.00  0.00     0.059 A 
ATOM     77  C   UNL A   1      37.250  30.324  27.642  1.00  0.00     0.059 A 
ATOM     78  F   UNL A   1      39.255  29.470  26.836  1.00  0.00    -0.206 F 
ATOM     79  C   UNL A   1      36.366  30.540  28.693  1.00  0.00     0.060 A 
BRANCH  79  80
ATOM     80  S   UNL A   1      34.986  31.694  28.496  1.00  0.00     0.124 S 
ATOM     81  O   UNL A   1      33.964  30.843  27.898  1.00  0.00    -0.237 OA
ATOM     82  O   UNL A   1      34.739  32.116  29.871  1.00  0.00    -0.237 OA
ATOM     83  O   UNL A   1      35.529  32.727  27.619  1.00  0.00    -0.744 OA
ENDBRANCH  79  80
ENDBRANCH  47  72
BRANCH  59  84
ATOM     84  C   UNL A   1      43.901  27.624  32.483  1.00  0.00     0.058 A 
ATOM     85  C   UNL A   1      43.809  26.238  32.264  1.00  0.00     0.135 A 
ATOM     86  C   UNL A   1      43.911  28.057  33.818  1.00  0.00     0.135 A 
ATOM     87  F   UNL A   1      43.894  25.727  31.030  1.00  0.00    -0.206 F 
ATOM     88  C   UNL A   1      43.692  25.329  33.319  1.00  0.00     0.059 A 
ATOM     89  C   UNL A   1      43.827  27.168  34.886  1.00  0.00     0.059 A 
ATOM     90  F   UNL A   1      44.058  29.362  34.099  1.00  0.00    -0.206 F 
ATOM     91  C   UNL A   1      43.704  25.805  34.630  1.00  0.00     0.060 A 
BRANCH  91  92
ATOM     92  S   UNL A   1      43.630  24.626  35.996  1.00  0.00     0.124 S 
ATOM     93  O   UNL A   1      42.371  24.981  36.641  1.00  0.00    -0.237 OA
ATOM     94  O   UNL A   1      43.651  23.338  35.309  1.00  0.00    -0.237 OA
ATOM     95  O   UNL A   1      44.832  24.925  36.771  1.00  0.00    -0.744 OA
ENDBRANCH  91  92
ENDBRANCH  59  84
ENDBRANCH  33  34
ENDBRANCH  25  28
ENDBRANCH  23  24
ENDBRANCH  22  23
ENDBRANCH   1  22
TORSDOF 17
ENDMDL
