MODEL 1
REMARK VINA RESULT:     -10.5      0.000      0.000
REMARK SMILES CC[C@@](O)(C(=O)NCCCNC(=O)c1ccc(-c2c3nc(c(-c4c(F)cc(S(=O)(=O)[O-])cc4F)c4ccc([nH]4)c(-c4c(F)cc(S(=O)(=O)[O-])cc4F)c4nc(c(-c5c(F)cc(S(=O)(=O)[O-])cc5F)c5ccc2[nH]5)C=C4)C=C3)cc1)[C@@H](C)c1ccc(OC)c(OC)c1
REMARK SMILES IDX 9 1 8 2 7 3 5 4 6 5 3 7 2 8 1 9 4 10 80 12 81 13 82 14 83 15
REMARK SMILES IDX 91 16 84 17 88 18 85 19 89 20 90 21 86 22 87 23 10 24 11 25
REMARK SMILES IDX 12 26 13 28 14 29 15 30 79 31 16 32 78 33 17 34 18 35 19 36
REMARK SMILES IDX 72 37 20 38 77 39 71 40 73 41 21 42 76 43 70 44 69 45 22 47
REMARK SMILES IDX 56 48 35 49 55 50 36 51 39 52 54 53 74 54 37 55 38 56 53 58
REMARK SMILES IDX 75 59 40 60 23 61 24 62 33 63 25 64 26 65 32 66 34 67 27 68
REMARK SMILES IDX 28 69 29 70 30 71 31 72 57 73 58 74 67 75 59 76 60 77 66 78
REMARK SMILES IDX 68 79 61 80 62 81 63 82 64 83 65 84 41 85 42 86 51 87 43 88
REMARK SMILES IDX 44 89 50 90 52 91 45 92 46 93 47 94 48 95 49 96
REMARK H PARENT 7 6 4 11 11 27 73 46 39 57
REMARK Flexibility Score: inf
ROOT
ATOM      1  C   UNL A   1      33.343  27.627  25.814  1.00  0.00     0.042 C 
ENDROOT
BRANCH   1   2
ATOM      2  C   UNL A   1      33.326  26.117  25.605  1.00  0.00     0.117 C 
BRANCH   2   3
ATOM      3  N   UNL A   1      34.000  25.686  24.384  1.00  0.00    -0.354 N 
ATOM      4  C   UNL A   1      33.581  24.870  23.366  1.00  0.00     0.252 C 
ATOM      5  O   UNL A   1      34.296  24.837  22.360  1.00  0.00    -0.272 OA
ATOM      6  H   UNL A   1      34.912  26.043  24.274  1.00  0.00     0.163 HD
BRANCH   4   7
ATOM      7  C   UNL A   1      32.258  24.028  23.483  1.00  0.00     0.149 C 
BRANCH   7   8
ATOM      8  C   UNL A   1      31.085  25.045  23.516  1.00  0.00     0.043 C 
ATOM      9  C   UNL A   1      31.052  26.187  22.516  1.00  0.00     0.007 C 
ENDBRANCH   7   8
BRANCH   7  10
ATOM     10  O   UNL A   1      32.234  23.235  22.284  1.00  0.00    -0.379 OA
ATOM     11  H   UNL A   1      31.406  23.398  21.806  1.00  0.00     0.212 HD
ENDBRANCH   7  10
BRANCH   7  12
ATOM     12  C   UNL A   1      32.333  23.061  24.738  1.00  0.00     0.058 C 
ATOM     13  C   UNL A   1      30.943  22.918  25.404  1.00  0.00     0.016 C 
BRANCH  12  14
ATOM     14  C   UNL A   1      32.960  21.661  24.553  1.00  0.00    -0.038 A 
ATOM     15  C   UNL A   1      32.229  20.528  24.188  1.00  0.00     0.008 A 
ATOM     16  C   UNL A   1      34.340  21.469  24.779  1.00  0.00     0.054 A 
ATOM     17  C   UNL A   1      32.790  19.253  24.221  1.00  0.00     0.051 A 
ATOM     18  C   UNL A   1      34.936  20.190  24.756  1.00  0.00     0.160 A 
ATOM     19  C   UNL A   1      34.133  19.066  24.530  1.00  0.00     0.160 A 
BRANCH  18  20
ATOM     20  O   UNL A   1      36.266  20.010  25.033  1.00  0.00    -0.493 OA
ATOM     21  C   UNL A   1      37.066  21.189  25.010  1.00  0.00     0.278 C 
ENDBRANCH  18  20
BRANCH  19  22
ATOM     22  O   UNL A   1      34.467  17.742  24.593  1.00  0.00    -0.493 OA
ATOM     23  C   UNL A   1      34.126  16.917  23.496  1.00  0.00     0.278 C 
ENDBRANCH  19  22
ENDBRANCH  12  14
ENDBRANCH   7  12
ENDBRANCH   4   7
ENDBRANCH   2   3
ENDBRANCH   1   2
BRANCH   1  24
ATOM     24  C   UNL A   1      33.754  28.061  27.211  1.00  0.00     0.118 C 
BRANCH  24  25
ATOM     25  N   UNL A   1      33.564  29.486  27.425  1.00  0.00    -0.352 N 
ATOM     26  C   UNL A   1      34.405  30.412  27.985  1.00  0.00     0.251 C 
ATOM     27  H   UNL A   1      32.698  29.841  27.121  1.00  0.00     0.163 HD
ATOM     28  O   UNL A   1      33.959  31.526  28.278  1.00  0.00    -0.269 OA
BRANCH  26  29
ATOM     29  C   UNL A   1      35.825  30.091  28.255  1.00  0.00     0.039 A 
ATOM     30  C   UNL A   1      36.188  29.658  29.534  1.00  0.00     0.014 A 
ATOM     31  C   UNL A   1      36.806  30.250  27.273  1.00  0.00     0.014 A 
ATOM     32  C   UNL A   1      37.521  29.340  29.809  1.00  0.00     0.010 A 
ATOM     33  C   UNL A   1      38.114  29.841  27.520  1.00  0.00     0.010 A 
ATOM     34  C   UNL A   1      38.491  29.401  28.796  1.00  0.00    -0.014 A 
BRANCH  34  35
ATOM     35  C   UNL A   1      39.908  29.038  29.059  1.00  0.00     0.031 A 
ATOM     36  C   UNL A   1      40.848  30.054  29.655  1.00  0.00     0.074 A 
ATOM     37  C   UNL A   1      40.362  27.818  28.712  1.00  0.00     0.049 A 
ATOM     38  N   UNL A   1      42.127  29.949  29.908  1.00  0.00    -0.248 NA
ATOM     39  C   UNL A   1      40.282  31.374  29.982  1.00  0.00     0.031 C 
ATOM     40  C   UNL A   1      39.563  26.765  28.080  1.00  0.00     0.029 A 
ATOM     41  N   UNL A   1      41.609  27.257  28.834  1.00  0.00    -0.354 N 
ATOM     42  C   UNL A   1      42.521  31.188  30.401  1.00  0.00     0.074 A 
ATOM     43  C   UNL A   1      41.359  32.046  30.362  1.00  0.00     0.031 C 
ATOM     44  C   UNL A   1      40.331  25.678  27.900  1.00  0.00     0.029 A 
ATOM     45  C   UNL A   1      41.683  25.966  28.367  1.00  0.00     0.049 A 
ATOM     46  H   UNL A   1      42.378  27.735  29.222  1.00  0.00     0.167 HD
ATOM     47  C   UNL A   1      43.733  31.568  30.869  1.00  0.00     0.037 A 
ATOM     48  C   UNL A   1      42.725  25.113  28.316  1.00  0.00     0.037 A 
ATOM     49  C   UNL A   1      44.877  30.696  30.939  1.00  0.00     0.049 A 
ATOM     50  C   UNL A   1      44.058  25.554  28.854  1.00  0.00     0.074 A 
ATOM     51  C   UNL A   1      46.131  30.963  31.460  1.00  0.00     0.029 A 
ATOM     52  N   UNL A   1      44.907  29.389  30.476  1.00  0.00    -0.354 N 
ATOM     53  N   UNL A   1      44.395  26.708  29.380  1.00  0.00    -0.248 NA
ATOM     54  C   UNL A   1      45.153  24.576  28.799  1.00  0.00     0.031 C 
ATOM     55  C   UNL A   1      46.932  29.831  31.272  1.00  0.00     0.029 A 
ATOM     56  C   UNL A   1      46.163  28.842  30.679  1.00  0.00     0.049 A 
ATOM     57  H   UNL A   1      44.147  28.920  30.063  1.00  0.00     0.167 HD
ATOM     58  C   UNL A   1      45.731  26.584  29.746  1.00  0.00     0.074 A 
ATOM     59  C   UNL A   1      46.137  25.240  29.389  1.00  0.00     0.031 C 
ATOM     60  C   UNL A   1      46.547  27.499  30.325  1.00  0.00     0.037 A 
BRANCH  47  61
ATOM     61  C   UNL A   1      43.884  32.988  31.345  1.00  0.00     0.058 A 
ATOM     62  C   UNL A   1      44.220  34.031  30.465  1.00  0.00     0.135 A 
ATOM     63  C   UNL A   1      43.667  33.316  32.692  1.00  0.00     0.135 A 
ATOM     64  F   UNL A   1      44.455  33.773  29.169  1.00  0.00    -0.206 F 
ATOM     65  C   UNL A   1      44.370  35.340  30.910  1.00  0.00     0.059 A 
ATOM     66  C   UNL A   1      43.781  34.626  33.155  1.00  0.00     0.059 A 
ATOM     67  F   UNL A   1      43.342  32.361  33.578  1.00  0.00    -0.206 F 
ATOM     68  C   UNL A   1      44.150  35.627  32.258  1.00  0.00     0.060 A 
BRANCH  68  69
ATOM     69  S   UNL A   1      44.349  37.331  32.821  1.00  0.00     0.124 S 
ATOM     70  O   UNL A   1      45.642  37.264  33.495  1.00  0.00    -0.237 OA
ATOM     71  O   UNL A   1      44.327  38.079  31.568  1.00  0.00    -0.237 OA
ATOM     72  O   UNL A   1      43.196  37.539  33.693  1.00  0.00    -0.744 OA
ENDBRANCH  68  69
ENDBRANCH  47  61
BRANCH  48  73
ATOM     73  C   UNL A   1      42.537  23.743  27.769  1.00  0.00     0.058 A 
ATOM     74  C   UNL A   1      42.513  23.520  26.384  1.00  0.00     0.135 A 
ATOM     75  C   UNL A   1      42.391  22.631  28.613  1.00  0.00     0.135 A 
ATOM     76  F   UNL A   1      42.644  24.550  25.536  1.00  0.00    -0.206 F 
ATOM     77  C   UNL A   1      42.334  22.246  25.854  1.00  0.00     0.059 A 
ATOM     78  C   UNL A   1      42.235  21.344  28.107  1.00  0.00     0.059 A 
ATOM     79  F   UNL A   1      42.425  22.790  29.946  1.00  0.00    -0.206 F 
ATOM     80  C   UNL A   1      42.198  21.164  26.725  1.00  0.00     0.060 A 
BRANCH  80  81
ATOM     81  S   UNL A   1      42.013  19.509  26.026  1.00  0.00     0.124 S 
ATOM     82  O   UNL A   1      40.578  19.458  25.767  1.00  0.00    -0.237 OA
ATOM     83  O   UNL A   1      42.872  19.574  24.849  1.00  0.00    -0.237 OA
ATOM     84  O   UNL A   1      42.492  18.638  27.096  1.00  0.00    -0.744 OA
ENDBRANCH  80  81
ENDBRANCH  48  73
BRANCH  60  85
ATOM     85  C   UNL A   1      47.951  27.065  30.647  1.00  0.00     0.058 A 
ATOM     86  C   UNL A   1      49.001  27.221  29.729  1.00  0.00     0.135 A 
ATOM     87  C   UNL A   1      48.255  26.529  31.909  1.00  0.00     0.135 A 
ATOM     88  F   UNL A   1      48.763  27.724  28.508  1.00  0.00    -0.206 F 
ATOM     89  C   UNL A   1      50.300  26.833  30.042  1.00  0.00     0.059 A 
ATOM     90  C   UNL A   1      49.552  26.161  32.253  1.00  0.00     0.059 A 
ATOM     91  F   UNL A   1      47.289  26.370  32.828  1.00  0.00    -0.206 F 
ATOM     92  C   UNL A   1      50.566  26.304  31.306  1.00  0.00     0.060 A 
BRANCH  92  93
ATOM     93  S   UNL A   1      52.260  25.831  31.710  1.00  0.00     0.124 S 
ATOM     94  O   UNL A   1      52.568  26.745  32.805  1.00  0.00    -0.237 OA
ATOM     95  O   UNL A   1      52.114  24.426  32.078  1.00  0.00    -0.237 OA
ATOM     96  O   UNL A   1      52.986  26.073  30.467  1.00  0.00    -0.744 OA
ENDBRANCH  92  93
ENDBRANCH  60  85
ENDBRANCH  34  35
ENDBRANCH  26  29
ENDBRANCH  24  25
ENDBRANCH   1  24
TORSDOF 19
ENDMDL
MODEL 2
REMARK VINA RESULT:     -10.4      2.984      4.034
REMARK SMILES CC[C@@](O)(C(=O)NCCCNC(=O)c1ccc(-c2c3nc(c(-c4c(F)cc(S(=O)(=O)[O-])cc4F)c4ccc([nH]4)c(-c4c(F)cc(S(=O)(=O)[O-])cc4F)c4nc(c(-c5c(F)cc(S(=O)(=O)[O-])cc5F)c5ccc2[nH]5)C=C4)C=C3)cc1)[C@@H](C)c1ccc(OC)c(OC)c1
REMARK SMILES IDX 9 1 8 2 7 3 5 4 6 5 3 7 2 8 1 9 4 10 80 12 81 13 82 14 83 15
REMARK SMILES IDX 91 16 84 17 88 18 85 19 89 20 90 21 86 22 87 23 10 24 11 25
REMARK SMILES IDX 12 26 13 28 14 29 15 30 79 31 16 32 78 33 17 34 18 35 19 36
REMARK SMILES IDX 72 37 20 38 77 39 71 40 73 41 21 42 76 43 70 44 69 45 22 47
REMARK SMILES IDX 56 48 35 49 55 50 36 51 39 52 54 53 74 54 37 55 38 56 53 58
REMARK SMILES IDX 75 59 40 60 23 61 24 62 33 63 25 64 26 65 32 66 34 67 27 68
REMARK SMILES IDX 28 69 29 70 30 71 31 72 57 73 58 74 67 75 59 76 60 77 66 78
REMARK SMILES IDX 68 79 61 80 62 81 63 82 64 83 65 84 41 85 42 86 51 87 43 88
REMARK SMILES IDX 44 89 50 90 52 91 45 92 46 93 47 94 48 95 49 96
REMARK H PARENT 7 6 4 11 11 27 73 46 39 57
REMARK Flexibility Score: inf
ROOT
ATOM      1  C   UNL A   1      34.564  30.810  27.567  1.00  0.00     0.042 C 
ENDROOT
BRANCH   1   2
ATOM      2  C   UNL A   1      33.666  29.939  26.695  1.00  0.00     0.117 C 
BRANCH   2   3
ATOM      3  N   UNL A   1      32.569  29.313  27.426  1.00  0.00    -0.354 N 
ATOM      4  C   UNL A   1      31.744  28.271  27.089  1.00  0.00     0.252 C 
ATOM      5  O   UNL A   1      31.026  27.827  27.990  1.00  0.00    -0.272 OA
ATOM      6  H   UNL A   1      32.391  29.705  28.312  1.00  0.00     0.163 HD
BRANCH   4   7
ATOM      7  C   UNL A   1      31.724  27.680  25.632  1.00  0.00     0.149 C 
BRANCH   7   8
ATOM      8  C   UNL A   1      31.519  28.880  24.667  1.00  0.00     0.043 C 
ATOM      9  C   UNL A   1      32.339  28.968  23.393  1.00  0.00     0.007 C 
ENDBRANCH   7   8
BRANCH   7  10
ATOM     10  O   UNL A   1      33.026  27.092  25.470  1.00  0.00    -0.379 OA
ATOM     11  H   UNL A   1      33.676  27.600  25.979  1.00  0.00     0.212 HD
ENDBRANCH   7  10
BRANCH   7  12
ATOM     12  C   UNL A   1      30.626  26.541  25.516  1.00  0.00     0.058 C 
ATOM     13  C   UNL A   1      29.677  26.814  24.325  1.00  0.00     0.016 C 
BRANCH  12  14
ATOM     14  C   UNL A   1      31.094  25.069  25.474  1.00  0.00    -0.038 A 
ATOM     15  C   UNL A   1      31.077  24.285  24.318  1.00  0.00     0.008 A 
ATOM     16  C   UNL A   1      31.548  24.438  26.651  1.00  0.00     0.054 A 
ATOM     17  C   UNL A   1      31.321  22.914  24.360  1.00  0.00     0.051 A 
ATOM     18  C   UNL A   1      31.858  23.061  26.697  1.00  0.00     0.160 A 
ATOM     19  C   UNL A   1      31.684  22.283  25.546  1.00  0.00     0.160 A 
BRANCH  18  20
ATOM     20  O   UNL A   1      32.243  22.447  27.860  1.00  0.00    -0.493 OA
ATOM     21  C   UNL A   1      33.640  22.212  27.999  1.00  0.00     0.278 C 
ENDBRANCH  18  20
BRANCH  19  22
ATOM     22  O   UNL A   1      31.793  20.929  25.396  1.00  0.00    -0.493 OA
ATOM     23  C   UNL A   1      32.693  20.439  24.421  1.00  0.00     0.278 C 
ENDBRANCH  19  22
ENDBRANCH  12  14
ENDBRANCH   7  12
ENDBRANCH   4   7
ENDBRANCH   2   3
ENDBRANCH   1   2
BRANCH   1  24
ATOM     24  C   UNL A   1      35.345  30.046  28.622  1.00  0.00     0.118 C 
BRANCH  24  25
ATOM     25  N   UNL A   1      35.527  30.817  29.841  1.00  0.00    -0.352 N 
ATOM     26  C   UNL A   1      36.632  30.951  30.641  1.00  0.00     0.251 C 
ATOM     27  H   UNL A   1      34.735  31.320  30.138  1.00  0.00     0.163 HD
ATOM     28  O   UNL A   1      36.506  31.473  31.753  1.00  0.00    -0.269 OA
BRANCH  26  29
ATOM     29  C   UNL A   1      37.960  30.469  30.198  1.00  0.00     0.039 A 
ATOM     30  C   UNL A   1      38.255  30.463  28.830  1.00  0.00     0.014 A 
ATOM     31  C   UNL A   1      38.901  29.987  31.110  1.00  0.00     0.014 A 
ATOM     32  C   UNL A   1      39.506  30.021  28.390  1.00  0.00     0.010 A 
ATOM     33  C   UNL A   1      40.178  29.639  30.680  1.00  0.00     0.010 A 
ATOM     34  C   UNL A   1      40.489  29.633  29.313  1.00  0.00    -0.014 A 
BRANCH  34  35
ATOM     35  C   UNL A   1      41.835  29.188  28.868  1.00  0.00     0.031 A 
ATOM     36  C   UNL A   1      42.973  30.173  28.806  1.00  0.00     0.074 A 
ATOM     37  C   UNL A   1      42.020  27.915  28.466  1.00  0.00     0.049 A 
ATOM     38  N   UNL A   1      44.202  29.994  28.394  1.00  0.00    -0.248 NA
ATOM     39  C   UNL A   1      42.684  31.552  29.237  1.00  0.00     0.031 C 
ATOM     40  C   UNL A   1      40.985  26.879  28.430  1.00  0.00     0.029 A 
ATOM     41  N   UNL A   1      43.143  27.275  28.004  1.00  0.00    -0.354 N 
ATOM     42  C   UNL A   1      44.823  31.234  28.496  1.00  0.00     0.074 A 
ATOM     43  C   UNL A   1      43.822  32.169  28.956  1.00  0.00     0.031 C 
ATOM     44  C   UNL A   1      41.528  25.728  28.002  1.00  0.00     0.029 A 
ATOM     45  C   UNL A   1      42.937  25.950  27.697  1.00  0.00     0.049 A 
ATOM     46  H   UNL A   1      44.014  27.722  27.904  1.00  0.00     0.167 HD
ATOM     47  C   UNL A   1      46.114  31.557  28.252  1.00  0.00     0.037 A 
ATOM     48  C   UNL A   1      43.788  25.021  27.219  1.00  0.00     0.037 A 
ATOM     49  C   UNL A   1      47.115  30.612  27.829  1.00  0.00     0.049 A 
ATOM     50  C   UNL A   1      45.222  25.402  26.969  1.00  0.00     0.074 A 
ATOM     51  C   UNL A   1      48.466  30.824  27.622  1.00  0.00     0.029 A 
ATOM     52  N   UNL A   1      46.872  29.275  27.549  1.00  0.00    -0.354 N 
ATOM     53  N   UNL A   1      45.808  26.564  27.135  1.00  0.00    -0.248 NA
ATOM     54  C   UNL A   1      46.113  24.345  26.473  1.00  0.00     0.031 C 
ATOM     55  C   UNL A   1      49.033  29.625  27.175  1.00  0.00     0.029 A 
ATOM     56  C   UNL A   1      48.044  28.654  27.150  1.00  0.00     0.049 A 
ATOM     57  H   UNL A   1      45.995  28.833  27.621  1.00  0.00     0.167 HD
ATOM     58  C   UNL A   1      47.142  26.370  26.794  1.00  0.00     0.074 A 
ATOM     59  C   UNL A   1      47.277  24.977  26.421  1.00  0.00     0.031 C 
ATOM     60  C   UNL A   1      48.162  27.263  26.790  1.00  0.00     0.037 A 
BRANCH  47  61
ATOM     61  C   UNL A   1      46.522  32.995  28.441  1.00  0.00     0.058 A 
ATOM     62  C   UNL A   1      46.457  33.926  27.391  1.00  0.00     0.135 A 
ATOM     63  C   UNL A   1      46.960  33.453  29.694  1.00  0.00     0.135 A 
ATOM     64  F   UNL A   1      46.060  33.539  26.168  1.00  0.00    -0.206 F 
ATOM     65  C   UNL A   1      46.844  35.250  27.567  1.00  0.00     0.059 A 
ATOM     66  C   UNL A   1      47.324  34.782  29.900  1.00  0.00     0.059 A 
ATOM     67  F   UNL A   1      47.041  32.608  30.733  1.00  0.00    -0.206 F 
ATOM     68  C   UNL A   1      47.278  35.668  28.825  1.00  0.00     0.060 A 
BRANCH  68  69
ATOM     69  S   UNL A   1      47.779  37.390  29.036  1.00  0.00     0.124 S 
ATOM     70  O   UNL A   1      49.200  37.320  28.710  1.00  0.00    -0.237 OA
ATOM     71  O   UNL A   1      46.940  38.082  28.064  1.00  0.00    -0.237 OA
ATOM     72  O   UNL A   1      47.470  37.665  30.437  1.00  0.00    -0.744 OA
ENDBRANCH  68  69
ENDBRANCH  47  61
BRANCH  48  73
ATOM     73  C   UNL A   1      43.315  23.632  26.981  1.00  0.00     0.058 A 
ATOM     74  C   UNL A   1      43.100  23.159  25.678  1.00  0.00     0.135 A 
ATOM     75  C   UNL A   1      43.080  22.747  28.045  1.00  0.00     0.135 A 
ATOM     76  F   UNL A   1      43.305  23.968  24.629  1.00  0.00    -0.206 F 
ATOM     77  C   UNL A   1      42.653  21.864  25.437  1.00  0.00     0.059 A 
ATOM     78  C   UNL A   1      42.656  21.439  27.829  1.00  0.00     0.059 A 
ATOM     79  F   UNL A   1      43.288  23.146  29.310  1.00  0.00    -0.206 F 
ATOM     80  C   UNL A   1      42.435  21.010  26.521  1.00  0.00     0.060 A 
BRANCH  80  81
ATOM     81  S   UNL A   1      41.899  19.317  26.194  1.00  0.00     0.124 S 
ATOM     82  O   UNL A   1      40.465  19.496  25.995  1.00  0.00    -0.237 OA
ATOM     83  O   UNL A   1      42.672  18.974  25.005  1.00  0.00    -0.237 OA
ATOM     84  O   UNL A   1      42.283  18.604  27.409  1.00  0.00    -0.744 OA
ENDBRANCH  80  81
ENDBRANCH  48  73
BRANCH  60  85
ATOM     85  C   UNL A   1      49.525  26.753  26.409  1.00  0.00     0.058 A 
ATOM     86  C   UNL A   1      50.378  26.153  27.347  1.00  0.00     0.135 A 
ATOM     87  C   UNL A   1      49.962  26.827  25.076  1.00  0.00     0.135 A 
ATOM     88  F   UNL A   1      50.010  26.061  28.635  1.00  0.00    -0.206 F 
ATOM     89  C   UNL A   1      51.630  25.668  26.983  1.00  0.00     0.059 A 
ATOM     90  C   UNL A   1      51.198  26.323  24.685  1.00  0.00     0.059 A 
ATOM     91  F   UNL A   1      49.180  27.382  24.137  1.00  0.00    -0.206 F 
ATOM     92  C   UNL A   1      52.031  25.757  25.649  1.00  0.00     0.060 A 
BRANCH  92  93
ATOM     93  S   UNL A   1      53.646  25.100  25.183  1.00  0.00     0.124 S 
ATOM     94  O   UNL A   1      53.429  23.663  25.318  1.00  0.00    -0.237 OA
ATOM     95  O   UNL A   1      53.803  25.592  23.817  1.00  0.00    -0.237 OA
ATOM     96  O   UNL A   1      54.551  25.693  26.163  1.00  0.00    -0.744 OA
ENDBRANCH  92  93
ENDBRANCH  60  85
ENDBRANCH  34  35
ENDBRANCH  26  29
ENDBRANCH  24  25
ENDBRANCH   1  24
TORSDOF 19
ENDMDL
MODEL 3
REMARK VINA RESULT:     -10.3      3.556      9.342
REMARK SMILES CC[C@@](O)(C(=O)NCCCNC(=O)c1ccc(-c2c3nc(c(-c4c(F)cc(S(=O)(=O)[O-])cc4F)c4ccc([nH]4)c(-c4c(F)cc(S(=O)(=O)[O-])cc4F)c4nc(c(-c5c(F)cc(S(=O)(=O)[O-])cc5F)c5ccc2[nH]5)C=C4)C=C3)cc1)[C@@H](C)c1ccc(OC)c(OC)c1
REMARK SMILES IDX 9 1 8 2 7 3 5 4 6 5 3 7 2 8 1 9 4 10 80 12 81 13 82 14 83 15
REMARK SMILES IDX 91 16 84 17 88 18 85 19 89 20 90 21 86 22 87 23 10 24 11 25
REMARK SMILES IDX 12 26 13 28 14 29 15 30 79 31 16 32 78 33 17 34 18 35 19 36
REMARK SMILES IDX 72 37 20 38 77 39 71 40 73 41 21 42 76 43 70 44 69 45 22 47
REMARK SMILES IDX 56 48 35 49 55 50 36 51 39 52 54 53 74 54 37 55 38 56 53 58
REMARK SMILES IDX 75 59 40 60 23 61 24 62 33 63 25 64 26 65 32 66 34 67 27 68
REMARK SMILES IDX 28 69 29 70 30 71 31 72 57 73 58 74 67 75 59 76 60 77 66 78
REMARK SMILES IDX 68 79 61 80 62 81 63 82 64 83 65 84 41 85 42 86 51 87 43 88
REMARK SMILES IDX 44 89 50 90 52 91 45 92 46 93 47 94 48 95 49 96
REMARK H PARENT 7 6 4 11 11 27 73 46 39 57
REMARK Flexibility Score: inf
ROOT
ATOM      1  C   UNL A   1      38.287  19.692  25.212  1.00  0.00     0.042 C 
ENDROOT
BRANCH   1   2
ATOM      2  C   UNL A   1      37.074  20.610  25.107  1.00  0.00     0.117 C 
BRANCH   2   3
ATOM      3  N   UNL A   1      37.156  21.566  24.008  1.00  0.00    -0.354 N 
ATOM      4  C   UNL A   1      36.339  22.611  23.663  1.00  0.00     0.252 C 
ATOM      5  O   UNL A   1      36.764  23.374  22.790  1.00  0.00    -0.272 OA
ATOM      6  H   UNL A   1      37.931  21.439  23.413  1.00  0.00     0.163 HD
BRANCH   4   7
ATOM      7  C   UNL A   1      34.940  22.818  24.350  1.00  0.00     0.149 C 
BRANCH   7   8
ATOM      8  C   UNL A   1      34.193  21.459  24.258  1.00  0.00     0.043 C 
ATOM      9  C   UNL A   1      33.359  20.979  25.432  1.00  0.00     0.007 C 
ENDBRANCH   7   8
BRANCH   7  10
ATOM     10  O   UNL A   1      35.259  23.151  25.712  1.00  0.00    -0.379 OA
ATOM     11  H   UNL A   1      35.732  22.411  26.123  1.00  0.00     0.212 HD
ENDBRANCH   7  10
BRANCH   7  12
ATOM     12  C   UNL A   1      34.177  24.040  23.687  1.00  0.00     0.058 C 
ATOM     13  C   UNL A   1      33.310  23.564  22.497  1.00  0.00     0.016 C 
BRANCH  12  14
ATOM     14  C   UNL A   1      33.338  24.966  24.596  1.00  0.00    -0.038 A 
ATOM     15  C   UNL A   1      33.766  26.226  25.022  1.00  0.00     0.008 A 
ATOM     16  C   UNL A   1      32.075  24.544  25.062  1.00  0.00     0.054 A 
ATOM     17  C   UNL A   1      33.072  26.945  25.993  1.00  0.00     0.051 A 
ATOM     18  C   UNL A   1      31.330  25.290  26.000  1.00  0.00     0.160 A 
ATOM     19  C   UNL A   1      31.869  26.478  26.511  1.00  0.00     0.160 A 
BRANCH  18  20
ATOM     20  O   UNL A   1      30.131  24.842  26.489  1.00  0.00    -0.493 OA
ATOM     21  C   UNL A   1      30.080  23.458  26.822  1.00  0.00     0.278 C 
ENDBRANCH  18  20
BRANCH  19  22
ATOM     22  O   UNL A   1      31.392  27.281  27.509  1.00  0.00    -0.493 OA
ATOM     23  C   UNL A   1      31.690  28.662  27.449  1.00  0.00     0.278 C 
ENDBRANCH  19  22
ENDBRANCH  12  14
ENDBRANCH   7  12
ENDBRANCH   4   7
ENDBRANCH   2   3
ENDBRANCH   1   2
BRANCH   1  24
ATOM     24  C   UNL A   1      39.417  20.242  26.064  1.00  0.00     0.118 C 
BRANCH  24  25
ATOM     25  N   UNL A   1      40.526  19.309  26.181  1.00  0.00    -0.352 N 
ATOM     26  C   UNL A   1      41.872  19.549  26.277  1.00  0.00     0.251 C 
ATOM     27  H   UNL A   1      40.271  18.359  26.195  1.00  0.00     0.163 HD
ATOM     28  O   UNL A   1      42.659  18.607  26.140  1.00  0.00    -0.269 OA
BRANCH  26  29
ATOM     29  C   UNL A   1      42.390  20.913  26.525  1.00  0.00     0.039 A 
ATOM     30  C   UNL A   1      42.697  21.729  25.431  1.00  0.00     0.014 A 
ATOM     31  C   UNL A   1      42.613  21.383  27.822  1.00  0.00     0.014 A 
ATOM     32  C   UNL A   1      43.178  23.024  25.641  1.00  0.00     0.010 A 
ATOM     33  C   UNL A   1      42.999  22.704  28.030  1.00  0.00     0.010 A 
ATOM     34  C   UNL A   1      43.306  23.534  26.943  1.00  0.00    -0.014 A 
BRANCH  34  35
ATOM     35  C   UNL A   1      43.787  24.918  27.188  1.00  0.00     0.031 A 
ATOM     36  C   UNL A   1      45.230  25.271  26.936  1.00  0.00     0.074 A 
ATOM     37  C   UNL A   1      42.943  25.841  27.688  1.00  0.00     0.049 A 
ATOM     38  N   UNL A   1      45.852  26.403  27.139  1.00  0.00    -0.248 NA
ATOM     39  C   UNL A   1      46.095  24.200  26.413  1.00  0.00     0.031 C 
ATOM     40  C   UNL A   1      41.535  25.609  28.023  1.00  0.00     0.029 A 
ATOM     41  N   UNL A   1      43.145  27.161  28.010  1.00  0.00    -0.354 N 
ATOM     42  C   UNL A   1      47.180  26.176  26.792  1.00  0.00     0.074 A 
ATOM     43  C   UNL A   1      47.284  24.784  26.417  1.00  0.00     0.031 C 
ATOM     44  C   UNL A   1      40.995  26.754  28.472  1.00  0.00     0.029 A 
ATOM     45  C   UNL A   1      42.022  27.790  28.494  1.00  0.00     0.049 A 
ATOM     46  H   UNL A   1      44.012  27.613  27.903  1.00  0.00     0.167 HD
ATOM     47  C   UNL A   1      48.211  27.053  26.763  1.00  0.00     0.037 A 
ATOM     48  C   UNL A   1      41.842  29.058  28.913  1.00  0.00     0.037 A 
ATOM     49  C   UNL A   1      48.091  28.447  27.103  1.00  0.00     0.049 A 
ATOM     50  C   UNL A   1      43.000  30.017  28.859  1.00  0.00     0.074 A 
ATOM     51  C   UNL A   1      49.058  29.434  27.040  1.00  0.00     0.029 A 
ATOM     52  N   UNL A   1      46.932  29.051  27.568  1.00  0.00    -0.354 N 
ATOM     53  N   UNL A   1      44.232  29.801  28.463  1.00  0.00    -0.248 NA
ATOM     54  C   UNL A   1      42.743  31.394  29.301  1.00  0.00     0.031 C 
ATOM     55  C   UNL A   1      48.496  30.626  27.509  1.00  0.00     0.029 A 
ATOM     56  C   UNL A   1      47.165  30.394  27.817  1.00  0.00     0.049 A 
ATOM     57  H   UNL A   1      46.071  28.593  27.703  1.00  0.00     0.167 HD
ATOM     58  C   UNL A   1      44.888  31.022  28.580  1.00  0.00     0.074 A 
ATOM     59  C   UNL A   1      43.913  31.972  29.074  1.00  0.00     0.031 C 
ATOM     60  C   UNL A   1      46.180  31.328  28.302  1.00  0.00     0.037 A 
BRANCH  47  61
ATOM     61  C   UNL A   1      49.560  26.531  26.346  1.00  0.00     0.058 A 
ATOM     62  C   UNL A   1      50.385  25.821  27.235  1.00  0.00     0.135 A 
ATOM     63  C   UNL A   1      50.025  26.720  25.036  1.00  0.00     0.135 A 
ATOM     64  F   UNL A   1      49.998  25.624  28.506  1.00  0.00    -0.206 F 
ATOM     65  C   UNL A   1      51.635  25.350  26.850  1.00  0.00     0.059 A 
ATOM     66  C   UNL A   1      51.261  26.231  24.619  1.00  0.00     0.059 A 
ATOM     67  F   UNL A   1      49.279  27.390  24.143  1.00  0.00    -0.206 F 
ATOM     68  C   UNL A   1      52.066  25.561  25.539  1.00  0.00     0.060 A 
BRANCH  68  69
ATOM     69  S   UNL A   1      53.692  24.945  25.055  1.00  0.00     0.124 S 
ATOM     70  O   UNL A   1      53.828  25.506  23.715  1.00  0.00    -0.237 OA
ATOM     71  O   UNL A   1      54.562  25.523  26.075  1.00  0.00    -0.237 OA
ATOM     72  O   UNL A   1      53.538  23.494  25.116  1.00  0.00    -0.744 OA
ENDBRANCH  68  69
ENDBRANCH  47  61
BRANCH  48  73
ATOM     73  C   UNL A   1      40.503  29.503  29.383  1.00  0.00     0.058 A 
ATOM     74  C   UNL A   1      40.253  29.708  30.748  1.00  0.00     0.135 A 
ATOM     75  C   UNL A   1      39.454  29.743  28.483  1.00  0.00     0.135 A 
ATOM     76  F   UNL A   1      41.222  29.486  31.648  1.00  0.00    -0.206 F 
ATOM     77  C   UNL A   1      39.006  30.119  31.207  1.00  0.00     0.059 A 
ATOM     78  C   UNL A   1      38.205  30.179  28.914  1.00  0.00     0.059 A 
ATOM     79  F   UNL A   1      39.648  29.579  27.164  1.00  0.00    -0.206 F 
ATOM     80  C   UNL A   1      37.988  30.354  30.281  1.00  0.00     0.060 A 
BRANCH  80  81
ATOM     81  S   UNL A   1      36.387  30.932  30.883  1.00  0.00     0.124 S 
ATOM     82  O   UNL A   1      35.623  31.026  29.643  1.00  0.00    -0.237 OA
ATOM     83  O   UNL A   1      35.996  29.861  31.794  1.00  0.00    -0.237 OA
ATOM     84  O   UNL A   1      36.709  32.204  31.524  1.00  0.00    -0.744 OA
ENDBRANCH  80  81
ENDBRANCH  48  73
BRANCH  60  85
ATOM     85  C   UNL A   1      46.605  32.759  28.488  1.00  0.00     0.058 A 
ATOM     86  C   UNL A   1      46.472  33.708  27.464  1.00  0.00     0.135 A 
ATOM     87  C   UNL A   1      47.112  33.193  29.724  1.00  0.00     0.135 A 
ATOM     88  F   UNL A   1      45.997  33.344  26.262  1.00  0.00    -0.206 F 
ATOM     89  C   UNL A   1      46.851  35.034  27.649  1.00  0.00     0.059 A 
ATOM     90  C   UNL A   1      47.471  34.519  29.941  1.00  0.00     0.059 A 
ATOM     91  F   UNL A   1      47.249  32.327  30.741  1.00  0.00    -0.206 F 
ATOM     92  C   UNL A   1      47.350  35.430  28.892  1.00  0.00     0.060 A 
BRANCH  92  93
ATOM     93  S   UNL A   1      47.814  37.158  29.129  1.00  0.00     0.124 S 
ATOM     94  O   UNL A   1      49.161  37.180  28.567  1.00  0.00    -0.237 OA
ATOM     95  O   UNL A   1      46.794  37.864  28.360  1.00  0.00    -0.237 OA
ATOM     96  O   UNL A   1      47.734  37.335  30.576  1.00  0.00    -0.744 OA
ENDBRANCH  92  93
ENDBRANCH  60  85
ENDBRANCH  34  35
ENDBRANCH  26  29
ENDBRANCH  24  25
ENDBRANCH   1  24
TORSDOF 19
ENDMDL
