MODEL 1
REMARK VINA RESULT:     -13.8      0.000      0.000
REMARK SMILES Cc1ccc(Nc2c(C)cccc2Cl)c(CC(=O)NCCCNC(=O)c2ccc(-c3c4nc(c(-c5c(F)cc(S(=O)(=O)[O-])cc5F)c5ccc([nH]5)c(-c5c(F)cc(S(=O)(=O)[O-])cc5F)c5nc(c(-c6c(F)cc(S(=O)(=O)[O-])cc6F)c6ccc3[nH]6)C=C5)C=C4)cc2)c1
REMARK SMILES IDX 21 1 20 2 19 3 17 4 18 5 16 7 15 8 1 9 2 10 3 11 92 12 4 13
REMARK SMILES IDX 5 14 6 15 7 17 8 18 13 19 9 20 10 21 12 22 14 23 11 24 22 25
REMARK SMILES IDX 23 26 24 27 25 29 26 30 27 31 91 32 28 33 90 34 29 35 30 36
REMARK SMILES IDX 31 37 84 38 32 39 89 40 83 41 85 42 33 43 88 44 82 45 81 46
REMARK SMILES IDX 34 48 68 49 47 50 67 51 48 52 51 53 66 54 86 55 49 56 50 57
REMARK SMILES IDX 65 59 87 60 52 61 35 62 36 63 45 64 37 65 38 66 44 67 46 68
REMARK SMILES IDX 39 69 40 70 41 71 42 72 43 73 69 74 70 75 79 76 71 77 72 78
REMARK SMILES IDX 78 79 80 80 73 81 74 82 75 83 76 84 77 85 53 86 54 87 63 88
REMARK SMILES IDX 55 89 56 90 62 91 64 92 57 93 58 94 59 95 60 96 61 97
REMARK H PARENT 19 6 6 16 23 28 85 47 51 58
REMARK Flexibility Score: inf
ROOT
ATOM      1  C   UNL A   1      32.950  29.780  26.913  1.00  0.00     0.042 C 
ENDROOT
BRANCH   1   2
ATOM      2  C   UNL A   1      32.417  28.835  25.839  1.00  0.00     0.117 C 
BRANCH   2   3
ATOM      3  N   UNL A   1      31.806  27.636  26.396  1.00  0.00    -0.356 N 
ATOM      4  C   UNL A   1      32.269  26.353  26.400  1.00  0.00     0.224 C 
ATOM      5  O   UNL A   1      31.563  25.461  26.879  1.00  0.00    -0.275 OA
ATOM      6  H   UNL A   1      30.934  27.771  26.831  1.00  0.00     0.163 HD
BRANCH   4   7
ATOM      7  C   UNL A   1      33.625  26.005  25.806  1.00  0.00     0.137 C 
BRANCH   7   8
ATOM      8  C   UNL A   1      33.534  25.262  24.490  1.00  0.00    -0.015 A 
ATOM      9  C   UNL A   1      32.087  26.035  21.034  1.00  0.00     0.044 C 
ATOM     10  C   UNL A   1      32.751  25.316  22.168  1.00  0.00    -0.051 A 
ATOM     11  C   UNL A   1      33.076  23.967  22.047  1.00  0.00     0.005 A 
ATOM     12  C   UNL A   1      33.009  25.961  23.380  1.00  0.00     0.009 A 
ATOM     13  C   UNL A   1      33.645  23.278  23.120  1.00  0.00     0.026 A 
ATOM     14  C   UNL A   1      33.884  23.899  24.357  1.00  0.00     0.042 A 
BRANCH  14  15
ATOM     15  N   UNL A   1      34.499  23.192  25.417  1.00  0.00    -0.354 N 
ATOM     16  H   UNL A   1      34.124  23.359  26.312  1.00  0.00     0.167 HD
BRANCH  15  17
ATOM     17  C   UNL A   1      35.581  22.275  25.368  1.00  0.00     0.060 A 
ATOM     18  C   UNL A   1      36.924  22.689  25.519  1.00  0.00    -0.026 A 
ATOM     19  C   UNL A   1      35.327  20.915  25.077  1.00  0.00     0.064 A 
ATOM     20  C   UNL A   1      37.307  24.101  25.876  1.00  0.00     0.046 C 
ATOM     21  C   UNL A   1      37.963  21.758  25.327  1.00  0.00     0.005 A 
ATOM     22  C   UNL A   1      36.370  20.000  24.914  1.00  0.00     0.023 A 
ATOM     23  Cl  UNL A   1      33.709  20.334  24.873  1.00  0.00    -0.082 Cl
ATOM     24  C   UNL A   1      37.689  20.425  25.027  1.00  0.00     0.002 A 
ENDBRANCH  15  17
ENDBRANCH  14  15
ENDBRANCH   7   8
ENDBRANCH   4   7
ENDBRANCH   2   3
ENDBRANCH   1   2
BRANCH   1  25
ATOM     25  C   UNL A   1      34.423  29.575  27.238  1.00  0.00     0.118 C 
BRANCH  25  26
ATOM     26  N   UNL A   1      35.041  30.784  27.776  1.00  0.00    -0.352 N 
ATOM     27  C   UNL A   1      36.250  30.899  28.440  1.00  0.00     0.251 C 
ATOM     28  H   UNL A   1      34.535  31.620  27.650  1.00  0.00     0.163 HD
ATOM     29  O   UNL A   1      36.613  31.928  28.976  1.00  0.00    -0.269 OA
BRANCH  27  30
ATOM     30  C   UNL A   1      37.139  29.725  28.371  1.00  0.00     0.039 A 
ATOM     31  C   UNL A   1      37.288  28.975  29.542  1.00  0.00     0.014 A 
ATOM     32  C   UNL A   1      38.024  29.598  27.304  1.00  0.00     0.014 A 
ATOM     33  C   UNL A   1      38.443  28.222  29.724  1.00  0.00     0.010 A 
ATOM     34  C   UNL A   1      39.205  28.914  27.519  1.00  0.00     0.010 A 
ATOM     35  C   UNL A   1      39.437  28.274  28.749  1.00  0.00    -0.014 A 
BRANCH  35  36
ATOM     36  C   UNL A   1      40.785  27.750  28.944  1.00  0.00     0.031 A 
ATOM     37  C   UNL A   1      41.096  26.356  28.563  1.00  0.00     0.074 A 
ATOM     38  C   UNL A   1      41.774  28.571  29.361  1.00  0.00     0.049 A 
ATOM     39  N   UNL A   1      42.176  25.726  28.878  1.00  0.00    -0.248 NA
ATOM     40  C   UNL A   1      40.149  25.536  27.821  1.00  0.00     0.031 C 
ATOM     41  C   UNL A   1      43.211  28.337  29.272  1.00  0.00     0.029 A 
ATOM     42  N   UNL A   1      41.654  29.705  30.171  1.00  0.00    -0.354 N 
ATOM     43  C   UNL A   1      42.202  24.546  28.168  1.00  0.00     0.074 A 
ATOM     44  C   UNL A   1      40.884  24.447  27.584  1.00  0.00     0.031 C 
ATOM     45  C   UNL A   1      43.830  29.094  30.191  1.00  0.00     0.029 A 
ATOM     46  C   UNL A   1      42.799  29.717  31.001  1.00  0.00     0.049 A 
ATOM     47  H   UNL A   1      40.921  30.362  30.165  1.00  0.00     0.167 HD
ATOM     48  C   UNL A   1      43.380  23.858  28.070  1.00  0.00     0.037 A 
ATOM     49  C   UNL A   1      42.673  29.569  32.355  1.00  0.00     0.037 A 
ATOM     50  C   UNL A   1      44.387  24.407  28.984  1.00  0.00     0.049 A 
ATOM     51  C   UNL A   1      43.309  28.312  32.918  1.00  0.00     0.074 A 
ATOM     52  C   UNL A   1      45.480  25.250  28.857  1.00  0.00     0.029 A 
ATOM     53  N   UNL A   1      44.153  24.303  30.345  1.00  0.00    -0.354 N 
ATOM     54  N   UNL A   1      43.935  27.416  32.206  1.00  0.00    -0.248 NA
ATOM     55  C   UNL A   1      43.226  27.932  34.330  1.00  0.00     0.031 C 
ATOM     56  C   UNL A   1      45.862  25.687  30.161  1.00  0.00     0.029 A 
ATOM     57  C   UNL A   1      45.005  25.104  31.077  1.00  0.00     0.049 A 
ATOM     58  H   UNL A   1      43.462  23.725  30.743  1.00  0.00     0.167 HD
ATOM     59  C   UNL A   1      44.257  26.346  32.998  1.00  0.00     0.074 A 
ATOM     60  C   UNL A   1      43.822  26.727  34.329  1.00  0.00     0.031 C 
ATOM     61  C   UNL A   1      44.808  25.197  32.515  1.00  0.00     0.037 A 
BRANCH  48  62
ATOM     62  C   UNL A   1      43.688  22.839  26.985  1.00  0.00     0.058 A 
ATOM     63  C   UNL A   1      42.991  21.611  26.935  1.00  0.00     0.135 A 
ATOM     64  C   UNL A   1      44.704  22.961  26.016  1.00  0.00     0.135 A 
ATOM     65  F   UNL A   1      41.928  21.376  27.718  1.00  0.00    -0.206 F 
ATOM     66  C   UNL A   1      43.351  20.559  26.088  1.00  0.00     0.059 A 
ATOM     67  C   UNL A   1      45.123  21.906  25.200  1.00  0.00     0.059 A 
ATOM     68  F   UNL A   1      45.298  24.130  25.761  1.00  0.00    -0.206 F 
ATOM     69  C   UNL A   1      44.449  20.699  25.251  1.00  0.00     0.060 A 
BRANCH  69  70
ATOM     70  S   UNL A   1      44.967  19.308  24.232  1.00  0.00     0.124 S 
ATOM     71  O   UNL A   1      46.422  19.367  24.346  1.00  0.00    -0.237 OA
ATOM     72  O   UNL A   1      44.320  18.184  24.898  1.00  0.00    -0.237 OA
ATOM     73  O   UNL A   1      44.439  19.639  22.911  1.00  0.00    -0.744 OA
ENDBRANCH  69  70
ENDBRANCH  48  62
BRANCH  49  74
ATOM     74  C   UNL A   1      41.462  30.256  32.883  1.00  0.00     0.058 A 
ATOM     75  C   UNL A   1      40.346  29.454  33.196  1.00  0.00     0.135 A 
ATOM     76  C   UNL A   1      41.535  31.522  33.479  1.00  0.00     0.135 A 
ATOM     77  F   UNL A   1      40.217  28.236  32.642  1.00  0.00    -0.206 F 
ATOM     78  C   UNL A   1      39.439  29.813  34.186  1.00  0.00     0.059 A 
ATOM     79  C   UNL A   1      40.627  31.910  34.466  1.00  0.00     0.059 A 
ATOM     80  F   UNL A   1      42.570  32.334  33.216  1.00  0.00    -0.206 F 
ATOM     81  C   UNL A   1      39.629  31.016  34.861  1.00  0.00     0.060 A 
BRANCH  81  82
ATOM     82  S   UNL A   1      38.672  31.290  36.371  1.00  0.00     0.124 S 
ATOM     83  O   UNL A   1      39.653  31.934  37.238  1.00  0.00    -0.237 OA
ATOM     84  O   UNL A   1      37.593  32.153  35.892  1.00  0.00    -0.237 OA
ATOM     85  O   UNL A   1      38.272  29.943  36.762  1.00  0.00    -0.744 OA
ENDBRANCH  81  82
ENDBRANCH  49  74
BRANCH  61  86
ATOM     86  C   UNL A   1      45.189  24.043  33.394  1.00  0.00     0.058 A 
ATOM     87  C   UNL A   1      44.267  23.042  33.739  1.00  0.00     0.135 A 
ATOM     88  C   UNL A   1      46.447  23.986  34.026  1.00  0.00     0.135 A 
ATOM     89  F   UNL A   1      43.036  23.034  33.201  1.00  0.00    -0.206 F 
ATOM     90  C   UNL A   1      44.578  22.034  34.651  1.00  0.00     0.059 A 
ATOM     91  C   UNL A   1      46.764  23.017  34.973  1.00  0.00     0.059 A 
ATOM     92  F   UNL A   1      47.415  24.864  33.723  1.00  0.00    -0.206 F 
ATOM     93  C   UNL A   1      45.828  22.034  35.268  1.00  0.00     0.060 A 
BRANCH  93  94
ATOM     94  S   UNL A   1      46.221  20.764  36.489  1.00  0.00     0.124 S 
ATOM     95  O   UNL A   1      45.689  21.329  37.725  1.00  0.00    -0.237 OA
ATOM     96  O   UNL A   1      45.494  19.616  35.956  1.00  0.00    -0.237 OA
ATOM     97  O   UNL A   1      47.676  20.676  36.424  1.00  0.00    -0.744 OA
ENDBRANCH  93  94
ENDBRANCH  61  86
ENDBRANCH  35  36
ENDBRANCH  27  30
ENDBRANCH  25  26
ENDBRANCH   1  25
TORSDOF 16
ENDMDL
MODEL 2
REMARK VINA RESULT:     -13.8      1.273      1.954
REMARK SMILES Cc1ccc(Nc2c(C)cccc2Cl)c(CC(=O)NCCCNC(=O)c2ccc(-c3c4nc(c(-c5c(F)cc(S(=O)(=O)[O-])cc5F)c5ccc([nH]5)c(-c5c(F)cc(S(=O)(=O)[O-])cc5F)c5nc(c(-c6c(F)cc(S(=O)(=O)[O-])cc6F)c6ccc3[nH]6)C=C5)C=C4)cc2)c1
REMARK SMILES IDX 21 1 20 2 19 3 17 4 18 5 16 7 15 8 1 9 2 10 3 11 92 12 4 13
REMARK SMILES IDX 5 14 6 15 7 17 8 18 13 19 9 20 10 21 12 22 14 23 11 24 22 25
REMARK SMILES IDX 23 26 24 27 25 29 26 30 27 31 91 32 28 33 90 34 29 35 30 36
REMARK SMILES IDX 31 37 84 38 32 39 89 40 83 41 85 42 33 43 88 44 82 45 81 46
REMARK SMILES IDX 34 48 68 49 47 50 67 51 48 52 51 53 66 54 86 55 49 56 50 57
REMARK SMILES IDX 65 59 87 60 52 61 35 62 36 63 45 64 37 65 38 66 44 67 46 68
REMARK SMILES IDX 39 69 40 70 41 71 42 72 43 73 69 74 70 75 79 76 71 77 72 78
REMARK SMILES IDX 78 79 80 80 73 81 74 82 75 83 76 84 77 85 53 86 54 87 63 88
REMARK SMILES IDX 55 89 56 90 62 91 64 92 57 93 58 94 59 95 60 96 61 97
REMARK H PARENT 19 6 6 16 23 28 85 47 51 58
REMARK Flexibility Score: inf
ROOT
ATOM      1  C   UNL A   1      32.971  29.867  27.226  1.00  0.00     0.042 C 
ENDROOT
BRANCH   1   2
ATOM      2  C   UNL A   1      32.328  30.083  25.859  1.00  0.00     0.117 C 
BRANCH   2   3
ATOM      3  N   UNL A   1      33.260  29.881  24.759  1.00  0.00    -0.356 N 
ATOM      4  C   UNL A   1      33.328  28.856  23.862  1.00  0.00     0.224 C 
ATOM      5  O   UNL A   1      34.241  28.844  23.031  1.00  0.00    -0.275 OA
ATOM      6  H   UNL A   1      33.938  30.585  24.646  1.00  0.00     0.163 HD
BRANCH   4   7
ATOM      7  C   UNL A   1      32.315  27.723  23.886  1.00  0.00     0.137 C 
BRANCH   7   8
ATOM      8  C   UNL A   1      32.745  26.511  23.087  1.00  0.00    -0.015 A 
ATOM      9  C   UNL A   1      32.332  25.370  19.459  1.00  0.00     0.044 C 
ATOM     10  C   UNL A   1      32.715  25.391  20.907  1.00  0.00    -0.051 A 
ATOM     11  C   UNL A   1      33.259  24.255  21.503  1.00  0.00     0.005 A 
ATOM     12  C   UNL A   1      32.489  26.520  21.698  1.00  0.00     0.009 A 
ATOM     13  C   UNL A   1      33.567  24.252  22.866  1.00  0.00     0.026 A 
ATOM     14  C   UNL A   1      33.318  25.366  23.685  1.00  0.00     0.042 A 
BRANCH  14  15
ATOM     15  N   UNL A   1      33.676  25.353  25.053  1.00  0.00    -0.354 N 
ATOM     16  H   UNL A   1      33.980  26.215  25.420  1.00  0.00     0.167 HD
BRANCH  15  17
ATOM     17  C   UNL A   1      33.657  24.271  25.971  1.00  0.00     0.060 A 
ATOM     18  C   UNL A   1      34.803  23.485  26.230  1.00  0.00    -0.026 A 
ATOM     19  C   UNL A   1      32.438  23.903  26.588  1.00  0.00     0.064 A 
ATOM     20  C   UNL A   1      36.160  23.812  25.667  1.00  0.00     0.046 C 
ATOM     21  C   UNL A   1      34.691  22.342  27.046  1.00  0.00     0.005 A 
ATOM     22  C   UNL A   1      32.351  22.780  27.413  1.00  0.00     0.023 A 
ATOM     23  Cl  UNL A   1      30.991  24.813  26.313  1.00  0.00    -0.082 Cl
ATOM     24  C   UNL A   1      33.476  21.992  27.632  1.00  0.00     0.002 A 
ENDBRANCH  15  17
ENDBRANCH  14  15
ENDBRANCH   7   8
ENDBRANCH   4   7
ENDBRANCH   2   3
ENDBRANCH   1   2
BRANCH   1  25
ATOM     25  C   UNL A   1      34.489  29.763  27.184  1.00  0.00     0.118 C 
BRANCH  25  26
ATOM     26  N   UNL A   1      35.137  30.973  27.682  1.00  0.00    -0.352 N 
ATOM     27  C   UNL A   1      36.357  31.082  28.329  1.00  0.00     0.251 C 
ATOM     28  H   UNL A   1      34.647  31.815  27.541  1.00  0.00     0.163 HD
ATOM     29  O   UNL A   1      36.746  32.117  28.834  1.00  0.00    -0.269 OA
BRANCH  27  30
ATOM     30  C   UNL A   1      37.221  29.888  28.281  1.00  0.00     0.039 A 
ATOM     31  C   UNL A   1      37.320  29.131  29.454  1.00  0.00     0.014 A 
ATOM     32  C   UNL A   1      38.134  29.746  27.240  1.00  0.00     0.014 A 
ATOM     33  C   UNL A   1      38.452  28.353  29.665  1.00  0.00     0.010 A 
ATOM     34  C   UNL A   1      39.293  29.036  27.487  1.00  0.00     0.010 A 
ATOM     35  C   UNL A   1      39.475  28.386  28.720  1.00  0.00    -0.014 A 
BRANCH  35  36
ATOM     36  C   UNL A   1      40.805  27.832  28.953  1.00  0.00     0.031 A 
ATOM     37  C   UNL A   1      41.093  26.430  28.586  1.00  0.00     0.074 A 
ATOM     38  C   UNL A   1      41.801  28.632  29.392  1.00  0.00     0.049 A 
ATOM     39  N   UNL A   1      42.150  25.776  28.931  1.00  0.00    -0.248 NA
ATOM     40  C   UNL A   1      40.147  25.628  27.823  1.00  0.00     0.031 C 
ATOM     41  C   UNL A   1      43.235  28.364  29.341  1.00  0.00     0.029 A 
ATOM     42  N   UNL A   1      41.687  29.773  30.193  1.00  0.00    -0.354 N 
ATOM     43  C   UNL A   1      42.166  24.592  28.228  1.00  0.00     0.074 A 
ATOM     44  C   UNL A   1      40.862  24.521  27.610  1.00  0.00     0.031 C 
ATOM     45  C   UNL A   1      43.847  29.111  30.271  1.00  0.00     0.029 A 
ATOM     46  C   UNL A   1      42.810  29.761  31.052  1.00  0.00     0.049 A 
ATOM     47  H   UNL A   1      40.970  30.446  30.164  1.00  0.00     0.167 HD
ATOM     48  C   UNL A   1      43.330  23.877  28.163  1.00  0.00     0.037 A 
ATOM     49  C   UNL A   1      42.646  29.624  32.403  1.00  0.00     0.037 A 
ATOM     50  C   UNL A   1      44.325  24.407  29.101  1.00  0.00     0.049 A 
ATOM     51  C   UNL A   1      43.238  28.355  32.988  1.00  0.00     0.074 A 
ATOM     52  C   UNL A   1      45.441  25.223  28.998  1.00  0.00     0.029 A 
ATOM     53  N   UNL A   1      44.054  24.314  30.455  1.00  0.00    -0.354 N 
ATOM     54  N   UNL A   1      43.861  27.441  32.296  1.00  0.00    -0.248 NA
ATOM     55  C   UNL A   1      43.110  27.984  34.399  1.00  0.00     0.031 C 
ATOM     56  C   UNL A   1      45.799  25.658  30.309  1.00  0.00     0.029 A 
ATOM     57  C   UNL A   1      44.906  25.100  31.206  1.00  0.00     0.049 A 
ATOM     58  H   UNL A   1      43.340  23.755  30.838  1.00  0.00     0.167 HD
ATOM     59  C   UNL A   1      44.137  26.368  33.101  1.00  0.00     0.074 A 
ATOM     60  C   UNL A   1      43.677  26.766  34.418  1.00  0.00     0.031 C 
ATOM     61  C   UNL A   1      44.674  25.204  32.637  1.00  0.00     0.037 A 
BRANCH  48  62
ATOM     62  C   UNL A   1      43.642  22.845  27.091  1.00  0.00     0.058 A 
ATOM     63  C   UNL A   1      42.901  21.644  27.013  1.00  0.00     0.135 A 
ATOM     64  C   UNL A   1      44.699  22.927  26.163  1.00  0.00     0.135 A 
ATOM     65  F   UNL A   1      41.800  21.451  27.753  1.00  0.00    -0.206 F 
ATOM     66  C   UNL A   1      43.255  20.578  26.181  1.00  0.00     0.059 A 
ATOM     67  C   UNL A   1      45.110  21.857  25.364  1.00  0.00     0.059 A 
ATOM     68  F   UNL A   1      45.347  24.073  25.932  1.00  0.00    -0.206 F 
ATOM     69  C   UNL A   1      44.390  20.676  25.388  1.00  0.00     0.060 A 
BRANCH  69  70
ATOM     70  S   UNL A   1      44.894  19.265  24.390  1.00  0.00     0.124 S 
ATOM     71  O   UNL A   1      44.431  19.649  23.059  1.00  0.00    -0.237 OA
ATOM     72  O   UNL A   1      46.339  19.255  24.584  1.00  0.00    -0.237 OA
ATOM     73  O   UNL A   1      44.175  18.146  24.993  1.00  0.00    -0.744 OA
ENDBRANCH  69  70
ENDBRANCH  48  62
BRANCH  49  74
ATOM     74  C   UNL A   1      41.438  30.342  32.897  1.00  0.00     0.058 A 
ATOM     75  C   UNL A   1      40.283  29.572  33.144  1.00  0.00     0.135 A 
ATOM     76  C   UNL A   1      41.530  31.591  33.525  1.00  0.00     0.135 A 
ATOM     77  F   UNL A   1      40.135  28.373  32.556  1.00  0.00    -0.206 F 
ATOM     78  C   UNL A   1      39.348  29.942  34.104  1.00  0.00     0.059 A 
ATOM     79  C   UNL A   1      40.594  31.988  34.482  1.00  0.00     0.059 A 
ATOM     80  F   UNL A   1      42.602  32.370  33.324  1.00  0.00    -0.206 F 
ATOM     81  C   UNL A   1      39.551  31.122  34.814  1.00  0.00     0.060 A 
BRANCH  81  82
ATOM     82  S   UNL A   1      38.541  31.396  36.290  1.00  0.00     0.124 S 
ATOM     83  O   UNL A   1      38.195  30.033  36.676  1.00  0.00    -0.237 OA
ATOM     84  O   UNL A   1      39.482  32.082  37.176  1.00  0.00    -0.237 OA
ATOM     85  O   UNL A   1      37.438  32.211  35.794  1.00  0.00    -0.744 OA
ENDBRANCH  81  82
ENDBRANCH  49  74
BRANCH  61  86
ATOM     86  C   UNL A   1      45.004  24.046  33.531  1.00  0.00     0.058 A 
ATOM     87  C   UNL A   1      46.312  23.816  33.988  1.00  0.00     0.135 A 
ATOM     88  C   UNL A   1      44.046  23.060  33.840  1.00  0.00     0.135 A 
ATOM     89  F   UNL A   1      47.293  24.693  33.719  1.00  0.00    -0.206 F 
ATOM     90  C   UNL A   1      46.649  22.676  34.719  1.00  0.00     0.059 A 
ATOM     91  C   UNL A   1      44.368  21.894  34.528  1.00  0.00     0.059 A 
ATOM     92  F   UNL A   1      42.758  23.215  33.497  1.00  0.00    -0.206 F 
ATOM     93  C   UNL A   1      45.671  21.718  34.978  1.00  0.00     0.060 A 
BRANCH  93  94
ATOM     94  S   UNL A   1      46.109  20.216  35.877  1.00  0.00     0.124 S 
ATOM     95  O   UNL A   1      45.298  19.197  35.217  1.00  0.00    -0.237 OA
ATOM     96  O   UNL A   1      47.545  20.138  35.628  1.00  0.00    -0.237 OA
ATOM     97  O   UNL A   1      45.722  20.522  37.250  1.00  0.00    -0.744 OA
ENDBRANCH  93  94
ENDBRANCH  61  86
ENDBRANCH  35  36
ENDBRANCH  27  30
ENDBRANCH  25  26
ENDBRANCH   1  25
TORSDOF 16
ENDMDL
MODEL 3
REMARK VINA RESULT:     -13.7      1.340      3.032
REMARK SMILES Cc1ccc(Nc2c(C)cccc2Cl)c(CC(=O)NCCCNC(=O)c2ccc(-c3c4nc(c(-c5c(F)cc(S(=O)(=O)[O-])cc5F)c5ccc([nH]5)c(-c5c(F)cc(S(=O)(=O)[O-])cc5F)c5nc(c(-c6c(F)cc(S(=O)(=O)[O-])cc6F)c6ccc3[nH]6)C=C5)C=C4)cc2)c1
REMARK SMILES IDX 21 1 20 2 19 3 17 4 18 5 16 7 15 8 1 9 2 10 3 11 92 12 4 13
REMARK SMILES IDX 5 14 6 15 7 17 8 18 13 19 9 20 10 21 12 22 14 23 11 24 22 25
REMARK SMILES IDX 23 26 24 27 25 29 26 30 27 31 91 32 28 33 90 34 29 35 30 36
REMARK SMILES IDX 31 37 84 38 32 39 89 40 83 41 85 42 33 43 88 44 82 45 81 46
REMARK SMILES IDX 34 48 68 49 47 50 67 51 48 52 51 53 66 54 86 55 49 56 50 57
REMARK SMILES IDX 65 59 87 60 52 61 35 62 36 63 45 64 37 65 38 66 44 67 46 68
REMARK SMILES IDX 39 69 40 70 41 71 42 72 43 73 69 74 70 75 79 76 71 77 72 78
REMARK SMILES IDX 78 79 80 80 73 81 74 82 75 83 76 84 77 85 53 86 54 87 63 88
REMARK SMILES IDX 55 89 56 90 62 91 64 92 57 93 58 94 59 95 60 96 61 97
REMARK H PARENT 19 6 6 16 23 28 85 47 51 58
REMARK Flexibility Score: inf
ROOT
ATOM      1  C   UNL A   1      33.426  29.246  27.678  1.00  0.00     0.042 C 
ENDROOT
BRANCH   1   2
ATOM      2  C   UNL A   1      32.183  28.976  26.834  1.00  0.00     0.117 C 
BRANCH   2   3
ATOM      3  N   UNL A   1      31.689  27.614  26.976  1.00  0.00    -0.356 N 
ATOM      4  C   UNL A   1      32.238  26.446  26.534  1.00  0.00     0.224 C 
ATOM      5  O   UNL A   1      31.624  25.389  26.710  1.00  0.00    -0.275 OA
ATOM      6  H   UNL A   1      30.837  27.523  27.460  1.00  0.00     0.163 HD
BRANCH   4   7
ATOM      7  C   UNL A   1      33.577  26.430  25.815  1.00  0.00     0.137 C 
BRANCH   7   8
ATOM      8  C   UNL A   1      33.860  25.128  25.095  1.00  0.00    -0.015 A 
ATOM      9  C   UNL A   1      35.397  21.766  26.078  1.00  0.00     0.044 C 
ATOM     10  C   UNL A   1      34.774  22.861  25.267  1.00  0.00    -0.051 A 
ATOM     11  C   UNL A   1      34.660  22.730  23.885  1.00  0.00     0.005 A 
ATOM     12  C   UNL A   1      34.347  24.049  25.865  1.00  0.00     0.009 A 
ATOM     13  C   UNL A   1      34.131  23.770  23.118  1.00  0.00     0.026 A 
ATOM     14  C   UNL A   1      33.724  24.984  23.696  1.00  0.00     0.042 A 
BRANCH  14  15
ATOM     15  N   UNL A   1      33.153  26.008  22.904  1.00  0.00    -0.354 N 
ATOM     16  H   UNL A   1      33.624  26.205  22.062  1.00  0.00     0.167 HD
BRANCH  15  17
ATOM     17  C   UNL A   1      31.996  26.791  23.156  1.00  0.00     0.060 A 
ATOM     18  C   UNL A   1      30.714  26.214  23.294  1.00  0.00    -0.026 A 
ATOM     19  C   UNL A   1      32.104  28.201  23.187  1.00  0.00     0.064 A 
ATOM     20  C   UNL A   1      30.488  24.726  23.324  1.00  0.00     0.046 C 
ATOM     21  C   UNL A   1      29.585  27.049  23.408  1.00  0.00     0.005 A 
ATOM     22  C   UNL A   1      30.977  29.013  23.324  1.00  0.00     0.023 A 
ATOM     23  Cl  UNL A   1      33.641  28.980  23.018  1.00  0.00    -0.082 Cl
ATOM     24  C   UNL A   1      29.715  28.436  23.423  1.00  0.00     0.002 A 
ENDBRANCH  15  17
ENDBRANCH  14  15
ENDBRANCH   7   8
ENDBRANCH   4   7
ENDBRANCH   2   3
ENDBRANCH   1   2
BRANCH   1  25
ATOM     25  C   UNL A   1      34.582  29.853  26.897  1.00  0.00     0.118 C 
BRANCH  25  26
ATOM     26  N   UNL A   1      35.160  31.008  27.578  1.00  0.00    -0.352 N 
ATOM     27  C   UNL A   1      36.295  31.050  28.370  1.00  0.00     0.251 C 
ATOM     28  H   UNL A   1      34.685  31.862  27.459  1.00  0.00     0.163 HD
ATOM     29  O   UNL A   1      36.616  32.031  29.011  1.00  0.00    -0.269 OA
BRANCH  27  30
ATOM     30  C   UNL A   1      37.166  29.862  28.313  1.00  0.00     0.039 A 
ATOM     31  C   UNL A   1      37.270  29.096  29.480  1.00  0.00     0.014 A 
ATOM     32  C   UNL A   1      38.079  29.732  27.270  1.00  0.00     0.014 A 
ATOM     33  C   UNL A   1      38.407  28.323  29.685  1.00  0.00     0.010 A 
ATOM     34  C   UNL A   1      39.242  29.027  27.511  1.00  0.00     0.010 A 
ATOM     35  C   UNL A   1      39.429  28.369  28.739  1.00  0.00    -0.014 A 
BRANCH  35  36
ATOM     36  C   UNL A   1      40.763  27.822  28.966  1.00  0.00     0.031 A 
ATOM     37  C   UNL A   1      41.055  26.420  28.599  1.00  0.00     0.074 A 
ATOM     38  C   UNL A   1      41.757  28.625  29.401  1.00  0.00     0.049 A 
ATOM     39  N   UNL A   1      42.116  25.771  28.940  1.00  0.00    -0.248 NA
ATOM     40  C   UNL A   1      40.110  25.614  27.839  1.00  0.00     0.031 C 
ATOM     41  C   UNL A   1      43.191  28.364  29.345  1.00  0.00     0.029 A 
ATOM     42  N   UNL A   1      41.640  29.766  30.203  1.00  0.00    -0.354 N 
ATOM     43  C   UNL A   1      42.135  24.587  28.236  1.00  0.00     0.074 A 
ATOM     44  C   UNL A   1      40.829  24.510  27.623  1.00  0.00     0.031 C 
ATOM     45  C   UNL A   1      43.803  29.114  30.273  1.00  0.00     0.029 A 
ATOM     46  C   UNL A   1      42.767  29.760  31.058  1.00  0.00     0.049 A 
ATOM     47  H   UNL A   1      40.920  30.436  30.178  1.00  0.00     0.167 HD
ATOM     48  C   UNL A   1      43.302  23.877  28.167  1.00  0.00     0.037 A 
ATOM     49  C   UNL A   1      42.609  29.621  32.409  1.00  0.00     0.037 A 
ATOM     50  C   UNL A   1      44.298  24.412  29.101  1.00  0.00     0.049 A 
ATOM     51  C   UNL A   1      43.209  28.355  32.992  1.00  0.00     0.074 A 
ATOM     52  C   UNL A   1      45.410  25.233  28.993  1.00  0.00     0.029 A 
ATOM     53  N   UNL A   1      44.033  24.318  30.456  1.00  0.00    -0.354 N 
ATOM     54  N   UNL A   1      43.833  27.444  32.298  1.00  0.00    -0.248 NA
ATOM     55  C   UNL A   1      43.088  27.984  34.404  1.00  0.00     0.031 C 
ATOM     56  C   UNL A   1      45.772  25.670  30.304  1.00  0.00     0.029 A 
ATOM     57  C   UNL A   1      44.884  25.107  31.203  1.00  0.00     0.049 A 
ATOM     58  H   UNL A   1      43.323  23.756  30.841  1.00  0.00     0.167 HD
ATOM     59  C   UNL A   1      44.117  26.372  33.102  1.00  0.00     0.074 A 
ATOM     60  C   UNL A   1      43.661  26.768  34.421  1.00  0.00     0.031 C 
ATOM     61  C   UNL A   1      44.657  25.210  32.636  1.00  0.00     0.037 A 
BRANCH  48  62
ATOM     62  C   UNL A   1      43.614  22.847  27.094  1.00  0.00     0.058 A 
ATOM     63  C   UNL A   1      42.888  21.636  27.028  1.00  0.00     0.135 A 
ATOM     64  C   UNL A   1      44.659  22.941  26.152  1.00  0.00     0.135 A 
ATOM     65  F   UNL A   1      41.800  21.430  27.782  1.00  0.00    -0.206 F 
ATOM     66  C   UNL A   1      43.246  20.572  26.194  1.00  0.00     0.059 A 
ATOM     67  C   UNL A   1      45.074  21.874  25.351  1.00  0.00     0.059 A 
ATOM     68  F   UNL A   1      45.288  24.094  25.911  1.00  0.00    -0.206 F 
ATOM     69  C   UNL A   1      44.370  20.684  25.387  1.00  0.00     0.060 A 
BRANCH  69  70
ATOM     70  S   UNL A   1      44.881  19.276  24.386  1.00  0.00     0.124 S 
ATOM     71  O   UNL A   1      44.145  18.177  25.003  1.00  0.00    -0.237 OA
ATOM     72  O   UNL A   1      44.437  19.672  23.055  1.00  0.00    -0.237 OA
ATOM     73  O   UNL A   1      46.328  19.232  24.575  1.00  0.00    -0.744 OA
ENDBRANCH  69  70
ENDBRANCH  48  62
BRANCH  49  74
ATOM     74  C   UNL A   1      41.400  30.334  32.908  1.00  0.00     0.058 A 
ATOM     75  C   UNL A   1      40.250  29.559  33.162  1.00  0.00     0.135 A 
ATOM     76  C   UNL A   1      41.488  31.584  33.533  1.00  0.00     0.135 A 
ATOM     77  F   UNL A   1      40.105  28.357  32.577  1.00  0.00    -0.206 F 
ATOM     78  C   UNL A   1      39.318  29.925  34.126  1.00  0.00     0.059 A 
ATOM     79  C   UNL A   1      40.555  31.979  34.494  1.00  0.00     0.059 A 
ATOM     80  F   UNL A   1      42.555  32.369  33.326  1.00  0.00    -0.206 F 
ATOM     81  C   UNL A   1      39.518  31.108  34.833  1.00  0.00     0.060 A 
BRANCH  81  82
ATOM     82  S   UNL A   1      38.514  31.379  36.313  1.00  0.00     0.124 S 
ATOM     83  O   UNL A   1      39.447  32.079  37.188  1.00  0.00    -0.237 OA
ATOM     84  O   UNL A   1      37.415  32.189  35.788  1.00  0.00    -0.237 OA
ATOM     85  O   UNL A   1      38.155  30.027  36.726  1.00  0.00    -0.744 OA
ENDBRANCH  81  82
ENDBRANCH  49  74
BRANCH  61  86
ATOM     86  C   UNL A   1      44.996  24.055  33.528  1.00  0.00     0.058 A 
ATOM     87  C   UNL A   1      46.315  23.799  33.937  1.00  0.00     0.135 A 
ATOM     88  C   UNL A   1      44.029  23.093  33.884  1.00  0.00     0.135 A 
ATOM     89  F   UNL A   1      47.304  24.652  33.622  1.00  0.00    -0.206 F 
ATOM     90  C   UNL A   1      46.655  22.660  34.666  1.00  0.00     0.059 A 
ATOM     91  C   UNL A   1      44.352  21.927  34.571  1.00  0.00     0.059 A 
ATOM     92  F   UNL A   1      42.733  23.273  33.588  1.00  0.00    -0.206 F 
ATOM     93  C   UNL A   1      45.667  21.726  34.973  1.00  0.00     0.060 A 
BRANCH  93  94
ATOM     94  S   UNL A   1      46.106  20.223  35.870  1.00  0.00     0.124 S 
ATOM     95  O   UNL A   1      45.728  20.544  37.243  1.00  0.00    -0.237 OA
ATOM     96  O   UNL A   1      45.269  19.232  35.201  1.00  0.00    -0.237 OA
ATOM     97  O   UNL A   1      47.541  20.099  35.636  1.00  0.00    -0.744 OA
ENDBRANCH  93  94
ENDBRANCH  61  86
ENDBRANCH  35  36
ENDBRANCH  27  30
ENDBRANCH  25  26
ENDBRANCH   1  25
TORSDOF 16
ENDMDL
