MODEL 1
REMARK VINA RESULT:     -12.7      0.000      0.000
REMARK SMILES COc1cccc(NC(=O)[C@@H]2[C@@H](C(=O)NCCCNC(=O)c3ccc(-c4c5nc(c(-c6c(F)cc(S(=O)(=O)[O-])cc6F)c6ccc([nH]6)c(-c6c(F)cc(S(=O)(=O)[O-])cc6F)c6nc(c(-c7c(F)cc(S(=O)(=O)[O-])cc7F)c7ccc4[nH]7)C=C6)C=C5)cc3)[C@H]3C=C[C@@H]2C3)c1
REMARK SMILES IDX 17 1 16 2 15 3 13 4 14 5 12 7 11 8 91 9 88 10 90 11 92 12
REMARK SMILES IDX 89 13 9 14 8 15 10 17 7 18 3 19 4 20 93 21 5 22 6 23 2 24
REMARK SMILES IDX 1 25 18 26 19 27 20 28 21 30 22 31 23 32 87 33 24 34 86 35
REMARK SMILES IDX 25 36 26 37 27 38 80 39 28 40 85 41 79 42 81 43 29 44 84 45
REMARK SMILES IDX 78 46 77 47 30 49 64 50 43 51 63 52 44 53 47 54 62 55 82 56
REMARK SMILES IDX 45 57 46 58 61 60 83 61 48 62 31 63 32 64 41 65 33 66 34 67
REMARK SMILES IDX 40 68 42 69 35 70 36 71 37 72 38 73 39 74 65 75 66 76 75 77
REMARK SMILES IDX 67 78 68 79 74 80 76 81 69 82 70 83 71 84 72 85 73 86 49 87
REMARK SMILES IDX 50 88 59 89 51 90 52 91 58 92 60 93 53 94 54 95 55 96 56 97
REMARK SMILES IDX 57 98
REMARK H PARENT 15 6 8 16 19 29 81 48 47 59
REMARK Flexibility Score: inf
ROOT
ATOM      1  C   UNL A   1      40.859  22.074  27.499  1.00  0.00     0.042 C 
ENDROOT
BRANCH   1   2
ATOM      2  C   UNL A   1      39.663  22.442  26.650  1.00  0.00     0.117 C 
BRANCH   2   3
ATOM      3  N   UNL A   1      39.037  21.384  25.882  1.00  0.00    -0.356 N 
ATOM      4  C   UNL A   1      37.775  21.251  25.382  1.00  0.00     0.224 C 
ATOM      5  O   UNL A   1      37.615  20.304  24.598  1.00  0.00    -0.275 OA
ATOM      6  H   UNL A   1      39.631  20.623  25.687  1.00  0.00     0.163 HD
BRANCH   4   7
ATOM      7  C   UNL A   1      36.534  22.066  25.800  1.00  0.00     0.098 C 
ATOM      8  C   UNL A   1      35.094  21.618  25.417  1.00  0.00     0.099 C 
ATOM      9  C   UNL A   1      34.569  22.839  24.607  1.00  0.00     0.025 C 
ATOM     10  C   UNL A   1      36.635  23.479  25.145  1.00  0.00     0.025 C 
ATOM     11  C   UNL A   1      35.340  22.966  23.315  1.00  0.00    -0.027 C 
ATOM     12  C   UNL A   1      35.218  24.002  25.368  1.00  0.00     0.017 C 
ATOM     13  C   UNL A   1      36.581  23.354  23.635  1.00  0.00    -0.027 C 
BRANCH   8  14
ATOM     14  C   UNL A   1      34.068  21.276  26.471  1.00  0.00     0.228 C 
ATOM     15  N   UNL A   1      33.225  20.198  26.261  1.00  0.00    -0.326 N 
ATOM     16  H   UNL A   1      32.593  20.059  27.003  1.00  0.00     0.169 HD
ATOM     17  O   UNL A   1      33.965  21.920  27.515  1.00  0.00    -0.274 OA
BRANCH  15  18
ATOM     18  C   UNL A   1      33.061  19.244  25.212  1.00  0.00     0.044 A 
ATOM     19  C   UNL A   1      33.225  16.897  24.546  1.00  0.00     0.120 A 
ATOM     20  C   UNL A   1      32.713  17.190  23.286  1.00  0.00     0.046 A 
ATOM     21  C   UNL A   1      33.414  17.917  25.496  1.00  0.00     0.072 A 
ATOM     22  C   UNL A   1      32.389  18.495  22.974  1.00  0.00     0.006 A 
ATOM     23  C   UNL A   1      32.573  19.500  23.927  1.00  0.00     0.026 A 
BRANCH  19  24
ATOM     24  O   UNL A   1      33.560  15.584  24.730  1.00  0.00    -0.497 OA
ATOM     25  C   UNL A   1      32.580  14.804  25.400  1.00  0.00     0.278 C 
ENDBRANCH  19  24
ENDBRANCH  15  18
ENDBRANCH   8  14
ENDBRANCH   4   7
ENDBRANCH   2   3
ENDBRANCH   1   2
BRANCH   1  26
ATOM     26  C   UNL A   1      42.053  22.983  27.352  1.00  0.00     0.118 C 
BRANCH  26  27
ATOM     27  N   UNL A   1      41.952  23.886  26.212  1.00  0.00    -0.352 N 
ATOM     28  C   UNL A   1      41.715  25.242  26.128  1.00  0.00     0.251 C 
ATOM     29  H   UNL A   1      42.075  23.445  25.340  1.00  0.00     0.163 HD
ATOM     30  O   UNL A   1      41.534  25.744  25.027  1.00  0.00    -0.269 OA
BRANCH  28  31
ATOM     31  C   UNL A   1      41.634  26.087  27.347  1.00  0.00     0.039 A 
ATOM     32  C   UNL A   1      42.573  27.106  27.537  1.00  0.00     0.014 A 
ATOM     33  C   UNL A   1      40.652  25.881  28.313  1.00  0.00     0.014 A 
ATOM     34  C   UNL A   1      42.461  27.964  28.636  1.00  0.00     0.010 A 
ATOM     35  C   UNL A   1      40.451  26.819  29.317  1.00  0.00     0.010 A 
ATOM     36  C   UNL A   1      41.364  27.864  29.507  1.00  0.00    -0.014 A 
BRANCH  36  37
ATOM     37  C   UNL A   1      41.157  28.809  30.638  1.00  0.00     0.031 A 
ATOM     38  C   UNL A   1      42.013  28.698  31.876  1.00  0.00     0.074 A 
ATOM     39  C   UNL A   1      40.148  29.702  30.593  1.00  0.00     0.049 A 
ATOM     40  N   UNL A   1      41.916  29.343  33.010  1.00  0.00    -0.248 NA
ATOM     41  C   UNL A   1      43.097  27.700  31.852  1.00  0.00     0.031 C 
ATOM     42  C   UNL A   1      39.210  29.869  29.481  1.00  0.00     0.029 A 
ATOM     43  N   UNL A   1      39.734  30.634  31.514  1.00  0.00    -0.354 N 
ATOM     44  C   UNL A   1      42.903  28.813  33.835  1.00  0.00     0.074 A 
ATOM     45  C   UNL A   1      43.540  27.745  33.099  1.00  0.00     0.031 C 
ATOM     46  C   UNL A   1      38.353  30.862  29.769  1.00  0.00     0.029 A 
ATOM     47  C   UNL A   1      38.647  31.373  31.104  1.00  0.00     0.049 A 
ATOM     48  H   UNL A   1      40.174  30.762  32.385  1.00  0.00     0.167 HD
ATOM     49  C   UNL A   1      43.269  29.199  35.080  1.00  0.00     0.037 A 
ATOM     50  C   UNL A   1      37.959  32.344  31.736  1.00  0.00     0.037 A 
ATOM     51  C   UNL A   1      42.660  30.293  35.789  1.00  0.00     0.049 A 
ATOM     52  C   UNL A   1      38.391  32.767  33.114  1.00  0.00     0.074 A 
ATOM     53  C   UNL A   1      43.000  30.811  37.025  1.00  0.00     0.029 A 
ATOM     54  N   UNL A   1      41.586  31.038  35.324  1.00  0.00    -0.354 N 
ATOM     55  N   UNL A   1      39.370  32.297  33.852  1.00  0.00    -0.248 NA
ATOM     56  C   UNL A   1      37.633  33.856  33.746  1.00  0.00     0.031 C 
ATOM     57  C   UNL A   1      42.103  31.838  37.329  1.00  0.00     0.029 A 
ATOM     58  C   UNL A   1      41.239  31.999  36.257  1.00  0.00     0.049 A 
ATOM     59  H   UNL A   1      41.138  30.904  34.457  1.00  0.00     0.167 HD
ATOM     60  C   UNL A   1      39.365  33.055  35.018  1.00  0.00     0.074 A 
ATOM     61  C   UNL A   1      38.292  34.018  34.884  1.00  0.00     0.031 C 
ATOM     62  C   UNL A   1      40.176  32.962  36.101  1.00  0.00     0.037 A 
BRANCH  49  63
ATOM     63  C   UNL A   1      44.387  28.445  35.748  1.00  0.00     0.058 A 
ATOM     64  C   UNL A   1      45.723  28.873  35.661  1.00  0.00     0.135 A 
ATOM     65  C   UNL A   1      44.119  27.298  36.512  1.00  0.00     0.135 A 
ATOM     66  F   UNL A   1      46.041  29.953  34.930  1.00  0.00    -0.206 F 
ATOM     67  C   UNL A   1      46.754  28.173  36.278  1.00  0.00     0.059 A 
ATOM     68  C   UNL A   1      45.132  26.601  37.167  1.00  0.00     0.059 A 
ATOM     69  F   UNL A   1      42.863  26.843  36.630  1.00  0.00    -0.206 F 
ATOM     70  C   UNL A   1      46.448  27.039  37.031  1.00  0.00     0.060 A 
BRANCH  70  71
ATOM     71  S   UNL A   1      47.799  26.148  37.832  1.00  0.00     0.124 S 
ATOM     72  O   UNL A   1      48.933  27.021  37.543  1.00  0.00    -0.237 OA
ATOM     73  O   UNL A   1      47.365  26.113  39.225  1.00  0.00    -0.237 OA
ATOM     74  O   UNL A   1      47.810  24.859  37.147  1.00  0.00    -0.744 OA
ENDBRANCH  70  71
ENDBRANCH  49  63
BRANCH  50  75
ATOM     75  C   UNL A   1      36.810  33.003  31.058  1.00  0.00     0.058 A 
ATOM     76  C   UNL A   1      37.016  33.959  30.052  1.00  0.00     0.135 A 
ATOM     77  C   UNL A   1      35.484  32.683  31.390  1.00  0.00     0.135 A 
ATOM     78  F   UNL A   1      38.263  34.304  29.701  1.00  0.00    -0.206 F 
ATOM     79  C   UNL A   1      35.951  34.587  29.411  1.00  0.00     0.059 A 
ATOM     80  C   UNL A   1      34.403  33.277  30.746  1.00  0.00     0.059 A 
ATOM     81  F   UNL A   1      35.230  31.761  32.333  1.00  0.00    -0.206 F 
ATOM     82  C   UNL A   1      34.647  34.236  29.765  1.00  0.00     0.060 A 
BRANCH  82  83
ATOM     83  S   UNL A   1      33.274  35.023  28.893  1.00  0.00     0.124 S 
ATOM     84  O   UNL A   1      33.947  36.128  28.222  1.00  0.00    -0.237 OA
ATOM     85  O   UNL A   1      32.800  33.944  28.032  1.00  0.00    -0.237 OA
ATOM     86  O   UNL A   1      32.365  35.398  29.972  1.00  0.00    -0.744 OA
ENDBRANCH  82  83
ENDBRANCH  50  75
BRANCH  62  87
ATOM     87  C   UNL A   1      39.974  33.955  37.211  1.00  0.00     0.058 A 
ATOM     88  C   UNL A   1      40.594  35.214  37.201  1.00  0.00     0.135 A 
ATOM     89  C   UNL A   1      39.090  33.667  38.264  1.00  0.00     0.135 A 
ATOM     90  F   UNL A   1      41.452  35.537  36.221  1.00  0.00    -0.206 F 
ATOM     91  C   UNL A   1      40.360  36.145  38.208  1.00  0.00     0.059 A 
ATOM     92  C   UNL A   1      38.817  34.594  39.263  1.00  0.00     0.059 A 
ATOM     93  F   UNL A   1      38.462  32.481  38.315  1.00  0.00    -0.206 F 
ATOM     94  C   UNL A   1      39.466  35.827  39.231  1.00  0.00     0.060 A 
BRANCH  94  95
ATOM     95  S   UNL A   1      39.136  37.064  40.505  1.00  0.00     0.124 S 
ATOM     96  O   UNL A   1      38.426  36.272  41.506  1.00  0.00    -0.237 OA
ATOM     97  O   UNL A   1      40.479  37.496  40.875  1.00  0.00    -0.237 OA
ATOM     98  O   UNL A   1      38.330  38.063  39.810  1.00  0.00    -0.744 OA
ENDBRANCH  94  95
ENDBRANCH  62  87
ENDBRANCH  36  37
ENDBRANCH  28  31
ENDBRANCH  26  27
ENDBRANCH   1  26
TORSDOF 16
ENDMDL
MODEL 2
REMARK VINA RESULT:     -12.6      7.125     12.732
REMARK SMILES COc1cccc(NC(=O)[C@@H]2[C@@H](C(=O)NCCCNC(=O)c3ccc(-c4c5nc(c(-c6c(F)cc(S(=O)(=O)[O-])cc6F)c6ccc([nH]6)c(-c6c(F)cc(S(=O)(=O)[O-])cc6F)c6nc(c(-c7c(F)cc(S(=O)(=O)[O-])cc7F)c7ccc4[nH]7)C=C6)C=C5)cc3)[C@H]3C=C[C@@H]2C3)c1
REMARK SMILES IDX 17 1 16 2 15 3 13 4 14 5 12 7 11 8 91 9 88 10 90 11 92 12
REMARK SMILES IDX 89 13 9 14 8 15 10 17 7 18 3 19 4 20 93 21 5 22 6 23 2 24
REMARK SMILES IDX 1 25 18 26 19 27 20 28 21 30 22 31 23 32 87 33 24 34 86 35
REMARK SMILES IDX 25 36 26 37 27 38 80 39 28 40 85 41 79 42 81 43 29 44 84 45
REMARK SMILES IDX 78 46 77 47 30 49 64 50 43 51 63 52 44 53 47 54 62 55 82 56
REMARK SMILES IDX 45 57 46 58 61 60 83 61 48 62 31 63 32 64 41 65 33 66 34 67
REMARK SMILES IDX 40 68 42 69 35 70 36 71 37 72 38 73 39 74 65 75 66 76 75 77
REMARK SMILES IDX 67 78 68 79 74 80 76 81 69 82 70 83 71 84 72 85 73 86 49 87
REMARK SMILES IDX 50 88 59 89 51 90 52 91 58 92 60 93 53 94 54 95 55 96 56 97
REMARK SMILES IDX 57 98
REMARK H PARENT 15 6 8 16 19 29 81 48 47 59
REMARK Flexibility Score: inf
ROOT
ATOM      1  C   UNL A   1      35.666  32.585  28.037  1.00  0.00     0.042 C 
ENDROOT
BRANCH   1   2
ATOM      2  C   UNL A   1      34.655  31.465  28.137  1.00  0.00     0.117 C 
BRANCH   2   3
ATOM      3  N   UNL A   1      33.378  31.658  27.478  1.00  0.00    -0.356 N 
ATOM      4  C   UNL A   1      32.645  30.843  26.664  1.00  0.00     0.224 C 
ATOM      5  O   UNL A   1      31.494  31.236  26.423  1.00  0.00    -0.275 OA
ATOM      6  H   UNL A   1      32.964  32.534  27.650  1.00  0.00     0.163 HD
BRANCH   4   7
ATOM      7  C   UNL A   1      33.154  29.587  25.929  1.00  0.00     0.098 C 
ATOM      8  C   UNL A   1      32.277  28.841  24.882  1.00  0.00     0.099 C 
ATOM      9  C   UNL A   1      32.184  27.409  25.485  1.00  0.00     0.025 C 
ATOM     10  C   UNL A   1      33.430  28.478  26.991  1.00  0.00     0.025 C 
ATOM     11  C   UNL A   1      31.388  27.445  26.768  1.00  0.00    -0.027 C 
ATOM     12  C   UNL A   1      33.582  27.251  26.095  1.00  0.00     0.017 C 
ATOM     13  C   UNL A   1      32.137  28.084  27.676  1.00  0.00    -0.027 C 
BRANCH   8  14
ATOM     14  C   UNL A   1      32.706  28.717  23.439  1.00  0.00     0.228 C 
ATOM     15  N   UNL A   1      31.750  28.834  22.444  1.00  0.00    -0.326 N 
ATOM     16  H   UNL A   1      32.129  28.738  21.540  1.00  0.00     0.169 HD
ATOM     17  O   UNL A   1      33.879  28.524  23.121  1.00  0.00    -0.274 OA
BRANCH  15  18
ATOM     18  C   UNL A   1      30.341  29.062  22.429  1.00  0.00     0.044 A 
ATOM     19  C   UNL A   1      28.499  30.392  21.525  1.00  0.00     0.120 A 
ATOM     20  C   UNL A   1      27.567  29.609  22.199  1.00  0.00     0.046 A 
ATOM     21  C   UNL A   1      29.876  30.132  21.652  1.00  0.00     0.072 A 
ATOM     22  C   UNL A   1      28.005  28.570  22.995  1.00  0.00     0.006 A 
ATOM     23  C   UNL A   1      29.374  28.315  23.108  1.00  0.00     0.026 A 
BRANCH  19  24
ATOM     24  O   UNL A   1      27.960  31.423  20.808  1.00  0.00    -0.497 OA
ATOM     25  C   UNL A   1      28.004  32.688  21.453  1.00  0.00     0.278 C 
ENDBRANCH  19  24
ENDBRANCH  15  18
ENDBRANCH   8  14
ENDBRANCH   4   7
ENDBRANCH   2   3
ENDBRANCH   1   2
BRANCH   1  26
ATOM     26  C   UNL A   1      36.457  32.847  29.294  1.00  0.00     0.118 C 
BRANCH  26  27
ATOM     27  N   UNL A   1      36.030  32.031  30.423  1.00  0.00    -0.352 N 
ATOM     28  C   UNL A   1      36.544  30.873  30.970  1.00  0.00     0.251 C 
ATOM     29  H   UNL A   1      35.225  32.368  30.880  1.00  0.00     0.163 HD
ATOM     30  O   UNL A   1      35.906  30.298  31.843  1.00  0.00    -0.269 OA
BRANCH  28  31
ATOM     31  C   UNL A   1      37.825  30.297  30.491  1.00  0.00     0.039 A 
ATOM     32  C   UNL A   1      38.034  30.142  29.116  1.00  0.00     0.014 A 
ATOM     33  C   UNL A   1      38.819  29.892  31.377  1.00  0.00     0.014 A 
ATOM     34  C   UNL A   1      39.267  29.679  28.644  1.00  0.00     0.010 A 
ATOM     35  C   UNL A   1      40.088  29.577  30.908  1.00  0.00     0.010 A 
ATOM     36  C   UNL A   1      40.327  29.446  29.535  1.00  0.00    -0.014 A 
BRANCH  36  37
ATOM     37  C   UNL A   1      41.680  29.035  29.071  1.00  0.00     0.031 A 
ATOM     38  C   UNL A   1      42.786  30.059  28.980  1.00  0.00     0.074 A 
ATOM     39  C   UNL A   1      41.892  27.773  28.647  1.00  0.00     0.049 A 
ATOM     40  N   UNL A   1      43.994  29.931  28.493  1.00  0.00    -0.248 NA
ATOM     41  C   UNL A   1      42.481  31.417  29.463  1.00  0.00     0.031 C 
ATOM     42  C   UNL A   1      40.891  26.705  28.624  1.00  0.00     0.029 A 
ATOM     43  N   UNL A   1      43.021  27.175  28.141  1.00  0.00    -0.354 N 
ATOM     44  C   UNL A   1      44.576  31.190  28.587  1.00  0.00     0.074 A 
ATOM     45  C   UNL A   1      43.569  32.084  29.110  1.00  0.00     0.031 C 
ATOM     46  C   UNL A   1      41.455  25.578  28.163  1.00  0.00     0.029 A 
ATOM     47  C   UNL A   1      42.845  25.850  27.810  1.00  0.00     0.049 A 
ATOM     48  H   UNL A   1      43.875  27.649  28.026  1.00  0.00     0.167 HD
ATOM     49  C   UNL A   1      45.845  31.565  28.297  1.00  0.00     0.037 A 
ATOM     50  C   UNL A   1      43.702  24.959  27.274  1.00  0.00     0.037 A 
ATOM     51  C   UNL A   1      46.856  30.659  27.819  1.00  0.00     0.049 A 
ATOM     52  C   UNL A   1      45.111  25.393  26.971  1.00  0.00     0.074 A 
ATOM     53  C   UNL A   1      48.189  30.920  27.559  1.00  0.00     0.029 A 
ATOM     54  N   UNL A   1      46.646  29.318  27.531  1.00  0.00    -0.354 N 
ATOM     55  N   UNL A   1      45.662  26.573  27.129  1.00  0.00    -0.248 NA
ATOM     56  C   UNL A   1      46.018  24.375  26.422  1.00  0.00     0.031 C 
ATOM     57  C   UNL A   1      48.774  29.749  27.069  1.00  0.00     0.029 A 
ATOM     58  C   UNL A   1      47.820  28.743  27.078  1.00  0.00     0.049 A 
ATOM     59  H   UNL A   1      45.788  28.845  27.635  1.00  0.00     0.167 HD
ATOM     60  C   UNL A   1      46.987  26.431  26.732  1.00  0.00     0.074 A 
ATOM     61  C   UNL A   1      47.156  25.048  26.334  1.00  0.00     0.031 C 
ATOM     62  C   UNL A   1      47.975  27.359  26.701  1.00  0.00     0.037 A 
BRANCH  49  63
ATOM     63  C   UNL A   1      46.214  33.009  28.501  1.00  0.00     0.058 A 
ATOM     64  C   UNL A   1      46.713  33.479  29.728  1.00  0.00     0.135 A 
ATOM     65  C   UNL A   1      46.100  33.932  27.448  1.00  0.00     0.135 A 
ATOM     66  F   UNL A   1      46.827  32.646  30.774  1.00  0.00    -0.206 F 
ATOM     67  C   UNL A   1      47.051  34.815  29.913  1.00  0.00     0.059 A 
ATOM     68  C   UNL A   1      46.465  35.267  27.602  1.00  0.00     0.059 A 
ATOM     69  F   UNL A   1      45.629  33.540  26.254  1.00  0.00    -0.206 F 
ATOM     70  C   UNL A   1      46.926  35.701  28.843  1.00  0.00     0.060 A 
BRANCH  70  71
ATOM     71  S   UNL A   1      47.379  37.430  29.100  1.00  0.00     0.124 S 
ATOM     72  O   UNL A   1      46.160  38.115  28.679  1.00  0.00    -0.237 OA
ATOM     73  O   UNL A   1      47.665  37.468  30.530  1.00  0.00    -0.237 OA
ATOM     74  O   UNL A   1      48.533  37.613  28.226  1.00  0.00    -0.744 OA
ENDBRANCH  70  71
ENDBRANCH  49  63
BRANCH  50  75
ATOM     75  C   UNL A   1      43.260  23.561  27.019  1.00  0.00     0.058 A 
ATOM     76  C   UNL A   1      43.025  23.105  25.714  1.00  0.00     0.135 A 
ATOM     77  C   UNL A   1      43.077  22.649  28.071  1.00  0.00     0.135 A 
ATOM     78  F   UNL A   1      43.181  23.938  24.674  1.00  0.00    -0.206 F 
ATOM     79  C   UNL A   1      42.608  21.801  25.459  1.00  0.00     0.059 A 
ATOM     80  C   UNL A   1      42.686  21.333  27.840  1.00  0.00     0.059 A 
ATOM     81  F   UNL A   1      43.306  23.028  29.338  1.00  0.00    -0.206 F 
ATOM     82  C   UNL A   1      42.444  20.922  26.531  1.00  0.00     0.060 A 
BRANCH  82  83
ATOM     83  S   UNL A   1      41.949  19.220  26.184  1.00  0.00     0.124 S 
ATOM     84  O   UNL A   1      42.806  18.889  25.052  1.00  0.00    -0.237 OA
ATOM     85  O   UNL A   1      42.262  18.548  27.442  1.00  0.00    -0.237 OA
ATOM     86  O   UNL A   1      40.525  19.340  25.885  1.00  0.00    -0.744 OA
ENDBRANCH  82  83
ENDBRANCH  50  75
BRANCH  62  87
ATOM     87  C   UNL A   1      49.342  26.909  26.268  1.00  0.00     0.058 A 
ATOM     88  C   UNL A   1      50.210  26.232  27.140  1.00  0.00     0.135 A 
ATOM     89  C   UNL A   1      49.761  27.097  24.941  1.00  0.00     0.135 A 
ATOM     90  F   UNL A   1      49.860  26.032  28.420  1.00  0.00    -0.206 F 
ATOM     91  C   UNL A   1      51.453  25.775  26.715  1.00  0.00     0.059 A 
ATOM     92  C   UNL A   1      50.985  26.621  24.486  1.00  0.00     0.059 A 
ATOM     93  F   UNL A   1      48.964  27.729  24.063  1.00  0.00    -0.206 F 
ATOM     94  C   UNL A   1      51.829  25.970  25.385  1.00  0.00     0.060 A 
BRANCH  94  95
ATOM     95  S   UNL A   1      53.425  25.329  24.835  1.00  0.00     0.124 S 
ATOM     96  O   UNL A   1      54.353  26.188  25.563  1.00  0.00    -0.237 OA
ATOM     97  O   UNL A   1      53.370  23.939  25.275  1.00  0.00    -0.237 OA
ATOM     98  O   UNL A   1      53.392  25.525  23.389  1.00  0.00    -0.744 OA
ENDBRANCH  94  95
ENDBRANCH  62  87
ENDBRANCH  36  37
ENDBRANCH  28  31
ENDBRANCH  26  27
ENDBRANCH   1  26
TORSDOF 16
ENDMDL
MODEL 3
REMARK VINA RESULT:     -12.5      0.557      8.206
REMARK SMILES COc1cccc(NC(=O)[C@@H]2[C@@H](C(=O)NCCCNC(=O)c3ccc(-c4c5nc(c(-c6c(F)cc(S(=O)(=O)[O-])cc6F)c6ccc([nH]6)c(-c6c(F)cc(S(=O)(=O)[O-])cc6F)c6nc(c(-c7c(F)cc(S(=O)(=O)[O-])cc7F)c7ccc4[nH]7)C=C6)C=C5)cc3)[C@H]3C=C[C@@H]2C3)c1
REMARK SMILES IDX 17 1 16 2 15 3 13 4 14 5 12 7 11 8 91 9 88 10 90 11 92 12
REMARK SMILES IDX 89 13 9 14 8 15 10 17 7 18 3 19 4 20 93 21 5 22 6 23 2 24
REMARK SMILES IDX 1 25 18 26 19 27 20 28 21 30 22 31 23 32 87 33 24 34 86 35
REMARK SMILES IDX 25 36 26 37 27 38 80 39 28 40 85 41 79 42 81 43 29 44 84 45
REMARK SMILES IDX 78 46 77 47 30 49 64 50 43 51 63 52 44 53 47 54 62 55 82 56
REMARK SMILES IDX 45 57 46 58 61 60 83 61 48 62 31 63 32 64 41 65 33 66 34 67
REMARK SMILES IDX 40 68 42 69 35 70 36 71 37 72 38 73 39 74 65 75 66 76 75 77
REMARK SMILES IDX 67 78 68 79 74 80 76 81 69 82 70 83 71 84 72 85 73 86 49 87
REMARK SMILES IDX 50 88 59 89 51 90 52 91 58 92 60 93 53 94 54 95 55 96 56 97
REMARK SMILES IDX 57 98
REMARK H PARENT 15 6 8 16 19 29 81 48 47 59
REMARK Flexibility Score: inf
ROOT
ATOM      1  C   UNL A   1      40.951  22.319  27.700  1.00  0.00     0.042 C 
ENDROOT
BRANCH   1   2
ATOM      2  C   UNL A   1      39.725  22.638  26.874  1.00  0.00     0.117 C 
BRANCH   2   3
ATOM      3  N   UNL A   1      39.185  21.579  26.044  1.00  0.00    -0.356 N 
ATOM      4  C   UNL A   1      37.956  21.410  25.477  1.00  0.00     0.224 C 
ATOM      5  O   UNL A   1      37.876  20.483  24.657  1.00  0.00    -0.275 OA
ATOM      6  H   UNL A   1      39.820  20.852  25.856  1.00  0.00     0.163 HD
BRANCH   4   7
ATOM      7  C   UNL A   1      36.661  22.158  25.856  1.00  0.00     0.098 C 
ATOM      8  C   UNL A   1      35.258  21.619  25.454  1.00  0.00     0.099 C 
ATOM      9  C   UNL A   1      34.679  22.794  24.612  1.00  0.00     0.025 C 
ATOM     10  C   UNL A   1      36.692  23.562  25.178  1.00  0.00     0.025 C 
ATOM     11  C   UNL A   1      35.468  22.944  23.333  1.00  0.00    -0.027 C 
ATOM     12  C   UNL A   1      35.243  24.006  25.364  1.00  0.00     0.017 C 
ATOM     13  C   UNL A   1      36.677  23.410  23.670  1.00  0.00    -0.027 C 
BRANCH   8  14
ATOM     14  C   UNL A   1      34.233  21.235  26.494  1.00  0.00     0.228 C 
ATOM     15  N   UNL A   1      33.319  20.237  26.198  1.00  0.00    -0.326 N 
ATOM     16  H   UNL A   1      32.694  20.062  26.938  1.00  0.00     0.169 HD
ATOM     17  O   UNL A   1      34.189  21.776  27.599  1.00  0.00    -0.274 OA
BRANCH  15  18
ATOM     18  C   UNL A   1      33.077  19.405  25.063  1.00  0.00     0.044 A 
ATOM     19  C   UNL A   1      33.088  17.133  24.162  1.00  0.00     0.120 A 
ATOM     20  C   UNL A   1      32.567  17.580  22.952  1.00  0.00     0.046 A 
ATOM     21  C   UNL A   1      33.357  18.038  25.204  1.00  0.00     0.072 A 
ATOM     22  C   UNL A   1      32.313  18.927  22.781  1.00  0.00     0.006 A 
ATOM     23  C   UNL A   1      32.577  19.817  23.825  1.00  0.00     0.026 A 
BRANCH  19  24
ATOM     24  O   UNL A   1      33.348  15.791  24.204  1.00  0.00    -0.497 OA
ATOM     25  C   UNL A   1      33.091  15.170  25.455  1.00  0.00     0.278 C 
ENDBRANCH  19  24
ENDBRANCH  15  18
ENDBRANCH   8  14
ENDBRANCH   4   7
ENDBRANCH   2   3
ENDBRANCH   1   2
BRANCH   1  26
ATOM     26  C   UNL A   1      42.035  23.367  27.666  1.00  0.00     0.118 C 
BRANCH  26  27
ATOM     27  N   UNL A   1      42.023  24.169  26.450  1.00  0.00    -0.352 N 
ATOM     28  C   UNL A   1      41.692  25.488  26.220  1.00  0.00     0.251 C 
ATOM     29  H   UNL A   1      42.301  23.679  25.644  1.00  0.00     0.163 HD
ATOM     30  O   UNL A   1      41.627  25.889  25.065  1.00  0.00    -0.269 OA
BRANCH  28  31
ATOM     31  C   UNL A   1      41.374  26.411  27.339  1.00  0.00     0.039 A 
ATOM     32  C   UNL A   1      40.335  26.087  28.218  1.00  0.00     0.014 A 
ATOM     33  C   UNL A   1      42.077  27.598  27.528  1.00  0.00     0.014 A 
ATOM     34  C   UNL A   1      40.077  26.902  29.326  1.00  0.00     0.010 A 
ATOM     35  C   UNL A   1      41.923  28.322  28.703  1.00  0.00     0.010 A 
ATOM     36  C   UNL A   1      40.908  27.998  29.611  1.00  0.00    -0.014 A 
BRANCH  36  37
ATOM     37  C   UNL A   1      40.724  28.841  30.824  1.00  0.00     0.031 A 
ATOM     38  C   UNL A   1      39.660  29.911  30.842  1.00  0.00     0.074 A 
ATOM     39  C   UNL A   1      41.567  28.709  31.869  1.00  0.00     0.049 A 
ATOM     40  N   UNL A   1      39.418  30.822  31.749  1.00  0.00    -0.248 NA
ATOM     41  C   UNL A   1      38.777  29.995  29.666  1.00  0.00     0.031 C 
ATOM     42  C   UNL A   1      42.676  27.756  31.951  1.00  0.00     0.029 A 
ATOM     43  N   UNL A   1      41.629  29.388  33.061  1.00  0.00    -0.354 N 
ATOM     44  C   UNL A   1      38.380  31.596  31.243  1.00  0.00     0.074 A 
ATOM     45  C   UNL A   1      38.085  31.095  29.920  1.00  0.00     0.031 C 
ATOM     46  C   UNL A   1      43.286  27.887  33.139  1.00  0.00     0.029 A 
ATOM     47  C   UNL A   1      42.646  28.965  33.887  1.00  0.00     0.049 A 
ATOM     48  H   UNL A   1      41.005  30.109  33.303  1.00  0.00     0.167 HD
ATOM     49  C   UNL A   1      37.708  32.612  31.836  1.00  0.00     0.037 A 
ATOM     50  C   UNL A   1      43.027  29.402  35.103  1.00  0.00     0.037 A 
ATOM     51  C   UNL A   1      37.978  33.076  33.171  1.00  0.00     0.049 A 
ATOM     52  C   UNL A   1      42.259  30.524  35.749  1.00  0.00     0.074 A 
ATOM     53  C   UNL A   1      37.312  34.051  33.891  1.00  0.00     0.029 A 
ATOM     54  N   UNL A   1      38.992  32.597  33.986  1.00  0.00    -0.354 N 
ATOM     55  N   UNL A   1      41.237  31.200  35.280  1.00  0.00    -0.248 NA
ATOM     56  C   UNL A   1      42.689  30.939  37.092  1.00  0.00     0.031 C 
ATOM     57  C   UNL A   1      37.953  34.195  35.125  1.00  0.00     0.029 A 
ATOM     58  C   UNL A   1      38.983  33.269  35.196  1.00  0.00     0.049 A 
ATOM     59  H   UNL A   1      39.625  31.883  33.741  1.00  0.00     0.167 HD
ATOM     60  C   UNL A   1      40.881  32.096  36.283  1.00  0.00     0.074 A 
ATOM     61  C   UNL A   1      41.793  31.870  37.385  1.00  0.00     0.031 C 
ATOM     62  C   UNL A   1      39.889  33.021  36.290  1.00  0.00     0.037 A 
BRANCH  49  63
ATOM     63  C   UNL A   1      36.610  33.279  31.052  1.00  0.00     0.058 A 
ATOM     64  C   UNL A   1      36.888  34.183  30.013  1.00  0.00     0.135 A 
ATOM     65  C   UNL A   1      35.262  32.987  31.319  1.00  0.00     0.135 A 
ATOM     66  F   UNL A   1      38.157  34.513  29.725  1.00  0.00    -0.206 F 
ATOM     67  C   UNL A   1      35.871  34.800  29.292  1.00  0.00     0.059 A 
ATOM     68  C   UNL A   1      34.229  33.567  30.586  1.00  0.00     0.059 A 
ATOM     69  F   UNL A   1      34.937  32.131  32.299  1.00  0.00    -0.206 F 
ATOM     70  C   UNL A   1      34.544  34.483  29.584  1.00  0.00     0.060 A 
BRANCH  70  71
ATOM     71  S   UNL A   1      33.238  35.285  28.632  1.00  0.00     0.124 S 
ATOM     72  O   UNL A   1      34.015  36.119  27.718  1.00  0.00    -0.237 OA
ATOM     73  O   UNL A   1      32.552  34.149  28.024  1.00  0.00    -0.237 OA
ATOM     74  O   UNL A   1      32.474  36.009  29.643  1.00  0.00    -0.744 OA
ENDBRANCH  70  71
ENDBRANCH  49  63
BRANCH  50  75
ATOM     75  C   UNL A   1      44.172  28.758  35.801  1.00  0.00     0.058 A 
ATOM     76  C   UNL A   1      45.487  29.205  35.598  1.00  0.00     0.135 A 
ATOM     77  C   UNL A   1      43.978  27.694  36.696  1.00  0.00     0.135 A 
ATOM     78  F   UNL A   1      45.727  30.215  34.749  1.00  0.00    -0.206 F 
ATOM     79  C   UNL A   1      46.569  28.610  36.241  1.00  0.00     0.059 A 
ATOM     80  C   UNL A   1      45.041  27.100  37.371  1.00  0.00     0.059 A 
ATOM     81  F   UNL A   1      42.739  27.239  36.942  1.00  0.00    -0.206 F 
ATOM     82  C   UNL A   1      46.334  27.559  37.128  1.00  0.00     0.060 A 
BRANCH  82  83
ATOM     83  S   UNL A   1      47.741  26.826  37.993  1.00  0.00     0.124 S 
ATOM     84  O   UNL A   1      48.264  27.973  38.726  1.00  0.00    -0.237 OA
ATOM     85  O   UNL A   1      47.100  25.790  38.797  1.00  0.00    -0.237 OA
ATOM     86  O   UNL A   1      48.582  26.334  36.905  1.00  0.00    -0.744 OA
ENDBRANCH  82  83
ENDBRANCH  50  75
BRANCH  62  87
ATOM     87  C   UNL A   1      39.699  33.830  37.543  1.00  0.00     0.058 A 
ATOM     88  C   UNL A   1      38.806  33.435  38.551  1.00  0.00     0.135 A 
ATOM     89  C   UNL A   1      40.475  34.979  37.766  1.00  0.00     0.135 A 
ATOM     90  F   UNL A   1      38.036  32.348  38.384  1.00  0.00    -0.206 F 
ATOM     91  C   UNL A   1      38.675  34.163  39.729  1.00  0.00     0.059 A 
ATOM     92  C   UNL A   1      40.383  35.704  38.949  1.00  0.00     0.059 A 
ATOM     93  F   UNL A   1      41.353  35.393  36.838  1.00  0.00    -0.206 F 
ATOM     94  C   UNL A   1      39.471  35.293  39.920  1.00  0.00     0.060 A 
BRANCH  94  95
ATOM     95  S   UNL A   1      39.324  36.201  41.474  1.00  0.00     0.124 S 
ATOM     96  O   UNL A   1      38.259  35.464  42.145  1.00  0.00    -0.237 OA
ATOM     97  O   UNL A   1      40.658  36.053  42.048  1.00  0.00    -0.237 OA
ATOM     98  O   UNL A   1      38.979  37.554  41.047  1.00  0.00    -0.744 OA
ENDBRANCH  94  95
ENDBRANCH  62  87
ENDBRANCH  36  37
ENDBRANCH  28  31
ENDBRANCH  26  27
ENDBRANCH   1  26
TORSDOF 16
ENDMDL
