MODEL 1
REMARK VINA RESULT:     -12.3      0.000      0.000
REMARK SMILES CC(=O)Nc1ccc(/C=N/c2ccccc2C(=O)NCCCNC(=O)c2ccc(-c3c4nc(c(-c5c(F)cc(S(=O)(=O)[O-])cc5F)c5ccc([nH]5)c(-c5c(F)cc(S(=O)(=O)[O-])cc5F)c5nc(c(-c6c(F)cc(S(=O)(=O)[O-])cc6F)c6ccc3[nH]6)C=C5)C=C4)cc2)cc1
REMARK SMILES IDX 21 1 20 2 19 3 17 4 18 5 16 7 11 8 12 9 13 10 15 11 14 12
REMARK SMILES IDX 10 13 9 14 8 15 5 16 6 17 93 18 7 19 92 20 4 21 1 22 2 23
REMARK SMILES IDX 3 24 22 26 23 27 24 28 25 30 26 31 27 32 91 33 28 34 90 35
REMARK SMILES IDX 29 36 30 37 31 38 84 39 32 40 89 41 83 42 85 43 33 44 88 45
REMARK SMILES IDX 82 46 81 47 34 49 68 50 47 51 67 52 48 53 51 54 66 55 86 56
REMARK SMILES IDX 49 57 50 58 65 60 87 61 52 62 35 63 36 64 45 65 37 66 38 67
REMARK SMILES IDX 44 68 46 69 39 70 40 71 41 72 42 73 43 74 69 75 70 76 79 77
REMARK SMILES IDX 71 78 72 79 78 80 80 81 73 82 74 83 75 84 76 85 77 86 53 87
REMARK SMILES IDX 54 88 63 89 55 90 56 91 62 92 64 93 57 94 58 95 59 96 60 97
REMARK SMILES IDX 61 98
REMARK H PARENT 19 6 4 25 23 29 85 48 51 59
REMARK Flexibility Score: inf
ROOT
ATOM      1  C   UNL A   1      34.457  27.910  25.996  1.00  0.00     0.042 C 
ENDROOT
BRANCH   1   2
ATOM      2  C   UNL A   1      33.629  27.583  24.773  1.00  0.00     0.118 C 
BRANCH   2   3
ATOM      3  N   UNL A   1      33.979  26.394  24.035  1.00  0.00    -0.352 N 
ATOM      4  C   UNL A   1      33.297  25.205  23.945  1.00  0.00     0.253 C 
ATOM      5  O   UNL A   1      33.657  24.416  23.066  1.00  0.00    -0.269 OA
ATOM      6  H   UNL A   1      34.823  26.441  23.528  1.00  0.00     0.163 HD
BRANCH   4   7
ATOM      7  C   UNL A   1      32.231  24.761  24.895  1.00  0.00     0.065 A 
ATOM      8  C   UNL A   1      30.969  25.348  25.133  1.00  0.00     0.076 A 
ATOM      9  C   UNL A   1      30.141  24.785  26.121  1.00  0.00     0.029 A 
ATOM     10  C   UNL A   1      30.510  23.643  26.832  1.00  0.00     0.002 A 
ATOM     11  C   UNL A   1      32.574  23.585  25.604  1.00  0.00     0.016 A 
ATOM     12  C   UNL A   1      31.726  23.033  26.564  1.00  0.00     0.001 A 
BRANCH   8  13
ATOM     13  N   UNL A   1      30.487  26.538  24.568  1.00  0.00    -0.255 NA
ATOM     14  C   UNL A   1      29.397  26.532  23.873  1.00  0.00     0.119 C 
BRANCH  14  15
ATOM     15  C   UNL A   1      29.008  27.745  23.114  1.00  0.00    -0.007 A 
ATOM     16  C   UNL A   1      28.429  30.252  21.963  1.00  0.00     0.041 A 
ATOM     17  C   UNL A   1      27.444  29.539  22.661  1.00  0.00     0.027 A 
ATOM     18  C   UNL A   1      29.709  29.702  21.878  1.00  0.00     0.027 A 
ATOM     19  C   UNL A   1      27.728  28.295  23.235  1.00  0.00     0.012 A 
ATOM     20  C   UNL A   1      29.999  28.450  22.438  1.00  0.00     0.012 A 
BRANCH  16  21
ATOM     21  N   UNL A   1      28.046  31.505  21.450  1.00  0.00    -0.326 N 
ATOM     22  C   UNL A   1      29.013  33.136  23.086  1.00  0.00     0.114 C 
ATOM     23  C   UNL A   1      28.173  32.788  21.894  1.00  0.00     0.221 C 
ATOM     24  O   UNL A   1      27.605  33.679  21.255  1.00  0.00    -0.275 OA
ATOM     25  H   UNL A   1      27.586  31.441  20.582  1.00  0.00     0.169 HD
ENDBRANCH  16  21
ENDBRANCH  14  15
ENDBRANCH   8  13
ENDBRANCH   4   7
ENDBRANCH   2   3
ENDBRANCH   1   2
BRANCH   1  26
ATOM     26  C   UNL A   1      33.667  28.166  27.270  1.00  0.00     0.118 C 
BRANCH  26  27
ATOM     27  N   UNL A   1      33.475  29.571  27.622  1.00  0.00    -0.352 N 
ATOM     28  C   UNL A   1      34.344  30.538  28.072  1.00  0.00     0.251 C 
ATOM     29  H   UNL A   1      32.547  29.886  27.517  1.00  0.00     0.163 HD
ATOM     30  O   UNL A   1      33.931  31.684  28.257  1.00  0.00    -0.269 OA
BRANCH  28  31
ATOM     31  C   UNL A   1      35.753  30.211  28.377  1.00  0.00     0.039 A 
ATOM     32  C   UNL A   1      36.077  29.651  29.618  1.00  0.00     0.014 A 
ATOM     33  C   UNL A   1      36.763  30.467  27.455  1.00  0.00     0.014 A 
ATOM     34  C   UNL A   1      37.389  29.259  29.891  1.00  0.00     0.010 A 
ATOM     35  C   UNL A   1      38.041  29.972  27.674  1.00  0.00     0.010 A 
ATOM     36  C   UNL A   1      38.373  29.380  28.902  1.00  0.00    -0.014 A 
BRANCH  36  37
ATOM     37  C   UNL A   1      39.790  29.012  29.140  1.00  0.00     0.031 A 
ATOM     38  C   UNL A   1      40.725  30.073  29.656  1.00  0.00     0.074 A 
ATOM     39  C   UNL A   1      40.244  27.788  28.811  1.00  0.00     0.049 A 
ATOM     40  N   UNL A   1      42.029  30.080  29.703  1.00  0.00    -0.248 NA
ATOM     41  C   UNL A   1      40.101  31.323  30.128  1.00  0.00     0.031 C 
ATOM     42  C   UNL A   1      39.428  26.689  28.288  1.00  0.00     0.029 A 
ATOM     43  N   UNL A   1      41.514  27.267  28.844  1.00  0.00    -0.354 N 
ATOM     44  C   UNL A   1      42.380  31.349  30.153  1.00  0.00     0.074 A 
ATOM     45  C   UNL A   1      41.156  32.098  30.315  1.00  0.00     0.031 C 
ATOM     46  C   UNL A   1      40.214  25.623  28.067  1.00  0.00     0.029 A 
ATOM     47  C   UNL A   1      41.595  25.978  28.373  1.00  0.00     0.049 A 
ATOM     48  H   UNL A   1      42.293  27.770  29.174  1.00  0.00     0.167 HD
ATOM     49  C   UNL A   1      43.614  31.835  30.425  1.00  0.00     0.037 A 
ATOM     50  C   UNL A   1      42.669  25.186  28.189  1.00  0.00     0.037 A 
ATOM     51  C   UNL A   1      44.810  31.042  30.321  1.00  0.00     0.049 A 
ATOM     52  C   UNL A   1      44.029  25.734  28.532  1.00  0.00     0.074 A 
ATOM     53  C   UNL A   1      46.111  31.399  30.624  1.00  0.00     0.029 A 
ATOM     54  N   UNL A   1      44.844  29.721  29.894  1.00  0.00    -0.354 N 
ATOM     55  N   UNL A   1      44.350  26.932  28.967  1.00  0.00    -0.248 NA
ATOM     56  C   UNL A   1      45.174  24.830  28.363  1.00  0.00     0.031 C 
ATOM     57  C   UNL A   1      46.936  30.304  30.345  1.00  0.00     0.029 A 
ATOM     58  C   UNL A   1      46.144  29.249  29.917  1.00  0.00     0.049 A 
ATOM     59  H   UNL A   1      44.058  29.196  29.616  1.00  0.00     0.167 HD
ATOM     60  C   UNL A   1      45.728  26.918  29.143  1.00  0.00     0.074 A 
ATOM     61  C   UNL A   1      46.178  25.588  28.784  1.00  0.00     0.031 C 
ATOM     62  C   UNL A   1      46.552  27.911  29.562  1.00  0.00     0.037 A 
BRANCH  49  63
ATOM     63  C   UNL A   1      43.723  33.275  30.849  1.00  0.00     0.058 A 
ATOM     64  C   UNL A   1      43.792  34.324  29.918  1.00  0.00     0.135 A 
ATOM     65  C   UNL A   1      43.759  33.613  32.213  1.00  0.00     0.135 A 
ATOM     66  F   UNL A   1      43.783  34.062  28.601  1.00  0.00    -0.206 F 
ATOM     67  C   UNL A   1      43.934  35.649  30.320  1.00  0.00     0.059 A 
ATOM     68  C   UNL A   1      43.865  34.934  32.638  1.00  0.00     0.059 A 
ATOM     69  F   UNL A   1      43.701  32.653  33.149  1.00  0.00    -0.206 F 
ATOM     70  C   UNL A   1      43.970  35.944  31.683  1.00  0.00     0.060 A 
BRANCH  70  71
ATOM     71  S   UNL A   1      44.154  37.668  32.188  1.00  0.00     0.124 S 
ATOM     72  O   UNL A   1      45.561  37.709  32.575  1.00  0.00    -0.237 OA
ATOM     73  O   UNL A   1      43.811  38.389  30.966  1.00  0.00    -0.237 OA
ATOM     74  O   UNL A   1      43.199  37.805  33.282  1.00  0.00    -0.744 OA
ENDBRANCH  70  71
ENDBRANCH  49  63
BRANCH  50  75
ATOM     75  C   UNL A   1      42.500  23.802  27.666  1.00  0.00     0.058 A 
ATOM     76  C   UNL A   1      42.434  22.703  28.535  1.00  0.00     0.135 A 
ATOM     77  C   UNL A   1      42.371  23.550  26.290  1.00  0.00     0.135 A 
ATOM     78  F   UNL A   1      42.558  22.887  29.858  1.00  0.00    -0.206 F 
ATOM     79  C   UNL A   1      42.259  21.405  28.063  1.00  0.00     0.059 A 
ATOM     80  C   UNL A   1      42.168  22.265  25.795  1.00  0.00     0.059 A 
ATOM     81  F   UNL A   1      42.409  24.565  25.413  1.00  0.00    -0.206 F 
ATOM     82  C   UNL A   1      42.120  21.196  26.690  1.00  0.00     0.060 A 
BRANCH  82  83
ATOM     83  S   UNL A   1      41.832  19.516  26.093  1.00  0.00     0.124 S 
ATOM     84  O   UNL A   1      40.395  19.535  25.842  1.00  0.00    -0.237 OA
ATOM     85  O   UNL A   1      42.685  19.460  24.910  1.00  0.00    -0.237 OA
ATOM     86  O   UNL A   1      42.267  18.683  27.210  1.00  0.00    -0.744 OA
ENDBRANCH  82  83
ENDBRANCH  50  75
BRANCH  62  87
ATOM     87  C   UNL A   1      48.011  27.583  29.691  1.00  0.00     0.058 A 
ATOM     88  C   UNL A   1      48.929  27.892  28.676  1.00  0.00     0.135 A 
ATOM     89  C   UNL A   1      48.504  27.008  30.874  1.00  0.00     0.135 A 
ATOM     90  F   UNL A   1      48.507  28.439  27.525  1.00  0.00    -0.206 F 
ATOM     91  C   UNL A   1      50.285  27.619  28.819  1.00  0.00     0.059 A 
ATOM     92  C   UNL A   1      49.859  26.753  31.050  1.00  0.00     0.059 A 
ATOM     93  F   UNL A   1      47.668  26.707  31.879  1.00  0.00    -0.206 F 
ATOM     94  C   UNL A   1      50.741  27.051  30.011  1.00  0.00     0.060 A 
BRANCH  94  95
ATOM     95  S   UNL A   1      52.507  26.733  30.197  1.00  0.00     0.124 S 
ATOM     96  O   UNL A   1      52.511  25.705  31.232  1.00  0.00    -0.237 OA
ATOM     97  O   UNL A   1      52.886  26.288  28.860  1.00  0.00    -0.237 OA
ATOM     98  O   UNL A   1      53.046  28.030  30.596  1.00  0.00    -0.744 OA
ENDBRANCH  94  95
ENDBRANCH  62  87
ENDBRANCH  36  37
ENDBRANCH  28  31
ENDBRANCH  26  27
ENDBRANCH   1  26
TORSDOF 16
ENDMDL
MODEL 2
REMARK VINA RESULT:     -12.3      2.988      8.849
REMARK SMILES CC(=O)Nc1ccc(/C=N/c2ccccc2C(=O)NCCCNC(=O)c2ccc(-c3c4nc(c(-c5c(F)cc(S(=O)(=O)[O-])cc5F)c5ccc([nH]5)c(-c5c(F)cc(S(=O)(=O)[O-])cc5F)c5nc(c(-c6c(F)cc(S(=O)(=O)[O-])cc6F)c6ccc3[nH]6)C=C5)C=C4)cc2)cc1
REMARK SMILES IDX 21 1 20 2 19 3 17 4 18 5 16 7 11 8 12 9 13 10 15 11 14 12
REMARK SMILES IDX 10 13 9 14 8 15 5 16 6 17 93 18 7 19 92 20 4 21 1 22 2 23
REMARK SMILES IDX 3 24 22 26 23 27 24 28 25 30 26 31 27 32 91 33 28 34 90 35
REMARK SMILES IDX 29 36 30 37 31 38 84 39 32 40 89 41 83 42 85 43 33 44 88 45
REMARK SMILES IDX 82 46 81 47 34 49 68 50 47 51 67 52 48 53 51 54 66 55 86 56
REMARK SMILES IDX 49 57 50 58 65 60 87 61 52 62 35 63 36 64 45 65 37 66 38 67
REMARK SMILES IDX 44 68 46 69 39 70 40 71 41 72 42 73 43 74 69 75 70 76 79 77
REMARK SMILES IDX 71 78 72 79 78 80 80 81 73 82 74 83 75 84 76 85 77 86 53 87
REMARK SMILES IDX 54 88 63 89 55 90 56 91 62 92 64 93 57 94 58 95 59 96 60 97
REMARK SMILES IDX 61 98
REMARK H PARENT 19 6 4 25 23 29 85 48 51 59
REMARK Flexibility Score: inf
ROOT
ATOM      1  C   UNL A   1      35.969  23.652  23.862  1.00  0.00     0.042 C 
ENDROOT
BRANCH   1   2
ATOM      2  C   UNL A   1      34.571  24.232  23.870  1.00  0.00     0.118 C 
BRANCH   2   3
ATOM      3  N   UNL A   1      34.392  25.515  24.506  1.00  0.00    -0.352 N 
ATOM      4  C   UNL A   1      33.515  25.864  25.506  1.00  0.00     0.253 C 
ATOM      5  O   UNL A   1      33.704  26.950  26.063  1.00  0.00    -0.269 OA
ATOM      6  H   UNL A   1      34.976  26.238  24.180  1.00  0.00     0.163 HD
BRANCH   4   7
ATOM      7  C   UNL A   1      32.302  25.078  25.887  1.00  0.00     0.065 A 
ATOM      8  C   UNL A   1      30.948  25.362  25.604  1.00  0.00     0.076 A 
ATOM      9  C   UNL A   1      29.960  24.501  26.113  1.00  0.00     0.029 A 
ATOM     10  C   UNL A   1      30.281  23.356  26.843  1.00  0.00     0.002 A 
ATOM     11  C   UNL A   1      32.610  23.895  26.602  1.00  0.00     0.016 A 
ATOM     12  C   UNL A   1      31.612  23.045  27.077  1.00  0.00     0.001 A 
BRANCH   8  13
ATOM     13  N   UNL A   1      30.458  26.509  24.961  1.00  0.00    -0.255 NA
ATOM     14  C   UNL A   1      29.491  26.411  24.108  1.00  0.00     0.119 C 
BRANCH  14  15
ATOM     15  C   UNL A   1      29.120  27.590  23.288  1.00  0.00    -0.007 A 
ATOM     16  C   UNL A   1      28.552  30.043  22.022  1.00  0.00     0.041 A 
ATOM     17  C   UNL A   1      27.544  29.328  22.684  1.00  0.00     0.027 A 
ATOM     18  C   UNL A   1      29.847  29.524  22.032  1.00  0.00     0.027 A 
ATOM     19  C   UNL A   1      27.822  28.109  23.315  1.00  0.00     0.012 A 
ATOM     20  C   UNL A   1      30.133  28.297  22.649  1.00  0.00     0.012 A 
BRANCH  16  21
ATOM     21  N   UNL A   1      28.171  31.269  21.447  1.00  0.00    -0.326 N 
ATOM     22  C   UNL A   1      28.913  32.969  23.128  1.00  0.00     0.114 C 
ATOM     23  C   UNL A   1      28.205  32.564  21.871  1.00  0.00     0.221 C 
ATOM     24  O   UNL A   1      27.665  33.419  21.160  1.00  0.00    -0.275 OA
ATOM     25  H   UNL A   1      27.798  31.169  20.541  1.00  0.00     0.169 HD
ENDBRANCH  16  21
ENDBRANCH  14  15
ENDBRANCH   8  13
ENDBRANCH   4   7
ENDBRANCH   2   3
ENDBRANCH   1   2
BRANCH   1  26
ATOM     26  C   UNL A   1      36.724  23.751  25.178  1.00  0.00     0.118 C 
BRANCH  26  27
ATOM     27  N   UNL A   1      37.872  22.857  25.316  1.00  0.00    -0.352 N 
ATOM     28  C   UNL A   1      39.047  22.966  26.024  1.00  0.00     0.251 C 
ATOM     29  H   UNL A   1      37.788  22.019  24.806  1.00  0.00     0.163 HD
ATOM     30  O   UNL A   1      39.851  22.033  26.007  1.00  0.00    -0.269 OA
BRANCH  28  31
ATOM     31  C   UNL A   1      39.377  24.201  26.764  1.00  0.00     0.039 A 
ATOM     32  C   UNL A   1      38.893  24.374  28.066  1.00  0.00     0.014 A 
ATOM     33  C   UNL A   1      40.149  25.201  26.181  1.00  0.00     0.014 A 
ATOM     34  C   UNL A   1      39.265  25.496  28.810  1.00  0.00     0.010 A 
ATOM     35  C   UNL A   1      40.617  26.254  26.954  1.00  0.00     0.010 A 
ATOM     36  C   UNL A   1      40.164  26.425  28.271  1.00  0.00    -0.014 A 
BRANCH  36  37
ATOM     37  C   UNL A   1      40.573  27.651  28.998  1.00  0.00     0.031 A 
ATOM     38  C   UNL A   1      41.894  27.644  29.720  1.00  0.00     0.074 A 
ATOM     39  C   UNL A   1      39.738  28.704  29.089  1.00  0.00     0.049 A 
ATOM     40  N   UNL A   1      42.355  28.472  30.617  1.00  0.00    -0.248 NA
ATOM     41  C   UNL A   1      42.792  26.511  29.431  1.00  0.00     0.031 C 
ATOM     42  C   UNL A   1      38.428  28.810  28.443  1.00  0.00     0.029 A 
ATOM     43  N   UNL A   1      39.859  29.881  29.784  1.00  0.00    -0.354 N 
ATOM     44  C   UNL A   1      43.565  27.930  31.039  1.00  0.00     0.074 A 
ATOM     45  C   UNL A   1      43.740  26.679  30.338  1.00  0.00     0.031 C 
ATOM     46  C   UNL A   1      37.875  29.992  28.758  1.00  0.00     0.029 A 
ATOM     47  C   UNL A   1      38.761  30.703  29.674  1.00  0.00     0.049 A 
ATOM     48  H   UNL A   1      40.655  30.115  30.312  1.00  0.00     0.167 HD
ATOM     49  C   UNL A   1      44.457  28.444  31.918  1.00  0.00     0.037 A 
ATOM     50  C   UNL A   1      38.495  31.882  30.268  1.00  0.00     0.037 A 
ATOM     51  C   UNL A   1      44.289  29.726  32.549  1.00  0.00     0.049 A 
ATOM     52  C   UNL A   1      39.517  32.453  31.215  1.00  0.00     0.074 A 
ATOM     53  C   UNL A   1      45.147  30.383  33.410  1.00  0.00     0.029 A 
ATOM     54  N   UNL A   1      43.188  30.553  32.366  1.00  0.00    -0.354 N 
ATOM     55  N   UNL A   1      40.663  31.938  31.599  1.00  0.00    -0.248 NA
ATOM     56  C   UNL A   1      39.217  33.762  31.809  1.00  0.00     0.031 C 
ATOM     57  C   UNL A   1      44.549  31.592  33.778  1.00  0.00     0.029 A 
ATOM     58  C   UNL A   1      43.341  31.712  33.107  1.00  0.00     0.049 A 
ATOM     59  H   UNL A   1      42.414  30.347  31.795  1.00  0.00     0.167 HD
ATOM     60  C   UNL A   1      41.230  32.868  32.462  1.00  0.00     0.074 A 
ATOM     61  C   UNL A   1      40.308  33.984  32.530  1.00  0.00     0.031 C 
ATOM     62  C   UNL A   1      42.404  32.809  33.140  1.00  0.00     0.037 A 
BRANCH  49  63
ATOM     63  C   UNL A   1      45.674  27.620  32.244  1.00  0.00     0.058 A 
ATOM     64  C   UNL A   1      45.677  26.669  33.278  1.00  0.00     0.135 A 
ATOM     65  C   UNL A   1      46.861  27.784  31.510  1.00  0.00     0.135 A 
ATOM     66  F   UNL A   1      44.578  26.482  34.027  1.00  0.00    -0.206 F 
ATOM     67  C   UNL A   1      46.819  25.941  33.598  1.00  0.00     0.059 A 
ATOM     68  C   UNL A   1      48.005  27.042  31.790  1.00  0.00     0.059 A 
ATOM     69  F   UNL A   1      46.921  28.681  30.513  1.00  0.00    -0.206 F 
ATOM     70  C   UNL A   1      47.979  26.136  32.849  1.00  0.00     0.060 A 
BRANCH  70  71
ATOM     71  S   UNL A   1      49.453  25.184  33.276  1.00  0.00     0.124 S 
ATOM     72  O   UNL A   1      50.277  26.199  33.926  1.00  0.00    -0.237 OA
ATOM     73  O   UNL A   1      48.913  24.150  34.154  1.00  0.00    -0.237 OA
ATOM     74  O   UNL A   1      49.940  24.713  31.985  1.00  0.00    -0.744 OA
ENDBRANCH  70  71
ENDBRANCH  49  63
BRANCH  50  75
ATOM     75  C   UNL A   1      37.221  32.597  29.979  1.00  0.00     0.058 A 
ATOM     76  C   UNL A   1      36.046  32.294  30.683  1.00  0.00     0.135 A 
ATOM     77  C   UNL A   1      37.155  33.616  29.015  1.00  0.00     0.135 A 
ATOM     78  F   UNL A   1      36.052  31.324  31.610  1.00  0.00    -0.206 F 
ATOM     79  C   UNL A   1      34.851  32.965  30.437  1.00  0.00     0.059 A 
ATOM     80  C   UNL A   1      35.979  34.320  28.769  1.00  0.00     0.059 A 
ATOM     81  F   UNL A   1      38.252  33.959  28.322  1.00  0.00    -0.206 F 
ATOM     82  C   UNL A   1      34.829  33.981  29.481  1.00  0.00     0.060 A 
BRANCH  82  83
ATOM     83  S   UNL A   1      33.289  34.887  29.213  1.00  0.00     0.124 S 
ATOM     84  O   UNL A   1      32.725  34.915  30.557  1.00  0.00    -0.237 OA
ATOM     85  O   UNL A   1      33.770  36.164  28.696  1.00  0.00    -0.237 OA
ATOM     86  O   UNL A   1      32.575  34.057  28.246  1.00  0.00    -0.744 OA
ENDBRANCH  82  83
ENDBRANCH  50  75
BRANCH  62  87
ATOM     87  C   UNL A   1      42.772  33.999  33.979  1.00  0.00     0.058 A 
ATOM     88  C   UNL A   1      42.370  34.109  35.319  1.00  0.00     0.135 A 
ATOM     89  C   UNL A   1      43.589  35.010  33.449  1.00  0.00     0.135 A 
ATOM     90  F   UNL A   1      41.585  33.170  35.869  1.00  0.00    -0.206 F 
ATOM     91  C   UNL A   1      42.746  35.196  36.099  1.00  0.00     0.059 A 
ATOM     92  C   UNL A   1      44.002  36.092  34.220  1.00  0.00     0.059 A 
ATOM     93  F   UNL A   1      44.011  34.944  32.177  1.00  0.00    -0.206 F 
ATOM     94  C   UNL A   1      43.564  36.181  35.541  1.00  0.00     0.060 A 
BRANCH  94  95
ATOM     95  S   UNL A   1      44.074  37.570  36.575  1.00  0.00     0.124 S 
ATOM     96  O   UNL A   1      43.900  38.694  35.661  1.00  0.00    -0.237 OA
ATOM     97  O   UNL A   1      43.124  37.499  37.681  1.00  0.00    -0.237 OA
ATOM     98  O   UNL A   1      45.455  37.248  36.922  1.00  0.00    -0.744 OA
ENDBRANCH  94  95
ENDBRANCH  62  87
ENDBRANCH  36  37
ENDBRANCH  28  31
ENDBRANCH  26  27
ENDBRANCH   1  26
TORSDOF 16
ENDMDL
MODEL 3
REMARK VINA RESULT:     -12.1      1.719      4.385
REMARK SMILES CC(=O)Nc1ccc(/C=N/c2ccccc2C(=O)NCCCNC(=O)c2ccc(-c3c4nc(c(-c5c(F)cc(S(=O)(=O)[O-])cc5F)c5ccc([nH]5)c(-c5c(F)cc(S(=O)(=O)[O-])cc5F)c5nc(c(-c6c(F)cc(S(=O)(=O)[O-])cc6F)c6ccc3[nH]6)C=C5)C=C4)cc2)cc1
REMARK SMILES IDX 21 1 20 2 19 3 17 4 18 5 16 7 11 8 12 9 13 10 15 11 14 12
REMARK SMILES IDX 10 13 9 14 8 15 5 16 6 17 93 18 7 19 92 20 4 21 1 22 2 23
REMARK SMILES IDX 3 24 22 26 23 27 24 28 25 30 26 31 27 32 91 33 28 34 90 35
REMARK SMILES IDX 29 36 30 37 31 38 84 39 32 40 89 41 83 42 85 43 33 44 88 45
REMARK SMILES IDX 82 46 81 47 34 49 68 50 47 51 67 52 48 53 51 54 66 55 86 56
REMARK SMILES IDX 49 57 50 58 65 60 87 61 52 62 35 63 36 64 45 65 37 66 38 67
REMARK SMILES IDX 44 68 46 69 39 70 40 71 41 72 42 73 43 74 69 75 70 76 79 77
REMARK SMILES IDX 71 78 72 79 78 80 80 81 73 82 74 83 75 84 76 85 77 86 53 87
REMARK SMILES IDX 54 88 63 89 55 90 56 91 62 92 64 93 57 94 58 95 59 96 60 97
REMARK SMILES IDX 61 98
REMARK H PARENT 19 6 4 25 23 29 85 48 51 59
REMARK Flexibility Score: inf
ROOT
ATOM      1  C   UNL A   1      33.983  28.006  25.595  1.00  0.00     0.042 C 
ENDROOT
BRANCH   1   2
ATOM      2  C   UNL A   1      34.017  26.569  25.121  1.00  0.00     0.118 C 
BRANCH   2   3
ATOM      3  N   UNL A   1      34.051  26.344  23.696  1.00  0.00    -0.352 N 
ATOM      4  C   UNL A   1      33.023  26.429  22.787  1.00  0.00     0.253 C 
ATOM      5  O   UNL A   1      33.332  26.434  21.591  1.00  0.00    -0.269 OA
ATOM      6  H   UNL A   1      34.929  26.095  23.325  1.00  0.00     0.163 HD
BRANCH   4   7
ATOM      7  C   UNL A   1      31.571  26.409  23.140  1.00  0.00     0.065 A 
ATOM      8  C   UNL A   1      30.812  25.342  23.669  1.00  0.00     0.076 A 
ATOM      9  C   UNL A   1      29.434  25.536  23.877  1.00  0.00     0.029 A 
ATOM     10  C   UNL A   1      28.812  26.758  23.621  1.00  0.00     0.002 A 
ATOM     11  C   UNL A   1      30.929  27.651  22.917  1.00  0.00     0.016 A 
ATOM     12  C   UNL A   1      29.565  27.824  23.151  1.00  0.00     0.001 A 
BRANCH   8  13
ATOM     13  N   UNL A   1      31.265  24.035  23.900  1.00  0.00    -0.255 NA
ATOM     14  C   UNL A   1      32.028  23.782  24.913  1.00  0.00     0.119 C 
BRANCH  14  15
ATOM     15  C   UNL A   1      32.664  22.447  25.031  1.00  0.00    -0.007 A 
ATOM     16  C   UNL A   1      33.852  19.896  24.870  1.00  0.00     0.041 A 
ATOM     17  C   UNL A   1      32.493  20.035  25.188  1.00  0.00     0.027 A 
ATOM     18  C   UNL A   1      34.592  21.050  24.607  1.00  0.00     0.027 A 
ATOM     19  C   UNL A   1      31.900  21.301  25.269  1.00  0.00     0.012 A 
ATOM     20  C   UNL A   1      34.009  22.322  24.698  1.00  0.00     0.012 A 
BRANCH  16  21
ATOM     21  N   UNL A   1      34.341  18.580  24.788  1.00  0.00    -0.326 N 
ATOM     22  C   UNL A   1      33.179  17.639  22.780  1.00  0.00     0.114 C 
ATOM     23  C   UNL A   1      34.058  17.514  23.987  1.00  0.00     0.221 C 
ATOM     24  O   UNL A   1      34.587  16.430  24.259  1.00  0.00    -0.275 OA
ATOM     25  H   UNL A   1      35.039  18.387  25.456  1.00  0.00     0.169 HD
ENDBRANCH  16  21
ENDBRANCH  14  15
ENDBRANCH   8  13
ENDBRANCH   4   7
ENDBRANCH   2   3
ENDBRANCH   1   2
BRANCH   1  26
ATOM     26  C   UNL A   1      33.759  28.194  27.087  1.00  0.00     0.118 C 
BRANCH  26  27
ATOM     27  N   UNL A   1      33.539  29.572  27.523  1.00  0.00    -0.352 N 
ATOM     28  C   UNL A   1      34.388  30.522  28.044  1.00  0.00     0.251 C 
ATOM     29  H   UNL A   1      32.609  29.879  27.425  1.00  0.00     0.163 HD
ATOM     30  O   UNL A   1      33.954  31.648  28.295  1.00  0.00    -0.269 OA
BRANCH  28  31
ATOM     31  C   UNL A   1      35.797  30.198  28.348  1.00  0.00     0.039 A 
ATOM     32  C   UNL A   1      36.133  29.705  29.614  1.00  0.00     0.014 A 
ATOM     33  C   UNL A   1      36.797  30.393  27.400  1.00  0.00     0.014 A 
ATOM     34  C   UNL A   1      37.446  29.314  29.889  1.00  0.00     0.010 A 
ATOM     35  C   UNL A   1      38.073  29.897  27.628  1.00  0.00     0.010 A 
ATOM     36  C   UNL A   1      38.417  29.371  28.882  1.00  0.00    -0.014 A 
BRANCH  36  37
ATOM     37  C   UNL A   1      39.833  29.001  29.122  1.00  0.00     0.031 A 
ATOM     38  C   UNL A   1      40.769  30.062  29.638  1.00  0.00     0.074 A 
ATOM     39  C   UNL A   1      40.287  27.777  28.792  1.00  0.00     0.049 A 
ATOM     40  N   UNL A   1      42.072  30.068  29.686  1.00  0.00    -0.248 NA
ATOM     41  C   UNL A   1      40.145  31.312  30.110  1.00  0.00     0.031 C 
ATOM     42  C   UNL A   1      39.471  26.679  28.269  1.00  0.00     0.029 A 
ATOM     43  N   UNL A   1      41.556  27.256  28.826  1.00  0.00    -0.354 N 
ATOM     44  C   UNL A   1      42.424  31.337  30.136  1.00  0.00     0.074 A 
ATOM     45  C   UNL A   1      41.200  32.087  30.297  1.00  0.00     0.031 C 
ATOM     46  C   UNL A   1      40.256  25.613  28.047  1.00  0.00     0.029 A 
ATOM     47  C   UNL A   1      41.637  25.967  28.355  1.00  0.00     0.049 A 
ATOM     48  H   UNL A   1      42.335  27.759  29.156  1.00  0.00     0.167 HD
ATOM     49  C   UNL A   1      43.658  31.822  30.409  1.00  0.00     0.037 A 
ATOM     50  C   UNL A   1      42.711  25.175  28.171  1.00  0.00     0.037 A 
ATOM     51  C   UNL A   1      44.854  31.029  30.306  1.00  0.00     0.049 A 
ATOM     52  C   UNL A   1      44.071  25.721  28.515  1.00  0.00     0.074 A 
ATOM     53  C   UNL A   1      46.154  31.385  30.610  1.00  0.00     0.029 A 
ATOM     54  N   UNL A   1      44.887  29.708  29.879  1.00  0.00    -0.354 N 
ATOM     55  N   UNL A   1      44.392  26.919  28.950  1.00  0.00    -0.248 NA
ATOM     56  C   UNL A   1      45.215  24.817  28.346  1.00  0.00     0.031 C 
ATOM     57  C   UNL A   1      46.979  30.290  30.332  1.00  0.00     0.029 A 
ATOM     58  C   UNL A   1      46.187  29.236  29.903  1.00  0.00     0.049 A 
ATOM     59  H   UNL A   1      44.101  29.184  29.600  1.00  0.00     0.167 HD
ATOM     60  C   UNL A   1      45.770  26.905  29.128  1.00  0.00     0.074 A 
ATOM     61  C   UNL A   1      46.219  25.574  28.768  1.00  0.00     0.031 C 
ATOM     62  C   UNL A   1      46.594  27.898  29.547  1.00  0.00     0.037 A 
BRANCH  49  63
ATOM     63  C   UNL A   1      43.767  33.262  30.834  1.00  0.00     0.058 A 
ATOM     64  C   UNL A   1      43.806  34.314  29.904  1.00  0.00     0.135 A 
ATOM     65  C   UNL A   1      43.835  33.597  32.197  1.00  0.00     0.135 A 
ATOM     66  F   UNL A   1      43.765  34.054  28.587  1.00  0.00    -0.206 F 
ATOM     67  C   UNL A   1      43.948  35.639  30.305  1.00  0.00     0.059 A 
ATOM     68  C   UNL A   1      43.942  34.919  32.622  1.00  0.00     0.059 A 
ATOM     69  F   UNL A   1      43.807  32.635  33.132  1.00  0.00    -0.206 F 
ATOM     70  C   UNL A   1      44.016  35.931  31.667  1.00  0.00     0.060 A 
BRANCH  70  71
ATOM     71  S   UNL A   1      44.201  37.655  32.172  1.00  0.00     0.124 S 
ATOM     72  O   UNL A   1      45.601  37.690  32.582  1.00  0.00    -0.237 OA
ATOM     73  O   UNL A   1      43.882  38.376  30.943  1.00  0.00    -0.237 OA
ATOM     74  O   UNL A   1      43.228  37.799  33.250  1.00  0.00    -0.744 OA
ENDBRANCH  70  71
ENDBRANCH  49  63
BRANCH  50  75
ATOM     75  C   UNL A   1      42.541  23.791  27.647  1.00  0.00     0.058 A 
ATOM     76  C   UNL A   1      42.428  22.697  28.518  1.00  0.00     0.135 A 
ATOM     77  C   UNL A   1      42.459  23.535  26.268  1.00  0.00     0.135 A 
ATOM     78  F   UNL A   1      42.506  22.885  29.844  1.00  0.00    -0.206 F 
ATOM     79  C   UNL A   1      42.251  21.399  28.044  1.00  0.00     0.059 A 
ATOM     80  C   UNL A   1      42.256  22.250  25.771  1.00  0.00     0.059 A 
ATOM     81  F   UNL A   1      42.545  24.545  25.390  1.00  0.00    -0.206 F 
ATOM     82  C   UNL A   1      42.161  21.187  26.668  1.00  0.00     0.060 A 
BRANCH  82  83
ATOM     83  S   UNL A   1      41.870  19.508  26.067  1.00  0.00     0.124 S 
ATOM     84  O   UNL A   1      40.431  19.523  25.834  1.00  0.00    -0.237 OA
ATOM     85  O   UNL A   1      42.710  19.460  24.874  1.00  0.00    -0.237 OA
ATOM     86  O   UNL A   1      42.321  18.671  27.175  1.00  0.00    -0.744 OA
ENDBRANCH  82  83
ENDBRANCH  50  75
BRANCH  62  87
ATOM     87  C   UNL A   1      48.053  27.569  29.677  1.00  0.00     0.058 A 
ATOM     88  C   UNL A   1      48.953  27.775  28.620  1.00  0.00     0.135 A 
ATOM     89  C   UNL A   1      48.566  27.099  30.897  1.00  0.00     0.135 A 
ATOM     90  F   UNL A   1      48.511  28.218  27.433  1.00  0.00    -0.206 F 
ATOM     91  C   UNL A   1      50.309  27.503  28.761  1.00  0.00     0.059 A 
ATOM     92  C   UNL A   1      49.922  26.848  31.070  1.00  0.00     0.059 A 
ATOM     93  F   UNL A   1      47.748  26.899  31.943  1.00  0.00    -0.206 F 
ATOM     94  C   UNL A   1      50.784  27.042  29.991  1.00  0.00     0.060 A 
BRANCH  94  95
ATOM     95  S   UNL A   1      52.552  26.725  30.171  1.00  0.00     0.124 S 
ATOM     96  O   UNL A   1      52.559  25.679  31.188  1.00  0.00    -0.237 OA
ATOM     97  O   UNL A   1      52.931  26.304  28.825  1.00  0.00    -0.237 OA
ATOM     98  O   UNL A   1      53.088  28.016  30.592  1.00  0.00    -0.744 OA
ENDBRANCH  94  95
ENDBRANCH  62  87
ENDBRANCH  36  37
ENDBRANCH  28  31
ENDBRANCH  26  27
ENDBRANCH   1  26
TORSDOF 16
ENDMDL
