MODEL 1
REMARK VINA RESULT:     -12.3      0.000      0.000
REMARK SMILES Cc1ccnc(C(=O)c2[nH]c3ccc(OC(F)(F)F)cc3c2CC(=O)NCCCNC(=O)c2ccc(-c3c4nc(c(-c5c(F)cc(S(=O)(=O)[O-])cc5F)c5ccc([nH]5)c(-c5c(F)cc(S(=O)(=O)[O-])cc5F)c5nc(c(-c6c(F)cc(S(=O)(=O)[O-])cc6F)c6ccc3[nH]6)C=C5)C=C4)cc2)c1
REMARK SMILES IDX 28 1 27 2 26 3 24 4 25 5 23 7 22 8 9 9 10 10 11 11 21 13
REMARK SMILES IDX 12 14 20 15 13 16 14 17 7 18 8 19 6 20 1 21 2 22 3 23 99 24
REMARK SMILES IDX 4 25 5 26 15 27 16 28 17 29 18 30 19 31 29 32 30 33 31 34
REMARK SMILES IDX 32 36 33 37 34 38 98 39 35 40 97 41 36 42 37 43 38 44 91 45
REMARK SMILES IDX 39 46 96 47 90 48 92 49 40 50 95 51 89 52 88 53 41 55 75 56
REMARK SMILES IDX 54 57 74 58 55 59 58 60 73 61 93 62 56 63 57 64 72 66 94 67
REMARK SMILES IDX 59 68 42 69 43 70 52 71 44 72 45 73 51 74 53 75 46 76 47 77
REMARK SMILES IDX 48 78 49 79 50 80 76 81 77 82 86 83 78 84 79 85 85 86 87 87
REMARK SMILES IDX 80 88 81 89 82 90 83 91 84 92 60 93 61 94 70 95 62 96 63 97
REMARK SMILES IDX 69 98 71 99 64 100 65 101 66 102 67 103 68 104
REMARK H PARENT 26 6 10 12 30 35 92 54 58 65
REMARK Flexibility Score: inf
ROOT
ATOM      1  C   UNL A   1      38.226  24.031  25.827  1.00  0.00     0.042 C 
ENDROOT
BRANCH   1   2
ATOM      2  C   UNL A   1      37.028  23.119  25.571  1.00  0.00     0.117 C 
BRANCH   2   3
ATOM      3  N   UNL A   1      36.080  23.652  24.613  1.00  0.00    -0.356 N 
ATOM      4  C   UNL A   1      34.864  24.238  24.823  1.00  0.00     0.224 C 
ATOM      5  O   UNL A   1      34.314  24.795  23.869  1.00  0.00    -0.275 OA
ATOM      6  H   UNL A   1      36.353  23.582  23.669  1.00  0.00     0.163 HD
BRANCH   4   7
ATOM      7  C   UNL A   1      34.262  24.312  26.215  1.00  0.00     0.138 C 
BRANCH   7   8
ATOM      8  C   UNL A   1      33.012  25.136  26.332  1.00  0.00    -0.002 A 
ATOM      9  C   UNL A   1      31.695  24.688  26.346  1.00  0.00     0.093 A 
ATOM     10  N   UNL A   1      30.885  25.786  26.527  1.00  0.00    -0.352 N 
ATOM     11  C   UNL A   1      31.627  26.940  26.526  1.00  0.00     0.046 A 
ATOM     12  H   UNL A   1      29.907  25.749  26.642  1.00  0.00     0.167 HD
ATOM     13  C   UNL A   1      32.961  26.570  26.392  1.00  0.00     0.008 A 
ATOM     14  C   UNL A   1      31.220  28.272  26.650  1.00  0.00     0.030 A 
ATOM     15  C   UNL A   1      33.934  27.592  26.368  1.00  0.00     0.057 A 
ATOM     16  C   UNL A   1      32.208  29.265  26.629  1.00  0.00     0.049 A 
ATOM     17  C   UNL A   1      33.555  28.937  26.488  1.00  0.00     0.130 A 
BRANCH   9  18
ATOM     18  C   UNL A   1      31.177  23.331  26.278  1.00  0.00     0.227 C 
ATOM     19  O   UNL A   1      30.425  22.897  27.146  1.00  0.00    -0.285 OA
BRANCH  18  20
ATOM     20  C   UNL A   1      31.561  22.477  25.092  1.00  0.00     0.113 A 
ATOM     21  C   UNL A   1      32.909  19.038  24.213  1.00  0.00     0.044 C 
ATOM     22  C   UNL A   1      32.396  20.444  24.104  1.00  0.00    -0.047 A 
ATOM     23  C   UNL A   1      32.254  21.045  22.854  1.00  0.00     0.023 A 
ATOM     24  C   UNL A   1      32.025  21.169  25.241  1.00  0.00     0.036 A 
ATOM     25  C   UNL A   1      31.773  22.341  22.791  1.00  0.00     0.112 A 
ATOM     26  N   UNL A   1      31.432  23.067  23.875  1.00  0.00    -0.253 NA
ENDBRANCH  18  20
ENDBRANCH   9  18
BRANCH  17  27
ATOM     27  O   UNL A   1      34.605  29.812  26.454  1.00  0.00    -0.406 OA
BRANCH  27  28
ATOM     28  C   UNL A   1      34.986  30.437  27.668  1.00  0.00     0.573 C 
ATOM     29  F   UNL A   1      35.364  29.524  28.587  1.00  0.00    -0.132 F 
ATOM     30  F   UNL A   1      35.977  31.328  27.468  1.00  0.00    -0.132 F 
ATOM     31  F   UNL A   1      33.915  31.102  28.158  1.00  0.00    -0.132 F 
ENDBRANCH  27  28
ENDBRANCH  17  27
ENDBRANCH   7   8
ENDBRANCH   4   7
ENDBRANCH   2   3
ENDBRANCH   1   2
BRANCH   1  32
ATOM     32  C   UNL A   1      39.299  23.448  26.745  1.00  0.00     0.118 C 
BRANCH  32  33
ATOM     33  N   UNL A   1      40.633  23.537  26.171  1.00  0.00    -0.352 N 
ATOM     34  C   UNL A   1      41.619  24.477  26.345  1.00  0.00     0.251 C 
ATOM     35  H   UNL A   1      40.868  22.803  25.558  1.00  0.00     0.163 HD
ATOM     36  O   UNL A   1      42.605  24.447  25.613  1.00  0.00    -0.269 OA
BRANCH  34  37
ATOM     37  C   UNL A   1      41.511  25.533  27.380  1.00  0.00     0.039 A 
ATOM     38  C   UNL A   1      40.542  25.387  28.381  1.00  0.00     0.014 A 
ATOM     39  C   UNL A   1      42.289  26.694  27.335  1.00  0.00     0.014 A 
ATOM     40  C   UNL A   1      40.391  26.371  29.362  1.00  0.00     0.010 A 
ATOM     41  C   UNL A   1      42.159  27.663  28.333  1.00  0.00     0.010 A 
ATOM     42  C   UNL A   1      41.212  27.508  29.356  1.00  0.00    -0.014 A 
BRANCH  42  43
ATOM     43  C   UNL A   1      41.089  28.545  30.410  1.00  0.00     0.031 A 
ATOM     44  C   UNL A   1      42.020  28.547  31.587  1.00  0.00     0.074 A 
ATOM     45  C   UNL A   1      40.107  29.462  30.335  1.00  0.00     0.049 A 
ATOM     46  N   UNL A   1      41.975  29.278  32.671  1.00  0.00    -0.248 NA
ATOM     47  C   UNL A   1      43.139  27.594  31.544  1.00  0.00     0.031 C 
ATOM     48  C   UNL A   1      39.128  29.569  29.252  1.00  0.00     0.029 A 
ATOM     49  N   UNL A   1      39.766  30.474  31.196  1.00  0.00    -0.354 N 
ATOM     50  C   UNL A   1      43.031  28.845  33.462  1.00  0.00     0.074 A 
ATOM     51  C   UNL A   1      43.714  27.803  32.721  1.00  0.00     0.031 C 
ATOM     52  C   UNL A   1      38.300  30.594  29.510  1.00  0.00     0.029 A 
ATOM     53  C   UNL A   1      38.675  31.198  30.787  1.00  0.00     0.049 A 
ATOM     54  H   UNL A   1      40.258  30.663  32.028  1.00  0.00     0.167 HD
ATOM     55  C   UNL A   1      43.393  29.267  34.697  1.00  0.00     0.037 A 
ATOM     56  C   UNL A   1      38.035  32.224  31.380  1.00  0.00     0.037 A 
ATOM     57  C   UNL A   1      42.749  30.326  35.426  1.00  0.00     0.049 A 
ATOM     58  C   UNL A   1      38.496  32.725  32.716  1.00  0.00     0.074 A 
ATOM     59  C   UNL A   1      43.045  30.814  36.687  1.00  0.00     0.029 A 
ATOM     60  N   UNL A   1      41.685  31.076  34.949  1.00  0.00    -0.354 N 
ATOM     61  N   UNL A   1      39.471  32.275  33.467  1.00  0.00    -0.248 NA
ATOM     62  C   UNL A   1      37.766  33.865  33.285  1.00  0.00     0.031 C 
ATOM     63  C   UNL A   1      42.163  31.866  36.969  1.00  0.00     0.029 A 
ATOM     64  C   UNL A   1      41.319  32.031  35.882  1.00  0.00     0.049 A 
ATOM     65  H   UNL A   1      41.252  30.947  34.073  1.00  0.00     0.167 HD
ATOM     66  C   UNL A   1      39.463  33.067  34.608  1.00  0.00     0.074 A 
ATOM     67  C   UNL A   1      38.398  34.036  34.440  1.00  0.00     0.031 C 
ATOM     68  C   UNL A   1      40.260  32.989  35.700  1.00  0.00     0.037 A 
BRANCH  55  69
ATOM     69  C   UNL A   1      44.537  28.546  35.340  1.00  0.00     0.058 A 
ATOM     70  C   UNL A   1      45.859  28.986  35.179  1.00  0.00     0.135 A 
ATOM     71  C   UNL A   1      44.310  27.387  36.098  1.00  0.00     0.135 A 
ATOM     72  F   UNL A   1      46.122  30.079  34.448  1.00  0.00    -0.206 F 
ATOM     73  C   UNL A   1      46.926  28.284  35.732  1.00  0.00     0.059 A 
ATOM     74  C   UNL A   1      45.361  26.673  36.663  1.00  0.00     0.059 A 
ATOM     75  F   UNL A   1      43.061  26.924  36.268  1.00  0.00    -0.206 F 
ATOM     76  C   UNL A   1      46.667  27.120  36.459  1.00  0.00     0.060 A 
BRANCH  76  77
ATOM     77  S   UNL A   1      48.040  26.172  37.150  1.00  0.00     0.124 S 
ATOM     78  O   UNL A   1      47.344  25.006  37.684  1.00  0.00    -0.237 OA
ATOM     79  O   UNL A   1      48.888  25.923  35.988  1.00  0.00    -0.237 OA
ATOM     80  O   UNL A   1      48.599  27.085  38.141  1.00  0.00    -0.744 OA
ENDBRANCH  76  77
ENDBRANCH  55  69
BRANCH  56  81
ATOM     81  C   UNL A   1      36.866  32.830  30.704  1.00  0.00     0.058 A 
ATOM     82  C   UNL A   1      35.562  32.473  31.070  1.00  0.00     0.135 A 
ATOM     83  C   UNL A   1      37.035  33.824  29.731  1.00  0.00     0.135 A 
ATOM     84  F   UNL A   1      35.361  31.526  31.998  1.00  0.00    -0.206 F 
ATOM     85  C   UNL A   1      34.455  33.094  30.502  1.00  0.00     0.059 A 
ATOM     86  C   UNL A   1      35.945  34.462  29.151  1.00  0.00     0.059 A 
ATOM     87  F   UNL A   1      38.269  34.200  29.361  1.00  0.00    -0.206 F 
ATOM     88  C   UNL A   1      34.657  34.092  29.547  1.00  0.00     0.060 A 
BRANCH  88  89
ATOM     89  S   UNL A   1      33.244  34.991  28.870  1.00  0.00     0.124 S 
ATOM     90  O   UNL A   1      32.454  35.243  30.068  1.00  0.00    -0.237 OA
ATOM     91  O   UNL A   1      33.864  36.162  28.258  1.00  0.00    -0.237 OA
ATOM     92  O   UNL A   1      32.682  34.029  27.926  1.00  0.00    -0.744 OA
ENDBRANCH  88  89
ENDBRANCH  56  81
BRANCH  68  93
ATOM     93  C   UNL A   1      40.003  33.974  36.798  1.00  0.00     0.058 A 
ATOM     94  C   UNL A   1      40.622  35.233  36.794  1.00  0.00     0.135 A 
ATOM     95  C   UNL A   1      39.126  33.669  37.849  1.00  0.00     0.135 A 
ATOM     96  F   UNL A   1      41.472  35.564  35.810  1.00  0.00    -0.206 F 
ATOM     97  C   UNL A   1      40.385  36.159  37.804  1.00  0.00     0.059 A 
ATOM     98  C   UNL A   1      38.874  34.581  38.870  1.00  0.00     0.059 A 
ATOM     99  F   UNL A   1      38.516  32.475  37.896  1.00  0.00    -0.206 F 
ATOM    100  C   UNL A   1      39.516  35.821  38.844  1.00  0.00     0.060 A 
BRANCH 100 101
ATOM    101  S   UNL A   1      39.189  37.019  40.155  1.00  0.00     0.124 S 
ATOM    102  O   UNL A   1      38.370  36.233  41.071  1.00  0.00    -0.237 OA
ATOM    103  O   UNL A   1      40.527  37.355  40.635  1.00  0.00    -0.237 OA
ATOM    104  O   UNL A   1      38.497  38.094  39.452  1.00  0.00    -0.744 OA
ENDBRANCH 100 101
ENDBRANCH  68  93
ENDBRANCH  42  43
ENDBRANCH  34  37
ENDBRANCH  32  33
ENDBRANCH   1  32
TORSDOF 18
ENDMDL
MODEL 2
REMARK VINA RESULT:     -12.2      2.659      4.313
REMARK SMILES Cc1ccnc(C(=O)c2[nH]c3ccc(OC(F)(F)F)cc3c2CC(=O)NCCCNC(=O)c2ccc(-c3c4nc(c(-c5c(F)cc(S(=O)(=O)[O-])cc5F)c5ccc([nH]5)c(-c5c(F)cc(S(=O)(=O)[O-])cc5F)c5nc(c(-c6c(F)cc(S(=O)(=O)[O-])cc6F)c6ccc3[nH]6)C=C5)C=C4)cc2)c1
REMARK SMILES IDX 28 1 27 2 26 3 24 4 25 5 23 7 22 8 9 9 10 10 11 11 21 13
REMARK SMILES IDX 12 14 20 15 13 16 14 17 7 18 8 19 6 20 1 21 2 22 3 23 99 24
REMARK SMILES IDX 4 25 5 26 15 27 16 28 17 29 18 30 19 31 29 32 30 33 31 34
REMARK SMILES IDX 32 36 33 37 34 38 98 39 35 40 97 41 36 42 37 43 38 44 91 45
REMARK SMILES IDX 39 46 96 47 90 48 92 49 40 50 95 51 89 52 88 53 41 55 75 56
REMARK SMILES IDX 54 57 74 58 55 59 58 60 73 61 93 62 56 63 57 64 72 66 94 67
REMARK SMILES IDX 59 68 42 69 43 70 52 71 44 72 45 73 51 74 53 75 46 76 47 77
REMARK SMILES IDX 48 78 49 79 50 80 76 81 77 82 86 83 78 84 79 85 85 86 87 87
REMARK SMILES IDX 80 88 81 89 82 90 83 91 84 92 60 93 61 94 70 95 62 96 63 97
REMARK SMILES IDX 69 98 71 99 64 100 65 101 66 102 67 103 68 104
REMARK H PARENT 26 6 10 12 30 35 92 54 58 65
REMARK Flexibility Score: inf
ROOT
ATOM      1  C   UNL A   1      37.342  22.850  26.236  1.00  0.00     0.042 C 
ENDROOT
BRANCH   1   2
ATOM      2  C   UNL A   1      36.005  23.076  25.535  1.00  0.00     0.117 C 
BRANCH   2   3
ATOM      3  N   UNL A   1      35.621  24.471  25.439  1.00  0.00    -0.356 N 
ATOM      4  C   UNL A   1      34.378  25.034  25.413  1.00  0.00     0.224 C 
ATOM      5  O   UNL A   1      34.291  26.260  25.525  1.00  0.00    -0.275 OA
ATOM      6  H   UNL A   1      36.371  25.109  25.387  1.00  0.00     0.163 HD
BRANCH   4   7
ATOM      7  C   UNL A   1      33.129  24.170  25.373  1.00  0.00     0.138 C 
BRANCH   7   8
ATOM      8  C   UNL A   1      32.845  23.510  24.055  1.00  0.00    -0.002 A 
ATOM      9  C   UNL A   1      32.733  24.115  22.806  1.00  0.00     0.093 A 
ATOM     10  N   UNL A   1      32.524  23.119  21.880  1.00  0.00    -0.352 N 
ATOM     11  C   UNL A   1      32.394  21.902  22.500  1.00  0.00     0.046 A 
ATOM     12  H   UNL A   1      32.475  23.260  20.907  1.00  0.00     0.167 HD
ATOM     13  C   UNL A   1      32.575  22.113  23.863  1.00  0.00     0.008 A 
ATOM     14  C   UNL A   1      32.148  20.637  21.956  1.00  0.00     0.030 A 
ATOM     15  C   UNL A   1      32.492  20.998  24.724  1.00  0.00     0.057 A 
ATOM     16  C   UNL A   1      32.076  19.548  22.835  1.00  0.00     0.049 A 
ATOM     17  C   UNL A   1      32.244  19.718  24.208  1.00  0.00     0.130 A 
BRANCH   9  18
ATOM     18  C   UNL A   1      32.880  25.514  22.438  1.00  0.00     0.227 C 
ATOM     19  O   UNL A   1      33.831  25.892  21.760  1.00  0.00    -0.285 OA
BRANCH  18  20
ATOM     20  C   UNL A   1      31.813  26.487  22.882  1.00  0.00     0.113 A 
ATOM     21  C   UNL A   1      28.169  26.625  23.938  1.00  0.00     0.044 C 
ATOM     22  C   UNL A   1      29.570  27.024  23.583  1.00  0.00    -0.047 A 
ATOM     23  C   UNL A   1      29.957  28.362  23.646  1.00  0.00     0.023 A 
ATOM     24  C   UNL A   1      30.522  26.068  23.212  1.00  0.00     0.036 A 
ATOM     25  C   UNL A   1      31.261  28.692  23.317  1.00  0.00     0.112 A 
ATOM     26  N   UNL A   1      32.188  27.791  22.933  1.00  0.00    -0.253 NA
ENDBRANCH  18  20
ENDBRANCH   9  18
BRANCH  17  27
ATOM     27  O   UNL A   1      32.197  18.738  25.160  1.00  0.00    -0.406 OA
BRANCH  27  28
ATOM     28  C   UNL A   1      33.095  17.649  25.035  1.00  0.00     0.573 C 
ATOM     29  F   UNL A   1      33.210  16.977  26.199  1.00  0.00    -0.132 F 
ATOM     30  F   UNL A   1      32.709  16.809  24.053  1.00  0.00    -0.132 F 
ATOM     31  F   UNL A   1      34.315  18.138  24.714  1.00  0.00    -0.132 F 
ENDBRANCH  27  28
ENDBRANCH  17  27
ENDBRANCH   7   8
ENDBRANCH   4   7
ENDBRANCH   2   3
ENDBRANCH   1   2
BRANCH   1  32
ATOM     32  C   UNL A   1      38.210  24.096  26.391  1.00  0.00     0.118 C 
BRANCH  32  33
ATOM     33  N   UNL A   1      39.608  23.847  26.070  1.00  0.00    -0.352 N 
ATOM     34  C   UNL A   1      40.743  24.523  26.443  1.00  0.00     0.251 C 
ATOM     35  H   UNL A   1      39.765  23.066  25.492  1.00  0.00     0.163 HD
ATOM     36  O   UNL A   1      41.809  24.240  25.901  1.00  0.00    -0.269 OA
BRANCH  34  37
ATOM     37  C   UNL A   1      40.709  25.594  27.468  1.00  0.00     0.039 A 
ATOM     38  C   UNL A   1      39.745  25.515  28.481  1.00  0.00     0.014 A 
ATOM     39  C   UNL A   1      41.552  26.707  27.401  1.00  0.00     0.014 A 
ATOM     40  C   UNL A   1      39.661  26.515  29.453  1.00  0.00     0.010 A 
ATOM     41  C   UNL A   1      41.490  27.693  28.391  1.00  0.00     0.010 A 
ATOM     42  C   UNL A   1      40.547  27.603  29.426  1.00  0.00    -0.014 A 
BRANCH  42  43
ATOM     43  C   UNL A   1      40.496  28.656  30.470  1.00  0.00     0.031 A 
ATOM     44  C   UNL A   1      41.437  28.614  31.638  1.00  0.00     0.074 A 
ATOM     45  C   UNL A   1      39.570  29.629  30.393  1.00  0.00     0.049 A 
ATOM     46  N   UNL A   1      41.446  29.357  32.715  1.00  0.00    -0.248 NA
ATOM     47  C   UNL A   1      42.497  27.596  31.595  1.00  0.00     0.031 C 
ATOM     48  C   UNL A   1      38.588  29.783  29.318  1.00  0.00     0.029 A 
ATOM     49  N   UNL A   1      39.298  30.668  31.247  1.00  0.00    -0.354 N 
ATOM     50  C   UNL A   1      42.482  28.871  33.500  1.00  0.00     0.074 A 
ATOM     51  C   UNL A   1      43.094  27.782  32.764  1.00  0.00     0.031 C 
ATOM     52  C   UNL A   1      37.825  30.858  29.574  1.00  0.00     0.029 A 
ATOM     53  C   UNL A   1      38.248  31.452  30.840  1.00  0.00     0.049 A 
ATOM     54  H   UNL A   1      39.809  30.836  32.072  1.00  0.00     0.167 HD
ATOM     55  C   UNL A   1      42.881  29.282  34.728  1.00  0.00     0.037 A 
ATOM     56  C   UNL A   1      37.676  32.520  31.428  1.00  0.00     0.037 A 
ATOM     57  C   UNL A   1      42.308  30.385  35.452  1.00  0.00     0.049 A 
ATOM     58  C   UNL A   1      38.179  33.006  32.754  1.00  0.00     0.074 A 
ATOM     59  C   UNL A   1      42.645  30.868  36.705  1.00  0.00     0.029 A 
ATOM     60  N   UNL A   1      41.286  31.192  34.976  1.00  0.00    -0.354 N 
ATOM     61  N   UNL A   1      39.132  32.506  33.502  1.00  0.00    -0.248 NA
ATOM     62  C   UNL A   1      37.523  34.193  33.318  1.00  0.00     0.031 C 
ATOM     63  C   UNL A   1      41.829  31.973  36.983  1.00  0.00     0.029 A 
ATOM     64  C   UNL A   1      40.986  32.177  35.902  1.00  0.00     0.049 A 
ATOM     65  H   UNL A   1      40.837  31.081  34.105  1.00  0.00     0.167 HD
ATOM     66  C   UNL A   1      39.183  33.309  34.634  1.00  0.00     0.074 A 
ATOM     67  C   UNL A   1      38.175  34.338  34.466  1.00  0.00     0.031 C 
ATOM     68  C   UNL A   1      39.985  33.194  35.720  1.00  0.00     0.037 A 
BRANCH  55  69
ATOM     69  C   UNL A   1      43.986  28.501  35.368  1.00  0.00     0.058 A 
ATOM     70  C   UNL A   1      45.331  28.831  35.153  1.00  0.00     0.135 A 
ATOM     71  C   UNL A   1      43.695  27.393  36.179  1.00  0.00     0.135 A 
ATOM     72  F   UNL A   1      45.654  29.872  34.370  1.00  0.00    -0.206 F 
ATOM     73  C   UNL A   1      46.359  28.072  35.704  1.00  0.00     0.059 A 
ATOM     74  C   UNL A   1      44.706  26.623  36.743  1.00  0.00     0.059 A 
ATOM     75  F   UNL A   1      42.420  27.035  36.402  1.00  0.00    -0.206 F 
ATOM     76  C   UNL A   1      46.035  26.960  36.485  1.00  0.00     0.060 A 
BRANCH  76  77
ATOM     77  S   UNL A   1      47.353  25.937  37.176  1.00  0.00     0.124 S 
ATOM     78  O   UNL A   1      46.603  25.084  38.093  1.00  0.00    -0.237 OA
ATOM     79  O   UNL A   1      47.903  25.268  36.001  1.00  0.00    -0.237 OA
ATOM     80  O   UNL A   1      48.233  26.918  37.801  1.00  0.00    -0.744 OA
ENDBRANCH  76  77
ENDBRANCH  55  69
BRANCH  56  81
ATOM     81  C   UNL A   1      36.539  33.188  30.756  1.00  0.00     0.058 A 
ATOM     82  C   UNL A   1      35.233  33.041  31.242  1.00  0.00     0.135 A 
ATOM     83  C   UNL A   1      36.750  34.036  29.661  1.00  0.00     0.135 A 
ATOM     84  F   UNL A   1      34.993  32.239  32.289  1.00  0.00    -0.206 F 
ATOM     85  C   UNL A   1      34.167  33.728  30.672  1.00  0.00     0.059 A 
ATOM     86  C   UNL A   1      35.701  34.736  29.076  1.00  0.00     0.059 A 
ATOM     87  F   UNL A   1      37.987  34.210  29.173  1.00  0.00    -0.206 F 
ATOM     88  C   UNL A   1      34.413  34.578  29.592  1.00  0.00     0.060 A 
BRANCH  88  89
ATOM     89  S   UNL A   1      33.068  35.566  28.899  1.00  0.00     0.124 S 
ATOM     90  O   UNL A   1      33.803  36.607  28.192  1.00  0.00    -0.237 OA
ATOM     91  O   UNL A   1      32.356  34.608  28.059  1.00  0.00    -0.237 OA
ATOM     92  O   UNL A   1      32.344  35.994  30.092  1.00  0.00    -0.744 OA
ENDBRANCH  88  89
ENDBRANCH  56  81
BRANCH  68  93
ATOM     93  C   UNL A   1      39.797  34.204  36.810  1.00  0.00     0.058 A 
ATOM     94  C   UNL A   1      38.999  33.915  37.927  1.00  0.00     0.135 A 
ATOM     95  C   UNL A   1      40.425  35.456  36.749  1.00  0.00     0.135 A 
ATOM     96  F   UNL A   1      38.375  32.731  38.023  1.00  0.00    -0.206 F 
ATOM     97  C   UNL A   1      38.823  34.841  38.950  1.00  0.00     0.059 A 
ATOM     98  C   UNL A   1      40.263  36.397  37.761  1.00  0.00     0.059 A 
ATOM     99  F   UNL A   1      41.193  35.776  35.697  1.00  0.00    -0.206 F 
ATOM    100  C   UNL A   1      39.451  36.084  38.854  1.00  0.00     0.060 A 
BRANCH 100 101
ATOM    101  S   UNL A   1      39.243  37.291  40.180  1.00  0.00     0.124 S 
ATOM    102  O   UNL A   1      38.539  36.503  41.186  1.00  0.00    -0.237 OA
ATOM    103  O   UNL A   1      40.617  37.656  40.512  1.00  0.00    -0.237 OA
ATOM    104  O   UNL A   1      38.461  38.346  39.543  1.00  0.00    -0.744 OA
ENDBRANCH 100 101
ENDBRANCH  68  93
ENDBRANCH  42  43
ENDBRANCH  34  37
ENDBRANCH  32  33
ENDBRANCH   1  32
TORSDOF 18
ENDMDL
MODEL 3
REMARK VINA RESULT:     -12.1      4.727      9.900
REMARK SMILES Cc1ccnc(C(=O)c2[nH]c3ccc(OC(F)(F)F)cc3c2CC(=O)NCCCNC(=O)c2ccc(-c3c4nc(c(-c5c(F)cc(S(=O)(=O)[O-])cc5F)c5ccc([nH]5)c(-c5c(F)cc(S(=O)(=O)[O-])cc5F)c5nc(c(-c6c(F)cc(S(=O)(=O)[O-])cc6F)c6ccc3[nH]6)C=C5)C=C4)cc2)c1
REMARK SMILES IDX 28 1 27 2 26 3 24 4 25 5 23 7 22 8 9 9 10 10 11 11 21 13
REMARK SMILES IDX 12 14 20 15 13 16 14 17 7 18 8 19 6 20 1 21 2 22 3 23 99 24
REMARK SMILES IDX 4 25 5 26 15 27 16 28 17 29 18 30 19 31 29 32 30 33 31 34
REMARK SMILES IDX 32 36 33 37 34 38 98 39 35 40 97 41 36 42 37 43 38 44 91 45
REMARK SMILES IDX 39 46 96 47 90 48 92 49 40 50 95 51 89 52 88 53 41 55 75 56
REMARK SMILES IDX 54 57 74 58 55 59 58 60 73 61 93 62 56 63 57 64 72 66 94 67
REMARK SMILES IDX 59 68 42 69 43 70 52 71 44 72 45 73 51 74 53 75 46 76 47 77
REMARK SMILES IDX 48 78 49 79 50 80 76 81 77 82 86 83 78 84 79 85 85 86 87 87
REMARK SMILES IDX 80 88 81 89 82 90 83 91 84 92 60 93 61 94 70 95 62 96 63 97
REMARK SMILES IDX 69 98 71 99 64 100 65 101 66 102 67 103 68 104
REMARK H PARENT 26 6 10 12 30 35 92 54 58 65
REMARK Flexibility Score: inf
ROOT
ATOM      1  C   UNL A   1      32.713  27.645  25.959  1.00  0.00     0.042 C 
ENDROOT
BRANCH   1   2
ATOM      2  C   UNL A   1      33.564  26.873  24.955  1.00  0.00     0.117 C 
BRANCH   2   3
ATOM      3  N   UNL A   1      33.954  27.651  23.795  1.00  0.00    -0.356 N 
ATOM      4  C   UNL A   1      33.736  27.410  22.470  1.00  0.00     0.224 C 
ATOM      5  O   UNL A   1      33.988  28.311  21.665  1.00  0.00    -0.275 OA
ATOM      6  H   UNL A   1      34.450  28.479  23.994  1.00  0.00     0.163 HD
BRANCH   4   7
ATOM      7  C   UNL A   1      33.085  26.118  22.006  1.00  0.00     0.138 C 
BRANCH   7   8
ATOM      8  C   UNL A   1      31.792  25.770  22.685  1.00  0.00    -0.002 A 
ATOM      9  C   UNL A   1      31.425  24.548  23.243  1.00  0.00     0.093 A 
ATOM     10  N   UNL A   1      30.178  24.706  23.803  1.00  0.00    -0.352 N 
ATOM     11  C   UNL A   1      29.682  25.957  23.535  1.00  0.00     0.046 A 
ATOM     12  H   UNL A   1      29.706  24.017  24.325  1.00  0.00     0.167 HD
ATOM     13  C   UNL A   1      30.661  26.644  22.826  1.00  0.00     0.008 A 
ATOM     14  C   UNL A   1      28.456  26.533  23.882  1.00  0.00     0.030 A 
ATOM     15  C   UNL A   1      30.389  27.972  22.432  1.00  0.00     0.057 A 
ATOM     16  C   UNL A   1      28.215  27.854  23.484  1.00  0.00     0.049 A 
ATOM     17  C   UNL A   1      29.166  28.574  22.764  1.00  0.00     0.130 A 
BRANCH   9  18
ATOM     18  C   UNL A   1      32.182  23.311  23.343  1.00  0.00     0.227 C 
ATOM     19  O   UNL A   1      31.945  22.364  22.598  1.00  0.00    -0.285 OA
BRANCH  18  20
ATOM     20  C   UNL A   1      33.292  23.231  24.365  1.00  0.00     0.113 A 
ATOM     21  C   UNL A   1      33.917  22.431  28.023  1.00  0.00     0.044 C 
ATOM     22  C   UNL A   1      34.122  22.827  26.591  1.00  0.00    -0.047 A 
ATOM     23  C   UNL A   1      35.396  23.157  26.129  1.00  0.00     0.023 A 
ATOM     24  C   UNL A   1      33.055  22.847  25.686  1.00  0.00     0.036 A 
ATOM     25  C   UNL A   1      35.548  23.512  24.800  1.00  0.00     0.112 A 
ATOM     26  N   UNL A   1      34.531  23.562  23.916  1.00  0.00    -0.253 NA
ENDBRANCH  18  20
ENDBRANCH   9  18
BRANCH  17  27
ATOM     27  O   UNL A   1      29.047  29.862  22.322  1.00  0.00    -0.406 OA
BRANCH  27  28
ATOM     28  C   UNL A   1      28.973  30.891  23.294  1.00  0.00     0.573 C 
ATOM     29  F   UNL A   1      29.849  30.675  24.298  1.00  0.00    -0.132 F 
ATOM     30  F   UNL A   1      29.195  32.101  22.741  1.00  0.00    -0.132 F 
ATOM     31  F   UNL A   1      27.727  30.891  23.821  1.00  0.00    -0.132 F 
ENDBRANCH  27  28
ENDBRANCH  17  27
ENDBRANCH   7   8
ENDBRANCH   4   7
ENDBRANCH   2   3
ENDBRANCH   1   2
BRANCH   1  32
ATOM     32  C   UNL A   1      33.462  28.145  27.193  1.00  0.00     0.118 C 
BRANCH  32  33
ATOM     33  N   UNL A   1      33.312  29.579  27.395  1.00  0.00    -0.352 N 
ATOM     34  C   UNL A   1      34.179  30.500  27.929  1.00  0.00     0.251 C 
ATOM     35  H   UNL A   1      32.449  29.949  27.099  1.00  0.00     0.163 HD
ATOM     36  O   UNL A   1      33.768  31.633  28.170  1.00  0.00    -0.269 OA
BRANCH  34  37
ATOM     37  C   UNL A   1      35.587  30.154  28.236  1.00  0.00     0.039 A 
ATOM     38  C   UNL A   1      36.531  30.227  27.203  1.00  0.00     0.014 A 
ATOM     39  C   UNL A   1      35.976  29.687  29.496  1.00  0.00     0.014 A 
ATOM     40  C   UNL A   1      37.865  29.886  27.443  1.00  0.00     0.010 A 
ATOM     41  C   UNL A   1      37.315  29.375  29.744  1.00  0.00     0.010 A 
ATOM     42  C   UNL A   1      38.271  29.476  28.721  1.00  0.00    -0.014 A 
BRANCH  42  43
ATOM     43  C   UNL A   1      39.689  29.145  29.004  1.00  0.00     0.031 A 
ATOM     44  C   UNL A   1      40.605  30.170  29.605  1.00  0.00     0.074 A 
ATOM     45  C   UNL A   1      40.171  27.932  28.674  1.00  0.00     0.049 A 
ATOM     46  N   UNL A   1      41.899  30.114  29.787  1.00  0.00    -0.248 NA
ATOM     47  C   UNL A   1      39.984  31.428  30.048  1.00  0.00     0.031 C 
ATOM     48  C   UNL A   1      39.394  26.845  28.075  1.00  0.00     0.029 A 
ATOM     49  N   UNL A   1      41.437  27.416  28.790  1.00  0.00    -0.354 N 
ATOM     50  C   UNL A   1      42.259  31.342  30.324  1.00  0.00     0.074 A 
ATOM     51  C   UNL A   1      41.041  32.116  30.460  1.00  0.00     0.031 C 
ATOM     52  C   UNL A   1      40.199  25.788  27.881  1.00  0.00     0.029 A 
ATOM     53  C   UNL A   1      41.550  26.132  28.318  1.00  0.00     0.049 A 
ATOM     54  H   UNL A   1      42.191  27.918  29.175  1.00  0.00     0.167 HD
ATOM     55  C   UNL A   1      43.492  31.791  30.661  1.00  0.00     0.037 A 
ATOM     56  C   UNL A   1      42.625  25.326  28.231  1.00  0.00     0.037 A 
ATOM     57  C   UNL A   1      44.702  31.020  30.567  1.00  0.00     0.049 A 
ATOM     58  C   UNL A   1      43.970  25.816  28.678  1.00  0.00     0.074 A 
ATOM     59  C   UNL A   1      45.996  31.398  30.880  1.00  0.00     0.029 A 
ATOM     60  N   UNL A   1      44.764  29.702  30.143  1.00  0.00    -0.354 N 
ATOM     61  N   UNL A   1      44.298  26.996  29.143  1.00  0.00    -0.248 NA
ATOM     62  C   UNL A   1      45.088  24.869  28.579  1.00  0.00     0.031 C 
ATOM     63  C   UNL A   1      46.841  30.303  30.651  1.00  0.00     0.029 A 
ATOM     64  C   UNL A   1      46.070  29.245  30.196  1.00  0.00     0.049 A 
ATOM     65  H   UNL A   1      43.991  29.168  29.845  1.00  0.00     0.167 HD
ATOM     66  C   UNL A   1      45.666  26.940  29.380  1.00  0.00     0.074 A 
ATOM     67  C   UNL A   1      46.101  25.605  29.022  1.00  0.00     0.031 C 
ATOM     68  C   UNL A   1      46.487  27.914  29.840  1.00  0.00     0.037 A 
BRANCH  55  69
ATOM     69  C   UNL A   1      43.578  33.207  31.142  1.00  0.00     0.058 A 
ATOM     70  C   UNL A   1      43.713  34.275  30.243  1.00  0.00     0.135 A 
ATOM     71  C   UNL A   1      43.555  33.492  32.515  1.00  0.00     0.135 A 
ATOM     72  F   UNL A   1      43.756  34.044  28.922  1.00  0.00    -0.206 F 
ATOM     73  C   UNL A   1      43.848  35.585  30.693  1.00  0.00     0.059 A 
ATOM     74  C   UNL A   1      43.684  34.794  32.986  1.00  0.00     0.059 A 
ATOM     75  F   UNL A   1      43.439  32.499  33.411  1.00  0.00    -0.206 F 
ATOM     76  C   UNL A   1      43.848  35.832  32.067  1.00  0.00     0.060 A 
BRANCH  76  77
ATOM     77  S   UNL A   1      44.063  37.519  32.674  1.00  0.00     0.124 S 
ATOM     78  O   UNL A   1      43.879  38.291  31.449  1.00  0.00    -0.237 OA
ATOM     79  O   UNL A   1      43.001  37.651  33.668  1.00  0.00    -0.237 OA
ATOM     80  O   UNL A   1      45.418  37.500  33.213  1.00  0.00    -0.744 OA
ENDBRANCH  76  77
ENDBRANCH  55  69
BRANCH  56  81
ATOM     81  C   UNL A   1      42.460  23.964  27.674  1.00  0.00     0.058 A 
ATOM     82  C   UNL A   1      42.463  23.752  26.289  1.00  0.00     0.135 A 
ATOM     83  C   UNL A   1      42.366  22.849  28.518  1.00  0.00     0.135 A 
ATOM     84  F   UNL A   1      42.552  24.795  25.451  1.00  0.00    -0.206 F 
ATOM     85  C   UNL A   1      42.391  22.471  25.753  1.00  0.00     0.059 A 
ATOM     86  C   UNL A   1      42.298  21.559  28.005  1.00  0.00     0.059 A 
ATOM     87  F   UNL A   1      42.371  23.011  29.849  1.00  0.00    -0.206 F 
ATOM     88  C   UNL A   1      42.315  21.380  26.621  1.00  0.00     0.060 A 
BRANCH  88  89
ATOM     89  S   UNL A   1      42.330  19.699  25.958  1.00  0.00     0.124 S 
ATOM     90  O   UNL A   1      42.606  18.914  27.155  1.00  0.00    -0.237 OA
ATOM     91  O   UNL A   1      40.991  19.556  25.397  1.00  0.00    -0.237 OA
ATOM     92  O   UNL A   1      43.406  19.759  24.972  1.00  0.00    -0.744 OA
ENDBRANCH  88  89
ENDBRANCH  56  81
BRANCH  68  93
ATOM     93  C   UNL A   1      47.938  27.569  29.975  1.00  0.00     0.058 A 
ATOM     94  C   UNL A   1      48.445  27.053  31.177  1.00  0.00     0.135 A 
ATOM     95  C   UNL A   1      48.822  27.738  28.900  1.00  0.00     0.135 A 
ATOM     96  F   UNL A   1      47.635  26.880  32.233  1.00  0.00    -0.206 F 
ATOM     97  C   UNL A   1      49.789  26.721  31.313  1.00  0.00     0.059 A 
ATOM     98  C   UNL A   1      50.170  27.412  29.014  1.00  0.00     0.059 A 
ATOM     99  F   UNL A   1      48.381  28.232  27.734  1.00  0.00    -0.206 F 
ATOM    100  C   UNL A   1      50.647  26.913  30.228  1.00  0.00     0.060 A 
BRANCH 100 101
ATOM    101  S   UNL A   1      52.391  26.474  30.385  1.00  0.00     0.124 S 
ATOM    102  O   UNL A   1      52.959  27.714  30.904  1.00  0.00    -0.237 OA
ATOM    103  O   UNL A   1      52.365  25.352  31.319  1.00  0.00    -0.237 OA
ATOM    104  O   UNL A   1      52.767  26.130  29.018  1.00  0.00    -0.744 OA
ENDBRANCH 100 101
ENDBRANCH  68  93
ENDBRANCH  42  43
ENDBRANCH  34  37
ENDBRANCH  32  33
ENDBRANCH   1  32
TORSDOF 18
ENDMDL
