MODEL 1
REMARK VINA RESULT:     -12.1      0.000      0.000
REMARK SMILES CCc1n[nH]c(C(=O)N[C@@]2(C(=O)NCCCNC(=O)c3ccc(-c4c5nc(c(-c6c(F)cc(S(=O)(=O)[O-])cc6F)c6ccc([nH]6)c(-c6c(F)cc(S(=O)(=O)[O-])cc6F)c6nc(c(-c7c(F)cc(S(=O)(=O)[O-])cc7F)c7ccc4[nH]7)C=C6)C=C5)cc3)CCCC[C@H]2C)n1
REMARK SMILES IDX 15 1 14 2 13 3 11 4 12 5 10 7 86 8 90 9 87 10 89 11 91 12
REMARK SMILES IDX 88 13 9 14 7 15 8 16 6 18 3 19 4 20 92 21 5 22 2 24 1 25
REMARK SMILES IDX 16 26 17 27 18 28 19 30 20 31 21 32 85 33 22 34 84 35 23 36
REMARK SMILES IDX 24 37 25 38 78 39 26 40 83 41 77 42 79 43 27 44 82 45 76 46
REMARK SMILES IDX 75 47 28 49 62 50 41 51 61 52 42 53 45 54 60 55 80 56 43 57
REMARK SMILES IDX 44 58 59 60 81 61 46 62 29 63 30 64 39 65 31 66 32 67 38 68
REMARK SMILES IDX 40 69 33 70 34 71 35 72 36 73 37 74 63 75 64 76 73 77 65 78
REMARK SMILES IDX 66 79 72 80 74 81 67 82 68 83 69 84 70 85 71 86 47 87 48 88
REMARK SMILES IDX 57 89 49 90 50 91 56 92 58 93 51 94 52 95 53 96 54 97 55 98
REMARK H PARENT 13 6 9 17 5 23 17 29 79 48 45 59
REMARK Flexibility Score: inf
ROOT
ATOM      1  C   UNL A   1      34.481  30.633  27.399  1.00  0.00     0.042 C 
ENDROOT
BRANCH   1   2
ATOM      2  C   UNL A   1      34.342  29.131  27.485  1.00  0.00     0.117 C 
BRANCH   2   3
ATOM      3  N   UNL A   1      33.028  28.668  27.899  1.00  0.00    -0.354 N 
ATOM      4  C   UNL A   1      32.067  27.956  27.239  1.00  0.00     0.246 C 
ATOM      5  O   UNL A   1      31.052  27.679  27.893  1.00  0.00    -0.272 OA
ATOM      6  H   UNL A   1      32.787  28.911  28.823  1.00  0.00     0.163 HD
BRANCH   4   7
ATOM      7  C   UNL A   1      32.155  27.623  25.707  1.00  0.00     0.122 C 
ATOM      8  C   UNL A   1      33.285  26.634  25.408  1.00  0.00     0.039 C 
ATOM      9  C   UNL A   1      32.422  28.974  24.948  1.00  0.00     0.021 C 
ATOM     10  C   UNL A   1      33.566  26.445  23.921  1.00  0.00     0.003 C 
ATOM     11  C   UNL A   1      32.729  28.753  23.458  1.00  0.00     0.006 C 
ATOM     12  C   UNL A   1      31.329  30.040  25.105  1.00  0.00     0.011 C 
ATOM     13  C   UNL A   1      33.886  27.778  23.270  1.00  0.00     0.000 C 
BRANCH   7  14
ATOM     14  N   UNL A   1      30.790  27.085  25.342  1.00  0.00    -0.335 N 
ATOM     15  C   UNL A   1      30.075  25.907  25.437  1.00  0.00     0.289 C 
ATOM     16  O   UNL A   1      28.931  25.935  24.973  1.00  0.00    -0.266 OA
ATOM     17  H   UNL A   1      30.249  27.782  24.906  1.00  0.00     0.165 HD
BRANCH  15  18
ATOM     18  C   UNL A   1      30.635  24.658  25.904  1.00  0.00     0.214 A 
ATOM     19  C   UNL A   1      31.871  23.206  26.827  1.00  0.00     0.151 A 
ATOM     20  N   UNL A   1      31.561  22.629  25.657  1.00  0.00    -0.158 NA
ATOM     21  N   UNL A   1      31.197  24.375  27.063  1.00  0.00    -0.207 NA
ATOM     22  N   UNL A   1      30.714  23.535  25.128  1.00  0.00    -0.255 N 
ATOM     23  H   UNL A   1      30.216  23.405  24.289  1.00  0.00     0.192 HD
BRANCH  19  24
ATOM     24  C   UNL A   1      33.034  22.756  27.653  1.00  0.00     0.076 C 
ATOM     25  C   UNL A   1      34.406  22.942  27.016  1.00  0.00     0.012 C 
ENDBRANCH  19  24
ENDBRANCH  15  18
ENDBRANCH   7  14
ENDBRANCH   4   7
ENDBRANCH   2   3
ENDBRANCH   1   2
BRANCH   1  26
ATOM     26  C   UNL A   1      35.638  31.187  28.196  1.00  0.00     0.118 C 
BRANCH  26  27
ATOM     27  N   UNL A   1      35.597  30.785  29.596  1.00  0.00    -0.352 N 
ATOM     28  C   UNL A   1      36.554  30.190  30.388  1.00  0.00     0.251 C 
ATOM     29  H   UNL A   1      34.744  30.968  30.051  1.00  0.00     0.163 HD
ATOM     30  O   UNL A   1      36.237  29.749  31.486  1.00  0.00    -0.269 OA
BRANCH  28  31
ATOM     31  C   UNL A   1      37.946  30.054  29.902  1.00  0.00     0.039 A 
ATOM     32  C   UNL A   1      38.988  29.971  30.829  1.00  0.00     0.014 A 
ATOM     33  C   UNL A   1      38.228  30.003  28.538  1.00  0.00     0.014 A 
ATOM     34  C   UNL A   1      40.293  29.750  30.384  1.00  0.00     0.010 A 
ATOM     35  C   UNL A   1      39.498  29.649  28.104  1.00  0.00     0.010 A 
ATOM     36  C   UNL A   1      40.552  29.533  29.019  1.00  0.00    -0.014 A 
BRANCH  36  37
ATOM     37  C   UNL A   1      41.912  29.203  28.522  1.00  0.00     0.031 A 
ATOM     38  C   UNL A   1      42.233  27.795  28.090  1.00  0.00     0.074 A 
ATOM     39  C   UNL A   1      42.876  30.146  28.537  1.00  0.00     0.049 A 
ATOM     40  N   UNL A   1      43.378  27.290  27.710  1.00  0.00    -0.248 NA
ATOM     41  C   UNL A   1      41.132  26.816  28.122  1.00  0.00     0.031 C 
ATOM     42  C   UNL A   1      42.703  31.527  28.996  1.00  0.00     0.029 A 
ATOM     43  N   UNL A   1      44.196  30.084  28.170  1.00  0.00    -0.354 N 
ATOM     44  C   UNL A   1      43.140  25.939  27.483  1.00  0.00     0.074 A 
ATOM     45  C   UNL A   1      41.758  25.689  27.824  1.00  0.00     0.031 C 
ATOM     46  C   UNL A   1      43.865  32.186  28.858  1.00  0.00     0.029 A 
ATOM     47  C   UNL A   1      44.876  31.268  28.347  1.00  0.00     0.049 A 
ATOM     48  H   UNL A   1      44.619  29.270  27.812  1.00  0.00     0.167 HD
ATOM     49  C   UNL A   1      43.989  24.999  27.008  1.00  0.00     0.037 A 
ATOM     50  C   UNL A   1      46.171  31.574  28.135  1.00  0.00     0.037 A 
ATOM     51  C   UNL A   1      45.352  25.266  26.634  1.00  0.00     0.049 A 
ATOM     52  C   UNL A   1      47.091  30.514  27.593  1.00  0.00     0.074 A 
ATOM     53  C   UNL A   1      46.272  24.404  26.065  1.00  0.00     0.029 A 
ATOM     54  N   UNL A   1      45.994  26.486  26.796  1.00  0.00    -0.354 N 
ATOM     55  N   UNL A   1      46.825  29.262  27.303  1.00  0.00    -0.248 NA
ATOM     56  C   UNL A   1      48.483  30.908  27.340  1.00  0.00     0.031 C 
ATOM     57  C   UNL A   1      47.487  25.083  25.937  1.00  0.00     0.029 A 
ATOM     58  C   UNL A   1      47.308  26.388  26.366  1.00  0.00     0.049 A 
ATOM     59  H   UNL A   1      45.578  27.299  27.162  1.00  0.00     0.167 HD
ATOM     60  C   UNL A   1      48.011  28.727  26.809  1.00  0.00     0.074 A 
ATOM     61  C   UNL A   1      48.988  29.795  26.824  1.00  0.00     0.031 C 
ATOM     62  C   UNL A   1      48.266  27.465  26.381  1.00  0.00     0.037 A 
BRANCH  49  63
ATOM     63  C   UNL A   1      43.473  23.592  26.859  1.00  0.00     0.058 A 
ATOM     64  C   UNL A   1      43.224  22.772  27.972  1.00  0.00     0.135 A 
ATOM     65  C   UNL A   1      43.175  23.076  25.588  1.00  0.00     0.135 A 
ATOM     66  F   UNL A   1      43.507  23.206  29.210  1.00  0.00    -0.206 F 
ATOM     67  C   UNL A   1      42.720  21.484  27.829  1.00  0.00     0.059 A 
ATOM     68  C   UNL A   1      42.639  21.802  25.422  1.00  0.00     0.059 A 
ATOM     69  F   UNL A   1      43.397  23.814  24.489  1.00  0.00    -0.206 F 
ATOM     70  C   UNL A   1      42.426  21.009  26.549  1.00  0.00     0.060 A 
BRANCH  70  71
ATOM     71  S   UNL A   1      41.749  19.344  26.383  1.00  0.00     0.124 S 
ATOM     72  O   UNL A   1      42.189  18.726  27.631  1.00  0.00    -0.237 OA
ATOM     73  O   UNL A   1      40.317  19.601  26.274  1.00  0.00    -0.237 OA
ATOM     74  O   UNL A   1      42.387  18.835  25.173  1.00  0.00    -0.744 OA
ENDBRANCH  70  71
ENDBRANCH  49  63
BRANCH  50  75
ATOM     75  C   UNL A   1      46.669  32.945  28.427  1.00  0.00     0.058 A 
ATOM     76  C   UNL A   1      46.546  33.979  27.486  1.00  0.00     0.135 A 
ATOM     77  C   UNL A   1      47.273  33.254  29.657  1.00  0.00     0.135 A 
ATOM     78  F   UNL A   1      45.981  33.736  26.294  1.00  0.00    -0.206 F 
ATOM     79  C   UNL A   1      47.022  35.261  27.742  1.00  0.00     0.059 A 
ATOM     80  C   UNL A   1      47.729  34.535  29.949  1.00  0.00     0.059 A 
ATOM     81  F   UNL A   1      47.398  32.308  30.601  1.00  0.00    -0.206 F 
ATOM     82  C   UNL A   1      47.611  35.529  28.980  1.00  0.00     0.060 A 
BRANCH  82  83
ATOM     83  S   UNL A   1      48.188  37.207  29.318  1.00  0.00     0.124 S 
ATOM     84  O   UNL A   1      47.738  37.919  28.128  1.00  0.00    -0.237 OA
ATOM     85  O   UNL A   1      47.486  37.527  30.558  1.00  0.00    -0.237 OA
ATOM     86  O   UNL A   1      49.633  37.043  29.449  1.00  0.00    -0.744 OA
ENDBRANCH  82  83
ENDBRANCH  50  75
BRANCH  62  87
ATOM     87  C   UNL A   1      49.647  27.176  25.860  1.00  0.00     0.058 A 
ATOM     88  C   UNL A   1      50.674  26.714  26.697  1.00  0.00     0.135 A 
ATOM     89  C   UNL A   1      49.928  27.309  24.490  1.00  0.00     0.135 A 
ATOM     90  F   UNL A   1      50.460  26.574  28.015  1.00  0.00    -0.206 F 
ATOM     91  C   UNL A   1      51.938  26.418  26.200  1.00  0.00     0.059 A 
ATOM     92  C   UNL A   1      51.175  26.989  23.966  1.00  0.00     0.059 A 
ATOM     93  F   UNL A   1      48.978  27.736  23.642  1.00  0.00    -0.206 F 
ATOM     94  C   UNL A   1      52.178  26.556  24.831  1.00  0.00     0.060 A 
BRANCH  94  95
ATOM     95  S   UNL A   1      53.814  26.137  24.194  1.00  0.00     0.124 S 
ATOM     96  O   UNL A   1      54.629  27.216  24.743  1.00  0.00    -0.237 OA
ATOM     97  O   UNL A   1      54.042  24.814  24.768  1.00  0.00    -0.237 OA
ATOM     98  O   UNL A   1      53.632  26.162  22.746  1.00  0.00    -0.744 OA
ENDBRANCH  94  95
ENDBRANCH  62  87
ENDBRANCH  36  37
ENDBRANCH  28  31
ENDBRANCH  26  27
ENDBRANCH   1  26
TORSDOF 16
ENDMDL
MODEL 2
REMARK VINA RESULT:     -12.0      6.752     11.576
REMARK SMILES CCc1n[nH]c(C(=O)N[C@@]2(C(=O)NCCCNC(=O)c3ccc(-c4c5nc(c(-c6c(F)cc(S(=O)(=O)[O-])cc6F)c6ccc([nH]6)c(-c6c(F)cc(S(=O)(=O)[O-])cc6F)c6nc(c(-c7c(F)cc(S(=O)(=O)[O-])cc7F)c7ccc4[nH]7)C=C6)C=C5)cc3)CCCC[C@H]2C)n1
REMARK SMILES IDX 15 1 14 2 13 3 11 4 12 5 10 7 86 8 90 9 87 10 89 11 91 12
REMARK SMILES IDX 88 13 9 14 7 15 8 16 6 18 3 19 4 20 92 21 5 22 2 24 1 25
REMARK SMILES IDX 16 26 17 27 18 28 19 30 20 31 21 32 85 33 22 34 84 35 23 36
REMARK SMILES IDX 24 37 25 38 78 39 26 40 83 41 77 42 79 43 27 44 82 45 76 46
REMARK SMILES IDX 75 47 28 49 62 50 41 51 61 52 42 53 45 54 60 55 80 56 43 57
REMARK SMILES IDX 44 58 59 60 81 61 46 62 29 63 30 64 39 65 31 66 32 67 38 68
REMARK SMILES IDX 40 69 33 70 34 71 35 72 36 73 37 74 63 75 64 76 73 77 65 78
REMARK SMILES IDX 66 79 72 80 74 81 67 82 68 83 69 84 70 85 71 86 47 87 48 88
REMARK SMILES IDX 57 89 49 90 50 91 56 92 58 93 51 94 52 95 53 96 54 97 55 98
REMARK H PARENT 13 6 9 17 5 23 17 29 79 48 45 59
REMARK Flexibility Score: inf
ROOT
ATOM      1  C   UNL A   1      38.109  24.308  26.113  1.00  0.00     0.042 C 
ENDROOT
BRANCH   1   2
ATOM      2  C   UNL A   1      37.056  23.313  25.684  1.00  0.00     0.117 C 
BRANCH   2   3
ATOM      3  N   UNL A   1      36.010  23.079  26.665  1.00  0.00    -0.354 N 
ATOM      4  C   UNL A   1      34.651  23.013  26.545  1.00  0.00     0.246 C 
ATOM      5  O   UNL A   1      34.027  22.754  27.583  1.00  0.00    -0.272 OA
ATOM      6  H   UNL A   1      36.341  22.943  27.583  1.00  0.00     0.163 HD
BRANCH   4   7
ATOM      7  C   UNL A   1      33.894  23.381  25.220  1.00  0.00     0.122 C 
ATOM      8  C   UNL A   1      34.588  22.788  23.990  1.00  0.00     0.039 C 
ATOM      9  C   UNL A   1      33.877  24.950  25.110  1.00  0.00     0.021 C 
ATOM     10  C   UNL A   1      34.034  23.294  22.662  1.00  0.00     0.003 C 
ATOM     11  C   UNL A   1      33.339  25.431  23.753  1.00  0.00     0.006 C 
ATOM     12  C   UNL A   1      33.149  25.677  26.249  1.00  0.00     0.011 C 
ATOM     13  C   UNL A   1      34.115  24.808  22.598  1.00  0.00     0.000 C 
BRANCH   7  14
ATOM     14  N   UNL A   1      32.488  22.859  25.411  1.00  0.00    -0.335 N 
ATOM     15  C   UNL A   1      31.827  21.649  25.482  1.00  0.00     0.289 C 
ATOM     16  O   UNL A   1      30.606  21.714  25.654  1.00  0.00    -0.266 OA
ATOM     17  H   UNL A   1      31.854  23.605  25.516  1.00  0.00     0.165 HD
BRANCH  15  18
ATOM     18  C   UNL A   1      32.454  20.370  25.230  1.00  0.00     0.214 A 
ATOM     19  C   UNL A   1      32.942  18.471  24.427  1.00  0.00     0.151 A 
ATOM     20  N   UNL A   1      33.075  18.276  25.747  1.00  0.00    -0.158 NA
ATOM     21  N   UNL A   1      32.712  19.777  24.082  1.00  0.00    -0.207 NA
ATOM     22  N   UNL A   1      32.837  19.515  26.225  1.00  0.00    -0.255 N 
ATOM     23  H   UNL A   1      32.929  19.770  27.172  1.00  0.00     0.192 HD
BRANCH  19  24
ATOM     24  C   UNL A   1      32.789  17.336  23.466  1.00  0.00     0.076 C 
ATOM     25  C   UNL A   1      34.082  16.807  22.859  1.00  0.00     0.012 C 
ENDBRANCH  19  24
ENDBRANCH  15  18
ENDBRANCH   7  14
ENDBRANCH   4   7
ENDBRANCH   2   3
ENDBRANCH   1   2
BRANCH   1  26
ATOM     26  C   UNL A   1      39.291  23.684  26.816  1.00  0.00     0.118 C 
BRANCH  26  27
ATOM     27  N   UNL A   1      40.546  23.914  26.113  1.00  0.00    -0.352 N 
ATOM     28  C   UNL A   1      41.515  24.876  26.296  1.00  0.00     0.251 C 
ATOM     29  H   UNL A   1      40.733  23.277  25.387  1.00  0.00     0.163 HD
ATOM     30  O   UNL A   1      42.395  25.011  25.455  1.00  0.00    -0.269 OA
BRANCH  28  31
ATOM     31  C   UNL A   1      41.472  25.763  27.481  1.00  0.00     0.039 A 
ATOM     32  C   UNL A   1      42.395  26.806  27.587  1.00  0.00     0.014 A 
ATOM     33  C   UNL A   1      40.525  25.572  28.486  1.00  0.00     0.014 A 
ATOM     34  C   UNL A   1      42.305  27.703  28.654  1.00  0.00     0.010 A 
ATOM     35  C   UNL A   1      40.350  26.538  29.467  1.00  0.00     0.010 A 
ATOM     36  C   UNL A   1      41.247  27.608  29.575  1.00  0.00    -0.014 A 
BRANCH  36  37
ATOM     37  C   UNL A   1      41.067  28.599  30.667  1.00  0.00     0.031 A 
ATOM     38  C   UNL A   1      41.899  28.497  31.919  1.00  0.00     0.074 A 
ATOM     39  C   UNL A   1      40.103  29.536  30.565  1.00  0.00     0.049 A 
ATOM     40  N   UNL A   1      41.832  29.209  33.014  1.00  0.00    -0.248 NA
ATOM     41  C   UNL A   1      42.917  27.433  31.963  1.00  0.00     0.031 C 
ATOM     42  C   UNL A   1      39.189  29.693  29.430  1.00  0.00     0.029 A 
ATOM     43  N   UNL A   1      39.720  30.526  31.435  1.00  0.00    -0.354 N 
ATOM     44  C   UNL A   1      42.776  28.666  33.879  1.00  0.00     0.074 A 
ATOM     45  C   UNL A   1      43.362  27.529  33.206  1.00  0.00     0.031 C 
ATOM     46  C   UNL A   1      38.371  30.732  29.662  1.00  0.00     0.029 A 
ATOM     47  C   UNL A   1      38.667  31.287  30.979  1.00  0.00     0.049 A 
ATOM     48  H   UNL A   1      40.156  30.679  32.304  1.00  0.00     0.167 HD
ATOM     49  C   UNL A   1      43.140  29.094  35.110  1.00  0.00     0.037 A 
ATOM     50  C   UNL A   1      38.007  32.307  31.561  1.00  0.00     0.037 A 
ATOM     51  C   UNL A   1      42.577  30.250  35.755  1.00  0.00     0.049 A 
ATOM     52  C   UNL A   1      38.441  32.772  32.924  1.00  0.00     0.074 A 
ATOM     53  C   UNL A   1      42.934  30.817  36.966  1.00  0.00     0.029 A 
ATOM     54  N   UNL A   1      41.538  31.015  35.246  1.00  0.00    -0.354 N 
ATOM     55  N   UNL A   1      39.395  32.299  33.691  1.00  0.00    -0.248 NA
ATOM     56  C   UNL A   1      37.717  33.913  33.500  1.00  0.00     0.031 C 
ATOM     57  C   UNL A   1      42.072  31.888  37.217  1.00  0.00     0.029 A 
ATOM     58  C   UNL A   1      41.220  32.030  36.134  1.00  0.00     0.049 A 
ATOM     59  H   UNL A   1      41.092  30.860  34.382  1.00  0.00     0.167 HD
ATOM     60  C   UNL A   1      39.402  33.102  34.828  1.00  0.00     0.074 A 
ATOM     61  C   UNL A   1      38.370  34.100  34.639  1.00  0.00     0.031 C 
ATOM     62  C   UNL A   1      40.193  33.021  35.927  1.00  0.00     0.037 A 
BRANCH  49  63
ATOM     63  C   UNL A   1      44.197  28.313  35.844  1.00  0.00     0.058 A 
ATOM     64  C   UNL A   1      45.566  28.596  35.694  1.00  0.00     0.135 A 
ATOM     65  C   UNL A   1      43.836  27.302  36.747  1.00  0.00     0.135 A 
ATOM     66  F   UNL A   1      45.971  29.540  34.830  1.00  0.00    -0.206 F 
ATOM     67  C   UNL A   1      46.536  27.890  36.397  1.00  0.00     0.059 A 
ATOM     68  C   UNL A   1      44.787  26.604  37.486  1.00  0.00     0.059 A 
ATOM     69  F   UNL A   1      42.543  26.987  36.927  1.00  0.00    -0.206 F 
ATOM     70  C   UNL A   1      46.137  26.898  37.295  1.00  0.00     0.060 A 
BRANCH  70  71
ATOM     71  S   UNL A   1      47.408  26.008  38.216  1.00  0.00     0.124 S 
ATOM     72  O   UNL A   1      48.056  27.097  38.943  1.00  0.00    -0.237 OA
ATOM     73  O   UNL A   1      46.617  25.089  39.027  1.00  0.00    -0.237 OA
ATOM     74  O   UNL A   1      48.214  25.385  37.171  1.00  0.00    -0.744 OA
ENDBRANCH  70  71
ENDBRANCH  49  63
BRANCH  50  75
ATOM     75  C   UNL A   1      36.874  32.962  30.852  1.00  0.00     0.058 A 
ATOM     76  C   UNL A   1      35.544  32.614  31.132  1.00  0.00     0.135 A 
ATOM     77  C   UNL A   1      37.098  33.954  29.885  1.00  0.00     0.135 A 
ATOM     78  F   UNL A   1      35.276  31.668  32.045  1.00  0.00    -0.206 F 
ATOM     79  C   UNL A   1      34.478  33.209  30.464  1.00  0.00     0.059 A 
ATOM     80  C   UNL A   1      36.048  34.586  29.225  1.00  0.00     0.059 A 
ATOM     81  F   UNL A   1      38.350  34.340  29.593  1.00  0.00    -0.206 F 
ATOM     82  C   UNL A   1      34.741  34.196  29.513  1.00  0.00     0.060 A 
BRANCH  82  83
ATOM     83  S   UNL A   1      33.348  34.991  28.682  1.00  0.00     0.124 S 
ATOM     84  O   UNL A   1      34.023  36.010  27.887  1.00  0.00    -0.237 OA
ATOM     85  O   UNL A   1      32.763  33.880  27.936  1.00  0.00    -0.237 OA
ATOM     86  O   UNL A   1      32.537  35.488  29.790  1.00  0.00    -0.744 OA
ENDBRANCH  82  83
ENDBRANCH  50  75
BRANCH  62  87
ATOM     87  C   UNL A   1      40.000  34.058  36.998  1.00  0.00     0.058 A 
ATOM     88  C   UNL A   1      40.603  35.323  36.923  1.00  0.00     0.135 A 
ATOM     89  C   UNL A   1      39.152  33.801  38.088  1.00  0.00     0.135 A 
ATOM     90  F   UNL A   1      41.427  35.619  35.905  1.00  0.00    -0.206 F 
ATOM     91  C   UNL A   1      40.392  36.288  37.902  1.00  0.00     0.059 A 
ATOM     92  C   UNL A   1      38.901  34.761  39.061  1.00  0.00     0.059 A 
ATOM     93  F   UNL A   1      38.539  32.611  38.203  1.00  0.00    -0.206 F 
ATOM     94  C   UNL A   1      39.536  35.998  38.966  1.00  0.00     0.060 A 
BRANCH  94  95
ATOM     95  S   UNL A   1      39.246  37.271  40.213  1.00  0.00     0.124 S 
ATOM     96  O   UNL A   1      38.540  36.517  41.244  1.00  0.00    -0.237 OA
ATOM     97  O   UNL A   1      40.603  37.690  40.551  1.00  0.00    -0.237 OA
ATOM     98  O   UNL A   1      38.448  38.266  39.503  1.00  0.00    -0.744 OA
ENDBRANCH  94  95
ENDBRANCH  62  87
ENDBRANCH  36  37
ENDBRANCH  28  31
ENDBRANCH  26  27
ENDBRANCH   1  26
TORSDOF 16
ENDMDL
MODEL 3
REMARK VINA RESULT:     -12.0      0.683      8.254
REMARK SMILES CCc1n[nH]c(C(=O)N[C@@]2(C(=O)NCCCNC(=O)c3ccc(-c4c5nc(c(-c6c(F)cc(S(=O)(=O)[O-])cc6F)c6ccc([nH]6)c(-c6c(F)cc(S(=O)(=O)[O-])cc6F)c6nc(c(-c7c(F)cc(S(=O)(=O)[O-])cc7F)c7ccc4[nH]7)C=C6)C=C5)cc3)CCCC[C@H]2C)n1
REMARK SMILES IDX 15 1 14 2 13 3 11 4 12 5 10 7 86 8 90 9 87 10 89 11 91 12
REMARK SMILES IDX 88 13 9 14 7 15 8 16 6 18 3 19 4 20 92 21 5 22 2 24 1 25
REMARK SMILES IDX 16 26 17 27 18 28 19 30 20 31 21 32 85 33 22 34 84 35 23 36
REMARK SMILES IDX 24 37 25 38 78 39 26 40 83 41 77 42 79 43 27 44 82 45 76 46
REMARK SMILES IDX 75 47 28 49 62 50 41 51 61 52 42 53 45 54 60 55 80 56 43 57
REMARK SMILES IDX 44 58 59 60 81 61 46 62 29 63 30 64 39 65 31 66 32 67 38 68
REMARK SMILES IDX 40 69 33 70 34 71 35 72 36 73 37 74 63 75 64 76 73 77 65 78
REMARK SMILES IDX 66 79 72 80 74 81 67 82 68 83 69 84 70 85 71 86 47 87 48 88
REMARK SMILES IDX 57 89 49 90 50 91 56 92 58 93 51 94 52 95 53 96 54 97 55 98
REMARK H PARENT 13 6 9 17 5 23 17 29 79 48 45 59
REMARK Flexibility Score: inf
ROOT
ATOM      1  C   UNL A   1      35.610  29.329  27.988  1.00  0.00     0.042 C 
ENDROOT
BRANCH   1   2
ATOM      2  C   UNL A   1      34.512  28.992  27.006  1.00  0.00     0.117 C 
BRANCH   2   3
ATOM      3  N   UNL A   1      33.231  28.678  27.615  1.00  0.00    -0.354 N 
ATOM      4  C   UNL A   1      32.171  27.939  27.171  1.00  0.00     0.246 C 
ATOM      5  O   UNL A   1      31.221  27.826  27.957  1.00  0.00    -0.272 OA
ATOM      6  H   UNL A   1      33.103  29.069  28.510  1.00  0.00     0.163 HD
BRANCH   4   7
ATOM      7  C   UNL A   1      32.077  27.381  25.707  1.00  0.00     0.122 C 
ATOM      8  C   UNL A   1      33.151  26.325  25.435  1.00  0.00     0.039 C 
ATOM      9  C   UNL A   1      32.272  28.596  24.727  1.00  0.00     0.021 C 
ATOM     10  C   UNL A   1      33.256  25.908  23.971  1.00  0.00     0.003 C 
ATOM     11  C   UNL A   1      32.401  28.147  23.263  1.00  0.00     0.006 C 
ATOM     12  C   UNL A   1      31.218  29.705  24.844  1.00  0.00     0.011 C 
ATOM     13  C   UNL A   1      33.515  27.121  23.094  1.00  0.00     0.000 C 
BRANCH   7  14
ATOM     14  N   UNL A   1      30.672  26.836  25.583  1.00  0.00    -0.335 N 
ATOM     15  C   UNL A   1      29.992  25.652  25.790  1.00  0.00     0.289 C 
ATOM     16  O   UNL A   1      28.783  25.676  25.536  1.00  0.00    -0.266 OA
ATOM     17  H   UNL A   1      30.058  27.533  25.256  1.00  0.00     0.165 HD
BRANCH  15  18
ATOM     18  C   UNL A   1      30.632  24.403  26.139  1.00  0.00     0.214 A 
ATOM     19  C   UNL A   1      31.978  22.953  26.899  1.00  0.00     0.151 A 
ATOM     20  N   UNL A   1      31.645  22.449  25.702  1.00  0.00    -0.158 NA
ATOM     21  N   UNL A   1      31.257  24.065  27.249  1.00  0.00    -0.207 NA
ATOM     22  N   UNL A   1      30.732  23.346  25.277  1.00  0.00    -0.255 N 
ATOM     23  H   UNL A   1      30.205  23.252  24.451  1.00  0.00     0.192 HD
BRANCH  19  24
ATOM     24  C   UNL A   1      33.196  22.506  27.641  1.00  0.00     0.076 C 
ATOM     25  C   UNL A   1      34.515  22.654  26.893  1.00  0.00     0.012 C 
ENDBRANCH  19  24
ENDBRANCH  15  18
ENDBRANCH   7  14
ENDBRANCH   4   7
ENDBRANCH   2   3
ENDBRANCH   1   2
BRANCH   1  26
ATOM     26  C   UNL A   1      35.615  30.774  28.427  1.00  0.00     0.118 C 
BRANCH  26  27
ATOM     27  N   UNL A   1      35.525  30.920  29.874  1.00  0.00    -0.352 N 
ATOM     28  C   UNL A   1      36.455  30.680  30.861  1.00  0.00     0.251 C 
ATOM     29  H   UNL A   1      34.655  31.243  30.201  1.00  0.00     0.163 HD
ATOM     30  O   UNL A   1      36.101  30.673  32.033  1.00  0.00    -0.269 OA
BRANCH  28  31
ATOM     31  C   UNL A   1      37.865  30.399  30.506  1.00  0.00     0.039 A 
ATOM     32  C   UNL A   1      38.644  29.620  31.365  1.00  0.00     0.014 A 
ATOM     33  C   UNL A   1      38.420  30.895  29.327  1.00  0.00     0.014 A 
ATOM     34  C   UNL A   1      39.945  29.273  30.995  1.00  0.00     0.010 A 
ATOM     35  C   UNL A   1      39.659  30.440  28.898  1.00  0.00     0.010 A 
ATOM     36  C   UNL A   1      40.446  29.636  29.732  1.00  0.00    -0.014 A 
BRANCH  36  37
ATOM     37  C   UNL A   1      41.789  29.204  29.269  1.00  0.00     0.031 A 
ATOM     38  C   UNL A   1      42.911  30.207  29.177  1.00  0.00     0.074 A 
ATOM     39  C   UNL A   1      41.977  27.935  28.855  1.00  0.00     0.049 A 
ATOM     40  N   UNL A   1      44.124  30.047  28.717  1.00  0.00    -0.248 NA
ATOM     41  C   UNL A   1      42.621  31.580  29.628  1.00  0.00     0.031 C 
ATOM     42  C   UNL A   1      40.950  26.890  28.832  1.00  0.00     0.029 A 
ATOM     43  N   UNL A   1      43.093  27.309  28.358  1.00  0.00    -0.354 N 
ATOM     44  C   UNL A   1      44.730  31.296  28.801  1.00  0.00     0.074 A 
ATOM     45  C   UNL A   1      43.734  32.217  29.300  1.00  0.00     0.031 C 
ATOM     46  C   UNL A   1      41.490  25.749  28.374  1.00  0.00     0.029 A 
ATOM     47  C   UNL A   1      42.886  25.990  28.024  1.00  0.00     0.049 A 
ATOM     48  H   UNL A   1      43.961  27.761  28.251  1.00  0.00     0.167 HD
ATOM     49  C   UNL A   1      46.007  31.638  28.514  1.00  0.00     0.037 A 
ATOM     50  C   UNL A   1      43.722  25.082  27.484  1.00  0.00     0.037 A 
ATOM     51  C   UNL A   1      47.002  30.706  28.055  1.00  0.00     0.049 A 
ATOM     52  C   UNL A   1      45.141  25.484  27.188  1.00  0.00     0.074 A 
ATOM     53  C   UNL A   1      48.346  30.932  27.815  1.00  0.00     0.029 A 
ATOM     54  N   UNL A   1      46.762  29.371  27.762  1.00  0.00    -0.354 N 
ATOM     55  N   UNL A   1      45.719  26.650  27.356  1.00  0.00    -0.248 NA
ATOM     56  C   UNL A   1      46.025  24.447  26.638  1.00  0.00     0.031 C 
ATOM     57  C   UNL A   1      48.905  29.751  27.320  1.00  0.00     0.029 A 
ATOM     58  C   UNL A   1      47.927  28.769  27.313  1.00  0.00     0.049 A 
ATOM     59  H   UNL A   1      45.894  28.918  27.858  1.00  0.00     0.167 HD
ATOM     60  C   UNL A   1      47.041  26.479  26.956  1.00  0.00     0.074 A 
ATOM     61  C   UNL A   1      47.180  25.094  26.556  1.00  0.00     0.031 C 
ATOM     62  C   UNL A   1      48.049  27.386  26.925  1.00  0.00     0.037 A 
BRANCH  49  63
ATOM     63  C   UNL A   1      46.409  33.078  28.691  1.00  0.00     0.058 A 
ATOM     64  C   UNL A   1      46.305  34.011  27.645  1.00  0.00     0.135 A 
ATOM     65  C   UNL A   1      46.857  33.543  29.938  1.00  0.00     0.135 A 
ATOM     66  F   UNL A   1      45.900  33.620  26.427  1.00  0.00    -0.206 F 
ATOM     67  C   UNL A   1      46.650  35.346  27.824  1.00  0.00     0.059 A 
ATOM     68  C   UNL A   1      47.177  34.881  30.149  1.00  0.00     0.059 A 
ATOM     69  F   UNL A   1      46.979  32.695  30.971  1.00  0.00    -0.206 F 
ATOM     70  C   UNL A   1      47.081  35.773  29.081  1.00  0.00     0.060 A 
BRANCH  70  71
ATOM     71  S   UNL A   1      47.503  37.514  29.302  1.00  0.00     0.124 S 
ATOM     72  O   UNL A   1      46.196  38.150  29.155  1.00  0.00    -0.237 OA
ATOM     73  O   UNL A   1      48.066  37.529  30.647  1.00  0.00    -0.237 OA
ATOM     74  O   UNL A   1      48.451  37.775  28.224  1.00  0.00    -0.744 OA
ENDBRANCH  70  71
ENDBRANCH  49  63
BRANCH  50  75
ATOM     75  C   UNL A   1      43.240  23.703  27.199  1.00  0.00     0.058 A 
ATOM     76  C   UNL A   1      42.897  23.309  25.896  1.00  0.00     0.135 A 
ATOM     77  C   UNL A   1      43.119  22.749  28.221  1.00  0.00     0.135 A 
ATOM     78  F   UNL A   1      42.990  24.184  24.884  1.00  0.00    -0.206 F 
ATOM     79  C   UNL A   1      42.430  22.027  25.621  1.00  0.00     0.059 A 
ATOM     80  C   UNL A   1      42.684  21.452  27.966  1.00  0.00     0.059 A 
ATOM     81  F   UNL A   1      43.453  23.067  29.482  1.00  0.00    -0.206 F 
ATOM     82  C   UNL A   1      42.329  21.105  26.664  1.00  0.00     0.060 A 
BRANCH  82  83
ATOM     83  S   UNL A   1      41.762  19.431  26.288  1.00  0.00     0.124 S 
ATOM     84  O   UNL A   1      40.329  19.639  26.116  1.00  0.00    -0.237 OA
ATOM     85  O   UNL A   1      42.514  19.119  25.076  1.00  0.00    -0.237 OA
ATOM     86  O   UNL A   1      42.153  18.672  27.473  1.00  0.00    -0.744 OA
ENDBRANCH  82  83
ENDBRANCH  50  75
BRANCH  62  87
ATOM     87  C   UNL A   1      49.401  26.906  26.476  1.00  0.00     0.058 A 
ATOM     88  C   UNL A   1      50.344  26.393  27.381  1.00  0.00     0.135 A 
ATOM     89  C   UNL A   1      49.736  26.907  25.112  1.00  0.00     0.135 A 
ATOM     90  F   UNL A   1      50.077  26.373  28.696  1.00  0.00    -0.206 F 
ATOM     91  C   UNL A   1      51.579  25.920  26.952  1.00  0.00     0.059 A 
ATOM     92  C   UNL A   1      50.952  26.410  24.657  1.00  0.00     0.059 A 
ATOM     93  F   UNL A   1      48.866  27.375  24.202  1.00  0.00    -0.206 F 
ATOM     94  C   UNL A   1      51.873  25.930  25.587  1.00  0.00     0.060 A 
BRANCH  94  95
ATOM     95  S   UNL A   1      53.468  25.284  25.041  1.00  0.00     0.124 S 
ATOM     96  O   UNL A   1      53.292  23.851  25.253  1.00  0.00    -0.237 OA
ATOM     97  O   UNL A   1      53.519  25.718  23.649  1.00  0.00    -0.237 OA
ATOM     98  O   UNL A   1      54.422  25.938  25.932  1.00  0.00    -0.744 OA
ENDBRANCH  94  95
ENDBRANCH  62  87
ENDBRANCH  36  37
ENDBRANCH  28  31
ENDBRANCH  26  27
ENDBRANCH   1  26
TORSDOF 16
ENDMDL
