MODEL 1
REMARK VINA RESULT:      -9.8      0.000      0.000
REMARK SMILES Cc1cc(C(=O)NC2CC2)sc1/C=C/C(=O)NCCCNC(=O)c1ccc(-c2c3nc(c(-c4c(F)cc(S(=O)(=O)[O-])cc4F)c4ccc([nH]4)c(-c4c(F)cc(S(=O)(=O)[O-])cc4F)c4nc(c(-c5c(F)cc(S(=O)(=O)[O-])cc5F)c5ccc2[nH]5)C=C4)C=C3)cc1
REMARK SMILES IDX 19 1 18 2 17 3 15 4 16 5 14 7 13 8 12 9 1 10 2 11 3 12 4 13
REMARK SMILES IDX 11 14 5 15 6 16 7 17 8 19 9 20 10 21 20 22 21 23 22 24 23 26
REMARK SMILES IDX 24 27 25 28 89 29 26 30 88 31 27 32 28 33 29 34 82 35 30 36
REMARK SMILES IDX 87 37 81 38 83 39 31 40 86 41 80 42 79 43 32 45 66 46 45 47
REMARK SMILES IDX 65 48 46 49 49 50 64 51 84 52 47 53 48 54 63 56 85 57 50 58
REMARK SMILES IDX 33 59 34 60 43 61 35 62 36 63 42 64 44 65 37 66 38 67 39 68
REMARK SMILES IDX 40 69 41 70 67 71 68 72 77 73 69 74 70 75 76 76 78 77 71 78
REMARK SMILES IDX 72 79 73 80 74 81 75 82 51 83 52 84 61 85 53 86 54 87 60 88
REMARK SMILES IDX 62 89 55 90 56 91 57 92 58 93 59 94
REMARK H PARENT 17 6 7 18 21 25 83 44 49 55
REMARK Flexibility Score: inf
ROOT
ATOM      1  C   UNL A   1      33.508  33.643  28.283  1.00  0.00     0.042 C 
ENDROOT
BRANCH   1   2
ATOM      2  C   UNL A   1      34.029  34.989  28.781  1.00  0.00     0.118 C 
BRANCH   2   3
ATOM      3  N   UNL A   1      33.211  35.491  29.869  1.00  0.00    -0.352 N 
ATOM      4  C   UNL A   1      33.316  35.296  31.209  1.00  0.00     0.244 C 
ATOM      5  O   UNL A   1      32.557  35.886  31.975  1.00  0.00    -0.270 OA
ATOM      6  H   UNL A   1      32.461  36.065  29.592  1.00  0.00     0.163 HD
BRANCH   4   7
ATOM      7  C   UNL A   1      34.405  34.469  31.762  1.00  0.00     0.072 C 
ATOM      8  C   UNL A   1      35.534  34.958  32.298  1.00  0.00     0.025 C 
BRANCH   8   9
ATOM      9  C   UNL A   1      36.595  34.145  32.798  1.00  0.00     0.031 A 
ATOM     10  C   UNL A   1      38.495  34.688  31.137  1.00  0.00     0.046 C 
ATOM     11  C   UNL A   1      37.861  33.931  32.261  1.00  0.00    -0.032 A 
ATOM     12  C   UNL A   1      38.500  32.816  32.907  1.00  0.00     0.029 A 
ATOM     13  C   UNL A   1      37.754  32.261  33.938  1.00  0.00     0.093 A 
ATOM     14  S   UNL A   1      36.455  33.281  34.272  1.00  0.00    -0.130 S 
BRANCH  13  15
ATOM     15  C   UNL A   1      38.134  31.095  34.712  1.00  0.00     0.261 C 
ATOM     16  O   UNL A   1      37.873  31.044  35.923  1.00  0.00    -0.268 OA
ATOM     17  N   UNL A   1      38.804  29.975  34.264  1.00  0.00    -0.349 N 
ATOM     18  H   UNL A   1      38.852  29.315  34.993  1.00  0.00     0.164 HD
BRANCH  17  19
ATOM     19  C   UNL A   1      39.450  29.445  33.109  1.00  0.00     0.082 C 
ATOM     20  C   UNL A   1      40.857  28.919  33.197  1.00  0.00     0.027 C 
ATOM     21  C   UNL A   1      39.751  28.060  32.645  1.00  0.00     0.027 C 
ENDBRANCH  17  19
ENDBRANCH  13  15
ENDBRANCH   8   9
ENDBRANCH   4   7
ENDBRANCH   2   3
ENDBRANCH   1   2
BRANCH   1  22
ATOM     22  C   UNL A   1      34.469  32.496  28.572  1.00  0.00     0.118 C 
BRANCH  22  23
ATOM     23  N   UNL A   1      33.861  31.205  28.284  1.00  0.00    -0.352 N 
ATOM     24  C   UNL A   1      34.451  30.002  27.992  1.00  0.00     0.251 C 
ATOM     25  H   UNL A   1      32.877  31.194  28.301  1.00  0.00     0.163 HD
ATOM     26  O   UNL A   1      33.768  29.100  27.516  1.00  0.00    -0.269 OA
BRANCH  24  27
ATOM     27  C   UNL A   1      35.892  29.793  28.245  1.00  0.00     0.039 A 
ATOM     28  C   UNL A   1      36.302  29.401  29.522  1.00  0.00     0.014 A 
ATOM     29  C   UNL A   1      36.841  30.032  27.246  1.00  0.00     0.014 A 
ATOM     30  C   UNL A   1      37.660  29.207  29.784  1.00  0.00     0.010 A 
ATOM     31  C   UNL A   1      38.185  29.766  27.488  1.00  0.00     0.010 A 
ATOM     32  C   UNL A   1      38.610  29.365  28.763  1.00  0.00    -0.014 A 
BRANCH  32  33
ATOM     33  C   UNL A   1      40.052  29.127  29.012  1.00  0.00     0.031 A 
ATOM     34  C   UNL A   1      40.668  27.796  28.676  1.00  0.00     0.074 A 
ATOM     35  C   UNL A   1      40.792  30.092  29.596  1.00  0.00     0.049 A 
ATOM     36  N   UNL A   1      41.890  27.375  28.883  1.00  0.00    -0.248 NA
ATOM     37  C   UNL A   1      39.789  26.797  28.050  1.00  0.00     0.031 C 
ATOM     38  C   UNL A   1      40.291  31.404  30.012  1.00  0.00     0.029 A 
ATOM     39  N   UNL A   1      42.116  30.113  29.951  1.00  0.00    -0.354 N 
ATOM     40  C   UNL A   1      41.920  26.063  28.428  1.00  0.00     0.074 A 
ATOM     41  C   UNL A   1      40.583  25.738  27.982  1.00  0.00     0.031 C 
ATOM     42  C   UNL A   1      41.301  32.109  30.547  1.00  0.00     0.029 A 
ATOM     43  C   UNL A   1      42.508  31.289  30.546  1.00  0.00     0.049 A 
ATOM     44  H   UNL A   1      42.728  29.359  29.794  1.00  0.00     0.167 HD
ATOM     45  C   UNL A   1      42.974  25.212  28.365  1.00  0.00     0.037 A 
ATOM     46  C   UNL A   1      43.704  31.661  31.041  1.00  0.00     0.037 A 
ATOM     47  C   UNL A   1      44.308  25.554  28.787  1.00  0.00     0.049 A 
ATOM     48  C   UNL A   1      44.861  30.706  30.950  1.00  0.00     0.074 A 
ATOM     49  C   UNL A   1      45.456  24.786  28.717  1.00  0.00     0.029 A 
ATOM     50  N   UNL A   1      44.672  26.766  29.356  1.00  0.00    -0.354 N 
ATOM     51  N   UNL A   1      44.886  29.488  30.464  1.00  0.00    -0.248 NA
ATOM     52  C   UNL A   1      46.154  31.177  31.464  1.00  0.00     0.031 C 
ATOM     53  C   UNL A   1      46.507  25.518  29.279  1.00  0.00     0.029 A 
ATOM     54  C   UNL A   1      46.025  26.761  29.657  1.00  0.00     0.049 A 
ATOM     55  H   UNL A   1      44.059  27.519  29.524  1.00  0.00     0.167 HD
ATOM     56  C   UNL A   1      46.201  29.055  30.592  1.00  0.00     0.074 A 
ATOM     57  C   UNL A   1      46.943  30.147  31.188  1.00  0.00     0.031 C 
ATOM     58  C   UNL A   1      46.746  27.861  30.247  1.00  0.00     0.037 A 
BRANCH  45  59
ATOM     59  C   UNL A   1      42.726  23.835  27.813  1.00  0.00     0.058 A 
ATOM     60  C   UNL A   1      42.712  23.587  26.430  1.00  0.00     0.135 A 
ATOM     61  C   UNL A   1      42.528  22.744  28.674  1.00  0.00     0.135 A 
ATOM     62  F   UNL A   1      42.880  24.596  25.560  1.00  0.00    -0.206 F 
ATOM     63  C   UNL A   1      42.479  22.314  25.921  1.00  0.00     0.059 A 
ATOM     64  C   UNL A   1      42.321  21.456  28.186  1.00  0.00     0.059 A 
ATOM     65  F   UNL A   1      42.532  22.922  30.004  1.00  0.00    -0.206 F 
ATOM     66  C   UNL A   1      42.283  21.254  26.807  1.00  0.00     0.060 A 
BRANCH  66  67
ATOM     67  S   UNL A   1      41.983  19.608  26.130  1.00  0.00     0.124 S 
ATOM     68  O   UNL A   1      40.565  19.687  25.793  1.00  0.00    -0.237 OA
ATOM     69  O   UNL A   1      42.901  19.564  24.997  1.00  0.00    -0.237 OA
ATOM     70  O   UNL A   1      42.317  18.718  27.238  1.00  0.00    -0.744 OA
ENDBRANCH  66  67
ENDBRANCH  45  59
BRANCH  46  71
ATOM     71  C   UNL A   1      43.867  33.011  31.642  1.00  0.00     0.058 A 
ATOM     72  C   UNL A   1      44.136  34.130  30.839  1.00  0.00     0.135 A 
ATOM     73  C   UNL A   1      43.728  33.216  33.024  1.00  0.00     0.135 A 
ATOM     74  F   UNL A   1      44.280  33.984  29.513  1.00  0.00    -0.206 F 
ATOM     75  C   UNL A   1      44.275  35.402  31.385  1.00  0.00     0.059 A 
ATOM     76  C   UNL A   1      43.839  34.481  33.590  1.00  0.00     0.059 A 
ATOM     77  F   UNL A   1      43.451  32.181  33.832  1.00  0.00    -0.206 F 
ATOM     78  C   UNL A   1      44.122  35.567  32.762  1.00  0.00     0.060 A 
BRANCH  78  79
ATOM     79  S   UNL A   1      44.247  37.232  33.454  1.00  0.00     0.124 S 
ATOM     80  O   UNL A   1      45.206  37.030  34.533  1.00  0.00    -0.237 OA
ATOM     81  O   UNL A   1      44.723  38.004  32.310  1.00  0.00    -0.237 OA
ATOM     82  O   UNL A   1      42.878  37.525  33.869  1.00  0.00    -0.744 OA
ENDBRANCH  78  79
ENDBRANCH  46  71
BRANCH  58  83
ATOM     83  C   UNL A   1      48.221  27.685  30.476  1.00  0.00     0.058 A 
ATOM     84  C   UNL A   1      48.727  27.236  31.705  1.00  0.00     0.135 A 
ATOM     85  C   UNL A   1      49.134  27.923  29.436  1.00  0.00     0.135 A 
ATOM     86  F   UNL A   1      47.897  27.000  32.733  1.00  0.00    -0.206 F 
ATOM     87  C   UNL A   1      50.091  27.052  31.904  1.00  0.00     0.059 A 
ATOM     88  C   UNL A   1      50.499  27.720  29.605  1.00  0.00     0.059 A 
ATOM     89  F   UNL A   1      48.700  28.345  28.238  1.00  0.00    -0.206 F 
ATOM     90  C   UNL A   1      50.970  27.295  30.847  1.00  0.00     0.060 A 
BRANCH  90  91
ATOM     91  S   UNL A   1      52.735  27.023  31.107  1.00  0.00     0.124 S 
ATOM     92  O   UNL A   1      52.823  25.569  31.029  1.00  0.00    -0.237 OA
ATOM     93  O   UNL A   1      53.332  27.755  29.994  1.00  0.00    -0.237 OA
ATOM     94  O   UNL A   1      52.978  27.597  32.427  1.00  0.00    -0.744 OA
ENDBRANCH  90  91
ENDBRANCH  58  83
ENDBRANCH  32  33
ENDBRANCH  24  27
ENDBRANCH  22  23
ENDBRANCH   1  22
TORSDOF 16
ENDMDL
MODEL 2
REMARK VINA RESULT:      -9.7      5.125     11.417
REMARK SMILES Cc1cc(C(=O)NC2CC2)sc1/C=C/C(=O)NCCCNC(=O)c1ccc(-c2c3nc(c(-c4c(F)cc(S(=O)(=O)[O-])cc4F)c4ccc([nH]4)c(-c4c(F)cc(S(=O)(=O)[O-])cc4F)c4nc(c(-c5c(F)cc(S(=O)(=O)[O-])cc5F)c5ccc2[nH]5)C=C4)C=C3)cc1
REMARK SMILES IDX 19 1 18 2 17 3 15 4 16 5 14 7 13 8 12 9 1 10 2 11 3 12 4 13
REMARK SMILES IDX 11 14 5 15 6 16 7 17 8 19 9 20 10 21 20 22 21 23 22 24 23 26
REMARK SMILES IDX 24 27 25 28 89 29 26 30 88 31 27 32 28 33 29 34 82 35 30 36
REMARK SMILES IDX 87 37 81 38 83 39 31 40 86 41 80 42 79 43 32 45 66 46 45 47
REMARK SMILES IDX 65 48 46 49 49 50 64 51 84 52 47 53 48 54 63 56 85 57 50 58
REMARK SMILES IDX 33 59 34 60 43 61 35 62 36 63 42 64 44 65 37 66 38 67 39 68
REMARK SMILES IDX 40 69 41 70 67 71 68 72 77 73 69 74 70 75 76 76 78 77 71 78
REMARK SMILES IDX 72 79 73 80 74 81 75 82 51 83 52 84 61 85 53 86 54 87 60 88
REMARK SMILES IDX 62 89 55 90 56 91 57 92 58 93 59 94
REMARK H PARENT 17 6 7 18 21 25 83 44 49 55
REMARK Flexibility Score: inf
ROOT
ATOM      1  C   UNL A   1      38.058  22.870  26.113  1.00  0.00     0.042 C 
ENDROOT
BRANCH   1   2
ATOM      2  C   UNL A   1      36.614  23.145  25.701  1.00  0.00     0.118 C 
BRANCH   2   3
ATOM      3  N   UNL A   1      35.683  22.567  26.653  1.00  0.00    -0.352 N 
ATOM      4  C   UNL A   1      34.411  22.925  26.964  1.00  0.00     0.244 C 
ATOM      5  O   UNL A   1      33.759  22.245  27.754  1.00  0.00    -0.270 OA
ATOM      6  H   UNL A   1      36.029  21.793  27.152  1.00  0.00     0.163 HD
BRANCH   4   7
ATOM      7  C   UNL A   1      33.763  24.061  26.279  1.00  0.00     0.072 C 
ATOM      8  C   UNL A   1      33.043  23.956  25.152  1.00  0.00     0.025 C 
BRANCH   8   9
ATOM      9  C   UNL A   1      32.451  25.068  24.480  1.00  0.00     0.031 A 
ATOM     10  C   UNL A   1      30.430  23.961  23.317  1.00  0.00     0.046 C 
ATOM     11  C   UNL A   1      31.375  25.086  23.599  1.00  0.00    -0.032 A 
ATOM     12  C   UNL A   1      31.301  26.353  22.921  1.00  0.00     0.029 A 
ATOM     13  C   UNL A   1      32.256  27.270  23.338  1.00  0.00     0.093 A 
ATOM     14  S   UNL A   1      33.011  26.671  24.720  1.00  0.00    -0.130 S 
BRANCH  13  15
ATOM     15  C   UNL A   1      32.443  28.596  22.779  1.00  0.00     0.261 C 
ATOM     16  O   UNL A   1      33.580  29.087  22.718  1.00  0.00    -0.268 OA
ATOM     17  N   UNL A   1      31.470  29.445  22.296  1.00  0.00    -0.349 N 
ATOM     18  H   UNL A   1      31.900  30.242  21.909  1.00  0.00     0.164 HD
BRANCH  17  19
ATOM     19  C   UNL A   1      30.055  29.567  22.165  1.00  0.00     0.082 C 
ATOM     20  C   UNL A   1      29.271  30.415  23.128  1.00  0.00     0.027 C 
ATOM     21  C   UNL A   1      29.160  30.640  21.644  1.00  0.00     0.027 C 
ENDBRANCH  17  19
ENDBRANCH  13  15
ENDBRANCH   8   9
ENDBRANCH   4   7
ENDBRANCH   2   3
ENDBRANCH   1   2
BRANCH   1  22
ATOM     22  C   UNL A   1      38.811  24.138  26.497  1.00  0.00     0.118 C 
BRANCH  22  23
ATOM     23  N   UNL A   1      40.221  24.047  26.148  1.00  0.00    -0.352 N 
ATOM     24  C   UNL A   1      41.262  24.878  26.473  1.00  0.00     0.251 C 
ATOM     25  H   UNL A   1      40.465  23.271  25.594  1.00  0.00     0.163 HD
ATOM     26  O   UNL A   1      42.322  24.780  25.862  1.00  0.00    -0.269 OA
BRANCH  24  27
ATOM     27  C   UNL A   1      41.111  25.884  27.546  1.00  0.00     0.039 A 
ATOM     28  C   UNL A   1      40.092  25.717  28.488  1.00  0.00     0.014 A 
ATOM     29  C   UNL A   1      41.933  27.015  27.595  1.00  0.00     0.014 A 
ATOM     30  C   UNL A   1      39.927  26.660  29.503  1.00  0.00     0.010 A 
ATOM     31  C   UNL A   1      41.814  27.914  28.650  1.00  0.00     0.010 A 
ATOM     32  C   UNL A   1      40.802  27.754  29.607  1.00  0.00    -0.014 A 
BRANCH  32  33
ATOM     33  C   UNL A   1      40.664  28.746  30.700  1.00  0.00     0.031 A 
ATOM     34  C   UNL A   1      41.529  28.642  31.928  1.00  0.00     0.074 A 
ATOM     35  C   UNL A   1      39.721  29.705  30.611  1.00  0.00     0.049 A 
ATOM     36  N   UNL A   1      41.509  29.369  33.015  1.00  0.00    -0.248 NA
ATOM     37  C   UNL A   1      42.527  27.562  31.948  1.00  0.00     0.031 C 
ATOM     38  C   UNL A   1      38.791  29.873  29.492  1.00  0.00     0.029 A 
ATOM     39  N   UNL A   1      39.379  30.709  31.480  1.00  0.00    -0.354 N 
ATOM     40  C   UNL A   1      42.478  28.827  33.851  1.00  0.00     0.074 A 
ATOM     41  C   UNL A   1      43.031  27.678  33.168  1.00  0.00     0.031 C 
ATOM     42  C   UNL A   1      37.999  30.929  29.734  1.00  0.00     0.029 A 
ATOM     43  C   UNL A   1      38.338  31.491  31.038  1.00  0.00     0.049 A 
ATOM     44  H   UNL A   1      39.836  30.856  32.339  1.00  0.00     0.167 HD
ATOM     45  C   UNL A   1      42.888  29.262  35.067  1.00  0.00     0.037 A 
ATOM     46  C   UNL A   1      37.722  32.537  31.621  1.00  0.00     0.037 A 
ATOM     47  C   UNL A   1      42.349  30.424  35.728  1.00  0.00     0.049 A 
ATOM     48  C   UNL A   1      38.201  33.008  32.965  1.00  0.00     0.074 A 
ATOM     49  C   UNL A   1      42.730  30.980  36.936  1.00  0.00     0.029 A 
ATOM     50  N   UNL A   1      41.316  31.208  35.233  1.00  0.00    -0.354 N 
ATOM     51  N   UNL A   1      39.157  32.518  33.717  1.00  0.00    -0.248 NA
ATOM     52  C   UNL A   1      37.525  34.181  33.538  1.00  0.00     0.031 C 
ATOM     53  C   UNL A   1      41.900  32.078  37.191  1.00  0.00     0.029 A 
ATOM     54  C   UNL A   1      41.035  32.235  36.120  1.00  0.00     0.049 A 
ATOM     55  H   UNL A   1      40.851  31.056  34.379  1.00  0.00     0.167 HD
ATOM     56  C   UNL A   1      39.214  33.336  34.841  1.00  0.00     0.074 A 
ATOM     57  C   UNL A   1      38.205  34.359  34.662  1.00  0.00     0.031 C 
ATOM     58  C   UNL A   1      40.028  33.247  35.922  1.00  0.00     0.037 A 
BRANCH  45  59
ATOM     59  C   UNL A   1      43.973  28.483  35.757  1.00  0.00     0.058 A 
ATOM     60  C   UNL A   1      43.678  27.437  36.647  1.00  0.00     0.135 A 
ATOM     61  C   UNL A   1      45.327  28.764  35.508  1.00  0.00     0.135 A 
ATOM     62  F   UNL A   1      42.402  27.135  36.936  1.00  0.00    -0.206 F 
ATOM     63  C   UNL A   1      44.683  26.719  37.288  1.00  0.00     0.059 A 
ATOM     64  C   UNL A   1      46.349  28.040  36.116  1.00  0.00     0.059 A 
ATOM     65  F   UNL A   1      45.668  29.752  34.666  1.00  0.00    -0.206 F 
ATOM     66  C   UNL A   1      46.016  27.029  37.017  1.00  0.00     0.060 A 
BRANCH  66  67
ATOM     67  S   UNL A   1      47.308  26.089  37.855  1.00  0.00     0.124 S 
ATOM     68  O   UNL A   1      46.610  25.647  39.060  1.00  0.00    -0.237 OA
ATOM     69  O   UNL A   1      47.615  25.044  36.884  1.00  0.00    -0.237 OA
ATOM     70  O   UNL A   1      48.364  27.074  38.068  1.00  0.00    -0.744 OA
ENDBRANCH  66  67
ENDBRANCH  45  59
BRANCH  46  71
ATOM     71  C   UNL A   1      36.604  33.220  30.919  1.00  0.00     0.058 A 
ATOM     72  C   UNL A   1      35.280  33.073  31.359  1.00  0.00     0.135 A 
ATOM     73  C   UNL A   1      36.837  34.054  29.814  1.00  0.00     0.135 A 
ATOM     74  F   UNL A   1      35.006  32.283  32.409  1.00  0.00    -0.206 F 
ATOM     75  C   UNL A   1      34.225  33.718  30.723  1.00  0.00     0.059 A 
ATOM     76  C   UNL A   1      35.802  34.729  29.176  1.00  0.00     0.059 A 
ATOM     77  F   UNL A   1      38.089  34.243  29.367  1.00  0.00    -0.206 F 
ATOM     78  C   UNL A   1      34.497  34.547  29.633  1.00  0.00     0.060 A 
BRANCH  78  79
ATOM     79  S   UNL A   1      33.127  35.426  28.850  1.00  0.00     0.124 S 
ATOM     80  O   UNL A   1      32.374  35.889  30.010  1.00  0.00    -0.237 OA
ATOM     81  O   UNL A   1      33.822  36.457  28.085  1.00  0.00    -0.237 OA
ATOM     82  O   UNL A   1      32.480  34.391  28.047  1.00  0.00    -0.744 OA
ENDBRANCH  78  79
ENDBRANCH  46  71
BRANCH  58  83
ATOM     83  C   UNL A   1      39.883  34.303  36.981  1.00  0.00     0.058 A 
ATOM     84  C   UNL A   1      40.529  35.545  36.877  1.00  0.00     0.135 A 
ATOM     85  C   UNL A   1      39.049  34.087  38.091  1.00  0.00     0.135 A 
ATOM     86  F   UNL A   1      41.341  35.800  35.840  1.00  0.00    -0.206 F 
ATOM     87  C   UNL A   1      40.372  36.528  37.848  1.00  0.00     0.059 A 
ATOM     88  C   UNL A   1      38.857  35.065  39.060  1.00  0.00     0.059 A 
ATOM     89  F   UNL A   1      38.401  32.920  38.232  1.00  0.00    -0.206 F 
ATOM     90  C   UNL A   1      39.533  36.279  38.936  1.00  0.00     0.060 A 
BRANCH  90  91
ATOM     91  S   UNL A   1      39.313  37.573  40.175  1.00  0.00     0.124 S 
ATOM     92  O   UNL A   1      40.632  38.196  40.185  1.00  0.00    -0.237 OA
ATOM     93  O   UNL A   1      38.237  38.376  39.601  1.00  0.00    -0.237 OA
ATOM     94  O   UNL A   1      38.958  36.833  41.382  1.00  0.00    -0.744 OA
ENDBRANCH  90  91
ENDBRANCH  58  83
ENDBRANCH  32  33
ENDBRANCH  24  27
ENDBRANCH  22  23
ENDBRANCH   1  22
TORSDOF 16
ENDMDL
MODEL 3
REMARK VINA RESULT:      -9.7      0.850      8.442
REMARK SMILES Cc1cc(C(=O)NC2CC2)sc1/C=C/C(=O)NCCCNC(=O)c1ccc(-c2c3nc(c(-c4c(F)cc(S(=O)(=O)[O-])cc4F)c4ccc([nH]4)c(-c4c(F)cc(S(=O)(=O)[O-])cc4F)c4nc(c(-c5c(F)cc(S(=O)(=O)[O-])cc5F)c5ccc2[nH]5)C=C4)C=C3)cc1
REMARK SMILES IDX 19 1 18 2 17 3 15 4 16 5 14 7 13 8 12 9 1 10 2 11 3 12 4 13
REMARK SMILES IDX 11 14 5 15 6 16 7 17 8 19 9 20 10 21 20 22 21 23 22 24 23 26
REMARK SMILES IDX 24 27 25 28 89 29 26 30 88 31 27 32 28 33 29 34 82 35 30 36
REMARK SMILES IDX 87 37 81 38 83 39 31 40 86 41 80 42 79 43 32 45 66 46 45 47
REMARK SMILES IDX 65 48 46 49 49 50 64 51 84 52 47 53 48 54 63 56 85 57 50 58
REMARK SMILES IDX 33 59 34 60 43 61 35 62 36 63 42 64 44 65 37 66 38 67 39 68
REMARK SMILES IDX 40 69 41 70 67 71 68 72 77 73 69 74 70 75 76 76 78 77 71 78
REMARK SMILES IDX 72 79 73 80 74 81 75 82 51 83 52 84 61 85 53 86 54 87 60 88
REMARK SMILES IDX 62 89 55 90 56 91 57 92 58 93 59 94
REMARK H PARENT 17 6 7 18 21 25 83 44 49 55
REMARK Flexibility Score: inf
ROOT
ATOM      1  C   UNL A   1      33.970  33.592  28.497  1.00  0.00     0.042 C 
ENDROOT
BRANCH   1   2
ATOM      2  C   UNL A   1      34.692  34.845  28.985  1.00  0.00     0.118 C 
BRANCH   2   3
ATOM      3  N   UNL A   1      33.954  35.484  30.059  1.00  0.00    -0.352 N 
ATOM      4  C   UNL A   1      33.971  35.249  31.396  1.00  0.00     0.244 C 
ATOM      5  O   UNL A   1      33.320  35.966  32.153  1.00  0.00    -0.270 OA
ATOM      6  H   UNL A   1      33.345  36.202  29.772  1.00  0.00     0.163 HD
BRANCH   4   7
ATOM      7  C   UNL A   1      34.852  34.209  31.963  1.00  0.00     0.072 C 
ATOM      8  C   UNL A   1      36.186  34.317  32.065  1.00  0.00     0.025 C 
BRANCH   8   9
ATOM      9  C   UNL A   1      37.030  33.289  32.583  1.00  0.00     0.031 A 
ATOM     10  C   UNL A   1      39.307  34.497  32.710  1.00  0.00     0.046 C 
ATOM     11  C   UNL A   1      38.406  33.304  32.783  1.00  0.00    -0.032 A 
ATOM     12  C   UNL A   1      38.894  31.974  33.030  1.00  0.00     0.029 A 
ATOM     13  C   UNL A   1      37.897  31.010  33.077  1.00  0.00     0.093 A 
ATOM     14  S   UNL A   1      36.400  31.783  33.110  1.00  0.00    -0.130 S 
BRANCH  13  15
ATOM     15  C   UNL A   1      38.117  29.586  33.250  1.00  0.00     0.261 C 
ATOM     16  O   UNL A   1      37.168  28.795  33.137  1.00  0.00    -0.268 OA
ATOM     17  N   UNL A   1      39.303  28.954  33.559  1.00  0.00    -0.349 N 
ATOM     18  H   UNL A   1      39.165  27.979  33.534  1.00  0.00     0.164 HD
BRANCH  17  19
ATOM     19  C   UNL A   1      40.659  29.226  33.905  1.00  0.00     0.082 C 
ATOM     20  C   UNL A   1      41.571  28.115  34.349  1.00  0.00     0.027 C 
ATOM     21  C   UNL A   1      41.960  29.015  33.207  1.00  0.00     0.027 C 
ENDBRANCH  17  19
ENDBRANCH  13  15
ENDBRANCH   8   9
ENDBRANCH   4   7
ENDBRANCH   2   3
ENDBRANCH   1   2
BRANCH   1  22
ATOM     22  C   UNL A   1      34.625  32.306  28.988  1.00  0.00     0.118 C 
BRANCH  22  23
ATOM     23  N   UNL A   1      34.029  31.132  28.368  1.00  0.00    -0.352 N 
ATOM     24  C   UNL A   1      34.628  30.020  27.835  1.00  0.00     0.251 C 
ATOM     25  H   UNL A   1      33.045  31.138  28.324  1.00  0.00     0.163 HD
ATOM     26  O   UNL A   1      33.971  29.269  27.119  1.00  0.00    -0.269 OA
BRANCH  24  27
ATOM     27  C   UNL A   1      36.050  29.728  28.115  1.00  0.00     0.039 A 
ATOM     28  C   UNL A   1      36.402  29.242  29.377  1.00  0.00     0.014 A 
ATOM     29  C   UNL A   1      37.039  29.981  27.159  1.00  0.00     0.014 A 
ATOM     30  C   UNL A   1      37.740  28.968  29.664  1.00  0.00     0.010 A 
ATOM     31  C   UNL A   1      38.362  29.637  27.423  1.00  0.00     0.010 A 
ATOM     32  C   UNL A   1      38.728  29.141  28.682  1.00  0.00    -0.014 A 
BRANCH  32  33
ATOM     33  C   UNL A   1      40.150  28.821  28.957  1.00  0.00     0.031 A 
ATOM     34  C   UNL A   1      41.055  29.860  29.561  1.00  0.00     0.074 A 
ATOM     35  C   UNL A   1      40.637  27.613  28.608  1.00  0.00     0.049 A 
ATOM     36  N   UNL A   1      42.337  29.794  29.810  1.00  0.00    -0.248 NA
ATOM     37  C   UNL A   1      40.444  31.155  29.903  1.00  0.00     0.031 C 
ATOM     38  C   UNL A   1      39.866  26.544  27.971  1.00  0.00     0.029 A 
ATOM     39  N   UNL A   1      41.898  27.088  28.729  1.00  0.00    -0.354 N 
ATOM     40  C   UNL A   1      42.688  31.037  30.324  1.00  0.00     0.074 A 
ATOM     41  C   UNL A   1      41.496  31.856  30.301  1.00  0.00     0.031 C 
ATOM     42  C   UNL A   1      40.666  25.483  27.775  1.00  0.00     0.029 A 
ATOM     43  C   UNL A   1      42.011  25.808  28.238  1.00  0.00     0.049 A 
ATOM     44  H   UNL A   1      42.650  27.579  29.130  1.00  0.00     0.167 HD
ATOM     45  C   UNL A   1      43.890  31.451  30.794  1.00  0.00     0.037 A 
ATOM     46  C   UNL A   1      43.080  24.993  28.163  1.00  0.00     0.037 A 
ATOM     47  C   UNL A   1      45.065  30.619  30.836  1.00  0.00     0.049 A 
ATOM     48  C   UNL A   1      44.400  25.469  28.701  1.00  0.00     0.074 A 
ATOM     49  C   UNL A   1      46.317  30.923  31.341  1.00  0.00     0.029 A 
ATOM     50  N   UNL A   1      45.132  29.318  30.357  1.00  0.00    -0.354 N 
ATOM     51  N   UNL A   1      44.702  26.628  29.235  1.00  0.00    -0.248 NA
ATOM     52  C   UNL A   1      45.524  24.525  28.637  1.00  0.00     0.031 C 
ATOM     53  C   UNL A   1      47.152  29.820  31.132  1.00  0.00     0.029 A 
ATOM     54  C   UNL A   1      46.409  28.811  30.540  1.00  0.00     0.049 A 
ATOM     55  H   UNL A   1      44.383  28.828  29.947  1.00  0.00     0.167 HD
ATOM     56  C   UNL A   1      46.043  26.546  29.593  1.00  0.00     0.074 A 
ATOM     57  C   UNL A   1      46.490  25.217  29.226  1.00  0.00     0.031 C 
ATOM     58  C   UNL A   1      46.833  27.483  30.171  1.00  0.00     0.037 A 
BRANCH  45  59
ATOM     59  C   UNL A   1      43.990  32.862  31.305  1.00  0.00     0.058 A 
ATOM     60  C   UNL A   1      43.604  33.201  32.613  1.00  0.00     0.135 A 
ATOM     61  C   UNL A   1      44.504  33.884  30.491  1.00  0.00     0.135 A 
ATOM     62  F   UNL A   1      43.091  32.267  33.430  1.00  0.00    -0.206 F 
ATOM     63  C   UNL A   1      43.694  34.507  33.083  1.00  0.00     0.059 A 
ATOM     64  C   UNL A   1      44.629  35.193  30.951  1.00  0.00     0.059 A 
ATOM     65  F   UNL A   1      44.889  33.619  29.233  1.00  0.00    -0.206 F 
ATOM     66  C   UNL A   1      44.206  35.496  32.245  1.00  0.00     0.060 A 
BRANCH  66  67
ATOM     67  S   UNL A   1      44.317  37.185  32.871  1.00  0.00     0.124 S 
ATOM     68  O   UNL A   1      43.432  37.123  34.031  1.00  0.00    -0.237 OA
ATOM     69  O   UNL A   1      45.739  37.317  33.167  1.00  0.00    -0.237 OA
ATOM     70  O   UNL A   1      43.834  37.995  31.757  1.00  0.00    -0.744 OA
ENDBRANCH  66  67
ENDBRANCH  45  59
BRANCH  46  71
ATOM     71  C   UNL A   1      42.933  23.634  27.578  1.00  0.00     0.058 A 
ATOM     72  C   UNL A   1      43.243  23.392  26.231  1.00  0.00     0.135 A 
ATOM     73  C   UNL A   1      42.507  22.546  28.357  1.00  0.00     0.135 A 
ATOM     74  F   UNL A   1      43.650  24.401  25.446  1.00  0.00    -0.206 F 
ATOM     75  C   UNL A   1      43.125  22.124  25.673  1.00  0.00     0.059 A 
ATOM     76  C   UNL A   1      42.405  21.264  27.828  1.00  0.00     0.059 A 
ATOM     77  F   UNL A   1      42.218  22.722  29.656  1.00  0.00    -0.206 F 
ATOM     78  C   UNL A   1      42.708  21.065  26.481  1.00  0.00     0.060 A 
BRANCH  78  79
ATOM     79  S   UNL A   1      42.615  19.410  25.762  1.00  0.00     0.124 S 
ATOM     80  O   UNL A   1      43.074  18.582  26.870  1.00  0.00    -0.237 OA
ATOM     81  O   UNL A   1      41.199  19.302  25.425  1.00  0.00    -0.237 OA
ATOM     82  O   UNL A   1      43.518  19.493  24.616  1.00  0.00    -0.744 OA
ENDBRANCH  78  79
ENDBRANCH  46  71
BRANCH  58  83
ATOM     83  C   UNL A   1      48.253  27.097  30.473  1.00  0.00     0.058 A 
ATOM     84  C   UNL A   1      49.312  27.458  29.626  1.00  0.00     0.135 A 
ATOM     85  C   UNL A   1      48.564  26.397  31.651  1.00  0.00     0.135 A 
ATOM     86  F   UNL A   1      49.068  28.123  28.485  1.00  0.00    -0.206 F 
ATOM     87  C   UNL A   1      50.627  27.119  29.923  1.00  0.00     0.059 A 
ATOM     88  C   UNL A   1      49.875  26.070  31.980  1.00  0.00     0.059 A 
ATOM     89  F   UNL A   1      47.589  26.036  32.500  1.00  0.00    -0.206 F 
ATOM     90  C   UNL A   1      50.900  26.425  31.104  1.00  0.00     0.060 A 
BRANCH  90  91
ATOM     91  S   UNL A   1      52.613  26.016  31.493  1.00  0.00     0.124 S 
ATOM     92  O   UNL A   1      52.467  24.709  32.124  1.00  0.00    -0.237 OA
ATOM     93  O   UNL A   1      53.243  26.017  30.176  1.00  0.00    -0.237 OA
ATOM     94  O   UNL A   1      53.029  27.099  32.380  1.00  0.00    -0.744 OA
ENDBRANCH  90  91
ENDBRANCH  58  83
ENDBRANCH  32  33
ENDBRANCH  24  27
ENDBRANCH  22  23
ENDBRANCH   1  22
TORSDOF 16
ENDMDL
