MODEL 1
REMARK VINA RESULT:     -12.9      0.000      0.000
REMARK SMILES O=C(CCC(=O)Nc1scc2c1c(=O)oc1ccccc12)NCCCNC(=O)c1ccc(-c2c3nc(c(-c4c(F)cc(S(=O)(=O)[O-])cc4F)c4ccc([nH]4)c(-c4c(F)cc(S(=O)(=O)[O-])cc4F)c4nc(c(-c5c(F)cc(S(=O)(=O)[O-])cc5F)c5ccc2[nH]5)C=C4)C=C3)cc1
REMARK SMILES IDX 24 1 23 2 22 3 1 4 2 5 3 7 4 8 5 9 6 10 7 11 8 13 9 14 12 15
REMARK SMILES IDX 10 16 11 17 13 18 21 19 14 20 15 21 16 22 20 23 17 24 19 25
REMARK SMILES IDX 18 26 25 27 26 28 27 29 28 31 29 32 30 33 94 34 31 35 93 36
REMARK SMILES IDX 32 37 33 38 34 39 87 40 35 41 92 42 86 43 88 44 36 45 91 46
REMARK SMILES IDX 85 47 84 48 37 50 71 51 50 52 70 53 51 54 54 55 69 56 89 57
REMARK SMILES IDX 52 58 53 59 68 61 90 62 55 63 38 64 39 65 48 66 40 67 41 68
REMARK SMILES IDX 47 69 49 70 42 71 43 72 44 73 45 74 46 75 72 76 73 77 82 78
REMARK SMILES IDX 74 79 75 80 81 81 83 82 76 83 77 84 78 85 79 86 80 87 56 88
REMARK SMILES IDX 57 89 66 90 58 91 59 92 65 93 67 94 60 95 61 96 62 97 63 98
REMARK SMILES IDX 64 99
REMARK H PARENT 22 6 7 12 26 30 88 49 54 60
REMARK Flexibility Score: inf
ROOT
ATOM      1  C   UNL A   1      38.602  22.988  26.122  1.00  0.00     0.042 C 
ENDROOT
BRANCH   1   2
ATOM      2  C   UNL A   1      37.665  22.392  25.088  1.00  0.00     0.117 C 
BRANCH   2   3
ATOM      3  N   UNL A   1      36.964  21.166  25.439  1.00  0.00    -0.356 N 
ATOM      4  O   UNL A   1      35.063  21.915  26.559  1.00  0.00    -0.275 OA
ATOM      5  C   UNL A   1      35.628  21.147  25.791  1.00  0.00     0.220 C 
ATOM      6  H   UNL A   1      37.462  20.318  25.426  1.00  0.00     0.163 HD
BRANCH   5   7
ATOM      7  C   UNL A   1      34.818  20.153  24.996  1.00  0.00     0.110 C 
BRANCH   7   8
ATOM      8  C   UNL A   1      33.336  20.359  25.319  1.00  0.00     0.110 C 
BRANCH   8   9
ATOM      9  C   UNL A   1      32.581  20.776  24.087  1.00  0.00     0.225 C 
ATOM     10  O   UNL A   1      32.147  19.895  23.330  1.00  0.00    -0.275 OA
ATOM     11  N   UNL A   1      32.294  22.062  23.775  1.00  0.00    -0.317 N 
ATOM     12  H   UNL A   1      31.630  22.121  23.051  1.00  0.00     0.170 HD
BRANCH  11  13
ATOM     13  C   UNL A   1      32.690  23.309  24.208  1.00  0.00     0.110 A 
ATOM     14  S   UNL A   1      34.213  23.645  23.456  1.00  0.00    -0.125 S 
ATOM     15  C   UNL A   1      32.343  24.338  25.059  1.00  0.00     0.103 A 
ATOM     16  C   UNL A   1      34.339  25.192  24.163  1.00  0.00     0.076 A 
ATOM     17  C   UNL A   1      33.248  25.461  24.944  1.00  0.00     0.013 A 
ATOM     18  C   UNL A   1      31.414  24.514  26.175  1.00  0.00     0.347 A 
ATOM     19  C   UNL A   1      33.015  26.631  25.784  1.00  0.00     0.026 A 
ATOM     20  O   UNL A   1      31.533  23.936  27.248  1.00  0.00    -0.246 OA
ATOM     21  O   UNL A   1      30.753  25.734  26.104  1.00  0.00    -0.422 OA
ATOM     22  C   UNL A   1      31.730  26.711  26.376  1.00  0.00     0.139 A 
ATOM     23  C   UNL A   1      33.977  27.573  26.130  1.00  0.00     0.012 A 
ATOM     24  C   UNL A   1      31.400  27.711  27.283  1.00  0.00     0.048 A 
ATOM     25  C   UNL A   1      33.651  28.576  27.051  1.00  0.00     0.001 A 
ATOM     26  C   UNL A   1      32.375  28.645  27.624  1.00  0.00     0.004 A 
ENDBRANCH  11  13
ENDBRANCH   8   9
ENDBRANCH   7   8
ENDBRANCH   5   7
ENDBRANCH   2   3
ENDBRANCH   1   2
BRANCH   1  27
ATOM     27  C   UNL A   1      39.658  22.003  26.611  1.00  0.00     0.118 C 
BRANCH  27  28
ATOM     28  N   UNL A   1      40.943  22.172  25.949  1.00  0.00    -0.352 N 
ATOM     29  C   UNL A   1      41.928  23.118  25.956  1.00  0.00     0.251 C 
ATOM     30  H   UNL A   1      41.153  21.421  25.347  1.00  0.00     0.163 HD
ATOM     31  O   UNL A   1      42.956  22.829  25.336  1.00  0.00    -0.269 OA
BRANCH  29  32
ATOM     32  C   UNL A   1      41.854  24.439  26.629  1.00  0.00     0.039 A 
ATOM     33  C   UNL A   1      42.316  24.700  27.916  1.00  0.00     0.014 A 
ATOM     34  C   UNL A   1      41.160  25.454  25.938  1.00  0.00     0.014 A 
ATOM     35  C   UNL A   1      42.062  25.940  28.504  1.00  0.00     0.010 A 
ATOM     36  C   UNL A   1      40.907  26.694  26.522  1.00  0.00     0.010 A 
ATOM     37  C   UNL A   1      41.334  26.933  27.822  1.00  0.00    -0.014 A 
BRANCH  37  38
ATOM     38  C   UNL A   1      41.170  28.230  28.487  1.00  0.00     0.031 A 
ATOM     39  C   UNL A   1      42.233  29.214  28.151  1.00  0.00     0.074 A 
ATOM     40  C   UNL A   1      40.146  28.610  29.282  1.00  0.00     0.049 A 
ATOM     41  N   UNL A   1      43.196  29.622  28.909  1.00  0.00    -0.248 NA
ATOM     42  C   UNL A   1      42.312  29.703  26.766  1.00  0.00     0.031 C 
ATOM     43  C   UNL A   1      38.861  27.933  29.472  1.00  0.00     0.029 A 
ATOM     44  N   UNL A   1      40.012  29.743  30.047  1.00  0.00    -0.354 N 
ATOM     45  C   UNL A   1      43.857  30.605  28.180  1.00  0.00     0.074 A 
ATOM     46  C   UNL A   1      43.391  30.486  26.823  1.00  0.00     0.031 C 
ATOM     47  C   UNL A   1      38.008  28.761  30.117  1.00  0.00     0.029 A 
ATOM     48  C   UNL A   1      38.727  29.954  30.535  1.00  0.00     0.049 A 
ATOM     49  H   UNL A   1      40.761  30.354  30.233  1.00  0.00     0.167 HD
ATOM     50  C   UNL A   1      44.518  31.613  28.814  1.00  0.00     0.037 A 
ATOM     51  C   UNL A   1      38.273  31.027  31.231  1.00  0.00     0.037 A 
ATOM     52  C   UNL A   1      44.711  31.320  30.210  1.00  0.00     0.049 A 
ATOM     53  C   UNL A   1      39.423  31.654  31.923  1.00  0.00     0.074 A 
ATOM     54  C   UNL A   1      45.587  30.597  30.987  1.00  0.00     0.029 A 
ATOM     55  N   UNL A   1      43.627  31.615  30.987  1.00  0.00    -0.354 N 
ATOM     56  N   UNL A   1      40.105  31.072  32.872  1.00  0.00    -0.248 NA
ATOM     57  C   UNL A   1      40.017  32.874  31.382  1.00  0.00     0.031 C 
ATOM     58  C   UNL A   1      44.932  30.371  32.236  1.00  0.00     0.029 A 
ATOM     59  C   UNL A   1      43.681  30.977  32.197  1.00  0.00     0.049 A 
ATOM     60  H   UNL A   1      42.896  32.215  30.711  1.00  0.00     0.167 HD
ATOM     61  C   UNL A   1      41.371  31.604  32.754  1.00  0.00     0.074 A 
ATOM     62  C   UNL A   1      41.219  32.813  31.958  1.00  0.00     0.031 C 
ATOM     63  C   UNL A   1      42.478  30.847  32.990  1.00  0.00     0.037 A 
BRANCH  50  64
ATOM     64  C   UNL A   1      44.563  33.049  28.325  1.00  0.00     0.058 A 
ATOM     65  C   UNL A   1      45.804  33.614  27.960  1.00  0.00     0.135 A 
ATOM     66  C   UNL A   1      43.507  33.969  28.501  1.00  0.00     0.135 A 
ATOM     67  F   UNL A   1      46.883  32.836  27.779  1.00  0.00    -0.206 F 
ATOM     68  C   UNL A   1      45.993  34.993  27.836  1.00  0.00     0.059 A 
ATOM     69  C   UNL A   1      43.660  35.343  28.332  1.00  0.00     0.059 A 
ATOM     70  F   UNL A   1      42.301  33.596  28.942  1.00  0.00    -0.206 F 
ATOM     71  C   UNL A   1      44.915  35.850  28.037  1.00  0.00     0.060 A 
BRANCH  71  72
ATOM     72  S   UNL A   1      45.171  37.632  27.962  1.00  0.00     0.124 S 
ATOM     73  O   UNL A   1      43.800  38.126  27.974  1.00  0.00    -0.237 OA
ATOM     74  O   UNL A   1      45.950  37.876  29.172  1.00  0.00    -0.237 OA
ATOM     75  O   UNL A   1      45.899  37.813  26.710  1.00  0.00    -0.744 OA
ENDBRANCH  71  72
ENDBRANCH  50  64
BRANCH  51  76
ATOM     76  C   UNL A   1      36.954  31.711  31.140  1.00  0.00     0.058 A 
ATOM     77  C   UNL A   1      36.104  31.801  32.260  1.00  0.00     0.135 A 
ATOM     78  C   UNL A   1      36.653  32.564  30.061  1.00  0.00     0.135 A 
ATOM     79  F   UNL A   1      36.319  31.027  33.335  1.00  0.00    -0.206 F 
ATOM     80  C   UNL A   1      35.071  32.739  32.339  1.00  0.00     0.059 A 
ATOM     81  C   UNL A   1      35.620  33.501  30.114  1.00  0.00     0.059 A 
ATOM     82  F   UNL A   1      37.418  32.578  28.959  1.00  0.00    -0.206 F 
ATOM     83  C   UNL A   1      34.858  33.608  31.271  1.00  0.00     0.060 A 
BRANCH  83  84
ATOM     84  S   UNL A   1      33.668  34.958  31.456  1.00  0.00     0.124 S 
ATOM     85  O   UNL A   1      34.537  36.086  31.773  1.00  0.00    -0.237 OA
ATOM     86  O   UNL A   1      33.036  34.991  30.140  1.00  0.00    -0.237 OA
ATOM     87  O   UNL A   1      32.808  34.507  32.546  1.00  0.00    -0.744 OA
ENDBRANCH  83  84
ENDBRANCH  51  76
BRANCH  63  88
ATOM     88  C   UNL A   1      42.383  29.744  33.995  1.00  0.00     0.058 A 
ATOM     89  C   UNL A   1      42.553  29.892  35.379  1.00  0.00     0.135 A 
ATOM     90  C   UNL A   1      42.026  28.472  33.519  1.00  0.00     0.135 A 
ATOM     91  F   UNL A   1      42.833  31.090  35.916  1.00  0.00    -0.206 F 
ATOM     92  C   UNL A   1      42.391  28.812  36.252  1.00  0.00     0.059 A 
ATOM     93  C   UNL A   1      41.834  27.390  34.370  1.00  0.00     0.059 A 
ATOM     94  F   UNL A   1      41.822  28.279  32.205  1.00  0.00    -0.206 F 
ATOM     95  C   UNL A   1      42.025  27.566  35.737  1.00  0.00     0.060 A 
BRANCH  95  96
ATOM     96  S   UNL A   1      41.733  26.191  36.872  1.00  0.00     0.124 S 
ATOM     97  O   UNL A   1      42.833  26.332  37.821  1.00  0.00    -0.237 OA
ATOM     98  O   UNL A   1      40.403  26.489  37.396  1.00  0.00    -0.237 OA
ATOM     99  O   UNL A   1      41.802  25.013  36.010  1.00  0.00    -0.744 OA
ENDBRANCH  95  96
ENDBRANCH  63  88
ENDBRANCH  37  38
ENDBRANCH  29  32
ENDBRANCH  27  28
ENDBRANCH   1  27
TORSDOF 16
ENDMDL
MODEL 2
REMARK VINA RESULT:     -12.9      3.183      9.702
REMARK SMILES O=C(CCC(=O)Nc1scc2c1c(=O)oc1ccccc12)NCCCNC(=O)c1ccc(-c2c3nc(c(-c4c(F)cc(S(=O)(=O)[O-])cc4F)c4ccc([nH]4)c(-c4c(F)cc(S(=O)(=O)[O-])cc4F)c4nc(c(-c5c(F)cc(S(=O)(=O)[O-])cc5F)c5ccc2[nH]5)C=C4)C=C3)cc1
REMARK SMILES IDX 24 1 23 2 22 3 1 4 2 5 3 7 4 8 5 9 6 10 7 11 8 13 9 14 12 15
REMARK SMILES IDX 10 16 11 17 13 18 21 19 14 20 15 21 16 22 20 23 17 24 19 25
REMARK SMILES IDX 18 26 25 27 26 28 27 29 28 31 29 32 30 33 94 34 31 35 93 36
REMARK SMILES IDX 32 37 33 38 34 39 87 40 35 41 92 42 86 43 88 44 36 45 91 46
REMARK SMILES IDX 85 47 84 48 37 50 71 51 50 52 70 53 51 54 54 55 69 56 89 57
REMARK SMILES IDX 52 58 53 59 68 61 90 62 55 63 38 64 39 65 48 66 40 67 41 68
REMARK SMILES IDX 47 69 49 70 42 71 43 72 44 73 45 74 46 75 72 76 73 77 82 78
REMARK SMILES IDX 74 79 75 80 81 81 83 82 76 83 77 84 78 85 79 86 80 87 56 88
REMARK SMILES IDX 57 89 66 90 58 91 59 92 65 93 67 94 60 95 61 96 62 97 63 98
REMARK SMILES IDX 64 99
REMARK H PARENT 22 6 7 12 26 30 88 49 54 60
REMARK Flexibility Score: inf
ROOT
ATOM      1  C   UNL A   1      32.943  30.763  27.187  1.00  0.00     0.042 C 
ENDROOT
BRANCH   1   2
ATOM      2  C   UNL A   1      33.114  29.635  26.187  1.00  0.00     0.117 C 
BRANCH   2   3
ATOM      3  N   UNL A   1      32.901  29.940  24.781  1.00  0.00    -0.356 N 
ATOM      4  O   UNL A   1      34.217  28.374  23.667  1.00  0.00    -0.275 OA
ATOM      5  C   UNL A   1      33.198  29.046  23.770  1.00  0.00     0.220 C 
ATOM      6  H   UNL A   1      32.529  30.819  24.540  1.00  0.00     0.163 HD
BRANCH   5   7
ATOM      7  C   UNL A   1      32.048  28.813  22.823  1.00  0.00     0.110 C 
BRANCH   7   8
ATOM      8  C   UNL A   1      30.737  28.944  23.603  1.00  0.00     0.110 C 
BRANCH   8   9
ATOM      9  C   UNL A   1      29.902  27.704  23.442  1.00  0.00     0.225 C 
ATOM     10  O   UNL A   1      28.721  27.825  23.085  1.00  0.00    -0.275 OA
ATOM     11  N   UNL A   1      30.375  26.446  23.608  1.00  0.00    -0.317 N 
ATOM     12  H   UNL A   1      29.745  25.772  23.268  1.00  0.00     0.170 HD
BRANCH  11  13
ATOM     13  C   UNL A   1      31.510  25.866  24.132  1.00  0.00     0.110 A 
ATOM     14  S   UNL A   1      31.500  26.180  25.835  1.00  0.00    -0.125 S 
ATOM     15  C   UNL A   1      32.661  25.190  23.781  1.00  0.00     0.103 A 
ATOM     16  C   UNL A   1      32.946  25.319  26.108  1.00  0.00     0.076 A 
ATOM     17  C   UNL A   1      33.427  24.791  24.941  1.00  0.00     0.013 A 
ATOM     18  C   UNL A   1      33.398  24.939  22.542  1.00  0.00     0.347 A 
ATOM     19  C   UNL A   1      34.676  24.067  24.734  1.00  0.00     0.026 A 
ATOM     20  O   UNL A   1      33.959  25.818  21.902  1.00  0.00    -0.246 OA
ATOM     21  O   UNL A   1      33.843  23.624  22.469  1.00  0.00    -0.422 OA
ATOM     22  C   UNL A   1      34.853  23.511  23.443  1.00  0.00     0.139 A 
ATOM     23  C   UNL A   1      35.722  23.997  25.647  1.00  0.00     0.012 A 
ATOM     24  C   UNL A   1      36.037  22.886  23.067  1.00  0.00     0.048 A 
ATOM     25  C   UNL A   1      36.920  23.377  25.268  1.00  0.00     0.001 A 
ATOM     26  C   UNL A   1      37.078  22.828  23.990  1.00  0.00     0.004 A 
ENDBRANCH  11  13
ENDBRANCH   8   9
ENDBRANCH   7   8
ENDBRANCH   5   7
ENDBRANCH   2   3
ENDBRANCH   1   2
BRANCH   1  27
ATOM     27  C   UNL A   1      34.263  31.410  27.590  1.00  0.00     0.118 C 
BRANCH  27  28
ATOM     28  N   UNL A   1      34.244  31.947  28.942  1.00  0.00    -0.352 N 
ATOM     29  C   UNL A   1      35.122  31.990  29.988  1.00  0.00     0.251 C 
ATOM     30  H   UNL A   1      33.389  32.386  29.157  1.00  0.00     0.163 HD
ATOM     31  O   UNL A   1      34.771  32.669  30.957  1.00  0.00    -0.269 OA
BRANCH  29  32
ATOM     32  C   UNL A   1      36.429  31.289  30.049  1.00  0.00     0.039 A 
ATOM     33  C   UNL A   1      37.668  31.909  29.906  1.00  0.00     0.014 A 
ATOM     34  C   UNL A   1      36.381  29.883  30.145  1.00  0.00     0.014 A 
ATOM     35  C   UNL A   1      38.825  31.132  29.833  1.00  0.00     0.010 A 
ATOM     36  C   UNL A   1      37.536  29.106  30.075  1.00  0.00     0.010 A 
ATOM     37  C   UNL A   1      38.764  29.728  29.890  1.00  0.00    -0.014 A 
BRANCH  37  38
ATOM     38  C   UNL A   1      40.033  28.993  29.873  1.00  0.00     0.031 A 
ATOM     39  C   UNL A   1      40.640  28.815  31.219  1.00  0.00     0.074 A 
ATOM     40  C   UNL A   1      40.630  28.428  28.800  1.00  0.00     0.049 A 
ATOM     41  N   UNL A   1      41.681  29.411  31.697  1.00  0.00    -0.248 NA
ATOM     42  C   UNL A   1      39.930  27.975  32.195  1.00  0.00     0.031 C 
ATOM     43  C   UNL A   1      40.055  28.202  27.472  1.00  0.00     0.029 A 
ATOM     44  N   UNL A   1      41.877  27.865  28.694  1.00  0.00    -0.354 N 
ATOM     45  C   UNL A   1      41.903  28.837  32.945  1.00  0.00     0.074 A 
ATOM     46  C   UNL A   1      40.709  28.103  33.271  1.00  0.00     0.031 C 
ATOM     47  C   UNL A   1      40.858  27.370  26.770  1.00  0.00     0.029 A 
ATOM     48  C   UNL A   1      42.080  27.140  27.525  1.00  0.00     0.049 A 
ATOM     49  H   UNL A   1      42.570  27.965  29.387  1.00  0.00     0.167 HD
ATOM     50  C   UNL A   1      43.157  28.786  33.473  1.00  0.00     0.037 A 
ATOM     51  C   UNL A   1      43.165  26.398  27.189  1.00  0.00     0.037 A 
ATOM     52  C   UNL A   1      44.060  29.660  32.770  1.00  0.00     0.049 A 
ATOM     53  C   UNL A   1      44.338  26.929  27.925  1.00  0.00     0.074 A 
ATOM     54  C   UNL A   1      44.390  30.996  32.767  1.00  0.00     0.029 A 
ATOM     55  N   UNL A   1      44.577  29.111  31.630  1.00  0.00    -0.354 N 
ATOM     56  N   UNL A   1      44.839  28.119  27.732  1.00  0.00    -0.248 NA
ATOM     57  C   UNL A   1      44.831  26.225  29.105  1.00  0.00     0.031 C 
ATOM     58  C   UNL A   1      45.031  31.254  31.517  1.00  0.00     0.029 A 
ATOM     59  C   UNL A   1      45.094  30.066  30.796  1.00  0.00     0.049 A 
ATOM     60  H   UNL A   1      44.578  28.146  31.433  1.00  0.00     0.167 HD
ATOM     61  C   UNL A   1      45.372  28.464  28.955  1.00  0.00     0.074 A 
ATOM     62  C   UNL A   1      45.498  27.218  29.696  1.00  0.00     0.031 C 
ATOM     63  C   UNL A   1      45.329  29.747  29.405  1.00  0.00     0.037 A 
BRANCH  50  64
ATOM     64  C   UNL A   1      43.700  27.624  34.283  1.00  0.00     0.058 A 
ATOM     65  C   UNL A   1      44.208  27.863  35.578  1.00  0.00     0.135 A 
ATOM     66  C   UNL A   1      44.026  26.367  33.727  1.00  0.00     0.135 A 
ATOM     67  F   UNL A   1      43.972  29.029  36.200  1.00  0.00    -0.206 F 
ATOM     68  C   UNL A   1      45.026  26.946  36.244  1.00  0.00     0.059 A 
ATOM     69  C   UNL A   1      44.796  25.418  34.394  1.00  0.00     0.059 A 
ATOM     70  F   UNL A   1      43.701  26.036  32.472  1.00  0.00    -0.206 F 
ATOM     71  C   UNL A   1      45.323  25.730  35.636  1.00  0.00     0.060 A 
BRANCH  71  72
ATOM     72  S   UNL A   1      46.445  24.581  36.452  1.00  0.00     0.124 S 
ATOM     73  O   UNL A   1      47.371  24.258  35.373  1.00  0.00    -0.237 OA
ATOM     74  O   UNL A   1      46.983  25.401  37.533  1.00  0.00    -0.237 OA
ATOM     75  O   UNL A   1      45.564  23.497  36.876  1.00  0.00    -0.744 OA
ENDBRANCH  71  72
ENDBRANCH  50  64
BRANCH  51  76
ATOM     76  C   UNL A   1      43.223  25.095  26.473  1.00  0.00     0.058 A 
ATOM     77  C   UNL A   1      43.996  24.942  25.305  1.00  0.00     0.135 A 
ATOM     78  C   UNL A   1      42.794  23.907  27.094  1.00  0.00     0.135 A 
ATOM     79  F   UNL A   1      44.451  26.021  24.649  1.00  0.00    -0.206 F 
ATOM     80  C   UNL A   1      44.391  23.688  24.831  1.00  0.00     0.059 A 
ATOM     81  C   UNL A   1      43.167  22.644  26.633  1.00  0.00     0.059 A 
ATOM     82  F   UNL A   1      42.078  23.942  28.228  1.00  0.00    -0.206 F 
ATOM     83  C   UNL A   1      43.998  22.544  25.523  1.00  0.00     0.060 A 
BRANCH  83  84
ATOM     84  S   UNL A   1      44.681  20.941  25.039  1.00  0.00     0.124 S 
ATOM     85  O   UNL A   1      44.585  20.997  23.584  1.00  0.00    -0.237 OA
ATOM     86  O   UNL A   1      46.031  21.005  25.590  1.00  0.00    -0.237 OA
ATOM     87  O   UNL A   1      43.791  19.982  25.686  1.00  0.00    -0.744 OA
ENDBRANCH  83  84
ENDBRANCH  51  76
BRANCH  63  88
ATOM     88  C   UNL A   1      45.368  30.854  28.401  1.00  0.00     0.058 A 
ATOM     89  C   UNL A   1      44.263  31.345  27.690  1.00  0.00     0.135 A 
ATOM     90  C   UNL A   1      46.600  31.499  28.205  1.00  0.00     0.135 A 
ATOM     91  F   UNL A   1      43.040  30.822  27.870  1.00  0.00    -0.206 F 
ATOM     92  C   UNL A   1      44.384  32.423  26.809  1.00  0.00     0.059 A 
ATOM     93  C   UNL A   1      46.739  32.589  27.354  1.00  0.00     0.059 A 
ATOM     94  F   UNL A   1      47.687  31.090  28.881  1.00  0.00    -0.206 F 
ATOM     95  C   UNL A   1      45.627  33.043  26.653  1.00  0.00     0.060 A 
BRANCH  95  96
ATOM     96  S   UNL A   1      45.766  34.489  25.579  1.00  0.00     0.124 S 
ATOM     97  O   UNL A   1      47.182  34.479  25.226  1.00  0.00    -0.237 OA
ATOM     98  O   UNL A   1      44.841  34.168  24.495  1.00  0.00    -0.237 OA
ATOM     99  O   UNL A   1      45.346  35.595  26.436  1.00  0.00    -0.744 OA
ENDBRANCH  95  96
ENDBRANCH  63  88
ENDBRANCH  37  38
ENDBRANCH  29  32
ENDBRANCH  27  28
ENDBRANCH   1  27
TORSDOF 16
ENDMDL
MODEL 3
REMARK VINA RESULT:     -12.9      3.808      7.237
REMARK SMILES O=C(CCC(=O)Nc1scc2c1c(=O)oc1ccccc12)NCCCNC(=O)c1ccc(-c2c3nc(c(-c4c(F)cc(S(=O)(=O)[O-])cc4F)c4ccc([nH]4)c(-c4c(F)cc(S(=O)(=O)[O-])cc4F)c4nc(c(-c5c(F)cc(S(=O)(=O)[O-])cc5F)c5ccc2[nH]5)C=C4)C=C3)cc1
REMARK SMILES IDX 24 1 23 2 22 3 1 4 2 5 3 7 4 8 5 9 6 10 7 11 8 13 9 14 12 15
REMARK SMILES IDX 10 16 11 17 13 18 21 19 14 20 15 21 16 22 20 23 17 24 19 25
REMARK SMILES IDX 18 26 25 27 26 28 27 29 28 31 29 32 30 33 94 34 31 35 93 36
REMARK SMILES IDX 32 37 33 38 34 39 87 40 35 41 92 42 86 43 88 44 36 45 91 46
REMARK SMILES IDX 85 47 84 48 37 50 71 51 50 52 70 53 51 54 54 55 69 56 89 57
REMARK SMILES IDX 52 58 53 59 68 61 90 62 55 63 38 64 39 65 48 66 40 67 41 68
REMARK SMILES IDX 47 69 49 70 42 71 43 72 44 73 45 74 46 75 72 76 73 77 82 78
REMARK SMILES IDX 74 79 75 80 81 81 83 82 76 83 77 84 78 85 79 86 80 87 56 88
REMARK SMILES IDX 57 89 66 90 58 91 59 92 65 93 67 94 60 95 61 96 62 97 63 98
REMARK SMILES IDX 64 99
REMARK H PARENT 22 6 7 12 26 30 88 49 54 60
REMARK Flexibility Score: inf
ROOT
ATOM      1  C   UNL A   1      42.321  18.969  26.432  1.00  0.00     0.042 C 
ENDROOT
BRANCH   1   2
ATOM      2  C   UNL A   1      43.446  18.809  25.427  1.00  0.00     0.117 C 
BRANCH   2   3
ATOM      3  N   UNL A   1      44.731  19.409  25.750  1.00  0.00    -0.356 N 
ATOM      4  O   UNL A   1      45.995  19.088  23.819  1.00  0.00    -0.275 OA
ATOM      5  C   UNL A   1      45.653  19.762  24.783  1.00  0.00     0.220 C 
ATOM      6  H   UNL A   1      44.952  19.570  26.695  1.00  0.00     0.163 HD
BRANCH   5   7
ATOM      7  C   UNL A   1      46.128  21.188  24.906  1.00  0.00     0.110 C 
BRANCH   7   8
ATOM      8  C   UNL A   1      45.288  22.066  23.975  1.00  0.00     0.110 C 
BRANCH   8   9
ATOM      9  C   UNL A   1      44.201  22.762  24.747  1.00  0.00     0.225 C 
ATOM     10  O   UNL A   1      43.019  22.501  24.476  1.00  0.00    -0.275 OA
ATOM     11  N   UNL A   1      44.429  23.624  25.765  1.00  0.00    -0.317 N 
ATOM     12  H   UNL A   1      43.607  23.818  26.271  1.00  0.00     0.170 HD
BRANCH  11  13
ATOM     13  C   UNL A   1      45.515  24.302  26.278  1.00  0.00     0.110 A 
ATOM     14  S   UNL A   1      45.544  23.996  27.982  1.00  0.00    -0.125 S 
ATOM     15  C   UNL A   1      46.530  25.170  25.934  1.00  0.00     0.103 A 
ATOM     16  C   UNL A   1      46.962  24.910  28.227  1.00  0.00     0.076 A 
ATOM     17  C   UNL A   1      47.418  25.429  27.046  1.00  0.00     0.013 A 
ATOM     18  C   UNL A   1      46.833  26.039  24.796  1.00  0.00     0.347 A 
ATOM     19  C   UNL A   1      48.544  26.333  26.841  1.00  0.00     0.026 A 
ATOM     20  O   UNL A   1      46.165  27.022  24.503  1.00  0.00    -0.246 OA
ATOM     21  O   UNL A   1      48.175  25.971  24.442  1.00  0.00    -0.422 OA
ATOM     22  C   UNL A   1      48.876  26.599  25.489  1.00  0.00     0.139 A 
ATOM     23  C   UNL A   1      49.209  27.025  27.847  1.00  0.00     0.012 A 
ATOM     24  C   UNL A   1      49.855  27.522  25.140  1.00  0.00     0.048 A 
ATOM     25  C   UNL A   1      50.190  27.963  27.499  1.00  0.00     0.001 A 
ATOM     26  C   UNL A   1      50.510  28.211  26.158  1.00  0.00     0.004 A 
ENDBRANCH  11  13
ENDBRANCH   8   9
ENDBRANCH   7   8
ENDBRANCH   5   7
ENDBRANCH   2   3
ENDBRANCH   1   2
BRANCH   1  27
ATOM     27  C   UNL A   1      41.969  20.426  26.709  1.00  0.00     0.118 C 
BRANCH  27  28
ATOM     28  N   UNL A   1      40.559  20.721  26.500  1.00  0.00    -0.352 N 
ATOM     29  C   UNL A   1      39.778  21.840  26.553  1.00  0.00     0.251 C 
ATOM     30  H   UNL A   1      40.042  19.917  26.264  1.00  0.00     0.163 HD
ATOM     31  O   UNL A   1      38.611  21.700  26.174  1.00  0.00    -0.269 OA
BRANCH  29  32
ATOM     32  C   UNL A   1      40.212  23.176  27.030  1.00  0.00     0.039 A 
ATOM     33  C   UNL A   1      41.326  23.409  27.832  1.00  0.00     0.014 A 
ATOM     34  C   UNL A   1      39.355  24.256  26.730  1.00  0.00     0.014 A 
ATOM     35  C   UNL A   1      41.556  24.687  28.344  1.00  0.00     0.010 A 
ATOM     36  C   UNL A   1      39.584  25.533  27.237  1.00  0.00     0.010 A 
ATOM     37  C   UNL A   1      40.674  25.749  28.072  1.00  0.00    -0.014 A 
BRANCH  37  38
ATOM     38  C   UNL A   1      41.027  27.073  28.593  1.00  0.00     0.031 A 
ATOM     39  C   UNL A   1      42.222  27.673  27.944  1.00  0.00     0.074 A 
ATOM     40  C   UNL A   1      40.348  27.790  29.516  1.00  0.00     0.049 A 
ATOM     41  N   UNL A   1      43.402  27.821  28.450  1.00  0.00    -0.248 NA
ATOM     42  C   UNL A   1      42.132  28.031  26.520  1.00  0.00     0.031 C 
ATOM     43  C   UNL A   1      38.998  27.539  30.028  1.00  0.00     0.029 A 
ATOM     44  N   UNL A   1      40.704  28.955  30.149  1.00  0.00    -0.354 N 
ATOM     45  C   UNL A   1      44.136  28.516  27.495  1.00  0.00     0.074 A 
ATOM     46  C   UNL A   1      43.372  28.459  26.276  1.00  0.00     0.031 C 
ATOM     47  C   UNL A   1      38.571  28.622  30.718  1.00  0.00     0.029 A 
ATOM     48  C   UNL A   1      39.668  29.569  30.844  1.00  0.00     0.049 A 
ATOM     49  H   UNL A   1      41.616  29.325  30.113  1.00  0.00     0.167 HD
ATOM     50  C   UNL A   1      45.173  29.318  27.864  1.00  0.00     0.037 A 
ATOM     51  C   UNL A   1      39.693  30.768  31.477  1.00  0.00     0.037 A 
ATOM     52  C   UNL A   1      45.575  29.065  29.223  1.00  0.00     0.049 A 
ATOM     53  C   UNL A   1      41.095  31.065  31.857  1.00  0.00     0.074 A 
ATOM     54  C   UNL A   1      46.362  28.163  29.901  1.00  0.00     0.029 A 
ATOM     55  N   UNL A   1      44.813  29.717  30.151  1.00  0.00    -0.354 N 
ATOM     56  N   UNL A   1      41.777  30.364  32.723  1.00  0.00    -0.248 NA
ATOM     57  C   UNL A   1      41.873  32.016  31.068  1.00  0.00     0.031 C 
ATOM     58  C   UNL A   1      45.958  28.218  31.271  1.00  0.00     0.029 A 
ATOM     59  C   UNL A   1      44.948  29.166  31.397  1.00  0.00     0.049 A 
ATOM     60  H   UNL A   1      44.237  30.489  29.947  1.00  0.00     0.167 HD
ATOM     61  C   UNL A   1      43.083  30.486  32.302  1.00  0.00     0.074 A 
ATOM     62  C   UNL A   1      43.106  31.635  31.408  1.00  0.00     0.031 C 
ATOM     63  C   UNL A   1      43.958  29.450  32.413  1.00  0.00     0.037 A 
BRANCH  50  64
ATOM     64  C   UNL A   1      45.510  30.642  27.205  1.00  0.00     0.058 A 
ATOM     65  C   UNL A   1      46.848  30.912  26.844  1.00  0.00     0.135 A 
ATOM     66  C   UNL A   1      44.646  31.759  27.205  1.00  0.00     0.135 A 
ATOM     67  F   UNL A   1      47.762  29.928  26.822  1.00  0.00    -0.206 F 
ATOM     68  C   UNL A   1      47.303  32.202  26.561  1.00  0.00     0.059 A 
ATOM     69  C   UNL A   1      45.067  33.044  26.877  1.00  0.00     0.059 A 
ATOM     70  F   UNL A   1      43.377  31.679  27.620  1.00  0.00    -0.206 F 
ATOM     71  C   UNL A   1      46.404  33.265  26.593  1.00  0.00     0.060 A 
BRANCH  71  72
ATOM     72  S   UNL A   1      47.002  34.941  26.312  1.00  0.00     0.124 S 
ATOM     73  O   UNL A   1      47.804  34.768  25.107  1.00  0.00    -0.237 OA
ATOM     74  O   UNL A   1      45.755  35.683  26.150  1.00  0.00    -0.237 OA
ATOM     75  O   UNL A   1      47.746  35.240  27.532  1.00  0.00    -0.744 OA
ENDBRANCH  71  72
ENDBRANCH  50  64
BRANCH  51  76
ATOM     76  C   UNL A   1      38.631  31.808  31.556  1.00  0.00     0.058 A 
ATOM     77  C   UNL A   1      37.978  32.267  30.395  1.00  0.00     0.135 A 
ATOM     78  C   UNL A   1      38.017  32.126  32.782  1.00  0.00     0.135 A 
ATOM     79  F   UNL A   1      38.490  32.007  29.182  1.00  0.00    -0.206 F 
ATOM     80  C   UNL A   1      36.746  32.925  30.444  1.00  0.00     0.059 A 
ATOM     81  C   UNL A   1      36.793  32.791  32.854  1.00  0.00     0.059 A 
ATOM     82  F   UNL A   1      38.543  31.710  33.944  1.00  0.00    -0.206 F 
ATOM     83  C   UNL A   1      36.145  33.154  31.680  1.00  0.00     0.060 A 
BRANCH  83  84
ATOM     84  S   UNL A   1      34.460  33.811  31.734  1.00  0.00     0.124 S 
ATOM     85  O   UNL A   1      34.064  33.745  30.332  1.00  0.00    -0.237 OA
ATOM     86  O   UNL A   1      33.794  32.868  32.629  1.00  0.00    -0.237 OA
ATOM     87  O   UNL A   1      34.637  35.157  32.271  1.00  0.00    -0.744 OA
ENDBRANCH  83  84
ENDBRANCH  51  76
BRANCH  63  88
ATOM     88  C   UNL A   1      43.780  28.488  33.545  1.00  0.00     0.058 A 
ATOM     89  C   UNL A   1      44.134  28.732  34.880  1.00  0.00     0.135 A 
ATOM     90  C   UNL A   1      43.144  27.270  33.257  1.00  0.00     0.135 A 
ATOM     91  F   UNL A   1      44.689  29.899  35.244  1.00  0.00    -0.206 F 
ATOM     92  C   UNL A   1      43.879  27.794  35.884  1.00  0.00     0.059 A 
ATOM     93  C   UNL A   1      42.857  26.333  34.243  1.00  0.00     0.059 A 
ATOM     94  F   UNL A   1      42.757  26.995  32.000  1.00  0.00    -0.206 F 
ATOM     95  C   UNL A   1      43.234  26.599  35.555  1.00  0.00     0.060 A 
BRANCH  95  96
ATOM     96  S   UNL A   1      42.828  25.423  36.865  1.00  0.00     0.124 S 
ATOM     97  O   UNL A   1      42.962  26.239  38.068  1.00  0.00    -0.237 OA
ATOM     98  O   UNL A   1      41.467  25.022  36.521  1.00  0.00    -0.237 OA
ATOM     99  O   UNL A   1      43.835  24.375  36.709  1.00  0.00    -0.744 OA
ENDBRANCH  95  96
ENDBRANCH  63  88
ENDBRANCH  37  38
ENDBRANCH  29  32
ENDBRANCH  27  28
ENDBRANCH   1  27
TORSDOF 16
ENDMDL
