MODEL 1
REMARK VINA RESULT:     -10.8      0.000      0.000
REMARK SMILES C[C@H](C(=O)NCCCNC(=O)c1ccc(-c2c3nc(c(-c4c(F)cc(S(=O)(=O)[O-])cc4F)c4ccc([nH]4)c(-c4c(F)cc(S(=O)(=O)[O-])cc4F)c4nc(c(-c5c(F)cc(S(=O)(=O)[O-])cc5F)c5ccc2[nH]5)C=C4)C=C3)cc1)S(=O)(=O)NC1COC1
REMARK SMILES IDX 7 1 6 2 5 3 3 4 4 5 2 7 1 8 78 9 79 10 80 11 81 12 82 14
REMARK SMILES IDX 83 15 85 16 84 17 8 18 9 19 10 20 11 22 12 23 13 24 77 25
REMARK SMILES IDX 14 26 76 27 15 28 16 29 17 30 70 31 18 32 75 33 69 34 71 35
REMARK SMILES IDX 19 36 74 37 68 38 67 39 20 41 54 42 33 43 53 44 34 45 37 46
REMARK SMILES IDX 52 47 72 48 35 49 36 50 51 52 73 53 38 54 21 55 22 56 31 57
REMARK SMILES IDX 23 58 24 59 30 60 32 61 25 62 26 63 27 64 28 65 29 66 55 67
REMARK SMILES IDX 56 68 65 69 57 70 58 71 64 72 66 73 59 74 60 75 61 76 62 77
REMARK SMILES IDX 63 78 39 79 40 80 49 81 41 82 42 83 48 84 50 85 43 86 44 87
REMARK SMILES IDX 45 88 46 89 47 90
REMARK H PARENT 5 6 81 13 9 21 71 40 37 51
REMARK Flexibility Score: inf
ROOT
ATOM      1  C   UNL A   1      36.422  33.830  29.252  1.00  0.00     0.042 C 
ENDROOT
BRANCH   1   2
ATOM      2  C   UNL A   1      37.842  33.832  29.780  1.00  0.00     0.117 C 
BRANCH   2   3
ATOM      3  N   UNL A   1      37.995  34.554  31.029  1.00  0.00    -0.355 N 
ATOM      4  C   UNL A   1      37.653  34.217  32.303  1.00  0.00     0.239 C 
ATOM      5  O   UNL A   1      38.090  34.953  33.195  1.00  0.00    -0.274 OA
ATOM      6  H   UNL A   1      38.420  35.439  30.940  1.00  0.00     0.163 HD
BRANCH   4   7
ATOM      7  C   UNL A   1      36.756  33.056  32.645  1.00  0.00     0.209 C 
ATOM      8  C   UNL A   1      37.288  32.074  33.679  1.00  0.00     0.037 C 
BRANCH   7   9
ATOM      9  S   UNL A   1      35.070  33.585  32.908  1.00  0.00     0.223 S 
ATOM     10  O   UNL A   1      34.174  32.912  31.991  1.00  0.00    -0.212 OA
ATOM     11  O   UNL A   1      34.803  33.568  34.330  1.00  0.00    -0.212 OA
BRANCH   9  12
ATOM     12  N   UNL A   1      35.035  35.216  32.503  1.00  0.00    -0.207 NA
ATOM     13  H   UNL A   1      34.940  35.248  31.489  1.00  0.00     0.141 HD
BRANCH  12  14
ATOM     14  C   UNL A   1      34.022  36.191  33.041  1.00  0.00     0.121 C 
ATOM     15  C   UNL A   1      33.968  37.623  32.500  1.00  0.00     0.182 C 
ATOM     16  C   UNL A   1      32.587  36.099  32.497  1.00  0.00     0.182 C 
ATOM     17  O   UNL A   1      32.528  37.537  32.327  1.00  0.00    -0.378 OA
ENDBRANCH  12  14
ENDBRANCH   9  12
ENDBRANCH   7   9
ENDBRANCH   4   7
ENDBRANCH   2   3
ENDBRANCH   1   2
BRANCH   1  18
ATOM     18  C   UNL A   1      35.987  32.476  28.708  1.00  0.00     0.118 C 
BRANCH  18  19
ATOM     19  N   UNL A   1      35.680  31.507  29.759  1.00  0.00    -0.352 N 
ATOM     20  C   UNL A   1      36.424  30.464  30.257  1.00  0.00     0.251 C 
ATOM     21  H   UNL A   1      34.796  31.620  30.178  1.00  0.00     0.163 HD
ATOM     22  O   UNL A   1      35.901  29.661  31.024  1.00  0.00    -0.269 OA
BRANCH  20  23
ATOM     23  C   UNL A   1      37.834  30.294  29.846  1.00  0.00     0.039 A 
ATOM     24  C   UNL A   1      38.842  30.370  30.809  1.00  0.00     0.014 A 
ATOM     25  C   UNL A   1      38.158  30.036  28.513  1.00  0.00     0.014 A 
ATOM     26  C   UNL A   1      40.161  30.081  30.450  1.00  0.00     0.010 A 
ATOM     27  C   UNL A   1      39.448  29.642  28.181  1.00  0.00     0.010 A 
ATOM     28  C   UNL A   1      40.464  29.657  29.146  1.00  0.00    -0.014 A 
BRANCH  28  29
ATOM     29  C   UNL A   1      41.829  29.210  28.766  1.00  0.00     0.031 A 
ATOM     30  C   UNL A   1      42.953  30.209  28.685  1.00  0.00     0.074 A 
ATOM     31  C   UNL A   1      42.032  27.927  28.402  1.00  0.00     0.049 A 
ATOM     32  N   UNL A   1      44.177  30.039  28.259  1.00  0.00    -0.248 NA
ATOM     33  C   UNL A   1      42.650  31.590  29.100  1.00  0.00     0.031 C 
ATOM     34  C   UNL A   1      41.006  26.880  28.373  1.00  0.00     0.029 A 
ATOM     35  N   UNL A   1      43.166  27.286  27.969  1.00  0.00    -0.354 N 
ATOM     36  C   UNL A   1      44.780  31.291  28.330  1.00  0.00     0.074 A 
ATOM     37  C   UNL A   1      43.772  32.220  28.789  1.00  0.00     0.031 C 
ATOM     38  C   UNL A   1      41.563  25.726  27.971  1.00  0.00     0.029 A 
ATOM     39  C   UNL A   1      42.972  25.957  27.672  1.00  0.00     0.049 A 
ATOM     40  H   UNL A   1      44.037  27.737  27.878  1.00  0.00     0.167 HD
ATOM     41  C   UNL A   1      46.064  31.627  28.065  1.00  0.00     0.037 A 
ATOM     42  C   UNL A   1      43.831  25.031  27.203  1.00  0.00     0.037 A 
ATOM     43  C   UNL A   1      47.073  30.686  27.658  1.00  0.00     0.049 A 
ATOM     44  C   UNL A   1      45.260  25.426  26.944  1.00  0.00     0.074 A 
ATOM     45  C   UNL A   1      48.420  30.912  27.441  1.00  0.00     0.029 A 
ATOM     46  N   UNL A   1      46.848  29.340  27.414  1.00  0.00    -0.354 N 
ATOM     47  N   UNL A   1      45.827  26.600  27.084  1.00  0.00    -0.248 NA
ATOM     48  C   UNL A   1      46.166  24.372  26.467  1.00  0.00     0.031 C 
ATOM     49  C   UNL A   1      49.004  29.710  27.029  1.00  0.00     0.029 A 
ATOM     50  C   UNL A   1      48.029  28.726  27.033  1.00  0.00     0.049 A 
ATOM     51  H   UNL A   1      45.977  28.888  27.498  1.00  0.00     0.167 HD
ATOM     52  C   UNL A   1      47.162  26.419  26.741  1.00  0.00     0.074 A 
ATOM     53  C   UNL A   1      47.319  25.021  26.398  1.00  0.00     0.031 C 
ATOM     54  C   UNL A   1      48.166  27.329  26.708  1.00  0.00     0.037 A 
BRANCH  41  55
ATOM     55  C   UNL A   1      46.459  33.070  28.226  1.00  0.00     0.058 A 
ATOM     56  C   UNL A   1      46.350  33.984  27.167  1.00  0.00     0.135 A 
ATOM     57  C   UNL A   1      46.897  33.556  29.469  1.00  0.00     0.135 A 
ATOM     58  F   UNL A   1      45.954  33.570  25.954  1.00  0.00    -0.206 F 
ATOM     59  C   UNL A   1      46.680  35.326  27.328  1.00  0.00     0.059 A 
ATOM     60  C   UNL A   1      47.206  34.899  29.660  1.00  0.00     0.059 A 
ATOM     61  F   UNL A   1      47.022  32.722  30.515  1.00  0.00    -0.206 F 
ATOM     62  C   UNL A   1      47.104  35.775  28.580  1.00  0.00     0.060 A 
BRANCH  62  63
ATOM     63  S   UNL A   1      47.499  37.525  28.778  1.00  0.00     0.124 S 
ATOM     64  O   UNL A   1      48.870  37.458  29.273  1.00  0.00    -0.237 OA
ATOM     65  O   UNL A   1      47.339  38.036  27.421  1.00  0.00    -0.237 OA
ATOM     66  O   UNL A   1      46.506  37.990  29.742  1.00  0.00    -0.744 OA
ENDBRANCH  62  63
ENDBRANCH  41  55
BRANCH  42  67
ATOM     67  C   UNL A   1      43.373  23.635  26.967  1.00  0.00     0.058 A 
ATOM     68  C   UNL A   1      43.116  23.172  25.668  1.00  0.00     0.135 A 
ATOM     69  C   UNL A   1      43.177  22.739  28.030  1.00  0.00     0.135 A 
ATOM     70  F   UNL A   1      43.285  23.991  24.619  1.00  0.00    -0.206 F 
ATOM     71  C   UNL A   1      42.655  21.882  25.431  1.00  0.00     0.059 A 
ATOM     72  C   UNL A   1      42.741  21.436  27.816  1.00  0.00     0.059 A 
ATOM     73  F   UNL A   1      43.428  23.127  29.290  1.00  0.00    -0.206 F 
ATOM     74  C   UNL A   1      42.469  21.020  26.513  1.00  0.00     0.060 A 
BRANCH  74  75
ATOM     75  S   UNL A   1      41.899  19.337  26.195  1.00  0.00     0.124 S 
ATOM     76  O   UNL A   1      40.468  19.543  26.006  1.00  0.00    -0.237 OA
ATOM     77  O   UNL A   1      42.657  18.975  25.001  1.00  0.00    -0.237 OA
ATOM     78  O   UNL A   1      42.281  18.620  27.409  1.00  0.00    -0.744 OA
ENDBRANCH  74  75
ENDBRANCH  42  67
BRANCH  54  79
ATOM     79  C   UNL A   1      49.533  26.835  26.325  1.00  0.00     0.058 A 
ATOM     80  C   UNL A   1      50.346  26.142  27.235  1.00  0.00     0.135 A 
ATOM     81  C   UNL A   1      50.011  27.013  25.017  1.00  0.00     0.135 A 
ATOM     82  F   UNL A   1      49.937  25.953  28.499  1.00  0.00    -0.206 F 
ATOM     83  C   UNL A   1      51.598  25.662  26.866  1.00  0.00     0.059 A 
ATOM     84  C   UNL A   1      51.248  26.517  24.620  1.00  0.00     0.059 A 
ATOM     85  F   UNL A   1      49.266  27.661  24.107  1.00  0.00    -0.206 F 
ATOM     86  C   UNL A   1      52.039  25.853  25.556  1.00  0.00     0.060 A 
BRANCH  86  87
ATOM     87  S   UNL A   1      53.651  25.194  25.080  1.00  0.00     0.124 S 
ATOM     88  O   UNL A   1      53.705  25.547  23.665  1.00  0.00    -0.237 OA
ATOM     89  O   UNL A   1      54.560  25.930  25.952  1.00  0.00    -0.237 OA
ATOM     90  O   UNL A   1      53.533  23.768  25.367  1.00  0.00    -0.744 OA
ENDBRANCH  86  87
ENDBRANCH  54  79
ENDBRANCH  28  29
ENDBRANCH  20  23
ENDBRANCH  18  19
ENDBRANCH   1  18
TORSDOF 16
ENDMDL
MODEL 2
REMARK VINA RESULT:     -10.6      4.818     12.903
REMARK SMILES C[C@H](C(=O)NCCCNC(=O)c1ccc(-c2c3nc(c(-c4c(F)cc(S(=O)(=O)[O-])cc4F)c4ccc([nH]4)c(-c4c(F)cc(S(=O)(=O)[O-])cc4F)c4nc(c(-c5c(F)cc(S(=O)(=O)[O-])cc5F)c5ccc2[nH]5)C=C4)C=C3)cc1)S(=O)(=O)NC1COC1
REMARK SMILES IDX 7 1 6 2 5 3 3 4 4 5 2 7 1 8 78 9 79 10 80 11 81 12 82 14
REMARK SMILES IDX 83 15 85 16 84 17 8 18 9 19 10 20 11 22 12 23 13 24 77 25
REMARK SMILES IDX 14 26 76 27 15 28 16 29 17 30 70 31 18 32 75 33 69 34 71 35
REMARK SMILES IDX 19 36 74 37 68 38 67 39 20 41 54 42 33 43 53 44 34 45 37 46
REMARK SMILES IDX 52 47 72 48 35 49 36 50 51 52 73 53 38 54 21 55 22 56 31 57
REMARK SMILES IDX 23 58 24 59 30 60 32 61 25 62 26 63 27 64 28 65 29 66 55 67
REMARK SMILES IDX 56 68 65 69 57 70 58 71 64 72 66 73 59 74 60 75 61 76 62 77
REMARK SMILES IDX 63 78 39 79 40 80 49 81 41 82 42 83 48 84 50 85 43 86 44 87
REMARK SMILES IDX 45 88 46 89 47 90
REMARK H PARENT 5 6 81 13 9 21 71 40 37 51
REMARK Flexibility Score: inf
ROOT
ATOM      1  C   UNL A   1      41.497  21.930  25.850  1.00  0.00     0.042 C 
ENDROOT
BRANCH   1   2
ATOM      2  C   UNL A   1      42.601  21.055  26.409  1.00  0.00     0.117 C 
BRANCH   2   3
ATOM      3  N   UNL A   1      43.640  21.799  27.096  1.00  0.00    -0.355 N 
ATOM      4  C   UNL A   1      44.303  22.935  26.747  1.00  0.00     0.239 C 
ATOM      5  O   UNL A   1      44.999  23.450  27.629  1.00  0.00    -0.274 OA
ATOM      6  H   UNL A   1      43.910  21.417  27.962  1.00  0.00     0.163 HD
BRANCH   4   7
ATOM      7  C   UNL A   1      44.260  23.535  25.365  1.00  0.00     0.209 C 
ATOM      8  C   UNL A   1      44.356  25.051  25.285  1.00  0.00     0.037 C 
BRANCH   7   9
ATOM      9  S   UNL A   1      45.323  22.652  24.234  1.00  0.00     0.223 S 
ATOM     10  O   UNL A   1      44.546  22.024  23.186  1.00  0.00    -0.212 OA
ATOM     11  O   UNL A   1      46.441  23.507  23.897  1.00  0.00    -0.212 OA
BRANCH   9  12
ATOM     12  N   UNL A   1      46.013  21.409  25.131  1.00  0.00    -0.207 NA
ATOM     13  H   UNL A   1      45.433  21.314  25.964  1.00  0.00     0.141 HD
BRANCH  12  14
ATOM     14  C   UNL A   1      46.216  20.012  24.609  1.00  0.00     0.121 C 
ATOM     15  C   UNL A   1      46.798  18.926  25.520  1.00  0.00     0.182 C 
ATOM     16  C   UNL A   1      44.989  19.087  24.556  1.00  0.00     0.182 C 
ATOM     17  O   UNL A   1      45.747  17.998  25.139  1.00  0.00    -0.378 OA
ENDBRANCH  12  14
ENDBRANCH   9  12
ENDBRANCH   7   9
ENDBRANCH   4   7
ENDBRANCH   2   3
ENDBRANCH   1   2
BRANCH   1  18
ATOM     18  C   UNL A   1      40.147  21.685  26.509  1.00  0.00     0.118 C 
BRANCH  18  19
ATOM     19  N   UNL A   1      39.037  22.315  25.795  1.00  0.00    -0.352 N 
ATOM     20  C   UNL A   1      38.489  23.569  25.925  1.00  0.00     0.251 C 
ATOM     21  H   UNL A   1      38.614  21.749  25.110  1.00  0.00     0.163 HD
ATOM     22  O   UNL A   1      37.441  23.834  25.342  1.00  0.00    -0.269 OA
BRANCH  20  23
ATOM     23  C   UNL A   1      39.140  24.579  26.785  1.00  0.00     0.039 A 
ATOM     24  C   UNL A   1      40.037  25.487  26.217  1.00  0.00     0.014 A 
ATOM     25  C   UNL A   1      38.848  24.646  28.148  1.00  0.00     0.014 A 
ATOM     26  C   UNL A   1      40.555  26.524  26.997  1.00  0.00     0.010 A 
ATOM     27  C   UNL A   1      39.274  25.738  28.892  1.00  0.00     0.010 A 
ATOM     28  C   UNL A   1      40.130  26.692  28.325  1.00  0.00    -0.014 A 
BRANCH  28  29
ATOM     29  C   UNL A   1      40.552  27.860  29.140  1.00  0.00     0.031 A 
ATOM     30  C   UNL A   1      41.858  27.823  29.889  1.00  0.00     0.074 A 
ATOM     31  C   UNL A   1      39.717  28.910  29.280  1.00  0.00     0.049 A 
ATOM     32  N   UNL A   1      42.343  28.686  30.743  1.00  0.00    -0.248 NA
ATOM     33  C   UNL A   1      42.713  26.642  29.682  1.00  0.00     0.031 C 
ATOM     34  C   UNL A   1      38.395  29.033  28.660  1.00  0.00     0.029 A 
ATOM     35  N   UNL A   1      39.847  30.068  30.005  1.00  0.00    -0.354 N 
ATOM     36  C   UNL A   1      43.542  28.142  31.192  1.00  0.00     0.074 A 
ATOM     37  C   UNL A   1      43.685  26.851  30.557  1.00  0.00     0.031 C 
ATOM     38  C   UNL A   1      37.849  30.210  29.008  1.00  0.00     0.029 A 
ATOM     39  C   UNL A   1      38.760  30.906  29.910  1.00  0.00     0.049 A 
ATOM     40  H   UNL A   1      40.644  30.280  30.544  1.00  0.00     0.167 HD
ATOM     41  C   UNL A   1      44.454  28.683  32.033  1.00  0.00     0.037 A 
ATOM     42  C   UNL A   1      38.519  32.097  30.492  1.00  0.00     0.037 A 
ATOM     43  C   UNL A   1      44.328  29.991  32.621  1.00  0.00     0.049 A 
ATOM     44  C   UNL A   1      39.562  32.688  31.402  1.00  0.00     0.074 A 
ATOM     45  C   UNL A   1      45.232  30.662  33.423  1.00  0.00     0.029 A 
ATOM     46  N   UNL A   1      43.233  30.828  32.463  1.00  0.00    -0.354 N 
ATOM     47  N   UNL A   1      40.721  32.189  31.759  1.00  0.00    -0.248 NA
ATOM     48  C   UNL A   1      39.269  34.005  31.984  1.00  0.00     0.031 C 
ATOM     49  C   UNL A   1      44.669  31.891  33.782  1.00  0.00     0.029 A 
ATOM     50  C   UNL A   1      43.433  32.003  33.167  1.00  0.00     0.049 A 
ATOM     51  H   UNL A   1      42.433  30.617  31.930  1.00  0.00     0.167 HD
ATOM     52  C   UNL A   1      41.307  33.142  32.584  1.00  0.00     0.074 A 
ATOM     53  C   UNL A   1      40.380  34.252  32.663  1.00  0.00     0.031 C 
ATOM     54  C   UNL A   1      42.502  33.102  33.222  1.00  0.00     0.037 A 
BRANCH  41  55
ATOM     55  C   UNL A   1      45.679  27.873  32.356  1.00  0.00     0.058 A 
ATOM     56  C   UNL A   1      45.714  26.997  33.451  1.00  0.00     0.135 A 
ATOM     57  C   UNL A   1      46.812  27.931  31.527  1.00  0.00     0.135 A 
ATOM     58  F   UNL A   1      44.666  26.915  34.285  1.00  0.00    -0.206 F 
ATOM     59  C   UNL A   1      46.834  26.220  33.725  1.00  0.00     0.059 A 
ATOM     60  C   UNL A   1      47.933  27.143  31.767  1.00  0.00     0.059 A 
ATOM     61  F   UNL A   1      46.833  28.756  30.467  1.00  0.00    -0.206 F 
ATOM     62  C   UNL A   1      47.939  26.297  32.875  1.00  0.00     0.060 A 
BRANCH  62  63
ATOM     63  S   UNL A   1      49.373  25.260  33.230  1.00  0.00     0.124 S 
ATOM     64  O   UNL A   1      49.876  24.993  31.886  1.00  0.00    -0.237 OA
ATOM     65  O   UNL A   1      50.197  26.139  34.052  1.00  0.00    -0.237 OA
ATOM     66  O   UNL A   1      48.798  24.112  33.923  1.00  0.00    -0.744 OA
ENDBRANCH  62  63
ENDBRANCH  41  55
BRANCH  42  67
ATOM     67  C   UNL A   1      37.249  32.822  30.220  1.00  0.00     0.058 A 
ATOM     68  C   UNL A   1      36.126  32.640  31.041  1.00  0.00     0.135 A 
ATOM     69  C   UNL A   1      37.127  33.703  29.135  1.00  0.00     0.135 A 
ATOM     70  F   UNL A   1      36.191  31.805  32.089  1.00  0.00    -0.206 F 
ATOM     71  C   UNL A   1      34.920  33.283  30.783  1.00  0.00     0.059 A 
ATOM     72  C   UNL A   1      35.940  34.378  28.870  1.00  0.00     0.059 A 
ATOM     73  F   UNL A   1      38.178  33.929  28.331  1.00  0.00    -0.206 F 
ATOM     74  C   UNL A   1      34.836  34.150  29.692  1.00  0.00     0.060 A 
BRANCH  74  75
ATOM     75  S   UNL A   1      33.277  35.004  29.380  1.00  0.00     0.124 S 
ATOM     76  O   UNL A   1      32.661  34.981  30.701  1.00  0.00    -0.237 OA
ATOM     77  O   UNL A   1      33.729  36.309  28.907  1.00  0.00    -0.237 OA
ATOM     78  O   UNL A   1      32.636  34.168  28.368  1.00  0.00    -0.744 OA
ENDBRANCH  74  75
ENDBRANCH  42  67
BRANCH  54  79
ATOM     79  C   UNL A   1      42.895  34.306  34.030  1.00  0.00     0.058 A 
ATOM     80  C   UNL A   1      42.725  34.345  35.422  1.00  0.00     0.135 A 
ATOM     81  C   UNL A   1      43.496  35.412  33.408  1.00  0.00     0.135 A 
ATOM     82  F   UNL A   1      42.149  33.316  36.062  1.00  0.00    -0.206 F 
ATOM     83  C   UNL A   1      43.118  35.451  36.168  1.00  0.00     0.059 A 
ATOM     84  C   UNL A   1      43.921  36.517  34.139  1.00  0.00     0.059 A 
ATOM     85  F   UNL A   1      43.690  35.419  32.079  1.00  0.00    -0.206 F 
ATOM     86  C   UNL A   1      43.717  36.531  35.518  1.00  0.00     0.060 A 
BRANCH  86  87
ATOM     87  S   UNL A   1      44.254  37.945  36.502  1.00  0.00     0.124 S 
ATOM     88  O   UNL A   1      44.141  39.034  35.537  1.00  0.00    -0.237 OA
ATOM     89  O   UNL A   1      43.280  37.958  37.589  1.00  0.00    -0.237 OA
ATOM     90  O   UNL A   1      45.615  37.590  36.892  1.00  0.00    -0.744 OA
ENDBRANCH  86  87
ENDBRANCH  54  79
ENDBRANCH  28  29
ENDBRANCH  20  23
ENDBRANCH  18  19
ENDBRANCH   1  18
TORSDOF 16
ENDMDL
MODEL 3
REMARK VINA RESULT:     -10.4      2.797      3.744
REMARK SMILES C[C@H](C(=O)NCCCNC(=O)c1ccc(-c2c3nc(c(-c4c(F)cc(S(=O)(=O)[O-])cc4F)c4ccc([nH]4)c(-c4c(F)cc(S(=O)(=O)[O-])cc4F)c4nc(c(-c5c(F)cc(S(=O)(=O)[O-])cc5F)c5ccc2[nH]5)C=C4)C=C3)cc1)S(=O)(=O)NC1COC1
REMARK SMILES IDX 7 1 6 2 5 3 3 4 4 5 2 7 1 8 78 9 79 10 80 11 81 12 82 14
REMARK SMILES IDX 83 15 85 16 84 17 8 18 9 19 10 20 11 22 12 23 13 24 77 25
REMARK SMILES IDX 14 26 76 27 15 28 16 29 17 30 70 31 18 32 75 33 69 34 71 35
REMARK SMILES IDX 19 36 74 37 68 38 67 39 20 41 54 42 33 43 53 44 34 45 37 46
REMARK SMILES IDX 52 47 72 48 35 49 36 50 51 52 73 53 38 54 21 55 22 56 31 57
REMARK SMILES IDX 23 58 24 59 30 60 32 61 25 62 26 63 27 64 28 65 29 66 55 67
REMARK SMILES IDX 56 68 65 69 57 70 58 71 64 72 66 73 59 74 60 75 61 76 62 77
REMARK SMILES IDX 63 78 39 79 40 80 49 81 41 82 42 83 48 84 50 85 43 86 44 87
REMARK SMILES IDX 45 88 46 89 47 90
REMARK H PARENT 5 6 81 13 9 21 71 40 37 51
REMARK Flexibility Score: inf
ROOT
ATOM      1  C   UNL A   1      35.830  33.616  28.816  1.00  0.00     0.042 C 
ENDROOT
BRANCH   1   2
ATOM      2  C   UNL A   1      37.292  33.403  29.152  1.00  0.00     0.117 C 
BRANCH   2   3
ATOM      3  N   UNL A   1      37.779  34.276  30.203  1.00  0.00    -0.355 N 
ATOM      4  C   UNL A   1      37.712  34.164  31.558  1.00  0.00     0.239 C 
ATOM      5  O   UNL A   1      38.394  34.969  32.203  1.00  0.00    -0.274 OA
ATOM      6  H   UNL A   1      38.235  35.088  29.882  1.00  0.00     0.163 HD
BRANCH   4   7
ATOM      7  C   UNL A   1      36.835  33.168  32.271  1.00  0.00     0.209 C 
ATOM      8  C   UNL A   1      37.402  31.765  32.434  1.00  0.00     0.037 C 
BRANCH   7   9
ATOM      9  S   UNL A   1      36.117  33.866  33.750  1.00  0.00     0.223 S 
ATOM     10  O   UNL A   1      34.888  33.183  34.094  1.00  0.00    -0.212 OA
ATOM     11  O   UNL A   1      37.164  34.020  34.737  1.00  0.00    -0.212 OA
BRANCH   9  12
ATOM     12  N   UNL A   1      35.694  35.443  33.351  1.00  0.00    -0.207 NA
ATOM     13  H   UNL A   1      36.243  35.676  32.524  1.00  0.00     0.141 HD
BRANCH  12  14
ATOM     14  C   UNL A   1      34.286  35.883  33.048  1.00  0.00     0.121 C 
ATOM     15  C   UNL A   1      34.001  37.333  32.647  1.00  0.00     0.182 C 
ATOM     16  C   UNL A   1      33.721  35.552  31.657  1.00  0.00     0.182 C 
ATOM     17  O   UNL A   1      33.197  36.896  31.518  1.00  0.00    -0.378 OA
ENDBRANCH  12  14
ENDBRANCH   9  12
ENDBRANCH   7   9
ENDBRANCH   4   7
ENDBRANCH   2   3
ENDBRANCH   1   2
BRANCH   1  18
ATOM     18  C   UNL A   1      34.894  32.725  29.620  1.00  0.00     0.118 C 
BRANCH  18  19
ATOM     19  N   UNL A   1      34.095  31.828  28.785  1.00  0.00    -0.352 N 
ATOM     20  C   UNL A   1      34.452  30.688  28.105  1.00  0.00     0.251 C 
ATOM     21  H   UNL A   1      33.149  32.082  28.697  1.00  0.00     0.163 HD
ATOM     22  O   UNL A   1      33.658  30.182  27.318  1.00  0.00    -0.269 OA
BRANCH  20  23
ATOM     23  C   UNL A   1      35.793  30.096  28.297  1.00  0.00     0.039 A 
ATOM     24  C   UNL A   1      36.713  30.130  27.247  1.00  0.00     0.014 A 
ATOM     25  C   UNL A   1      36.149  29.528  29.521  1.00  0.00     0.014 A 
ATOM     26  C   UNL A   1      38.021  29.690  27.463  1.00  0.00     0.010 A 
ATOM     27  C   UNL A   1      37.474  29.196  29.767  1.00  0.00     0.010 A 
ATOM     28  C   UNL A   1      38.428  29.276  28.742  1.00  0.00    -0.014 A 
BRANCH  28  29
ATOM     29  C   UNL A   1      39.842  28.934  29.041  1.00  0.00     0.031 A 
ATOM     30  C   UNL A   1      40.761  29.976  29.621  1.00  0.00     0.074 A 
ATOM     31  C   UNL A   1      40.319  27.719  28.702  1.00  0.00     0.049 A 
ATOM     32  N   UNL A   1      42.049  29.910  29.839  1.00  0.00    -0.248 NA
ATOM     33  C   UNL A   1      40.163  31.278  29.965  1.00  0.00     0.031 C 
ATOM     34  C   UNL A   1      39.543  26.647  28.071  1.00  0.00     0.029 A 
ATOM     35  N   UNL A   1      41.577  27.184  28.823  1.00  0.00    -0.354 N 
ATOM     36  C   UNL A   1      42.417  31.163  30.319  1.00  0.00     0.074 A 
ATOM     37  C   UNL A   1      41.229  31.986  30.310  1.00  0.00     0.031 C 
ATOM     38  C   UNL A   1      40.334  25.578  27.886  1.00  0.00     0.029 A 
ATOM     39  C   UNL A   1      41.681  25.899  28.343  1.00  0.00     0.049 A 
ATOM     40  H   UNL A   1      42.335  27.675  29.217  1.00  0.00     0.167 HD
ATOM     41  C   UNL A   1      43.629  31.579  30.754  1.00  0.00     0.037 A 
ATOM     42  C   UNL A   1      42.745  25.075  28.270  1.00  0.00     0.037 A 
ATOM     43  C   UNL A   1      44.795  30.738  30.808  1.00  0.00     0.049 A 
ATOM     44  C   UNL A   1      44.075  25.554  28.787  1.00  0.00     0.074 A 
ATOM     45  C   UNL A   1      46.050  31.041  31.305  1.00  0.00     0.029 A 
ATOM     46  N   UNL A   1      44.849  29.428  30.355  1.00  0.00    -0.354 N 
ATOM     47  N   UNL A   1      44.386  26.720  29.302  1.00  0.00    -0.248 NA
ATOM     48  C   UNL A   1      45.196  24.607  28.719  1.00  0.00     0.031 C 
ATOM     49  C   UNL A   1      46.874  29.926  31.120  1.00  0.00     0.029 A 
ATOM     50  C   UNL A   1      46.120  28.914  30.547  1.00  0.00     0.049 A 
ATOM     51  H   UNL A   1      44.094  28.937  29.956  1.00  0.00     0.167 HD
ATOM     52  C   UNL A   1      45.731  26.636  29.644  1.00  0.00     0.074 A 
ATOM     53  C   UNL A   1      46.170  25.301  29.290  1.00  0.00     0.031 C 
ATOM     54  C   UNL A   1      46.532  27.578  30.199  1.00  0.00     0.037 A 
BRANCH  41  55
ATOM     55  C   UNL A   1      43.755  33.001  31.227  1.00  0.00     0.058 A 
ATOM     56  C   UNL A   1      43.643  33.336  32.585  1.00  0.00     0.135 A 
ATOM     57  C   UNL A   1      44.046  34.033  30.320  1.00  0.00     0.135 A 
ATOM     58  F   UNL A   1      43.348  32.392  33.493  1.00  0.00    -0.206 F 
ATOM     59  C   UNL A   1      43.797  34.646  33.026  1.00  0.00     0.059 A 
ATOM     60  C   UNL A   1      44.231  35.346  30.742  1.00  0.00     0.059 A 
ATOM     61  F   UNL A   1      44.160  33.767  29.008  1.00  0.00    -0.206 F 
ATOM     62  C   UNL A   1      44.095  35.644  32.097  1.00  0.00     0.060 A 
BRANCH  62  63
ATOM     63  S   UNL A   1      44.320  37.334  32.691  1.00  0.00     0.124 S 
ATOM     64  O   UNL A   1      43.188  37.475  33.601  1.00  0.00    -0.237 OA
ATOM     65  O   UNL A   1      45.635  37.270  33.321  1.00  0.00    -0.237 OA
ATOM     66  O   UNL A   1      44.249  38.134  31.472  1.00  0.00    -0.744 OA
ENDBRANCH  62  63
ENDBRANCH  41  55
BRANCH  42  67
ATOM     67  C   UNL A   1      42.597  23.707  27.705  1.00  0.00     0.058 A 
ATOM     68  C   UNL A   1      42.447  22.594  28.545  1.00  0.00     0.135 A 
ATOM     69  C   UNL A   1      42.609  23.483  26.320  1.00  0.00     0.135 A 
ATOM     70  F   UNL A   1      42.432  22.756  29.876  1.00  0.00    -0.206 F 
ATOM     71  C   UNL A   1      42.341  21.304  28.035  1.00  0.00     0.059 A 
ATOM     72  C   UNL A   1      42.479  22.205  25.785  1.00  0.00     0.059 A 
ATOM     73  F   UNL A   1      42.730  24.517  25.472  1.00  0.00    -0.206 F 
ATOM     74  C   UNL A   1      42.360  21.120  26.652  1.00  0.00     0.060 A 
BRANCH  74  75
ATOM     75  S   UNL A   1      42.192  19.446  25.997  1.00  0.00     0.124 S 
ATOM     76  O   UNL A   1      40.782  19.415  25.628  1.00  0.00    -0.237 OA
ATOM     77  O   UNL A   1      43.143  19.451  24.889  1.00  0.00    -0.237 OA
ATOM     78  O   UNL A   1      42.569  18.605  27.130  1.00  0.00    -0.744 OA
ENDBRANCH  74  75
ENDBRANCH  42  67
BRANCH  54  79
ATOM     79  C   UNL A   1      47.954  27.191  30.492  1.00  0.00     0.058 A 
ATOM     80  C   UNL A   1      48.987  27.432  29.574  1.00  0.00     0.135 A 
ATOM     81  C   UNL A   1      48.292  26.618  31.729  1.00  0.00     0.135 A 
ATOM     82  F   UNL A   1      48.714  27.971  28.376  1.00  0.00    -0.206 F 
ATOM     83  C   UNL A   1      50.305  27.099  29.864  1.00  0.00     0.059 A 
ATOM     84  C   UNL A   1      49.607  26.301  32.050  1.00  0.00     0.059 A 
ATOM     85  F   UNL A   1      47.340  26.376  32.645  1.00  0.00    -0.206 F 
ATOM     86  C   UNL A   1      50.606  26.535  31.105  1.00  0.00     0.060 A 
BRANCH  86  87
ATOM     87  S   UNL A   1      52.326  26.138  31.483  1.00  0.00     0.124 S 
ATOM     88  O   UNL A   1      52.657  27.171  32.459  1.00  0.00    -0.237 OA
ATOM     89  O   UNL A   1      52.226  24.779  32.007  1.00  0.00    -0.237 OA
ATOM     90  O   UNL A   1      52.994  26.257  30.191  1.00  0.00    -0.744 OA
ENDBRANCH  86  87
ENDBRANCH  54  79
ENDBRANCH  28  29
ENDBRANCH  20  23
ENDBRANCH  18  19
ENDBRANCH   1  18
TORSDOF 16
ENDMDL
