MODEL 1
REMARK VINA RESULT:     -11.7      0.000      0.000
REMARK SMILES O=C(NCCCNC(=O)c1cc(Cl)cc(Cl)c1O)c1ccc(-c2c3nc(c(-c4c(F)cc(S(=O)(=O)[O-])cc4F)c4ccc([nH]4)c(-c4c(F)cc(S(=O)(=O)[O-])cc4F)c4nc(c(-c5c(F)cc(S(=O)(=O)[O-])cc5F)c5ccc2[nH]5)C=C4)C=C3)cc1
REMARK SMILES IDX 4 1 3 2 1 3 2 4 19 6 20 7 84 8 21 9 83 10 22 11 23 12 24 13
REMARK SMILES IDX 77 14 25 15 82 16 76 17 78 18 26 19 81 20 75 21 74 22 27 24
REMARK SMILES IDX 61 25 40 26 60 27 41 28 44 29 59 30 79 31 42 32 43 33 58 35
REMARK SMILES IDX 80 36 45 37 28 38 29 39 38 40 30 41 31 42 37 43 39 44 32 45
REMARK SMILES IDX 33 46 34 47 35 48 36 49 62 50 63 51 72 52 64 53 65 54 71 55
REMARK SMILES IDX 73 56 66 57 67 58 68 59 69 60 70 61 46 62 47 63 56 64 48 65
REMARK SMILES IDX 49 66 55 67 57 68 50 69 51 70 52 71 53 72 54 73 5 74 6 75
REMARK SMILES IDX 7 76 8 77 9 79 10 80 11 81 17 82 12 83 15 84 13 85 14 86
REMARK SMILES IDX 16 87 18 88
REMARK H PARENT 3 5 78 23 44 34 7 78 18 89
REMARK Flexibility Score: inf
ROOT
ATOM      1  C   UNL A   1      38.243  24.070  26.459  1.00  0.00     0.118 C 
ENDROOT
BRANCH   1   2
ATOM      2  N   UNL A   1      39.641  23.995  26.058  1.00  0.00    -0.352 N 
ATOM      3  O   UNL A   1      41.776  24.653  25.814  1.00  0.00    -0.269 OA
ATOM      4  C   UNL A   1      40.715  24.771  26.423  1.00  0.00     0.251 C 
ATOM      5  H   UNL A   1      39.851  23.274  25.422  1.00  0.00     0.163 HD
BRANCH   4   6
ATOM      6  C   UNL A   1      40.598  25.753  27.524  1.00  0.00     0.039 A 
ATOM      7  C   UNL A   1      41.424  26.877  27.576  1.00  0.00     0.014 A 
ATOM      8  C   UNL A   1      39.620  25.565  28.506  1.00  0.00     0.014 A 
ATOM      9  C   UNL A   1      41.385  27.719  28.681  1.00  0.00     0.010 A 
ATOM     10  C   UNL A   1      39.513  26.470  29.568  1.00  0.00     0.010 A 
ATOM     11  C   UNL A   1      40.416  27.538  29.681  1.00  0.00    -0.014 A 
BRANCH  11  12
ATOM     12  C   UNL A   1      40.327  28.523  30.790  1.00  0.00     0.031 A 
ATOM     13  C   UNL A   1      41.230  28.435  31.987  1.00  0.00     0.074 A 
ATOM     14  C   UNL A   1      39.425  29.520  30.692  1.00  0.00     0.049 A 
ATOM     15  N   UNL A   1      41.289  29.223  33.031  1.00  0.00    -0.248 NA
ATOM     16  C   UNL A   1      42.185  27.317  32.027  1.00  0.00     0.031 C 
ATOM     17  C   UNL A   1      38.477  29.692  29.587  1.00  0.00     0.029 A 
ATOM     18  N   UNL A   1      39.162  30.580  31.519  1.00  0.00    -0.354 N 
ATOM     19  C   UNL A   1      42.267  28.687  33.861  1.00  0.00     0.074 A 
ATOM     20  C   UNL A   1      42.761  27.492  33.209  1.00  0.00     0.031 C 
ATOM     21  C   UNL A   1      37.766  30.810  29.786  1.00  0.00     0.029 A 
ATOM     22  C   UNL A   1      38.160  31.401  31.059  1.00  0.00     0.049 A 
ATOM     23  H   UNL A   1      39.644  30.739  32.363  1.00  0.00     0.167 HD
ATOM     24  C   UNL A   1      42.714  29.154  35.053  1.00  0.00     0.037 A 
ATOM     25  C   UNL A   1      37.603  32.497  31.605  1.00  0.00     0.037 A 
ATOM     26  C   UNL A   1      42.225  30.353  35.686  1.00  0.00     0.049 A 
ATOM     27  C   UNL A   1      38.113  32.993  32.925  1.00  0.00     0.074 A 
ATOM     28  C   UNL A   1      42.646  30.935  36.870  1.00  0.00     0.029 A 
ATOM     29  N   UNL A   1      41.203  31.153  35.192  1.00  0.00    -0.354 N 
ATOM     30  N   UNL A   1      39.069  32.497  33.674  1.00  0.00    -0.248 NA
ATOM     31  C   UNL A   1      37.474  34.193  33.477  1.00  0.00     0.031 C 
ATOM     32  C   UNL A   1      41.850  32.060  37.113  1.00  0.00     0.029 A 
ATOM     33  C   UNL A   1      40.963  32.207  36.058  1.00  0.00     0.049 A 
ATOM     34  H   UNL A   1      40.719  30.993  34.350  1.00  0.00     0.167 HD
ATOM     35  C   UNL A   1      39.151  33.327  34.784  1.00  0.00     0.074 A 
ATOM     36  C   UNL A   1      38.162  34.371  34.597  1.00  0.00     0.031 C 
ATOM     37  C   UNL A   1      39.969  33.234  35.860  1.00  0.00     0.037 A 
BRANCH  24  38
ATOM     38  C   UNL A   1      43.770  28.354  35.765  1.00  0.00     0.058 A 
ATOM     39  C   UNL A   1      45.140  28.591  35.565  1.00  0.00     0.135 A 
ATOM     40  C   UNL A   1      43.409  27.357  36.686  1.00  0.00     0.135 A 
ATOM     41  F   UNL A   1      45.543  29.525  34.688  1.00  0.00    -0.206 F 
ATOM     42  C   UNL A   1      46.112  27.848  36.228  1.00  0.00     0.059 A 
ATOM     43  C   UNL A   1      44.364  26.617  37.378  1.00  0.00     0.059 A 
ATOM     44  F   UNL A   1      42.114  27.089  36.917  1.00  0.00    -0.206 F 
ATOM     45  C   UNL A   1      45.714  26.859  37.129  1.00  0.00     0.060 A 
BRANCH  45  46
ATOM     46  S   UNL A   1      46.987  25.892  37.970  1.00  0.00     0.124 S 
ATOM     47  O   UNL A   1      46.656  24.538  37.536  1.00  0.00    -0.237 OA
ATOM     48  O   UNL A   1      48.219  26.449  37.421  1.00  0.00    -0.237 OA
ATOM     49  O   UNL A   1      46.750  26.174  39.382  1.00  0.00    -0.744 OA
ENDBRANCH  45  46
ENDBRANCH  24  38
BRANCH  25  50
ATOM     50  C   UNL A   1      36.490  33.179  30.896  1.00  0.00     0.058 A 
ATOM     51  C   UNL A   1      35.169  33.088  31.358  1.00  0.00     0.135 A 
ATOM     52  C   UNL A   1      36.738  33.985  29.773  1.00  0.00     0.135 A 
ATOM     53  F   UNL A   1      34.884  32.328  32.426  1.00  0.00    -0.206 F 
ATOM     54  C   UNL A   1      34.132  33.768  30.730  1.00  0.00     0.059 A 
ATOM     55  C   UNL A   1      35.722  34.695  29.145  1.00  0.00     0.059 A 
ATOM     56  F   UNL A   1      37.989  34.121  29.307  1.00  0.00    -0.206 F 
ATOM     57  C   UNL A   1      34.420  34.575  29.627  1.00  0.00     0.060 A 
BRANCH  57  58
ATOM     58  S   UNL A   1      33.080  35.514  28.862  1.00  0.00     0.124 S 
ATOM     59  O   UNL A   1      32.342  35.977  30.032  1.00  0.00    -0.237 OA
ATOM     60  O   UNL A   1      33.808  36.539  28.119  1.00  0.00    -0.237 OA
ATOM     61  O   UNL A   1      32.401  34.518  28.039  1.00  0.00    -0.744 OA
ENDBRANCH  57  58
ENDBRANCH  25  50
BRANCH  37  62
ATOM     62  C   UNL A   1      39.836  34.295  36.915  1.00  0.00     0.058 A 
ATOM     63  C   UNL A   1      40.460  35.545  36.781  1.00  0.00     0.135 A 
ATOM     64  C   UNL A   1      39.045  34.073  38.054  1.00  0.00     0.135 A 
ATOM     65  F   UNL A   1      41.235  35.803  35.716  1.00  0.00    -0.206 F 
ATOM     66  C   UNL A   1      40.321  36.532  37.751  1.00  0.00     0.059 A 
ATOM     67  C   UNL A   1      38.873  35.055  39.023  1.00  0.00     0.059 A 
ATOM     68  F   UNL A   1      38.422  32.896  38.224  1.00  0.00    -0.206 F 
ATOM     69  C   UNL A   1      39.524  36.277  38.868  1.00  0.00     0.060 A 
BRANCH  69  70
ATOM     70  S   UNL A   1      39.325  37.576  40.106  1.00  0.00     0.124 S 
ATOM     71  O   UNL A   1      39.012  36.799  41.301  1.00  0.00    -0.237 OA
ATOM     72  O   UNL A   1      40.634  38.223  40.095  1.00  0.00    -0.237 OA
ATOM     73  O   UNL A   1      38.231  38.385  39.577  1.00  0.00    -0.744 OA
ENDBRANCH  69  70
ENDBRANCH  37  62
ENDBRANCH  11  12
ENDBRANCH   4   6
ENDBRANCH   1   2
BRANCH   1  74
ATOM     74  C   UNL A   1      37.288  23.670  25.344  1.00  0.00     0.042 C 
BRANCH  74  75
ATOM     75  C   UNL A   1      36.816  22.224  25.414  1.00  0.00     0.118 C 
BRANCH  75  76
ATOM     76  N   UNL A   1      35.966  21.974  26.572  1.00  0.00    -0.352 N 
ATOM     77  C   UNL A   1      34.602  21.885  26.660  1.00  0.00     0.255 C 
ATOM     78  H   UNL A   1      36.447  21.851  27.421  1.00  0.00     0.163 HD
ATOM     79  O   UNL A   1      34.047  21.968  27.755  1.00  0.00    -0.269 OA
BRANCH  77  80
ATOM     80  C   UNL A   1      33.757  21.726  25.461  1.00  0.00     0.084 A 
ATOM     81  C   UNL A   1      33.187  22.845  24.843  1.00  0.00     0.038 A 
ATOM     82  C   UNL A   1      33.583  20.452  24.901  1.00  0.00     0.147 A 
ATOM     83  C   UNL A   1      32.358  22.674  23.738  1.00  0.00     0.043 A 
ATOM     84  C   UNL A   1      32.751  20.297  23.787  1.00  0.00     0.085 A 
ATOM     85  Cl  UNL A   1      31.614  24.048  23.019  1.00  0.00    -0.084 Cl
ATOM     86  C   UNL A   1      32.125  21.406  23.214  1.00  0.00     0.045 A 
ATOM     87  Cl  UNL A   1      32.482  18.749  23.071  1.00  0.00    -0.080 Cl
BRANCH  82  88
ATOM     88  O   UNL A   1      34.218  19.349  25.417  1.00  0.00    -0.506 OA
ATOM     89  H   UNL A   1      33.825  18.502  25.335  1.00  0.00     0.293 HD
ENDBRANCH  82  88
ENDBRANCH  77  80
ENDBRANCH  75  76
ENDBRANCH  74  75
ENDBRANCH   1  74
TORSDOF 14
ENDMDL
MODEL 2
REMARK VINA RESULT:     -11.6      5.829     12.055
REMARK SMILES O=C(NCCCNC(=O)c1cc(Cl)cc(Cl)c1O)c1ccc(-c2c3nc(c(-c4c(F)cc(S(=O)(=O)[O-])cc4F)c4ccc([nH]4)c(-c4c(F)cc(S(=O)(=O)[O-])cc4F)c4nc(c(-c5c(F)cc(S(=O)(=O)[O-])cc5F)c5ccc2[nH]5)C=C4)C=C3)cc1
REMARK SMILES IDX 4 1 3 2 1 3 2 4 19 6 20 7 84 8 21 9 83 10 22 11 23 12 24 13
REMARK SMILES IDX 77 14 25 15 82 16 76 17 78 18 26 19 81 20 75 21 74 22 27 24
REMARK SMILES IDX 61 25 40 26 60 27 41 28 44 29 59 30 79 31 42 32 43 33 58 35
REMARK SMILES IDX 80 36 45 37 28 38 29 39 38 40 30 41 31 42 37 43 39 44 32 45
REMARK SMILES IDX 33 46 34 47 35 48 36 49 62 50 63 51 72 52 64 53 65 54 71 55
REMARK SMILES IDX 73 56 66 57 67 58 68 59 69 60 70 61 46 62 47 63 56 64 48 65
REMARK SMILES IDX 49 66 55 67 57 68 50 69 51 70 52 71 53 72 54 73 5 74 6 75
REMARK SMILES IDX 7 76 8 77 9 79 10 80 11 81 17 82 12 83 15 84 13 85 14 86
REMARK SMILES IDX 16 87 18 88
REMARK H PARENT 3 5 78 23 44 34 7 78 18 89
REMARK Flexibility Score: inf
ROOT
ATOM      1  C   UNL A   1      34.488  32.653  28.017  1.00  0.00     0.118 C 
ENDROOT
BRANCH   1   2
ATOM      2  N   UNL A   1      33.801  31.373  27.910  1.00  0.00    -0.352 N 
ATOM      3  O   UNL A   1      33.554  29.163  27.586  1.00  0.00    -0.269 OA
ATOM      4  C   UNL A   1      34.304  30.094  27.874  1.00  0.00     0.251 C 
ATOM      5  H   UNL A   1      32.821  31.432  27.853  1.00  0.00     0.163 HD
BRANCH   4   6
ATOM      6  C   UNL A   1      35.732  29.834  28.160  1.00  0.00     0.039 A 
ATOM      7  C   UNL A   1      36.707  30.022  27.179  1.00  0.00     0.014 A 
ATOM      8  C   UNL A   1      36.109  29.429  29.445  1.00  0.00     0.014 A 
ATOM      9  C   UNL A   1      38.023  29.655  27.428  1.00  0.00     0.010 A 
ATOM     10  C   UNL A   1      37.452  29.156  29.725  1.00  0.00     0.010 A 
ATOM     11  C   UNL A   1      38.417  29.236  28.709  1.00  0.00    -0.014 A 
BRANCH  11  12
ATOM     12  C   UNL A   1      39.853  28.960  28.972  1.00  0.00     0.031 A 
ATOM     13  C   UNL A   1      40.743  29.992  29.605  1.00  0.00     0.074 A 
ATOM     14  C   UNL A   1      40.345  27.747  28.648  1.00  0.00     0.049 A 
ATOM     15  N   UNL A   1      42.012  29.904  29.914  1.00  0.00    -0.248 NA
ATOM     16  C   UNL A   1      40.138  31.294  29.926  1.00  0.00     0.031 C 
ATOM     17  C   UNL A   1      39.580  26.675  28.006  1.00  0.00     0.029 A 
ATOM     18  N   UNL A   1      41.591  27.205  28.822  1.00  0.00    -0.354 N 
ATOM     19  C   UNL A   1      42.365  31.140  30.444  1.00  0.00     0.074 A 
ATOM     20  C   UNL A   1      41.179  31.971  30.394  1.00  0.00     0.031 C 
ATOM     21  C   UNL A   1      40.361  25.594  27.876  1.00  0.00     0.029 A 
ATOM     22  C   UNL A   1      41.697  25.914  28.366  1.00  0.00     0.049 A 
ATOM     23  H   UNL A   1      42.340  27.695  29.234  1.00  0.00     0.167 HD
ATOM     24  C   UNL A   1      43.565  31.541  30.931  1.00  0.00     0.037 A 
ATOM     25  C   UNL A   1      42.753  25.080  28.325  1.00  0.00     0.037 A 
ATOM     26  C   UNL A   1      44.734  30.700  30.990  1.00  0.00     0.049 A 
ATOM     27  C   UNL A   1      44.069  25.547  28.869  1.00  0.00     0.074 A 
ATOM     28  C   UNL A   1      45.983  30.998  31.509  1.00  0.00     0.029 A 
ATOM     29  N   UNL A   1      44.804  29.400  30.509  1.00  0.00    -0.354 N 
ATOM     30  N   UNL A   1      44.372  26.706  29.405  1.00  0.00    -0.248 NA
ATOM     31  C   UNL A   1      45.189  24.600  28.803  1.00  0.00     0.031 C 
ATOM     32  C   UNL A   1      46.818  29.894  31.302  1.00  0.00     0.029 A 
ATOM     33  C   UNL A   1      46.079  28.891  30.697  1.00  0.00     0.049 A 
ATOM     34  H   UNL A   1      44.056  28.911  30.095  1.00  0.00     0.167 HD
ATOM     35  C   UNL A   1      45.716  26.626  29.747  1.00  0.00     0.074 A 
ATOM     36  C   UNL A   1      46.161  25.297  29.378  1.00  0.00     0.031 C 
ATOM     37  C   UNL A   1      46.508  27.567  30.315  1.00  0.00     0.037 A 
BRANCH  24  38
ATOM     38  C   UNL A   1      43.682  32.959  31.420  1.00  0.00     0.058 A 
ATOM     39  C   UNL A   1      44.085  34.003  30.573  1.00  0.00     0.135 A 
ATOM     40  C   UNL A   1      43.356  33.284  32.746  1.00  0.00     0.135 A 
ATOM     41  F   UNL A   1      44.420  33.749  29.297  1.00  0.00    -0.206 F 
ATOM     42  C   UNL A   1      44.190  35.313  31.031  1.00  0.00     0.059 A 
ATOM     43  C   UNL A   1      43.431  34.591  33.221  1.00  0.00     0.059 A 
ATOM     44  F   UNL A   1      42.963  32.325  33.600  1.00  0.00    -0.206 F 
ATOM     45  C   UNL A   1      43.866  35.596  32.358  1.00  0.00     0.060 A 
BRANCH  45  46
ATOM     46  S   UNL A   1      44.022  37.298  32.944  1.00  0.00     0.124 S 
ATOM     47  O   UNL A   1      42.919  37.379  33.897  1.00  0.00    -0.237 OA
ATOM     48  O   UNL A   1      45.361  37.308  33.525  1.00  0.00    -0.237 OA
ATOM     49  O   UNL A   1      43.863  38.092  31.730  1.00  0.00    -0.744 OA
ENDBRANCH  45  46
ENDBRANCH  24  38
BRANCH  25  50
ATOM     50  C   UNL A   1      42.592  23.728  27.732  1.00  0.00     0.058 A 
ATOM     51  C   UNL A   1      42.661  23.529  26.346  1.00  0.00     0.135 A 
ATOM     52  C   UNL A   1      42.423  22.598  28.550  1.00  0.00     0.135 A 
ATOM     53  F   UNL A   1      42.819  24.578  25.525  1.00  0.00    -0.206 F 
ATOM     54  C   UNL A   1      42.565  22.259  25.789  1.00  0.00     0.059 A 
ATOM     55  C   UNL A   1      42.351  21.316  28.018  1.00  0.00     0.059 A 
ATOM     56  F   UNL A   1      42.373  22.736  29.883  1.00  0.00    -0.206 F 
ATOM     57  C   UNL A   1      42.417  21.157  26.635  1.00  0.00     0.060 A 
BRANCH  57  58
ATOM     58  S   UNL A   1      42.368  19.503  25.910  1.00  0.00     0.124 S 
ATOM     59  O   UNL A   1      40.959  19.379  25.557  1.00  0.00    -0.237 OA
ATOM     60  O   UNL A   1      43.299  19.630  24.792  1.00  0.00    -0.237 OA
ATOM     61  O   UNL A   1      42.826  18.647  27.001  1.00  0.00    -0.744 OA
ENDBRANCH  57  58
ENDBRANCH  25  50
BRANCH  37  62
ATOM     62  C   UNL A   1      47.938  27.189  30.581  1.00  0.00     0.058 A 
ATOM     63  C   UNL A   1      48.919  27.282  29.582  1.00  0.00     0.135 A 
ATOM     64  C   UNL A   1      48.336  26.765  31.858  1.00  0.00     0.135 A 
ATOM     65  F   UNL A   1      48.587  27.672  28.341  1.00  0.00    -0.206 F 
ATOM     66  C   UNL A   1      50.245  26.947  29.836  1.00  0.00     0.059 A 
ATOM     67  C   UNL A   1      49.661  26.449  32.140  1.00  0.00     0.059 A 
ATOM     68  F   UNL A   1      47.436  26.666  32.850  1.00  0.00    -0.206 F 
ATOM     69  C   UNL A   1      50.606  26.533  31.119  1.00  0.00     0.060 A 
BRANCH  69  70
ATOM     70  S   UNL A   1      52.335  26.131  31.446  1.00  0.00     0.124 S 
ATOM     71  O   UNL A   1      52.656  27.062  32.523  1.00  0.00    -0.237 OA
ATOM     72  O   UNL A   1      52.263  24.722  31.826  1.00  0.00    -0.237 OA
ATOM     73  O   UNL A   1      52.993  26.394  30.170  1.00  0.00    -0.744 OA
ENDBRANCH  69  70
ENDBRANCH  37  62
ENDBRANCH  11  12
ENDBRANCH   4   6
ENDBRANCH   1   2
BRANCH   1  74
ATOM     74  C   UNL A   1      34.296  33.313  29.375  1.00  0.00     0.042 C 
BRANCH  74  75
ATOM     75  C   UNL A   1      34.776  32.473  30.551  1.00  0.00     0.118 C 
BRANCH  75  76
ATOM     76  N   UNL A   1      34.355  33.026  31.833  1.00  0.00    -0.352 N 
ATOM     77  C   UNL A   1      34.994  33.027  33.045  1.00  0.00     0.255 C 
ATOM     78  H   UNL A   1      33.475  33.467  31.826  1.00  0.00     0.163 HD
ATOM     79  O   UNL A   1      34.366  33.271  34.074  1.00  0.00    -0.269 OA
BRANCH  77  80
ATOM     80  C   UNL A   1      36.428  32.703  33.164  1.00  0.00     0.084 A 
ATOM     81  C   UNL A   1      36.872  31.384  33.014  1.00  0.00     0.038 A 
ATOM     82  C   UNL A   1      37.356  33.736  33.362  1.00  0.00     0.147 A 
ATOM     83  C   UNL A   1      38.222  31.089  33.171  1.00  0.00     0.043 A 
ATOM     84  C   UNL A   1      38.712  33.424  33.513  1.00  0.00     0.085 A 
ATOM     85  Cl  UNL A   1      38.752  29.457  33.044  1.00  0.00    -0.084 Cl
ATOM     86  C   UNL A   1      39.145  32.098  33.434  1.00  0.00     0.045 A 
ATOM     87  Cl  UNL A   1      39.895  34.652  33.781  1.00  0.00    -0.080 Cl
BRANCH  82  88
ATOM     88  O   UNL A   1      36.967  35.052  33.403  1.00  0.00    -0.506 OA
ATOM     89  H   UNL A   1      37.100  35.555  34.182  1.00  0.00     0.293 HD
ENDBRANCH  82  88
ENDBRANCH  77  80
ENDBRANCH  75  76
ENDBRANCH  74  75
ENDBRANCH   1  74
TORSDOF 14
ENDMDL
MODEL 3
REMARK VINA RESULT:     -11.5      5.722     10.293
REMARK SMILES O=C(NCCCNC(=O)c1cc(Cl)cc(Cl)c1O)c1ccc(-c2c3nc(c(-c4c(F)cc(S(=O)(=O)[O-])cc4F)c4ccc([nH]4)c(-c4c(F)cc(S(=O)(=O)[O-])cc4F)c4nc(c(-c5c(F)cc(S(=O)(=O)[O-])cc5F)c5ccc2[nH]5)C=C4)C=C3)cc1
REMARK SMILES IDX 4 1 3 2 1 3 2 4 19 6 20 7 84 8 21 9 83 10 22 11 23 12 24 13
REMARK SMILES IDX 77 14 25 15 82 16 76 17 78 18 26 19 81 20 75 21 74 22 27 24
REMARK SMILES IDX 61 25 40 26 60 27 41 28 44 29 59 30 79 31 42 32 43 33 58 35
REMARK SMILES IDX 80 36 45 37 28 38 29 39 38 40 30 41 31 42 37 43 39 44 32 45
REMARK SMILES IDX 33 46 34 47 35 48 36 49 62 50 63 51 72 52 64 53 65 54 71 55
REMARK SMILES IDX 73 56 66 57 67 58 68 59 69 60 70 61 46 62 47 63 56 64 48 65
REMARK SMILES IDX 49 66 55 67 57 68 50 69 51 70 52 71 53 72 54 73 5 74 6 75
REMARK SMILES IDX 7 76 8 77 9 79 10 80 11 81 17 82 12 83 15 84 13 85 14 86
REMARK SMILES IDX 16 87 18 88
REMARK H PARENT 3 5 78 23 44 34 7 78 18 89
REMARK Flexibility Score: inf
ROOT
ATOM      1  C   UNL A   1      33.980  27.991  26.584  1.00  0.00     0.118 C 
ENDROOT
BRANCH   1   2
ATOM      2  N   UNL A   1      33.666  29.347  27.013  1.00  0.00    -0.352 N 
ATOM      3  O   UNL A   1      33.866  31.265  28.167  1.00  0.00    -0.269 OA
ATOM      4  C   UNL A   1      34.403  30.239  27.756  1.00  0.00     0.251 C 
ATOM      5  H   UNL A   1      32.784  29.678  26.727  1.00  0.00     0.163 HD
BRANCH   4   6
ATOM      6  C   UNL A   1      35.822  29.965  28.075  1.00  0.00     0.039 A 
ATOM      7  C   UNL A   1      36.826  30.183  27.131  1.00  0.00     0.014 A 
ATOM      8  C   UNL A   1      36.159  29.514  29.356  1.00  0.00     0.014 A 
ATOM      9  C   UNL A   1      38.134  29.803  27.406  1.00  0.00     0.010 A 
ATOM     10  C   UNL A   1      37.493  29.226  29.666  1.00  0.00     0.010 A 
ATOM     11  C   UNL A   1      38.488  29.338  28.683  1.00  0.00    -0.014 A 
BRANCH  11  12
ATOM     12  C   UNL A   1      39.915  29.049  28.979  1.00  0.00     0.031 A 
ATOM     13  C   UNL A   1      40.534  27.727  28.624  1.00  0.00     0.074 A 
ATOM     14  C   UNL A   1      40.658  30.013  29.560  1.00  0.00     0.049 A 
ATOM     15  N   UNL A   1      41.767  27.324  28.801  1.00  0.00    -0.248 NA
ATOM     16  C   UNL A   1      39.660  26.723  27.998  1.00  0.00     0.031 C 
ATOM     17  C   UNL A   1      40.157  31.327  29.973  1.00  0.00     0.029 A 
ATOM     18  N   UNL A   1      41.987  30.046  29.894  1.00  0.00    -0.354 N 
ATOM     19  C   UNL A   1      41.814  26.016  28.331  1.00  0.00     0.074 A 
ATOM     20  C   UNL A   1      40.478  25.685  27.880  1.00  0.00     0.031 C 
ATOM     21  C   UNL A   1      41.172  32.050  30.467  1.00  0.00     0.029 A 
ATOM     22  C   UNL A   1      42.379  31.232  30.465  1.00  0.00     0.049 A 
ATOM     23  H   UNL A   1      42.601  29.293  29.739  1.00  0.00     0.167 HD
ATOM     24  C   UNL A   1      42.875  25.174  28.276  1.00  0.00     0.037 A 
ATOM     25  C   UNL A   1      43.572  31.619  30.955  1.00  0.00     0.037 A 
ATOM     26  C   UNL A   1      44.204  25.520  28.714  1.00  0.00     0.049 A 
ATOM     27  C   UNL A   1      44.730  30.669  30.884  1.00  0.00     0.074 A 
ATOM     28  C   UNL A   1      45.356  24.754  28.657  1.00  0.00     0.029 A 
ATOM     29  N   UNL A   1      44.560  26.729  29.296  1.00  0.00    -0.354 N 
ATOM     30  N   UNL A   1      44.765  29.452  30.396  1.00  0.00    -0.248 NA
ATOM     31  C   UNL A   1      46.010  31.139  31.428  1.00  0.00     0.031 C 
ATOM     32  C   UNL A   1      46.397  25.483  29.243  1.00  0.00     0.029 A 
ATOM     33  C   UNL A   1      45.906  26.721  29.624  1.00  0.00     0.049 A 
ATOM     34  H   UNL A   1      43.946  27.482  29.453  1.00  0.00     0.167 HD
ATOM     35  C   UNL A   1      46.070  29.011  30.568  1.00  0.00     0.074 A 
ATOM     36  C   UNL A   1      46.800  30.102  31.185  1.00  0.00     0.031 C 
ATOM     37  C   UNL A   1      46.615  27.813  30.246  1.00  0.00     0.037 A 
BRANCH  24  38
ATOM     38  C   UNL A   1      42.640  23.787  27.744  1.00  0.00     0.058 A 
ATOM     39  C   UNL A   1      42.455  22.688  28.597  1.00  0.00     0.135 A 
ATOM     40  C   UNL A   1      42.565  23.559  26.361  1.00  0.00     0.135 A 
ATOM     41  F   UNL A   1      42.528  22.845  29.929  1.00  0.00    -0.206 F 
ATOM     42  C   UNL A   1      42.236  21.407  28.098  1.00  0.00     0.059 A 
ATOM     43  C   UNL A   1      42.323  22.290  25.839  1.00  0.00     0.059 A 
ATOM     44  F   UNL A   1      42.732  24.574  25.499  1.00  0.00    -0.206 F 
ATOM     45  C   UNL A   1      42.177  21.217  26.717  1.00  0.00     0.060 A 
BRANCH  45  46
ATOM     46  S   UNL A   1      41.908  19.548  26.083  1.00  0.00     0.124 S 
ATOM     47  O   UNL A   1      42.307  18.735  27.228  1.00  0.00    -0.237 OA
ATOM     48  O   UNL A   1      40.481  19.554  25.779  1.00  0.00    -0.237 OA
ATOM     49  O   UNL A   1      42.792  19.478  24.924  1.00  0.00    -0.744 OA
ENDBRANCH  45  46
ENDBRANCH  24  38
BRANCH  25  50
ATOM     50  C   UNL A   1      43.709  32.967  31.563  1.00  0.00     0.058 A 
ATOM     51  C   UNL A   1      43.979  34.096  30.776  1.00  0.00     0.135 A 
ATOM     52  C   UNL A   1      43.512  33.159  32.940  1.00  0.00     0.135 A 
ATOM     53  F   UNL A   1      44.176  33.961  29.456  1.00  0.00    -0.206 F 
ATOM     54  C   UNL A   1      44.054  35.367  31.333  1.00  0.00     0.059 A 
ATOM     55  C   UNL A   1      43.556  34.424  33.515  1.00  0.00     0.059 A 
ATOM     56  F   UNL A   1      43.230  32.112  33.731  1.00  0.00    -0.206 F 
ATOM     57  C   UNL A   1      43.834  35.522  32.703  1.00  0.00     0.060 A 
BRANCH  57  58
ATOM     58  S   UNL A   1      43.859  37.185  33.406  1.00  0.00     0.124 S 
ATOM     59  O   UNL A   1      43.858  38.012  32.205  1.00  0.00    -0.237 OA
ATOM     60  O   UNL A   1      42.631  37.204  34.196  1.00  0.00    -0.237 OA
ATOM     61  O   UNL A   1      45.095  37.201  34.184  1.00  0.00    -0.744 OA
ENDBRANCH  57  58
ENDBRANCH  25  50
BRANCH  37  62
ATOM     62  C   UNL A   1      48.075  27.622  30.546  1.00  0.00     0.058 A 
ATOM     63  C   UNL A   1      49.067  27.964  29.614  1.00  0.00     0.135 A 
ATOM     64  C   UNL A   1      48.486  27.128  31.794  1.00  0.00     0.135 A 
ATOM     65  F   UNL A   1      48.725  28.430  28.403  1.00  0.00    -0.206 F 
ATOM     66  C   UNL A   1      50.418  27.802  29.901  1.00  0.00     0.059 A 
ATOM     67  C   UNL A   1      49.833  26.982  32.112  1.00  0.00     0.059 A 
ATOM     68  F   UNL A   1      47.576  26.794  32.723  1.00  0.00    -0.206 F 
ATOM     69  C   UNL A   1      50.791  27.311  31.154  1.00  0.00     0.060 A 
BRANCH  69  70
ATOM     70  S   UNL A   1      52.548  27.135  31.528  1.00  0.00     0.124 S 
ATOM     71  O   UNL A   1      52.753  25.707  31.311  1.00  0.00    -0.237 OA
ATOM     72  O   UNL A   1      53.168  28.021  30.547  1.00  0.00    -0.237 OA
ATOM     73  O   UNL A   1      52.646  27.581  32.915  1.00  0.00    -0.744 OA
ENDBRANCH  69  70
ENDBRANCH  37  62
ENDBRANCH  11  12
ENDBRANCH   4   6
ENDBRANCH   1   2
BRANCH   1  74
ATOM     74  C   UNL A   1      32.814  27.311  25.879  1.00  0.00     0.042 C 
BRANCH  74  75
ATOM     75  C   UNL A   1      32.129  28.175  24.828  1.00  0.00     0.118 C 
BRANCH  75  76
ATOM     76  N   UNL A   1      32.177  27.572  23.501  1.00  0.00    -0.352 N 
ATOM     77  C   UNL A   1      31.201  27.470  22.545  1.00  0.00     0.255 C 
ATOM     78  H   UNL A   1      33.044  27.180  23.254  1.00  0.00     0.163 HD
ATOM     79  O   UNL A   1      31.329  26.674  21.616  1.00  0.00    -0.269 OA
BRANCH  77  80
ATOM     80  C   UNL A   1      29.963  28.269  22.613  1.00  0.00     0.084 A 
ATOM     81  C   UNL A   1      28.814  27.746  23.217  1.00  0.00     0.038 A 
ATOM     82  C   UNL A   1      29.963  29.586  22.129  1.00  0.00     0.147 A 
ATOM     83  C   UNL A   1      27.642  28.496  23.236  1.00  0.00     0.043 A 
ATOM     84  C   UNL A   1      28.777  30.330  22.159  1.00  0.00     0.085 A 
ATOM     85  Cl  UNL A   1      26.218  27.824  23.927  1.00  0.00    -0.084 Cl
ATOM     86  C   UNL A   1      27.612  29.780  22.698  1.00  0.00     0.045 A 
ATOM     87  Cl  UNL A   1      28.713  31.946  21.556  1.00  0.00    -0.080 Cl
BRANCH  82  88
ATOM     88  O   UNL A   1      31.102  30.168  21.632  1.00  0.00    -0.506 OA
ATOM     89  H   UNL A   1      31.891  29.667  21.560  1.00  0.00     0.293 HD
ENDBRANCH  82  88
ENDBRANCH  77  80
ENDBRANCH  75  76
ENDBRANCH  74  75
ENDBRANCH   1  74
TORSDOF 14
ENDMDL
