MODEL 1
REMARK VINA RESULT:     -12.6      0.000      0.000
REMARK SMILES Cc1cccc(C(=O)Nc2ccc(C(=O)NNC(=O)c3ccccc3C(=O)NCCCNC(=O)c3ccc(-c4c5nc(c(-c6c(F)cc(S(=O)(=O)[O-])cc6F)c6ccc([nH]6)c(-c6c(F)cc(S(=O)(=O)[O-])cc6F)c6nc(c(-c7c(F)cc(S(=O)(=O)[O-])cc7F)c7ccc4[nH]7)C=C6)C=C5)cc3)cc2)c1
REMARK SMILES IDX 29 1 28 2 26 3 27 4 25 6 20 7 21 8 22 9 24 10 23 11 18 12
REMARK SMILES IDX 17 13 19 15 16 16 14 17 15 18 13 20 10 21 11 22 102 23 12 24
REMARK SMILES IDX 101 25 9 26 7 27 8 28 6 30 1 31 2 32 3 33 103 34 4 35 5 36
REMARK SMILES IDX 30 37 31 38 32 39 33 40 34 42 35 43 36 44 100 45 37 46 99 47
REMARK SMILES IDX 38 48 39 49 40 50 93 51 41 52 98 53 92 54 94 55 42 56 97 57
REMARK SMILES IDX 91 58 90 59 43 61 77 62 56 63 76 64 57 65 60 66 75 67 95 68
REMARK SMILES IDX 58 69 59 70 74 72 96 73 61 74 44 75 45 76 54 77 46 78 47 79
REMARK SMILES IDX 53 80 55 81 48 82 49 83 50 84 51 85 52 86 78 87 79 88 88 89
REMARK SMILES IDX 80 90 81 91 87 92 89 93 82 94 83 95 84 96 85 97 86 98 62 99
REMARK SMILES IDX 63 100 72 101 64 102 65 103 71 104 73 105 66 106 67 107
REMARK SMILES IDX 68 108 69 109 70 110
REMARK H PARENT 28 5 17 14 16 19 9 29 32 41 94 60 60 71
REMARK Flexibility Score: inf
ROOT
ATOM      1  C   UNL A   1      42.619  22.203  25.427  1.00  0.00     0.118 C 
ENDROOT
BRANCH   1   2
ATOM      2  N   UNL A   1      42.086  21.463  26.579  1.00  0.00    -0.352 N 
ATOM      3  C   UNL A   1      40.928  21.658  27.314  1.00  0.00     0.252 C 
ATOM      4  O   UNL A   1      40.454  20.755  27.999  1.00  0.00    -0.269 OA
ATOM      5  H   UNL A   1      42.642  20.706  26.876  1.00  0.00     0.163 HD
BRANCH   3   6
ATOM      6  C   UNL A   1      40.232  22.964  27.373  1.00  0.00     0.052 A 
ATOM      7  C   UNL A   1      39.106  23.264  26.610  1.00  0.00     0.054 A 
ATOM      8  C   UNL A   1      38.666  24.588  26.508  1.00  0.00     0.015 A 
ATOM      9  C   UNL A   1      39.236  25.567  27.329  1.00  0.00     0.001 A 
ATOM     10  C   UNL A   1      40.710  23.913  28.287  1.00  0.00     0.014 A 
ATOM     11  C   UNL A   1      40.201  25.212  28.272  1.00  0.00     0.001 A 
BRANCH   7  12
ATOM     12  C   UNL A   1      38.323  22.163  25.992  1.00  0.00     0.270 C 
ATOM     13  N   UNL A   1      36.974  22.222  26.319  1.00  0.00    -0.263 N 
ATOM     14  H   UNL A   1      36.579  23.083  26.587  1.00  0.00     0.191 HD
ATOM     15  O   UNL A   1      38.869  21.332  25.304  1.00  0.00    -0.267 OA
BRANCH  13  16
ATOM     16  N   UNL A   1      36.161  21.069  26.275  1.00  0.00    -0.263 N 
ATOM     17  C   UNL A   1      35.338  20.994  25.156  1.00  0.00     0.269 C 
ATOM     18  O   UNL A   1      35.726  20.479  24.113  1.00  0.00    -0.267 OA
ATOM     19  H   UNL A   1      36.177  20.378  26.975  1.00  0.00     0.191 HD
BRANCH  17  20
ATOM     20  C   UNL A   1      33.969  21.595  25.251  1.00  0.00     0.041 A 
ATOM     21  C   UNL A   1      31.519  23.002  25.474  1.00  0.00     0.041 A 
ATOM     22  C   UNL A   1      32.047  22.691  24.225  1.00  0.00     0.027 A 
ATOM     23  C   UNL A   1      32.214  22.597  26.613  1.00  0.00     0.027 A 
ATOM     24  C   UNL A   1      33.270  22.008  24.118  1.00  0.00     0.016 A 
ATOM     25  C   UNL A   1      33.422  21.886  26.505  1.00  0.00     0.016 A 
BRANCH  21  26
ATOM     26  N   UNL A   1      30.362  23.789  25.626  1.00  0.00    -0.322 N 
ATOM     27  C   UNL A   1      30.232  25.105  26.027  1.00  0.00     0.255 C 
ATOM     28  O   UNL A   1      29.240  25.486  26.646  1.00  0.00    -0.269 OA
ATOM     29  H   UNL A   1      29.516  23.333  25.414  1.00  0.00     0.170 HD
BRANCH  27  30
ATOM     30  C   UNL A   1      31.213  26.132  25.570  1.00  0.00     0.040 A 
ATOM     31  C   UNL A   1      31.423  28.996  23.094  1.00  0.00     0.044 C 
ATOM     32  C   UNL A   1      31.796  28.057  24.198  1.00  0.00    -0.050 A 
ATOM     33  C   UNL A   1      33.035  28.132  24.835  1.00  0.00     0.003 A 
ATOM     34  C   UNL A   1      30.876  27.093  24.613  1.00  0.00     0.017 A 
ATOM     35  C   UNL A   1      33.357  27.230  25.850  1.00  0.00     0.001 A 
ATOM     36  C   UNL A   1      32.458  26.221  26.204  1.00  0.00     0.014 A 
ENDBRANCH  27  30
ENDBRANCH  21  26
ENDBRANCH  17  20
ENDBRANCH  13  16
ENDBRANCH   7  12
ENDBRANCH   3   6
ENDBRANCH   1   2
BRANCH   1  37
ATOM     37  C   UNL A   1      43.970  21.746  24.855  1.00  0.00     0.042 C 
BRANCH  37  38
ATOM     38  C   UNL A   1      45.278  22.448  25.254  1.00  0.00     0.118 C 
BRANCH  38  39
ATOM     39  N   UNL A   1      45.238  23.359  26.385  1.00  0.00    -0.352 N 
ATOM     40  C   UNL A   1      44.989  24.727  26.167  1.00  0.00     0.251 C 
ATOM     41  H   UNL A   1      45.384  23.022  27.298  1.00  0.00     0.163 HD
ATOM     42  O   UNL A   1      45.441  25.333  25.198  1.00  0.00    -0.269 OA
BRANCH  40  43
ATOM     43  C   UNL A   1      43.907  25.349  27.005  1.00  0.00     0.039 A 
ATOM     44  C   UNL A   1      43.927  25.268  28.405  1.00  0.00     0.014 A 
ATOM     45  C   UNL A   1      43.128  26.327  26.441  1.00  0.00     0.014 A 
ATOM     46  C   UNL A   1      43.424  26.333  29.194  1.00  0.00     0.010 A 
ATOM     47  C   UNL A   1      42.717  27.395  27.219  1.00  0.00     0.010 A 
ATOM     48  C   UNL A   1      42.992  27.514  28.587  1.00  0.00    -0.014 A 
BRANCH  48  49
ATOM     49  C   UNL A   1      43.019  28.886  29.221  1.00  0.00     0.031 A 
ATOM     50  C   UNL A   1      41.786  29.747  29.428  1.00  0.00     0.074 A 
ATOM     51  C   UNL A   1      44.166  29.346  29.806  1.00  0.00     0.049 A 
ATOM     52  N   UNL A   1      41.830  30.986  29.812  1.00  0.00    -0.248 NA
ATOM     53  C   UNL A   1      40.398  29.311  29.288  1.00  0.00     0.031 C 
ATOM     54  C   UNL A   1      44.400  30.512  30.668  1.00  0.00     0.029 A 
ATOM     55  N   UNL A   1      45.477  28.871  29.634  1.00  0.00    -0.354 N 
ATOM     56  C   UNL A   1      40.576  31.416  30.207  1.00  0.00     0.074 A 
ATOM     57  C   UNL A   1      39.708  30.355  29.776  1.00  0.00     0.031 C 
ATOM     58  C   UNL A   1      45.704  30.846  30.624  1.00  0.00     0.029 A 
ATOM     59  C   UNL A   1      46.307  29.993  29.618  1.00  0.00     0.049 A 
ATOM     60  H   UNL A   1      45.756  27.932  29.543  1.00  0.00     0.167 HD
ATOM     61  C   UNL A   1      40.470  32.569  30.944  1.00  0.00     0.037 A 
ATOM     62  C   UNL A   1      46.877  30.376  28.441  1.00  0.00     0.037 A 
ATOM     63  C   UNL A   1      41.749  33.287  30.921  1.00  0.00     0.049 A 
ATOM     64  C   UNL A   1      46.458  31.776  28.100  1.00  0.00     0.074 A 
ATOM     65  C   UNL A   1      42.746  33.515  31.855  1.00  0.00     0.029 A 
ATOM     66  N   UNL A   1      42.256  33.704  29.692  1.00  0.00    -0.354 N 
ATOM     67  N   UNL A   1      45.323  32.299  28.480  1.00  0.00    -0.248 NA
ATOM     68  C   UNL A   1      47.332  32.738  27.441  1.00  0.00     0.031 C 
ATOM     69  C   UNL A   1      43.898  33.967  31.152  1.00  0.00     0.029 A 
ATOM     70  C   UNL A   1      43.588  34.041  29.802  1.00  0.00     0.049 A 
ATOM     71  H   UNL A   1      41.734  33.750  28.859  1.00  0.00     0.167 HD
ATOM     72  C   UNL A   1      45.338  33.639  28.223  1.00  0.00     0.074 A 
ATOM     73  C   UNL A   1      46.599  33.862  27.538  1.00  0.00     0.031 C 
ATOM     74  C   UNL A   1      44.346  34.480  28.638  1.00  0.00     0.037 A 
BRANCH  61  75
ATOM     75  C   UNL A   1      39.299  33.045  31.826  1.00  0.00     0.058 A 
ATOM     76  C   UNL A   1      38.928  32.317  32.991  1.00  0.00     0.135 A 
ATOM     77  C   UNL A   1      38.451  34.141  31.563  1.00  0.00     0.135 A 
ATOM     78  F   UNL A   1      39.633  31.257  33.411  1.00  0.00    -0.206 F 
ATOM     79  C   UNL A   1      37.805  32.618  33.780  1.00  0.00     0.059 A 
ATOM     80  C   UNL A   1      37.329  34.469  32.344  1.00  0.00     0.059 A 
ATOM     81  F   UNL A   1      38.653  34.959  30.531  1.00  0.00    -0.206 F 
ATOM     82  C   UNL A   1      37.000  33.693  33.442  1.00  0.00     0.060 A 
BRANCH  82  83
ATOM     83  S   UNL A   1      35.540  34.052  34.442  1.00  0.00     0.124 S 
ATOM     84  O   UNL A   1      34.565  33.104  33.909  1.00  0.00    -0.237 OA
ATOM     85  O   UNL A   1      36.012  33.782  35.796  1.00  0.00    -0.237 OA
ATOM     86  O   UNL A   1      35.261  35.456  34.151  1.00  0.00    -0.744 OA
ENDBRANCH  82  83
ENDBRANCH  61  75
BRANCH  62  87
ATOM     87  C   UNL A   1      47.115  29.205  27.529  1.00  0.00     0.058 A 
ATOM     88  C   UNL A   1      46.178  29.021  26.486  1.00  0.00     0.135 A 
ATOM     89  C   UNL A   1      48.394  28.656  27.329  1.00  0.00     0.135 A 
ATOM     90  F   UNL A   1      44.942  29.535  26.601  1.00  0.00    -0.206 F 
ATOM     91  C   UNL A   1      46.530  28.465  25.256  1.00  0.00     0.059 A 
ATOM     92  C   UNL A   1      48.767  28.083  26.100  1.00  0.00     0.059 A 
ATOM     93  F   UNL A   1      49.339  28.794  28.272  1.00  0.00    -0.206 F 
ATOM     94  C   UNL A   1      47.841  28.039  25.054  1.00  0.00     0.060 A 
BRANCH  94  95
ATOM     95  S   UNL A   1      48.328  27.610  23.359  1.00  0.00     0.124 S 
ATOM     96  O   UNL A   1      47.311  28.294  22.569  1.00  0.00    -0.237 OA
ATOM     97  O   UNL A   1      49.674  28.179  23.270  1.00  0.00    -0.237 OA
ATOM     98  O   UNL A   1      48.271  26.152  23.334  1.00  0.00    -0.744 OA
ENDBRANCH  94  95
ENDBRANCH  62  87
BRANCH  74  99
ATOM     99  C   UNL A   1      44.083  35.839  28.043  1.00  0.00     0.058 A 
ATOM    100  C   UNL A   1      43.029  36.090  27.146  1.00  0.00     0.135 A 
ATOM    101  C   UNL A   1      44.783  36.981  28.496  1.00  0.00     0.135 A 
ATOM    102  F   UNL A   1      42.197  35.117  26.748  1.00  0.00    -0.206 F 
ATOM    103  C   UNL A   1      42.748  37.364  26.660  1.00  0.00     0.059 A 
ATOM    104  C   UNL A   1      44.479  38.272  28.069  1.00  0.00     0.059 A 
ATOM    105  F   UNL A   1      45.774  36.889  29.396  1.00  0.00    -0.206 F 
ATOM    106  C   UNL A   1      43.479  38.449  27.124  1.00  0.00     0.060 A 
BRANCH 106 107
ATOM    107  S   UNL A   1      43.072  40.098  26.532  1.00  0.00     0.124 S 
ATOM    108  O   UNL A   1      41.712  39.899  26.041  1.00  0.00    -0.237 OA
ATOM    109  O   UNL A   1      43.193  40.911  27.739  1.00  0.00    -0.237 OA
ATOM    110  O   UNL A   1      44.085  40.348  25.512  1.00  0.00    -0.744 OA
ENDBRANCH 106 107
ENDBRANCH  74  99
ENDBRANCH  48  49
ENDBRANCH  40  43
ENDBRANCH  38  39
ENDBRANCH  37  38
ENDBRANCH   1  37
TORSDOF 18
ENDMDL
MODEL 2
REMARK VINA RESULT:     -12.5      5.022     15.391
REMARK SMILES Cc1cccc(C(=O)Nc2ccc(C(=O)NNC(=O)c3ccccc3C(=O)NCCCNC(=O)c3ccc(-c4c5nc(c(-c6c(F)cc(S(=O)(=O)[O-])cc6F)c6ccc([nH]6)c(-c6c(F)cc(S(=O)(=O)[O-])cc6F)c6nc(c(-c7c(F)cc(S(=O)(=O)[O-])cc7F)c7ccc4[nH]7)C=C6)C=C5)cc3)cc2)c1
REMARK SMILES IDX 29 1 28 2 26 3 27 4 25 6 20 7 21 8 22 9 24 10 23 11 18 12
REMARK SMILES IDX 17 13 19 15 16 16 14 17 15 18 13 20 10 21 11 22 102 23 12 24
REMARK SMILES IDX 101 25 9 26 7 27 8 28 6 30 1 31 2 32 3 33 103 34 4 35 5 36
REMARK SMILES IDX 30 37 31 38 32 39 33 40 34 42 35 43 36 44 100 45 37 46 99 47
REMARK SMILES IDX 38 48 39 49 40 50 93 51 41 52 98 53 92 54 94 55 42 56 97 57
REMARK SMILES IDX 91 58 90 59 43 61 77 62 56 63 76 64 57 65 60 66 75 67 95 68
REMARK SMILES IDX 58 69 59 70 74 72 96 73 61 74 44 75 45 76 54 77 46 78 47 79
REMARK SMILES IDX 53 80 55 81 48 82 49 83 50 84 51 85 52 86 78 87 79 88 88 89
REMARK SMILES IDX 80 90 81 91 87 92 89 93 82 94 83 95 84 96 85 97 86 98 62 99
REMARK SMILES IDX 63 100 72 101 64 102 65 103 71 104 73 105 66 106 67 107
REMARK SMILES IDX 68 108 69 109 70 110
REMARK H PARENT 28 5 17 14 16 19 9 29 32 41 94 60 60 71
REMARK Flexibility Score: inf
ROOT
ATOM      1  C   UNL A   1      40.571  34.913  29.543  1.00  0.00     0.118 C 
ENDROOT
BRANCH   1   2
ATOM      2  N   UNL A   1      41.905  35.134  30.116  1.00  0.00    -0.352 N 
ATOM      3  C   UNL A   1      43.117  35.394  29.497  1.00  0.00     0.252 C 
ATOM      4  O   UNL A   1      44.048  35.904  30.116  1.00  0.00    -0.269 OA
ATOM      5  H   UNL A   1      41.944  35.092  31.099  1.00  0.00     0.163 HD
BRANCH   3   6
ATOM      6  C   UNL A   1      43.387  35.023  28.089  1.00  0.00     0.052 A 
ATOM      7  C   UNL A   1      42.966  35.788  27.003  1.00  0.00     0.054 A 
ATOM      8  C   UNL A   1      43.013  35.250  25.712  1.00  0.00     0.015 A 
ATOM      9  C   UNL A   1      43.665  34.031  25.498  1.00  0.00     0.001 A 
ATOM     10  C   UNL A   1      44.154  33.873  27.856  1.00  0.00     0.014 A 
ATOM     11  C   UNL A   1      44.302  33.385  26.557  1.00  0.00     0.001 A 
BRANCH   7  12
ATOM     12  C   UNL A   1      42.565  37.203  27.213  1.00  0.00     0.270 C 
ATOM     13  N   UNL A   1      43.558  38.098  26.836  1.00  0.00    -0.263 N 
ATOM     14  H   UNL A   1      44.236  37.819  26.178  1.00  0.00     0.191 HD
ATOM     15  O   UNL A   1      41.483  37.472  27.681  1.00  0.00    -0.267 OA
BRANCH  13  16
ATOM     16  N   UNL A   1      43.613  39.399  27.380  1.00  0.00    -0.263 N 
ATOM     17  C   UNL A   1      42.959  40.363  26.620  1.00  0.00     0.269 C 
ATOM     18  O   UNL A   1      41.766  40.597  26.779  1.00  0.00    -0.267 OA
ATOM     19  H   UNL A   1      44.075  39.606  28.224  1.00  0.00     0.191 HD
BRANCH  17  20
ATOM     20  C   UNL A   1      43.749  41.087  25.574  1.00  0.00     0.041 A 
ATOM     21  C   UNL A   1      45.258  42.693  23.791  1.00  0.00     0.041 A 
ATOM     22  C   UNL A   1      45.881  41.729  24.578  1.00  0.00     0.027 A 
ATOM     23  C   UNL A   1      43.875  42.844  23.889  1.00  0.00     0.027 A 
ATOM     24  C   UNL A   1      45.133  40.947  25.473  1.00  0.00     0.016 A 
ATOM     25  C   UNL A   1      43.123  42.038  24.762  1.00  0.00     0.016 A 
BRANCH  21  26
ATOM     26  N   UNL A   1      45.983  43.580  22.973  1.00  0.00    -0.322 N 
ATOM     27  C   UNL A   1      46.444  44.855  23.239  1.00  0.00     0.255 C 
ATOM     28  O   UNL A   1      46.535  45.697  22.348  1.00  0.00    -0.269 OA
ATOM     29  H   UNL A   1      46.195  43.239  22.074  1.00  0.00     0.170 HD
BRANCH  27  30
ATOM     30  C   UNL A   1      47.004  45.188  24.581  1.00  0.00     0.040 A 
ATOM     31  C   UNL A   1      45.793  45.830  28.116  1.00  0.00     0.044 C 
ATOM     32  C   UNL A   1      46.719  45.608  26.962  1.00  0.00    -0.050 A 
ATOM     33  C   UNL A   1      48.104  45.679  27.112  1.00  0.00     0.003 A 
ATOM     34  C   UNL A   1      46.187  45.307  25.708  1.00  0.00     0.017 A 
ATOM     35  C   UNL A   1      48.940  45.483  26.012  1.00  0.00     0.001 A 
ATOM     36  C   UNL A   1      48.392  45.257  24.746  1.00  0.00     0.014 A 
ENDBRANCH  27  30
ENDBRANCH  21  26
ENDBRANCH  17  20
ENDBRANCH  13  16
ENDBRANCH   7  12
ENDBRANCH   3   6
ENDBRANCH   1   2
BRANCH   1  37
ATOM     37  C   UNL A   1      39.856  33.601  29.901  1.00  0.00     0.042 C 
BRANCH  37  38
ATOM     38  C   UNL A   1      38.422  33.605  30.458  1.00  0.00     0.118 C 
BRANCH  38  39
ATOM     39  N   UNL A   1      37.735  32.330  30.564  1.00  0.00    -0.352 N 
ATOM     40  C   UNL A   1      37.071  31.803  29.441  1.00  0.00     0.251 C 
ATOM     41  H   UNL A   1      37.732  31.838  31.417  1.00  0.00     0.163 HD
ATOM     42  O   UNL A   1      36.454  32.509  28.648  1.00  0.00    -0.269 OA
BRANCH  40  43
ATOM     43  C   UNL A   1      37.392  30.378  29.086  1.00  0.00     0.039 A 
ATOM     44  C   UNL A   1      37.922  30.036  27.832  1.00  0.00     0.014 A 
ATOM     45  C   UNL A   1      37.549  29.473  30.104  1.00  0.00     0.014 A 
ATOM     46  C   UNL A   1      38.839  28.964  27.708  1.00  0.00     0.010 A 
ATOM     47  C   UNL A   1      38.509  28.482  29.986  1.00  0.00     0.010 A 
ATOM     48  C   UNL A   1      39.300  28.297  28.846  1.00  0.00    -0.014 A 
BRANCH  48  49
ATOM     49  C   UNL A   1      40.642  27.615  28.979  1.00  0.00     0.031 A 
ATOM     50  C   UNL A   1      40.905  26.177  28.572  1.00  0.00     0.074 A 
ATOM     51  C   UNL A   1      41.748  28.344  29.321  1.00  0.00     0.049 A 
ATOM     52  N   UNL A   1      42.005  25.542  28.843  1.00  0.00    -0.248 NA
ATOM     53  C   UNL A   1      40.012  25.327  27.785  1.00  0.00     0.031 C 
ATOM     54  C   UNL A   1      43.173  27.989  29.300  1.00  0.00     0.029 A 
ATOM     55  N   UNL A   1      41.798  29.619  29.908  1.00  0.00    -0.354 N 
ATOM     56  C   UNL A   1      42.088  24.378  28.099  1.00  0.00     0.074 A 
ATOM     57  C   UNL A   1      40.777  24.255  27.523  1.00  0.00     0.031 C 
ATOM     58  C   UNL A   1      43.848  28.799  30.137  1.00  0.00     0.029 A 
ATOM     59  C   UNL A   1      42.850  29.594  30.824  1.00  0.00     0.049 A 
ATOM     60  H   UNL A   1      41.206  30.381  29.712  1.00  0.00     0.167 HD
ATOM     61  C   UNL A   1      43.300  23.742  27.992  1.00  0.00     0.037 A 
ATOM     62  C   UNL A   1      42.564  29.594  32.157  1.00  0.00     0.037 A 
ATOM     63  C   UNL A   1      44.239  24.308  28.967  1.00  0.00     0.049 A 
ATOM     64  C   UNL A   1      43.140  28.368  32.804  1.00  0.00     0.074 A 
ATOM     65  C   UNL A   1      45.355  25.122  28.874  1.00  0.00     0.029 A 
ATOM     66  N   UNL A   1      43.920  24.228  30.321  1.00  0.00    -0.354 N 
ATOM     67  N   UNL A   1      43.320  27.239  32.173  1.00  0.00    -0.248 NA
ATOM     68  C   UNL A   1      43.688  28.354  34.154  1.00  0.00     0.031 C 
ATOM     69  C   UNL A   1      45.633  25.621  30.176  1.00  0.00     0.029 A 
ATOM     70  C   UNL A   1      44.706  25.087  31.059  1.00  0.00     0.049 A 
ATOM     71  H   UNL A   1      43.228  23.640  30.699  1.00  0.00     0.167 HD
ATOM     72  C   UNL A   1      44.066  26.403  32.950  1.00  0.00     0.074 A 
ATOM     73  C   UNL A   1      44.241  27.129  34.197  1.00  0.00     0.031 C 
ATOM     74  C   UNL A   1      44.537  25.203  32.502  1.00  0.00     0.037 A 
BRANCH  61  75
ATOM     75  C   UNL A   1      43.756  22.706  26.948  1.00  0.00     0.058 A 
ATOM     76  C   UNL A   1      43.032  21.494  26.766  1.00  0.00     0.135 A 
ATOM     77  C   UNL A   1      44.917  22.783  26.151  1.00  0.00     0.135 A 
ATOM     78  F   UNL A   1      41.888  21.254  27.422  1.00  0.00    -0.206 F 
ATOM     79  C   UNL A   1      43.446  20.452  25.921  1.00  0.00     0.059 A 
ATOM     80  C   UNL A   1      45.346  21.758  25.288  1.00  0.00     0.059 A 
ATOM     81  F   UNL A   1      45.712  23.852  26.161  1.00  0.00    -0.206 F 
ATOM     82  C   UNL A   1      44.615  20.586  25.190  1.00  0.00     0.060 A 
BRANCH  82  83
ATOM     83  S   UNL A   1      45.158  19.227  24.133  1.00  0.00     0.124 S 
ATOM     84  O   UNL A   1      46.595  19.467  24.041  1.00  0.00    -0.237 OA
ATOM     85  O   UNL A   1      44.759  18.052  24.901  1.00  0.00    -0.237 OA
ATOM     86  O   UNL A   1      44.414  19.439  22.893  1.00  0.00    -0.744 OA
ENDBRANCH  82  83
ENDBRANCH  61  75
BRANCH  62  87
ATOM     87  C   UNL A   1      41.277  30.312  32.453  1.00  0.00     0.058 A 
ATOM     88  C   UNL A   1      40.227  29.525  32.980  1.00  0.00     0.135 A 
ATOM     89  C   UNL A   1      41.232  31.689  32.731  1.00  0.00     0.135 A 
ATOM     90  F   UNL A   1      40.216  28.198  32.770  1.00  0.00    -0.206 F 
ATOM     91  C   UNL A   1      39.275  30.043  33.859  1.00  0.00     0.059 A 
ATOM     92  C   UNL A   1      40.275  32.234  33.607  1.00  0.00     0.059 A 
ATOM     93  F   UNL A   1      42.196  32.500  32.268  1.00  0.00    -0.206 F 
ATOM     94  C   UNL A   1      39.334  31.391  34.204  1.00  0.00     0.060 A 
BRANCH  94  95
ATOM     95  S   UNL A   1      38.277  31.950  35.570  1.00  0.00     0.124 S 
ATOM     96  O   UNL A   1      36.976  32.062  34.921  1.00  0.00    -0.237 OA
ATOM     97  O   UNL A   1      38.402  30.850  36.528  1.00  0.00    -0.237 OA
ATOM     98  O   UNL A   1      38.881  33.208  35.993  1.00  0.00    -0.744 OA
ENDBRANCH  94  95
ENDBRANCH  62  87
BRANCH  74  99
ATOM     99  C   UNL A   1      44.978  24.076  33.400  1.00  0.00     0.058 A 
ATOM    100  C   UNL A   1      44.195  22.932  33.632  1.00  0.00     0.135 A 
ATOM    101  C   UNL A   1      46.292  24.032  33.921  1.00  0.00     0.135 A 
ATOM    102  F   UNL A   1      42.984  22.783  33.075  1.00  0.00    -0.206 F 
ATOM    103  C   UNL A   1      44.641  21.863  34.403  1.00  0.00     0.059 A 
ATOM    104  C   UNL A   1      46.781  22.946  34.644  1.00  0.00     0.059 A 
ATOM    105  F   UNL A   1      47.163  25.034  33.723  1.00  0.00    -0.206 F 
ATOM    106  C   UNL A   1      45.935  21.879  34.907  1.00  0.00     0.060 A 
BRANCH 106 107
ATOM    107  S   UNL A   1      46.523  20.468  35.856  1.00  0.00     0.124 S 
ATOM    108  O   UNL A   1      46.529  21.015  37.210  1.00  0.00    -0.237 OA
ATOM    109  O   UNL A   1      45.504  19.456  35.591  1.00  0.00    -0.237 OA
ATOM    110  O   UNL A   1      47.833  20.195  35.275  1.00  0.00    -0.744 OA
ENDBRANCH 106 107
ENDBRANCH  74  99
ENDBRANCH  48  49
ENDBRANCH  40  43
ENDBRANCH  38  39
ENDBRANCH  37  38
ENDBRANCH   1  37
TORSDOF 18
ENDMDL
MODEL 3
REMARK VINA RESULT:     -12.4      5.163     15.087
REMARK SMILES Cc1cccc(C(=O)Nc2ccc(C(=O)NNC(=O)c3ccccc3C(=O)NCCCNC(=O)c3ccc(-c4c5nc(c(-c6c(F)cc(S(=O)(=O)[O-])cc6F)c6ccc([nH]6)c(-c6c(F)cc(S(=O)(=O)[O-])cc6F)c6nc(c(-c7c(F)cc(S(=O)(=O)[O-])cc7F)c7ccc4[nH]7)C=C6)C=C5)cc3)cc2)c1
REMARK SMILES IDX 29 1 28 2 26 3 27 4 25 6 20 7 21 8 22 9 24 10 23 11 18 12
REMARK SMILES IDX 17 13 19 15 16 16 14 17 15 18 13 20 10 21 11 22 102 23 12 24
REMARK SMILES IDX 101 25 9 26 7 27 8 28 6 30 1 31 2 32 3 33 103 34 4 35 5 36
REMARK SMILES IDX 30 37 31 38 32 39 33 40 34 42 35 43 36 44 100 45 37 46 99 47
REMARK SMILES IDX 38 48 39 49 40 50 93 51 41 52 98 53 92 54 94 55 42 56 97 57
REMARK SMILES IDX 91 58 90 59 43 61 77 62 56 63 76 64 57 65 60 66 75 67 95 68
REMARK SMILES IDX 58 69 59 70 74 72 96 73 61 74 44 75 45 76 54 77 46 78 47 79
REMARK SMILES IDX 53 80 55 81 48 82 49 83 50 84 51 85 52 86 78 87 79 88 88 89
REMARK SMILES IDX 80 90 81 91 87 92 89 93 82 94 83 95 84 96 85 97 86 98 62 99
REMARK SMILES IDX 63 100 72 101 64 102 65 103 71 104 73 105 66 106 67 107
REMARK SMILES IDX 68 108 69 109 70 110
REMARK H PARENT 28 5 17 14 16 19 9 29 32 41 94 60 60 71
REMARK Flexibility Score: inf
ROOT
ATOM      1  C   UNL A   1      40.632  34.786  29.631  1.00  0.00     0.118 C 
ENDROOT
BRANCH   1   2
ATOM      2  N   UNL A   1      41.988  34.946  30.172  1.00  0.00    -0.352 N 
ATOM      3  C   UNL A   1      43.184  35.224  29.531  1.00  0.00     0.252 C 
ATOM      4  O   UNL A   1      44.144  35.676  30.151  1.00  0.00    -0.269 OA
ATOM      5  H   UNL A   1      42.058  34.837  31.148  1.00  0.00     0.163 HD
BRANCH   3   6
ATOM      6  C   UNL A   1      43.401  34.943  28.094  1.00  0.00     0.052 A 
ATOM      7  C   UNL A   1      43.018  35.816  27.077  1.00  0.00     0.054 A 
ATOM      8  C   UNL A   1      43.003  35.375  25.749  1.00  0.00     0.015 A 
ATOM      9  C   UNL A   1      43.561  34.133  25.431  1.00  0.00     0.001 A 
ATOM     10  C   UNL A   1      44.078  33.762  27.759  1.00  0.00     0.014 A 
ATOM     11  C   UNL A   1      44.168  33.364  26.424  1.00  0.00     0.001 A 
BRANCH   7  12
ATOM     12  C   UNL A   1      42.725  37.236  27.401  1.00  0.00     0.270 C 
ATOM     13  N   UNL A   1      43.713  38.099  26.946  1.00  0.00    -0.263 N 
ATOM     14  H   UNL A   1      44.289  37.822  26.197  1.00  0.00     0.191 HD
ATOM     15  O   UNL A   1      41.723  37.533  28.011  1.00  0.00    -0.267 OA
BRANCH  13  16
ATOM     16  N   UNL A   1      43.906  39.365  27.539  1.00  0.00    -0.263 N 
ATOM     17  C   UNL A   1      43.214  40.399  26.916  1.00  0.00     0.269 C 
ATOM     18  O   UNL A   1      42.064  40.679  27.237  1.00  0.00    -0.267 OA
ATOM     19  H   UNL A   1      44.480  39.504  28.326  1.00  0.00     0.191 HD
BRANCH  17  20
ATOM     20  C   UNL A   1      43.904  41.139  25.812  1.00  0.00     0.041 A 
ATOM     21  C   UNL A   1      45.289  42.750  23.935  1.00  0.00     0.041 A 
ATOM     22  C   UNL A   1      45.901  41.636  24.502  1.00  0.00     0.027 A 
ATOM     23  C   UNL A   1      43.977  43.049  24.300  1.00  0.00     0.027 A 
ATOM     24  C   UNL A   1      45.218  40.850  25.445  1.00  0.00     0.016 A 
ATOM     25  C   UNL A   1      43.283  42.243  25.220  1.00  0.00     0.016 A 
BRANCH  21  26
ATOM     26  N   UNL A   1      45.977  43.632  23.082  1.00  0.00    -0.322 N 
ATOM     27  C   UNL A   1      45.927  43.755  21.706  1.00  0.00     0.255 C 
ATOM     28  O   UNL A   1      46.913  44.111  21.064  1.00  0.00    -0.269 OA
ATOM     29  H   UNL A   1      46.586  44.259  23.534  1.00  0.00     0.170 HD
BRANCH  27  30
ATOM     30  C   UNL A   1      44.628  43.622  20.985  1.00  0.00     0.040 A 
ATOM     31  C   UNL A   1      42.655  45.399  18.278  1.00  0.00     0.044 C 
ATOM     32  C   UNL A   1      43.050  44.367  19.288  1.00  0.00    -0.050 A 
ATOM     33  C   UNL A   1      42.243  43.261  19.557  1.00  0.00     0.003 A 
ATOM     34  C   UNL A   1      44.262  44.504  19.965  1.00  0.00     0.017 A 
ATOM     35  C   UNL A   1      42.633  42.326  20.517  1.00  0.00     0.001 A 
ATOM     36  C   UNL A   1      43.812  42.514  21.242  1.00  0.00     0.014 A 
ENDBRANCH  27  30
ENDBRANCH  21  26
ENDBRANCH  17  20
ENDBRANCH  13  16
ENDBRANCH   7  12
ENDBRANCH   3   6
ENDBRANCH   1   2
BRANCH   1  37
ATOM     37  C   UNL A   1      39.926  33.443  29.872  1.00  0.00     0.042 C 
BRANCH  37  38
ATOM     38  C   UNL A   1      38.557  33.381  30.569  1.00  0.00     0.118 C 
BRANCH  38  39
ATOM     39  N   UNL A   1      37.917  32.083  30.686  1.00  0.00    -0.352 N 
ATOM     40  C   UNL A   1      37.154  31.584  29.613  1.00  0.00     0.251 C 
ATOM     41  H   UNL A   1      38.014  31.554  31.511  1.00  0.00     0.163 HD
ATOM     42  O   UNL A   1      36.441  32.305  28.920  1.00  0.00    -0.269 OA
BRANCH  40  43
ATOM     43  C   UNL A   1      37.474  30.186  29.161  1.00  0.00     0.039 A 
ATOM     44  C   UNL A   1      38.071  29.936  27.917  1.00  0.00     0.014 A 
ATOM     45  C   UNL A   1      37.555  29.199  30.110  1.00  0.00     0.014 A 
ATOM     46  C   UNL A   1      38.977  28.858  27.759  1.00  0.00     0.010 A 
ATOM     47  C   UNL A   1      38.504  28.202  29.967  1.00  0.00     0.010 A 
ATOM     48  C   UNL A   1      39.359  28.093  28.863  1.00  0.00    -0.014 A 
BRANCH  48  49
ATOM     49  C   UNL A   1      40.680  27.375  29.018  1.00  0.00     0.031 A 
ATOM     50  C   UNL A   1      40.892  25.910  28.683  1.00  0.00     0.074 A 
ATOM     51  C   UNL A   1      41.813  28.083  29.311  1.00  0.00     0.049 A 
ATOM     52  N   UNL A   1      41.973  25.254  28.975  1.00  0.00    -0.248 NA
ATOM     53  C   UNL A   1      39.963  25.051  27.950  1.00  0.00     0.031 C 
ATOM     54  C   UNL A   1      43.226  27.681  29.294  1.00  0.00     0.029 A 
ATOM     55  N   UNL A   1      41.910  29.385  29.831  1.00  0.00    -0.354 N 
ATOM     56  C   UNL A   1      42.010  24.051  28.291  1.00  0.00     0.074 A 
ATOM     57  C   UNL A   1      40.690  23.942  27.735  1.00  0.00     0.031 C 
ATOM     58  C   UNL A   1      43.936  28.511  30.081  1.00  0.00     0.029 A 
ATOM     59  C   UNL A   1      42.972  29.372  30.736  1.00  0.00     0.049 A 
ATOM     60  H   UNL A   1      41.342  30.155  29.602  1.00  0.00     0.167 HD
ATOM     61  C   UNL A   1      43.200  23.371  28.205  1.00  0.00     0.037 A 
ATOM     62  C   UNL A   1      42.702  29.449  32.071  1.00  0.00     0.037 A 
ATOM     63  C   UNL A   1      44.168  23.955  29.140  1.00  0.00     0.049 A 
ATOM     64  C   UNL A   1      43.245  28.240  32.774  1.00  0.00     0.074 A 
ATOM     65  C   UNL A   1      45.308  24.726  28.994  1.00  0.00     0.029 A 
ATOM     66  N   UNL A   1      43.863  23.956  30.500  1.00  0.00    -0.354 N 
ATOM     67  N   UNL A   1      43.381  27.075  32.200  1.00  0.00    -0.248 NA
ATOM     68  C   UNL A   1      43.809  28.277  34.117  1.00  0.00     0.031 C 
ATOM     69  C   UNL A   1      45.618  25.282  30.266  1.00  0.00     0.029 A 
ATOM     70  C   UNL A   1      44.685  24.824  31.185  1.00  0.00     0.049 A 
ATOM     71  H   UNL A   1      43.156  23.411  30.914  1.00  0.00     0.167 HD
ATOM     72  C   UNL A   1      44.110  26.256  33.011  1.00  0.00     0.074 A 
ATOM     73  C   UNL A   1      44.322  27.038  34.217  1.00  0.00     0.031 C 
ATOM     74  C   UNL A   1      44.536  25.020  32.621  1.00  0.00     0.037 A 
BRANCH  61  75
ATOM     75  C   UNL A   1      43.610  22.269  27.211  1.00  0.00     0.058 A 
ATOM     76  C   UNL A   1      44.733  22.448  26.355  1.00  0.00     0.135 A 
ATOM     77  C   UNL A   1      42.924  21.059  26.979  1.00  0.00     0.135 A 
ATOM     78  F   UNL A   1      45.521  23.528  26.446  1.00  0.00    -0.206 F 
ATOM     79  C   UNL A   1      45.102  21.544  25.345  1.00  0.00     0.059 A 
ATOM     80  C   UNL A   1      43.280  20.133  25.982  1.00  0.00     0.059 A 
ATOM     81  F   UNL A   1      41.861  20.700  27.699  1.00  0.00    -0.206 F 
ATOM     82  C   UNL A   1      44.361  20.389  25.155  1.00  0.00     0.060 A 
BRANCH  82  83
ATOM     83  S   UNL A   1      44.821  19.250  23.832  1.00  0.00     0.124 S 
ATOM     84  O   UNL A   1      43.927  18.122  24.077  1.00  0.00    -0.237 OA
ATOM     85  O   UNL A   1      44.540  20.032  22.633  1.00  0.00    -0.237 OA
ATOM     86  O   UNL A   1      46.235  18.986  24.084  1.00  0.00    -0.744 OA
ENDBRANCH  82  83
ENDBRANCH  61  75
BRANCH  62  87
ATOM     87  C   UNL A   1      41.442  30.223  32.341  1.00  0.00     0.058 A 
ATOM     88  C   UNL A   1      40.328  29.473  32.785  1.00  0.00     0.135 A 
ATOM     89  C   UNL A   1      41.457  31.588  32.681  1.00  0.00     0.135 A 
ATOM     90  F   UNL A   1      40.257  28.159  32.513  1.00  0.00    -0.206 F 
ATOM     91  C   UNL A   1      39.365  30.004  33.643  1.00  0.00     0.059 A 
ATOM     92  C   UNL A   1      40.490  32.145  33.538  1.00  0.00     0.059 A 
ATOM     93  F   UNL A   1      42.484  32.364  32.300  1.00  0.00    -0.206 F 
ATOM     94  C   UNL A   1      39.479  31.330  34.053  1.00  0.00     0.060 A 
BRANCH  94  95
ATOM     95  S   UNL A   1      38.390  31.886  35.395  1.00  0.00     0.124 S 
ATOM     96  O   UNL A   1      38.987  33.165  35.761  1.00  0.00    -0.237 OA
ATOM     97  O   UNL A   1      37.091  31.973  34.724  1.00  0.00    -0.237 OA
ATOM     98  O   UNL A   1      38.498  30.831  36.397  1.00  0.00    -0.744 OA
ENDBRANCH  94  95
ENDBRANCH  62  87
BRANCH  74  99
ATOM     99  C   UNL A   1      44.951  23.926  33.571  1.00  0.00     0.058 A 
ATOM    100  C   UNL A   1      44.062  22.945  34.043  1.00  0.00     0.135 A 
ATOM    101  C   UNL A   1      46.312  23.727  33.902  1.00  0.00     0.135 A 
ATOM    102  F   UNL A   1      42.769  22.935  33.685  1.00  0.00    -0.206 F 
ATOM    103  C   UNL A   1      44.470  21.896  34.861  1.00  0.00     0.059 A 
ATOM    104  C   UNL A   1      46.751  22.650  34.669  1.00  0.00     0.059 A 
ATOM    105  F   UNL A   1      47.272  24.557  33.468  1.00  0.00    -0.206 F 
ATOM    106  C   UNL A   1      45.816  21.757  35.171  1.00  0.00     0.060 A 
BRANCH 106 107
ATOM    107  S   UNL A   1      46.344  20.366  36.184  1.00  0.00     0.124 S 
ATOM    108  O   UNL A   1      47.796  20.504  36.127  1.00  0.00    -0.237 OA
ATOM    109  O   UNL A   1      45.734  20.661  37.477  1.00  0.00    -0.237 OA
ATOM    110  O   UNL A   1      45.787  19.212  35.486  1.00  0.00    -0.744 OA
ENDBRANCH 106 107
ENDBRANCH  74  99
ENDBRANCH  48  49
ENDBRANCH  40  43
ENDBRANCH  38  39
ENDBRANCH  37  38
ENDBRANCH   1  37
TORSDOF 18
ENDMDL
