MODEL 1
REMARK VINA RESULT:     -13.2      0.000      0.000
REMARK SMILES Cc1ccc(-c2cc(OCC(=O)NCCCNC(=O)c3ccc(-c4c5nc(c(-c6c(F)cc(S(=O)(=O)[O-])cc6F)c6ccc([nH]6)c(-c6c(F)cc(S(=O)(=O)[O-])cc6F)c6nc(c(-c7c(F)cc(S(=O)(=O)[O-])cc7F)c7ccc4[nH]7)C=C6)C=C5)cc3)nc(NCc3ccc4c(c3)OCO4)n2)cc1
REMARK SMILES IDX 14 1 13 2 11 3 12 4 10 6 9 7 8 8 6 9 7 10 99 11 87 12 86 13
REMARK SMILES IDX 5 14 1 15 2 16 3 17 101 18 4 19 100 20 88 21 89 23 90 24
REMARK SMILES IDX 91 25 95 26 92 27 94 28 93 29 96 30 98 31 97 32 15 33 16 34
REMARK SMILES IDX 17 35 18 36 19 38 20 39 21 40 85 41 22 42 84 43 23 44 24 45
REMARK SMILES IDX 25 46 78 47 26 48 83 49 77 50 79 51 27 52 82 53 76 54 75 55
REMARK SMILES IDX 28 57 62 58 41 59 61 60 42 61 45 62 60 63 80 64 43 65 44 66
REMARK SMILES IDX 59 68 81 69 46 70 29 71 30 72 39 73 31 74 32 75 38 76 40 77
REMARK SMILES IDX 33 78 34 79 35 80 36 81 37 82 63 83 64 84 73 85 65 86 66 87
REMARK SMILES IDX 72 88 74 89 67 90 68 91 69 92 70 93 71 94 47 95 48 96 57 97
REMARK SMILES IDX 49 98 50 99 56 100 58 101 51 102 52 103 53 104 54 105 55 106
REMARK H PARENT 13 5 88 22 17 37 79 56 45 67
REMARK Flexibility Score: inf
ROOT
ATOM      1  C   UNL A   1      38.775  21.427  25.730  1.00  0.00     0.117 C 
ENDROOT
BRANCH   1   2
ATOM      2  N   UNL A   1      38.718  22.847  26.044  1.00  0.00    -0.353 N 
ATOM      3  C   UNL A   1      37.630  23.658  26.183  1.00  0.00     0.258 C 
ATOM      4  O   UNL A   1      37.792  24.838  26.502  1.00  0.00    -0.271 OA
ATOM      5  H   UNL A   1      39.589  23.285  26.176  1.00  0.00     0.163 HD
BRANCH   3   6
ATOM      6  C   UNL A   1      36.222  23.101  25.948  1.00  0.00     0.331 C 
BRANCH   6   7
ATOM      7  O   UNL A   1      35.781  23.076  24.603  1.00  0.00    -0.467 OA
BRANCH   7   8
ATOM      8  C   UNL A   1      34.737  22.254  24.281  1.00  0.00     0.219 A 
ATOM      9  C   UNL A   1      33.540  20.258  24.091  1.00  0.00     0.080 A 
ATOM     10  C   UNL A   1      34.692  20.901  24.497  1.00  0.00     0.097 A 
ATOM     11  N   UNL A   1      32.534  20.897  23.464  1.00  0.00    -0.213 NA
ATOM     12  C   UNL A   1      32.655  22.219  23.316  1.00  0.00     0.226 A 
ATOM     13  N   UNL A   1      33.726  22.921  23.704  1.00  0.00    -0.177 NA
BRANCH   9  14
ATOM     14  C   UNL A   1      33.338  18.834  24.382  1.00  0.00     0.000 A 
ATOM     15  C   UNL A   1      32.868  14.648  25.387  1.00  0.00     0.044 C 
ATOM     16  C   UNL A   1      33.015  16.098  25.034  1.00  0.00    -0.051 A 
ATOM     17  C   UNL A   1      33.653  16.478  23.847  1.00  0.00     0.004 A 
ATOM     18  C   UNL A   1      32.528  17.091  25.888  1.00  0.00     0.004 A 
ATOM     19  C   UNL A   1      33.804  17.831  23.520  1.00  0.00     0.010 A 
ATOM     20  C   UNL A   1      32.690  18.441  25.566  1.00  0.00     0.010 A 
ENDBRANCH   9  14
BRANCH  12  21
ATOM     21  N   UNL A   1      31.651  22.959  22.756  1.00  0.00    -0.350 N 
ATOM     22  H   UNL A   1      31.568  22.982  21.775  1.00  0.00     0.164 HD
BRANCH  21  23
ATOM     23  C   UNL A   1      30.713  23.704  23.551  1.00  0.00     0.152 C 
BRANCH  23  24
ATOM     24  C   UNL A   1      31.025  25.191  23.600  1.00  0.00    -0.025 A 
ATOM     25  C   UNL A   1      31.404  25.841  22.399  1.00  0.00     0.009 A 
ATOM     26  C   UNL A   1      30.925  25.950  24.781  1.00  0.00     0.056 A 
ATOM     27  C   UNL A   1      31.712  27.208  22.376  1.00  0.00     0.051 A 
ATOM     28  C   UNL A   1      31.251  27.288  24.732  1.00  0.00     0.166 A 
ATOM     29  C   UNL A   1      31.639  27.900  23.565  1.00  0.00     0.165 A 
ATOM     30  O   UNL A   1      31.246  28.144  25.790  1.00  0.00    -0.454 OA
ATOM     31  O   UNL A   1      31.931  29.216  23.742  1.00  0.00    -0.454 OA
ATOM     32  C   UNL A   1      31.781  29.330  25.173  1.00  0.00     0.468 C 
ENDBRANCH  23  24
ENDBRANCH  21  23
ENDBRANCH  12  21
ENDBRANCH   7   8
ENDBRANCH   6   7
ENDBRANCH   3   6
ENDBRANCH   1   2
BRANCH   1  33
ATOM     33  C   UNL A   1      39.988  20.729  26.330  1.00  0.00     0.042 C 
BRANCH  33  34
ATOM     34  C   UNL A   1      40.894  21.672  27.113  1.00  0.00     0.118 C 
BRANCH  34  35
ATOM     35  N   UNL A   1      42.060  22.111  26.372  1.00  0.00    -0.352 N 
ATOM     36  C   UNL A   1      42.337  23.381  25.879  1.00  0.00     0.251 C 
ATOM     37  H   UNL A   1      42.741  21.422  26.194  1.00  0.00     0.163 HD
ATOM     38  O   UNL A   1      43.099  23.552  24.966  1.00  0.00    -0.269 OA
BRANCH  36  39
ATOM     39  C   UNL A   1      41.770  24.532  26.633  1.00  0.00     0.039 A 
ATOM     40  C   UNL A   1      41.405  25.658  25.884  1.00  0.00     0.014 A 
ATOM     41  C   UNL A   1      41.799  24.584  28.021  1.00  0.00     0.014 A 
ATOM     42  C   UNL A   1      41.218  26.885  26.523  1.00  0.00     0.010 A 
ATOM     43  C   UNL A   1      41.692  25.816  28.643  1.00  0.00     0.010 A 
ATOM     44  C   UNL A   1      41.435  26.978  27.899  1.00  0.00    -0.014 A 
BRANCH  44  45
ATOM     45  C   UNL A   1      41.539  28.239  28.636  1.00  0.00     0.031 A 
ATOM     46  C   UNL A   1      40.370  29.146  28.801  1.00  0.00     0.074 A 
ATOM     47  C   UNL A   1      42.675  28.541  29.304  1.00  0.00     0.049 A 
ATOM     48  N   UNL A   1      40.449  30.375  29.199  1.00  0.00    -0.248 NA
ATOM     49  C   UNL A   1      39.003  28.736  28.502  1.00  0.00     0.031 C 
ATOM     50  C   UNL A   1      42.805  29.483  30.414  1.00  0.00     0.029 A 
ATOM     51  N   UNL A   1      43.983  28.179  29.028  1.00  0.00    -0.354 N 
ATOM     52  C   UNL A   1      39.175  30.821  29.472  1.00  0.00     0.074 A 
ATOM     53  C   UNL A   1      38.308  29.775  28.978  1.00  0.00     0.031 C 
ATOM     54  C   UNL A   1      44.098  29.794  30.577  1.00  0.00     0.029 A 
ATOM     55  C   UNL A   1      44.838  29.192  29.484  1.00  0.00     0.049 A 
ATOM     56  H   UNL A   1      44.265  27.346  28.585  1.00  0.00     0.167 HD
ATOM     57  C   UNL A   1      38.989  31.970  30.188  1.00  0.00     0.037 A 
ATOM     58  C   UNL A   1      45.650  29.882  28.626  1.00  0.00     0.037 A 
ATOM     59  C   UNL A   1      40.256  32.618  30.526  1.00  0.00     0.049 A 
ATOM     60  C   UNL A   1      45.329  31.357  28.488  1.00  0.00     0.074 A 
ATOM     61  C   UNL A   1      41.048  32.650  31.662  1.00  0.00     0.029 A 
ATOM     62  N   UNL A   1      41.010  33.190  29.519  1.00  0.00    -0.354 N 
ATOM     63  N   UNL A   1      44.393  31.973  29.154  1.00  0.00    -0.248 NA
ATOM     64  C   UNL A   1      45.989  32.240  27.521  1.00  0.00     0.031 C 
ATOM     65  C   UNL A   1      42.296  33.238  31.320  1.00  0.00     0.029 A 
ATOM     66  C   UNL A   1      42.265  33.547  29.974  1.00  0.00     0.049 A 
ATOM     67  H   UNL A   1      40.694  33.326  28.597  1.00  0.00     0.167 HD
ATOM     68  C   UNL A   1      44.245  33.239  28.656  1.00  0.00     0.074 A 
ATOM     69  C   UNL A   1      45.294  33.382  27.668  1.00  0.00     0.031 C 
ATOM     70  C   UNL A   1      43.233  34.068  29.029  1.00  0.00     0.037 A 
BRANCH  57  71
ATOM     71  C   UNL A   1      37.663  32.394  30.788  1.00  0.00     0.058 A 
ATOM     72  C   UNL A   1      36.741  33.159  30.040  1.00  0.00     0.135 A 
ATOM     73  C   UNL A   1      37.255  32.111  32.106  1.00  0.00     0.135 A 
ATOM     74  F   UNL A   1      36.927  33.413  28.738  1.00  0.00    -0.206 F 
ATOM     75  C   UNL A   1      35.584  33.711  30.591  1.00  0.00     0.059 A 
ATOM     76  C   UNL A   1      36.133  32.700  32.700  1.00  0.00     0.059 A 
ATOM     77  F   UNL A   1      37.904  31.209  32.855  1.00  0.00    -0.206 F 
ATOM     78  C   UNL A   1      35.309  33.515  31.936  1.00  0.00     0.060 A 
BRANCH  78  79
ATOM     79  S   UNL A   1      33.881  34.342  32.659  1.00  0.00     0.124 S 
ATOM     80  O   UNL A   1      33.258  34.959  31.491  1.00  0.00    -0.237 OA
ATOM     81  O   UNL A   1      33.153  33.228  33.254  1.00  0.00    -0.237 OA
ATOM     82  O   UNL A   1      34.477  35.281  33.606  1.00  0.00    -0.744 OA
ENDBRANCH  78  79
ENDBRANCH  57  71
BRANCH  58  83
ATOM     83  C   UNL A   1      46.205  29.023  27.548  1.00  0.00     0.058 A 
ATOM     84  C   UNL A   1      47.377  28.304  27.846  1.00  0.00     0.135 A 
ATOM     85  C   UNL A   1      45.391  28.557  26.508  1.00  0.00     0.135 A 
ATOM     86  F   UNL A   1      48.200  28.730  28.818  1.00  0.00    -0.206 F 
ATOM     87  C   UNL A   1      47.626  27.063  27.276  1.00  0.00     0.059 A 
ATOM     88  C   UNL A   1      45.628  27.319  25.915  1.00  0.00     0.059 A 
ATOM     89  F   UNL A   1      44.271  29.217  26.176  1.00  0.00    -0.206 F 
ATOM     90  C   UNL A   1      46.698  26.548  26.372  1.00  0.00     0.060 A 
BRANCH  90  91
ATOM     91  S   UNL A   1      46.800  24.787  25.980  1.00  0.00     0.124 S 
ATOM     92  O   UNL A   1      46.679  24.788  24.526  1.00  0.00    -0.237 OA
ATOM     93  O   UNL A   1      48.123  24.453  26.503  1.00  0.00    -0.237 OA
ATOM     94  O   UNL A   1      45.671  24.218  26.707  1.00  0.00    -0.744 OA
ENDBRANCH  90  91
ENDBRANCH  58  83
BRANCH  70  95
ATOM     95  C   UNL A   1      43.095  35.459  28.507  1.00  0.00     0.058 A 
ATOM     96  C   UNL A   1      43.264  36.571  29.345  1.00  0.00     0.135 A 
ATOM     97  C   UNL A   1      42.653  35.706  27.194  1.00  0.00     0.135 A 
ATOM     98  F   UNL A   1      43.667  36.410  30.616  1.00  0.00    -0.206 F 
ATOM     99  C   UNL A   1      43.008  37.867  28.904  1.00  0.00     0.059 A 
ATOM    100  C   UNL A   1      42.361  36.990  26.742  1.00  0.00     0.059 A 
ATOM    101  F   UNL A   1      42.506  34.701  26.318  1.00  0.00    -0.206 F 
ATOM    102  C   UNL A   1      42.551  38.067  27.603  1.00  0.00     0.060 A 
BRANCH 102 103
ATOM    103  S   UNL A   1      42.156  39.736  27.042  1.00  0.00     0.124 S 
ATOM    104  O   UNL A   1      43.403  40.174  26.419  1.00  0.00    -0.237 OA
ATOM    105  O   UNL A   1      41.051  39.480  26.124  1.00  0.00    -0.237 OA
ATOM    106  O   UNL A   1      41.805  40.429  28.277  1.00  0.00    -0.744 OA
ENDBRANCH 102 103
ENDBRANCH  70  95
ENDBRANCH  44  45
ENDBRANCH  36  39
ENDBRANCH  34  35
ENDBRANCH  33  34
ENDBRANCH   1  33
TORSDOF 19
ENDMDL
MODEL 2
REMARK VINA RESULT:     -13.1      1.441      4.353
REMARK SMILES Cc1ccc(-c2cc(OCC(=O)NCCCNC(=O)c3ccc(-c4c5nc(c(-c6c(F)cc(S(=O)(=O)[O-])cc6F)c6ccc([nH]6)c(-c6c(F)cc(S(=O)(=O)[O-])cc6F)c6nc(c(-c7c(F)cc(S(=O)(=O)[O-])cc7F)c7ccc4[nH]7)C=C6)C=C5)cc3)nc(NCc3ccc4c(c3)OCO4)n2)cc1
REMARK SMILES IDX 14 1 13 2 11 3 12 4 10 6 9 7 8 8 6 9 7 10 99 11 87 12 86 13
REMARK SMILES IDX 5 14 1 15 2 16 3 17 101 18 4 19 100 20 88 21 89 23 90 24
REMARK SMILES IDX 91 25 95 26 92 27 94 28 93 29 96 30 98 31 97 32 15 33 16 34
REMARK SMILES IDX 17 35 18 36 19 38 20 39 21 40 85 41 22 42 84 43 23 44 24 45
REMARK SMILES IDX 25 46 78 47 26 48 83 49 77 50 79 51 27 52 82 53 76 54 75 55
REMARK SMILES IDX 28 57 62 58 41 59 61 60 42 61 45 62 60 63 80 64 43 65 44 66
REMARK SMILES IDX 59 68 81 69 46 70 29 71 30 72 39 73 31 74 32 75 38 76 40 77
REMARK SMILES IDX 33 78 34 79 35 80 36 81 37 82 63 83 64 84 73 85 65 86 66 87
REMARK SMILES IDX 72 88 74 89 67 90 68 91 69 92 70 93 71 94 47 95 48 96 57 97
REMARK SMILES IDX 49 98 50 99 56 100 58 101 51 102 52 103 53 104 54 105 55 106
REMARK H PARENT 13 5 88 22 17 37 79 56 45 67
REMARK Flexibility Score: inf
ROOT
ATOM      1  C   UNL A   1      39.457  21.501  26.424  1.00  0.00     0.117 C 
ENDROOT
BRANCH   1   2
ATOM      2  N   UNL A   1      39.300  22.844  26.962  1.00  0.00    -0.353 N 
ATOM      3  C   UNL A   1      38.532  23.874  26.505  1.00  0.00     0.258 C 
ATOM      4  O   UNL A   1      38.499  24.931  27.137  1.00  0.00    -0.271 OA
ATOM      5  H   UNL A   1      39.822  23.037  27.774  1.00  0.00     0.163 HD
BRANCH   3   6
ATOM      6  C   UNL A   1      37.715  23.710  25.219  1.00  0.00     0.331 C 
BRANCH   6   7
ATOM      7  O   UNL A   1      36.494  23.006  25.344  1.00  0.00    -0.467 OA
BRANCH   7   8
ATOM      8  C   UNL A   1      35.347  23.623  24.929  1.00  0.00     0.219 A 
ATOM      9  C   UNL A   1      33.696  25.272  24.833  1.00  0.00     0.080 A 
ATOM     10  C   UNL A   1      34.881  24.829  25.384  1.00  0.00     0.097 A 
ATOM     11  N   UNL A   1      32.993  24.545  23.942  1.00  0.00    -0.213 NA
ATOM     12  C   UNL A   1      33.535  23.393  23.540  1.00  0.00     0.226 A 
ATOM     13  N   UNL A   1      34.691  22.905  24.004  1.00  0.00    -0.177 NA
BRANCH   9  14
ATOM     14  C   UNL A   1      33.170  26.602  25.160  1.00  0.00     0.000 A 
ATOM     15  C   UNL A   1      31.795  30.575  26.199  1.00  0.00     0.044 C 
ATOM     16  C   UNL A   1      32.261  29.198  25.827  1.00  0.00    -0.051 A 
ATOM     17  C   UNL A   1      31.780  28.076  26.513  1.00  0.00     0.004 A 
ATOM     18  C   UNL A   1      33.188  29.017  24.798  1.00  0.00     0.004 A 
ATOM     19  C   UNL A   1      32.223  26.791  26.177  1.00  0.00     0.010 A 
ATOM     20  C   UNL A   1      33.637  27.734  24.472  1.00  0.00     0.010 A 
ENDBRANCH   9  14
BRANCH  12  21
ATOM     21  N   UNL A   1      32.927  22.626  22.584  1.00  0.00    -0.350 N 
ATOM     22  H   UNL A   1      33.248  22.684  21.654  1.00  0.00     0.164 HD
BRANCH  21  23
ATOM     23  C   UNL A   1      31.839  21.739  22.890  1.00  0.00     0.152 C 
BRANCH  23  24
ATOM     24  C   UNL A   1      32.298  20.423  23.495  1.00  0.00    -0.025 A 
ATOM     25  C   UNL A   1      32.471  20.349  24.900  1.00  0.00     0.009 A 
ATOM     26  C   UNL A   1      32.531  19.269  22.722  1.00  0.00     0.056 A 
ATOM     27  C   UNL A   1      32.898  19.169  25.522  1.00  0.00     0.051 A 
ATOM     28  C   UNL A   1      32.967  18.128  23.359  1.00  0.00     0.166 A 
ATOM     29  C   UNL A   1      33.152  18.079  24.719  1.00  0.00     0.165 A 
ATOM     30  O   UNL A   1      33.274  16.950  22.750  1.00  0.00    -0.454 OA
ATOM     31  O   UNL A   1      33.603  16.866  25.137  1.00  0.00    -0.454 OA
ATOM     32  C   UNL A   1      33.777  16.197  23.871  1.00  0.00     0.468 C 
ENDBRANCH  23  24
ENDBRANCH  21  23
ENDBRANCH  12  21
ENDBRANCH   7   8
ENDBRANCH   6   7
ENDBRANCH   3   6
ENDBRANCH   1   2
BRANCH   1  33
ATOM     33  C   UNL A   1      40.783  20.855  26.803  1.00  0.00     0.042 C 
BRANCH  33  34
ATOM     34  C   UNL A   1      41.772  21.836  27.420  1.00  0.00     0.118 C 
BRANCH  34  35
ATOM     35  N   UNL A   1      42.746  22.352  26.478  1.00  0.00    -0.352 N 
ATOM     36  C   UNL A   1      42.769  23.597  25.860  1.00  0.00     0.251 C 
ATOM     37  H   UNL A   1      43.485  21.743  26.246  1.00  0.00     0.163 HD
ATOM     38  O   UNL A   1      43.360  23.781  24.831  1.00  0.00    -0.269 OA
BRANCH  36  39
ATOM     39  C   UNL A   1      42.160  24.729  26.609  1.00  0.00     0.039 A 
ATOM     40  C   UNL A   1      41.788  25.854  25.860  1.00  0.00     0.014 A 
ATOM     41  C   UNL A   1      42.156  24.771  27.998  1.00  0.00     0.014 A 
ATOM     42  C   UNL A   1      41.560  27.071  26.505  1.00  0.00     0.010 A 
ATOM     43  C   UNL A   1      42.007  25.995  28.627  1.00  0.00     0.010 A 
ATOM     44  C   UNL A   1      41.743  27.158  27.886  1.00  0.00    -0.014 A 
BRANCH  44  45
ATOM     45  C   UNL A   1      41.803  28.415  28.635  1.00  0.00     0.031 A 
ATOM     46  C   UNL A   1      40.602  29.278  28.808  1.00  0.00     0.074 A 
ATOM     47  C   UNL A   1      42.927  28.750  29.305  1.00  0.00     0.049 A 
ATOM     48  N   UNL A   1      40.638  30.505  29.218  1.00  0.00    -0.248 NA
ATOM     49  C   UNL A   1      39.250  28.823  28.506  1.00  0.00     0.031 C 
ATOM     50  C   UNL A   1      43.025  29.685  30.424  1.00  0.00     0.029 A 
ATOM     51  N   UNL A   1      44.248  28.437  29.025  1.00  0.00    -0.354 N 
ATOM     52  C   UNL A   1      39.349  30.902  29.496  1.00  0.00     0.074 A 
ATOM     53  C   UNL A   1      38.519  29.832  28.992  1.00  0.00     0.031 C 
ATOM     54  C   UNL A   1      44.306  30.041  30.589  1.00  0.00     0.029 A 
ATOM     55  C   UNL A   1      45.067  29.476  29.490  1.00  0.00     0.049 A 
ATOM     56  H   UNL A   1      44.559  27.619  28.574  1.00  0.00     0.167 HD
ATOM     57  C   UNL A   1      39.123  32.038  30.222  1.00  0.00     0.037 A 
ATOM     58  C   UNL A   1      45.853  30.203  28.639  1.00  0.00     0.037 A 
ATOM     59  C   UNL A   1      40.367  32.727  30.566  1.00  0.00     0.049 A 
ATOM     60  C   UNL A   1      45.480  31.666  28.514  1.00  0.00     0.074 A 
ATOM     61  C   UNL A   1      41.158  32.776  31.702  1.00  0.00     0.029 A 
ATOM     62  N   UNL A   1      41.099  33.335  29.565  1.00  0.00    -0.354 N 
ATOM     63  N   UNL A   1      44.523  32.243  29.186  1.00  0.00    -0.248 NA
ATOM     64  C   UNL A   1      46.107  32.581  27.555  1.00  0.00     0.031 C 
ATOM     65  C   UNL A   1      42.384  33.412  31.365  1.00  0.00     0.029 A 
ATOM     66  C   UNL A   1      42.341  33.732  30.022  1.00  0.00     0.049 A 
ATOM     67  H   UNL A   1      40.778  33.469  28.643  1.00  0.00     0.167 HD
ATOM     68  C   UNL A   1      44.329  33.507  28.700  1.00  0.00     0.074 A 
ATOM     69  C   UNL A   1      45.372  33.696  27.714  1.00  0.00     0.031 C 
ATOM     70  C   UNL A   1      43.289  34.296  29.082  1.00  0.00     0.037 A 
BRANCH  57  71
ATOM     71  C   UNL A   1      37.784  32.409  30.826  1.00  0.00     0.058 A 
ATOM     72  C   UNL A   1      36.785  33.034  30.047  1.00  0.00     0.135 A 
ATOM     73  C   UNL A   1      37.433  32.210  32.176  1.00  0.00     0.135 A 
ATOM     74  F   UNL A   1      36.917  33.187  28.723  1.00  0.00    -0.206 F 
ATOM     75  C   UNL A   1      35.602  33.540  30.587  1.00  0.00     0.059 A 
ATOM     76  C   UNL A   1      36.282  32.760  32.754  1.00  0.00     0.059 A 
ATOM     77  F   UNL A   1      38.170  31.429  32.978  1.00  0.00    -0.206 F 
ATOM     78  C   UNL A   1      35.378  33.441  31.952  1.00  0.00     0.060 A 
BRANCH  78  79
ATOM     79  S   UNL A   1      33.907  34.215  32.647  1.00  0.00     0.124 S 
ATOM     80  O   UNL A   1      33.271  34.788  31.465  1.00  0.00    -0.237 OA
ATOM     81  O   UNL A   1      33.222  33.078  33.250  1.00  0.00    -0.237 OA
ATOM     82  O   UNL A   1      34.452  35.191  33.588  1.00  0.00    -0.744 OA
ENDBRANCH  78  79
ENDBRANCH  57  71
BRANCH  58  83
ATOM     83  C   UNL A   1      46.437  29.373  27.553  1.00  0.00     0.058 A 
ATOM     84  C   UNL A   1      47.601  28.645  27.862  1.00  0.00     0.135 A 
ATOM     85  C   UNL A   1      45.652  28.938  26.478  1.00  0.00     0.135 A 
ATOM     86  F   UNL A   1      48.397  29.043  28.868  1.00  0.00    -0.206 F 
ATOM     87  C   UNL A   1      47.865  27.421  27.264  1.00  0.00     0.059 A 
ATOM     88  C   UNL A   1      45.905  27.717  25.856  1.00  0.00     0.059 A 
ATOM     89  F   UNL A   1      44.542  29.608  26.133  1.00  0.00    -0.206 F 
ATOM     90  C   UNL A   1      46.963  26.932  26.321  1.00  0.00     0.060 A 
BRANCH  90  91
ATOM     91  S   UNL A   1      47.075  25.183  25.882  1.00  0.00     0.124 S 
ATOM     92  O   UNL A   1      45.970  24.604  26.638  1.00  0.00    -0.237 OA
ATOM     93  O   UNL A   1      46.889  25.239  24.433  1.00  0.00    -0.237 OA
ATOM     94  O   UNL A   1      48.411  24.812  26.332  1.00  0.00    -0.744 OA
ENDBRANCH  90  91
ENDBRANCH  58  83
BRANCH  70  95
ATOM     95  C   UNL A   1      43.101  35.686  28.573  1.00  0.00     0.058 A 
ATOM     96  C   UNL A   1      43.335  36.799  29.394  1.00  0.00     0.135 A 
ATOM     97  C   UNL A   1      42.550  35.931  27.301  1.00  0.00     0.135 A 
ATOM     98  F   UNL A   1      43.843  36.641  30.626  1.00  0.00    -0.206 F 
ATOM     99  C   UNL A   1      43.036  38.094  28.976  1.00  0.00     0.059 A 
ATOM    100  C   UNL A   1      42.216  37.212  26.875  1.00  0.00     0.059 A 
ATOM    101  F   UNL A   1      42.336  34.924  26.440  1.00  0.00    -0.206 F 
ATOM    102  C   UNL A   1      42.472  38.291  27.716  1.00  0.00     0.060 A 
BRANCH 102 103
ATOM    103  S   UNL A   1      42.024  39.958  27.190  1.00  0.00     0.124 S 
ATOM    104  O   UNL A   1      43.298  40.512  26.741  1.00  0.00    -0.237 OA
ATOM    105  O   UNL A   1      41.053  39.679  26.137  1.00  0.00    -0.237 OA
ATOM    106  O   UNL A   1      41.483  40.557  28.406  1.00  0.00    -0.744 OA
ENDBRANCH 102 103
ENDBRANCH  70  95
ENDBRANCH  44  45
ENDBRANCH  36  39
ENDBRANCH  34  35
ENDBRANCH  33  34
ENDBRANCH   1  33
TORSDOF 19
ENDMDL
MODEL 3
REMARK VINA RESULT:     -13.1      5.659     14.065
REMARK SMILES Cc1ccc(-c2cc(OCC(=O)NCCCNC(=O)c3ccc(-c4c5nc(c(-c6c(F)cc(S(=O)(=O)[O-])cc6F)c6ccc([nH]6)c(-c6c(F)cc(S(=O)(=O)[O-])cc6F)c6nc(c(-c7c(F)cc(S(=O)(=O)[O-])cc7F)c7ccc4[nH]7)C=C6)C=C5)cc3)nc(NCc3ccc4c(c3)OCO4)n2)cc1
REMARK SMILES IDX 14 1 13 2 11 3 12 4 10 6 9 7 8 8 6 9 7 10 99 11 87 12 86 13
REMARK SMILES IDX 5 14 1 15 2 16 3 17 101 18 4 19 100 20 88 21 89 23 90 24
REMARK SMILES IDX 91 25 95 26 92 27 94 28 93 29 96 30 98 31 97 32 15 33 16 34
REMARK SMILES IDX 17 35 18 36 19 38 20 39 21 40 85 41 22 42 84 43 23 44 24 45
REMARK SMILES IDX 25 46 78 47 26 48 83 49 77 50 79 51 27 52 82 53 76 54 75 55
REMARK SMILES IDX 28 57 62 58 41 59 61 60 42 61 45 62 60 63 80 64 43 65 44 66
REMARK SMILES IDX 59 68 81 69 46 70 29 71 30 72 39 73 31 74 32 75 38 76 40 77
REMARK SMILES IDX 33 78 34 79 35 80 36 81 37 82 63 83 64 84 73 85 65 86 66 87
REMARK SMILES IDX 72 88 74 89 67 90 68 91 69 92 70 93 71 94 47 95 48 96 57 97
REMARK SMILES IDX 49 98 50 99 56 100 58 101 51 102 52 103 53 104 54 105 55 106
REMARK H PARENT 13 5 88 22 17 37 79 56 45 67
REMARK Flexibility Score: inf
ROOT
ATOM      1  C   UNL A   1      39.259  34.615  29.328  1.00  0.00     0.117 C 
ENDROOT
BRANCH   1   2
ATOM      2  N   UNL A   1      40.028  34.260  30.512  1.00  0.00    -0.353 N 
ATOM      3  C   UNL A   1      41.381  34.204  30.678  1.00  0.00     0.258 C 
ATOM      4  O   UNL A   1      41.842  33.923  31.787  1.00  0.00    -0.271 OA
ATOM      5  H   UNL A   1      39.496  34.027  31.306  1.00  0.00     0.163 HD
BRANCH   3   6
ATOM      6  C   UNL A   1      42.313  34.493  29.497  1.00  0.00     0.331 C 
BRANCH   6   7
ATOM      7  O   UNL A   1      43.681  34.191  29.699  1.00  0.00    -0.467 OA
BRANCH   7   8
ATOM      8  C   UNL A   1      44.297  33.360  28.805  1.00  0.00     0.219 A 
ATOM      9  C   UNL A   1      44.617  31.449  27.501  1.00  0.00     0.080 A 
ATOM     10  C   UNL A   1      43.837  32.129  28.413  1.00  0.00     0.097 A 
ATOM     11  N   UNL A   1      45.796  31.926  27.055  1.00  0.00    -0.213 NA
ATOM     12  C   UNL A   1      46.154  33.142  27.474  1.00  0.00     0.226 A 
ATOM     13  N   UNL A   1      45.443  33.877  28.337  1.00  0.00    -0.177 NA
BRANCH   9  14
ATOM     14  C   UNL A   1      44.159  30.179  26.925  1.00  0.00     0.000 A 
ATOM     15  C   UNL A   1      42.713  26.396  25.393  1.00  0.00     0.044 C 
ATOM     16  C   UNL A   1      43.213  27.713  25.909  1.00  0.00    -0.051 A 
ATOM     17  C   UNL A   1      44.572  27.892  26.196  1.00  0.00     0.004 A 
ATOM     18  C   UNL A   1      42.331  28.775  26.120  1.00  0.00     0.004 A 
ATOM     19  C   UNL A   1      45.041  29.115  26.690  1.00  0.00     0.010 A 
ATOM     20  C   UNL A   1      42.799  29.991  26.623  1.00  0.00     0.010 A 
ENDBRANCH   9  14
BRANCH  12  21
ATOM     21  N   UNL A   1      47.298  33.735  27.017  1.00  0.00    -0.350 N 
ATOM     22  H   UNL A   1      48.132  33.614  27.527  1.00  0.00     0.164 HD
BRANCH  21  23
ATOM     23  C   UNL A   1      47.325  34.527  25.818  1.00  0.00     0.152 C 
BRANCH  23  24
ATOM     24  C   UNL A   1      48.729  34.955  25.421  1.00  0.00    -0.025 A 
ATOM     25  C   UNL A   1      48.936  36.296  25.012  1.00  0.00     0.009 A 
ATOM     26  C   UNL A   1      49.834  34.083  25.472  1.00  0.00     0.056 A 
ATOM     27  C   UNL A   1      50.203  36.754  24.627  1.00  0.00     0.051 A 
ATOM     28  C   UNL A   1      51.064  34.557  25.071  1.00  0.00     0.166 A 
ATOM     29  C   UNL A   1      51.244  35.853  24.655  1.00  0.00     0.165 A 
ATOM     30  O   UNL A   1      52.214  33.830  25.023  1.00  0.00    -0.454 OA
ATOM     31  O   UNL A   1      52.529  36.105  24.287  1.00  0.00    -0.454 OA
ATOM     32  C   UNL A   1      53.106  34.790  24.424  1.00  0.00     0.468 C 
ENDBRANCH  23  24
ENDBRANCH  21  23
ENDBRANCH  12  21
ENDBRANCH   7   8
ENDBRANCH   6   7
ENDBRANCH   3   6
ENDBRANCH   1   2
BRANCH   1  33
ATOM     33  C   UNL A   1      37.831  34.089  29.361  1.00  0.00     0.042 C 
BRANCH  33  34
ATOM     34  C   UNL A   1      37.727  32.616  28.986  1.00  0.00     0.118 C 
BRANCH  34  35
ATOM     35  N   UNL A   1      36.382  32.082  29.080  1.00  0.00    -0.352 N 
ATOM     36  C   UNL A   1      35.924  30.830  28.686  1.00  0.00     0.251 C 
ATOM     37  H   UNL A   1      35.707  32.684  29.471  1.00  0.00     0.163 HD
ATOM     38  O   UNL A   1      34.767  30.630  28.437  1.00  0.00    -0.269 OA
BRANCH  36  39
ATOM     39  C   UNL A   1      36.903  29.710  28.740  1.00  0.00     0.039 A 
ATOM     40  C   UNL A   1      37.106  29.109  29.990  1.00  0.00     0.014 A 
ATOM     41  C   UNL A   1      37.735  29.412  27.668  1.00  0.00     0.014 A 
ATOM     42  C   UNL A   1      38.241  28.325  30.205  1.00  0.00     0.010 A 
ATOM     43  C   UNL A   1      38.898  28.701  27.906  1.00  0.00     0.010 A 
ATOM     44  C   UNL A   1      39.177  28.182  29.180  1.00  0.00    -0.014 A 
BRANCH  44  45
ATOM     45  C   UNL A   1      40.519  27.624  29.358  1.00  0.00     0.031 A 
ATOM     46  C   UNL A   1      40.886  26.286  28.819  1.00  0.00     0.074 A 
ATOM     47  C   UNL A   1      41.500  28.379  29.901  1.00  0.00     0.049 A 
ATOM     48  N   UNL A   1      41.946  25.626  29.160  1.00  0.00    -0.248 NA
ATOM     49  C   UNL A   1      40.059  25.568  27.856  1.00  0.00     0.031 C 
ATOM     50  C   UNL A   1      42.939  28.174  29.750  1.00  0.00     0.029 A 
ATOM     51  N   UNL A   1      41.412  29.404  30.830  1.00  0.00    -0.354 N 
ATOM     52  C   UNL A   1      42.090  24.567  28.292  1.00  0.00     0.074 A 
ATOM     53  C   UNL A   1      40.864  24.551  27.527  1.00  0.00     0.031 C 
ATOM     54  C   UNL A   1      43.584  28.867  30.698  1.00  0.00     0.029 A 
ATOM     55  C   UNL A   1      42.587  29.422  31.595  1.00  0.00     0.049 A 
ATOM     56  H   UNL A   1      40.650  30.018  30.935  1.00  0.00     0.167 HD
ATOM     57  C   UNL A   1      43.274  23.886  28.232  1.00  0.00     0.037 A 
ATOM     58  C   UNL A   1      42.563  29.218  32.948  1.00  0.00     0.037 A 
ATOM     59  C   UNL A   1      44.247  24.389  29.201  1.00  0.00     0.049 A 
ATOM     60  C   UNL A   1      43.262  27.957  33.417  1.00  0.00     0.074 A 
ATOM     61  C   UNL A   1      45.331  25.248  29.121  1.00  0.00     0.029 A 
ATOM     62  N   UNL A   1      44.024  24.180  30.549  1.00  0.00    -0.354 N 
ATOM     63  N   UNL A   1      43.893  27.129  32.633  1.00  0.00    -0.248 NA
ATOM     64  C   UNL A   1      43.232  27.486  34.805  1.00  0.00     0.031 C 
ATOM     65  C   UNL A   1      45.749  25.564  30.443  1.00  0.00     0.029 A 
ATOM     66  C   UNL A   1      44.908  24.909  31.322  1.00  0.00     0.049 A 
ATOM     67  H   UNL A   1      43.327  23.587  30.912  1.00  0.00     0.167 HD
ATOM     68  C   UNL A   1      44.239  26.011  33.343  1.00  0.00     0.074 A 
ATOM     69  C   UNL A   1      43.849  26.296  34.709  1.00  0.00     0.031 C 
ATOM     70  C   UNL A   1      44.757  24.896  32.763  1.00  0.00     0.037 A 
BRANCH  57  71
ATOM     71  C   UNL A   1      43.639  22.911  27.131  1.00  0.00     0.058 A 
ATOM     72  C   UNL A   1      42.951  21.685  26.991  1.00  0.00     0.135 A 
ATOM     73  C   UNL A   1      44.681  23.105  26.202  1.00  0.00     0.135 A 
ATOM     74  F   UNL A   1      41.863  21.400  27.719  1.00  0.00    -0.206 F 
ATOM     75  C   UNL A   1      43.349  20.684  26.104  1.00  0.00     0.059 A 
ATOM     76  C   UNL A   1      45.137  22.097  25.345  1.00  0.00     0.059 A 
ATOM     77  F   UNL A   1      45.265  24.302  26.055  1.00  0.00    -0.206 F 
ATOM     78  C   UNL A   1      44.472  20.879  25.315  1.00  0.00     0.060 A 
BRANCH  78  79
ATOM     79  S   UNL A   1      45.045  19.527  24.271  1.00  0.00     0.124 S 
ATOM     80  O   UNL A   1      46.495  19.683  24.332  1.00  0.00    -0.237 OA
ATOM     81  O   UNL A   1      44.501  18.362  24.959  1.00  0.00    -0.237 OA
ATOM     82  O   UNL A   1      44.447  19.825  22.973  1.00  0.00    -0.744 OA
ENDBRANCH  78  79
ENDBRANCH  57  71
BRANCH  58  83
ATOM     83  C   UNL A   1      41.376  29.830  33.597  1.00  0.00     0.058 A 
ATOM     84  C   UNL A   1      41.446  31.205  33.888  1.00  0.00     0.135 A 
ATOM     85  C   UNL A   1      40.109  29.244  33.480  1.00  0.00     0.135 A 
ATOM     86  F   UNL A   1      42.640  31.802  34.035  1.00  0.00    -0.206 F 
ATOM     87  C   UNL A   1      40.313  32.007  33.861  1.00  0.00     0.059 A 
ATOM     88  C   UNL A   1      38.957  30.029  33.460  1.00  0.00     0.059 A 
ATOM     89  F   UNL A   1      39.990  27.933  33.220  1.00  0.00    -0.206 F 
ATOM     90  C   UNL A   1      39.086  31.415  33.564  1.00  0.00     0.060 A 
BRANCH  90  91
ATOM     91  S   UNL A   1      37.720  32.505  33.105  1.00  0.00     0.124 S 
ATOM     92  O   UNL A   1      37.114  31.786  31.989  1.00  0.00    -0.237 OA
ATOM     93  O   UNL A   1      36.941  32.523  34.342  1.00  0.00    -0.237 OA
ATOM     94  O   UNL A   1      38.390  33.754  32.764  1.00  0.00    -0.744 OA
ENDBRANCH  90  91
ENDBRANCH  58  83
BRANCH  70  95
ATOM     95  C   UNL A   1      45.162  23.692  33.547  1.00  0.00     0.058 A 
ATOM     96  C   UNL A   1      44.255  22.652  33.802  1.00  0.00     0.135 A 
ATOM     97  C   UNL A   1      46.417  23.617  34.177  1.00  0.00     0.135 A 
ATOM     98  F   UNL A   1      43.032  22.665  33.248  1.00  0.00    -0.206 F 
ATOM     99  C   UNL A   1      44.577  21.588  34.641  1.00  0.00     0.059 A 
ATOM    100  C   UNL A   1      46.749  22.580  35.044  1.00  0.00     0.059 A 
ATOM    101  F   UNL A   1      47.355  24.550  33.953  1.00  0.00    -0.206 F 
ATOM    102  C   UNL A   1      45.824  21.563  35.263  1.00  0.00     0.060 A 
BRANCH 102 103
ATOM    103  S   UNL A   1      46.228  20.222  36.401  1.00  0.00     0.124 S 
ATOM    104  O   UNL A   1      45.874  20.781  37.703  1.00  0.00    -0.237 OA
ATOM    105  O   UNL A   1      45.356  19.157  35.916  1.00  0.00    -0.237 OA
ATOM    106  O   UNL A   1      47.656  20.019  36.183  1.00  0.00    -0.744 OA
ENDBRANCH 102 103
ENDBRANCH  70  95
ENDBRANCH  44  45
ENDBRANCH  36  39
ENDBRANCH  34  35
ENDBRANCH  33  34
ENDBRANCH   1  33
TORSDOF 19
ENDMDL
