MODEL 1
REMARK VINA RESULT:     -11.8      0.000      0.000
REMARK SMILES Cc1c(Cl)cccc1S(=O)(=O)N[C@H]1C=C[C@@H](C(=O)NCCCNC(=O)c2ccc(-c3c4nc(c(-c5c(F)cc(S(=O)(=O)[O-])cc5F)c5ccc([nH]5)c(-c5c(F)cc(S(=O)(=O)[O-])cc5F)c5nc(c(-c6c(F)cc(S(=O)(=O)[O-])cc6F)c6ccc3[nH]6)C=C5)C=C4)cc2)C1
REMARK SMILES IDX 21 1 20 2 19 3 17 4 18 5 16 7 13 8 14 9 92 10 15 11 12 12
REMARK SMILES IDX 9 14 10 15 11 16 8 17 1 18 2 19 3 20 4 21 5 22 7 23 6 24
REMARK SMILES IDX 22 25 23 26 24 27 25 29 26 30 27 31 91 32 28 33 90 34 29 35
REMARK SMILES IDX 30 36 31 37 84 38 32 39 89 40 83 41 85 42 33 43 88 44 82 45
REMARK SMILES IDX 81 46 34 48 68 49 47 50 67 51 48 52 51 53 66 54 86 55 49 56
REMARK SMILES IDX 50 57 65 59 87 60 52 61 35 62 36 63 45 64 37 65 38 66 44 67
REMARK SMILES IDX 46 68 39 69 40 70 41 71 42 72 43 73 69 74 70 75 79 76 71 77
REMARK SMILES IDX 72 78 78 79 80 80 73 81 74 82 75 83 76 84 77 85 53 86 54 87
REMARK SMILES IDX 63 88 55 89 56 90 62 91 64 92 57 93 58 94 59 95 60 96 61 97
REMARK H PARENT 19 6 12 13 23 28 85 47 51 58
REMARK Flexibility Score: inf
ROOT
ATOM      1  C   UNL A   1      34.454  32.624  28.689  1.00  0.00     0.042 C 
ENDROOT
BRANCH   1   2
ATOM      2  C   UNL A   1      34.224  33.760  29.696  1.00  0.00     0.117 C 
BRANCH   2   3
ATOM      3  N   UNL A   1      33.828  35.032  29.102  1.00  0.00    -0.356 N 
ATOM      4  C   UNL A   1      33.317  36.194  29.583  1.00  0.00     0.226 C 
ATOM      5  O   UNL A   1      33.201  37.106  28.751  1.00  0.00    -0.274 OA
ATOM      6  H   UNL A   1      33.962  35.052  28.127  1.00  0.00     0.163 HD
BRANCH   4   7
ATOM      7  C   UNL A   1      32.822  36.453  31.015  1.00  0.00     0.103 C 
ATOM      8  C   UNL A   1      34.157  35.839  32.995  1.00  0.00     0.093 C 
ATOM      9  C   UNL A   1      34.017  37.325  32.827  1.00  0.00    -0.011 C 
ATOM     10  C   UNL A   1      33.138  35.301  31.990  1.00  0.00     0.042 C 
ATOM     11  C   UNL A   1      33.294  37.657  31.751  1.00  0.00    -0.016 C 
BRANCH   8  12
ATOM     12  N   UNL A   1      35.525  35.481  32.619  1.00  0.00    -0.204 NA
ATOM     13  H   UNL A   1      35.528  35.344  31.609  1.00  0.00     0.142 HD
BRANCH  12  14
ATOM     14  S   UNL A   1      36.243  34.121  33.297  1.00  0.00     0.241 S 
ATOM     15  O   UNL A   1      35.294  33.034  33.188  1.00  0.00    -0.207 OA
ATOM     16  O   UNL A   1      36.713  34.582  34.585  1.00  0.00    -0.207 OA
BRANCH  14  17
ATOM     17  C   UNL A   1      37.709  33.625  32.394  1.00  0.00     0.086 A 
ATOM     18  C   UNL A   1      38.800  32.042  34.113  1.00  0.00     0.047 C 
ATOM     19  C   UNL A   1      38.755  32.784  32.822  1.00  0.00    -0.012 A 
ATOM     20  C   UNL A   1      39.845  32.577  31.938  1.00  0.00     0.045 A 
ATOM     21  Cl  UNL A   1      41.218  31.614  32.391  1.00  0.00    -0.084 Cl
ATOM     22  C   UNL A   1      39.870  33.129  30.659  1.00  0.00     0.021 A 
ATOM     23  C   UNL A   1      37.748  34.163  31.088  1.00  0.00     0.022 A 
ATOM     24  C   UNL A   1      38.810  33.909  30.224  1.00  0.00     0.003 A 
ENDBRANCH  14  17
ENDBRANCH  12  14
ENDBRANCH   8  12
ENDBRANCH   4   7
ENDBRANCH   2   3
ENDBRANCH   1   2
BRANCH   1  25
ATOM     25  C   UNL A   1      35.632  31.695  28.982  1.00  0.00     0.118 C 
BRANCH  25  26
ATOM     26  N   UNL A   1      35.708  31.359  30.392  1.00  0.00    -0.352 N 
ATOM     27  C   UNL A   1      36.521  30.453  31.029  1.00  0.00     0.251 C 
ATOM     28  H   UNL A   1      35.087  31.852  30.975  1.00  0.00     0.163 HD
ATOM     29  O   UNL A   1      36.213  30.083  32.161  1.00  0.00    -0.269 OA
BRANCH  27  30
ATOM     30  C   UNL A   1      37.758  29.925  30.395  1.00  0.00     0.039 A 
ATOM     31  C   UNL A   1      38.640  29.170  31.178  1.00  0.00     0.014 A 
ATOM     32  C   UNL A   1      38.123  30.265  29.088  1.00  0.00     0.014 A 
ATOM     33  C   UNL A   1      39.875  28.762  30.659  1.00  0.00     0.010 A 
ATOM     34  C   UNL A   1      39.334  29.808  28.552  1.00  0.00     0.010 A 
ATOM     35  C   UNL A   1      40.239  29.081  29.341  1.00  0.00    -0.014 A 
BRANCH  35  36
ATOM     36  C   UNL A   1      41.588  28.725  28.814  1.00  0.00     0.031 A 
ATOM     37  C   UNL A   1      42.667  29.777  28.721  1.00  0.00     0.074 A 
ATOM     38  C   UNL A   1      41.852  27.467  28.410  1.00  0.00     0.049 A 
ATOM     39  N   UNL A   1      43.894  29.671  28.272  1.00  0.00    -0.248 NA
ATOM     40  C   UNL A   1      42.314  31.131  29.174  1.00  0.00     0.031 C 
ATOM     41  C   UNL A   1      40.898  26.357  28.419  1.00  0.00     0.029 A 
ATOM     42  N   UNL A   1      43.004  26.908  27.910  1.00  0.00    -0.354 N 
ATOM     43  C   UNL A   1      44.451  30.942  28.375  1.00  0.00     0.074 A 
ATOM     44  C   UNL A   1      43.412  31.813  28.880  1.00  0.00     0.031 C 
ATOM     45  C   UNL A   1      41.507  25.249  27.966  1.00  0.00     0.029 A 
ATOM     46  C   UNL A   1      42.887  25.571  27.608  1.00  0.00     0.049 A 
ATOM     47  H   UNL A   1      43.837  27.418  27.780  1.00  0.00     0.167 HD
ATOM     48  C   UNL A   1      45.715  31.347  28.096  1.00  0.00     0.037 A 
ATOM     49  C   UNL A   1      43.785  24.702  27.103  1.00  0.00     0.037 A 
ATOM     50  C   UNL A   1      46.758  30.476  27.618  1.00  0.00     0.049 A 
ATOM     51  C   UNL A   1      45.187  25.169  26.815  1.00  0.00     0.074 A 
ATOM     52  C   UNL A   1      48.079  30.786  27.339  1.00  0.00     0.029 A 
ATOM     53  N   UNL A   1      46.604  29.124  27.354  1.00  0.00    -0.354 N 
ATOM     54  N   UNL A   1      45.704  26.367  26.955  1.00  0.00    -0.248 NA
ATOM     55  C   UNL A   1      46.134  24.162  26.316  1.00  0.00     0.031 C 
ATOM     56  C   UNL A   1      48.714  29.628  26.876  1.00  0.00     0.029 A 
ATOM     57  C   UNL A   1      47.802  28.586  26.912  1.00  0.00     0.049 A 
ATOM     58  H   UNL A   1      45.765  28.620  27.464  1.00  0.00     0.167 HD
ATOM     59  C   UNL A   1      47.044  26.247  26.599  1.00  0.00     0.074 A 
ATOM     60  C   UNL A   1      47.259  24.861  26.242  1.00  0.00     0.031 C 
ATOM     61  C   UNL A   1      48.010  27.199  26.575  1.00  0.00     0.037 A 
BRANCH  48  62
ATOM     62  C   UNL A   1      46.041  32.802  28.304  1.00  0.00     0.058 A 
ATOM     63  C   UNL A   1      46.529  33.280  29.532  1.00  0.00     0.135 A 
ATOM     64  C   UNL A   1      45.888  33.728  27.259  1.00  0.00     0.135 A 
ATOM     65  F   UNL A   1      46.684  32.443  30.570  1.00  0.00    -0.206 F 
ATOM     66  C   UNL A   1      46.820  34.628  29.726  1.00  0.00     0.059 A 
ATOM     67  C   UNL A   1      46.200  35.075  27.422  1.00  0.00     0.059 A 
ATOM     68  F   UNL A   1      45.430  33.327  26.063  1.00  0.00    -0.206 F 
ATOM     69  C   UNL A   1      46.648  35.519  28.666  1.00  0.00     0.060 A 
BRANCH  69  70
ATOM     70  S   UNL A   1      47.021  37.264  28.936  1.00  0.00     0.124 S 
ATOM     71  O   UNL A   1      46.106  37.906  27.995  1.00  0.00    -0.237 OA
ATOM     72  O   UNL A   1      46.700  37.439  30.349  1.00  0.00    -0.237 OA
ATOM     73  O   UNL A   1      48.438  37.366  28.600  1.00  0.00    -0.744 OA
ENDBRANCH  69  70
ENDBRANCH  48  62
BRANCH  49  74
ATOM     74  C   UNL A   1      43.398  23.284  26.873  1.00  0.00     0.058 A 
ATOM     75  C   UNL A   1      43.262  22.775  25.572  1.00  0.00     0.135 A 
ATOM     76  C   UNL A   1      43.158  22.411  27.944  1.00  0.00     0.135 A 
ATOM     77  F   UNL A   1      43.472  23.572  24.515  1.00  0.00    -0.206 F 
ATOM     78  C   UNL A   1      42.885  21.456  25.341  1.00  0.00     0.059 A 
ATOM     79  C   UNL A   1      42.805  21.080  27.739  1.00  0.00     0.059 A 
ATOM     80  F   UNL A   1      43.288  22.845  29.208  1.00  0.00    -0.206 F 
ATOM     81  C   UNL A   1      42.660  20.615  26.432  1.00  0.00     0.060 A 
BRANCH  81  82
ATOM     82  S   UNL A   1      42.214  18.893  26.121  1.00  0.00     0.124 S 
ATOM     83  O   UNL A   1      43.133  18.542  25.043  1.00  0.00    -0.237 OA
ATOM     84  O   UNL A   1      42.479  18.268  27.414  1.00  0.00    -0.237 OA
ATOM     85  O   UNL A   1      40.805  18.973  25.749  1.00  0.00    -0.744 OA
ENDBRANCH  81  82
ENDBRANCH  49  74
BRANCH  61  86
ATOM     86  C   UNL A   1      49.404  26.764  26.211  1.00  0.00     0.058 A 
ATOM     87  C   UNL A   1      49.890  26.844  24.896  1.00  0.00     0.135 A 
ATOM     88  C   UNL A   1      50.275  26.284  27.202  1.00  0.00     0.135 A 
ATOM     89  F   UNL A   1      49.099  27.295  23.910  1.00  0.00    -0.206 F 
ATOM     90  C   UNL A   1      51.178  26.428  24.571  1.00  0.00     0.059 A 
ATOM     91  C   UNL A   1      51.576  25.888  26.904  1.00  0.00     0.059 A 
ATOM     92  F   UNL A   1      49.866  26.199  28.479  1.00  0.00    -0.206 F 
ATOM     93  C   UNL A   1      52.012  25.947  25.581  1.00  0.00     0.060 A 
BRANCH  93  94
ATOM     94  S   UNL A   1      53.683  25.415  25.151  1.00  0.00     0.124 S 
ATOM     95  O   UNL A   1      53.441  24.066  24.648  1.00  0.00    -0.237 OA
ATOM     96  O   UNL A   1      54.079  26.402  24.151  1.00  0.00    -0.237 OA
ATOM     97  O   UNL A   1      54.402  25.493  26.419  1.00  0.00    -0.744 OA
ENDBRANCH  93  94
ENDBRANCH  61  86
ENDBRANCH  35  36
ENDBRANCH  27  30
ENDBRANCH  25  26
ENDBRANCH   1  25
TORSDOF 16
ENDMDL
MODEL 2
REMARK VINA RESULT:     -11.8      5.189      7.077
REMARK SMILES Cc1c(Cl)cccc1S(=O)(=O)N[C@H]1C=C[C@@H](C(=O)NCCCNC(=O)c2ccc(-c3c4nc(c(-c5c(F)cc(S(=O)(=O)[O-])cc5F)c5ccc([nH]5)c(-c5c(F)cc(S(=O)(=O)[O-])cc5F)c5nc(c(-c6c(F)cc(S(=O)(=O)[O-])cc6F)c6ccc3[nH]6)C=C5)C=C4)cc2)C1
REMARK SMILES IDX 21 1 20 2 19 3 17 4 18 5 16 7 13 8 14 9 92 10 15 11 12 12
REMARK SMILES IDX 9 14 10 15 11 16 8 17 1 18 2 19 3 20 4 21 5 22 7 23 6 24
REMARK SMILES IDX 22 25 23 26 24 27 25 29 26 30 27 31 91 32 28 33 90 34 29 35
REMARK SMILES IDX 30 36 31 37 84 38 32 39 89 40 83 41 85 42 33 43 88 44 82 45
REMARK SMILES IDX 81 46 34 48 68 49 47 50 67 51 48 52 51 53 66 54 86 55 49 56
REMARK SMILES IDX 50 57 65 59 87 60 52 61 35 62 36 63 45 64 37 65 38 66 44 67
REMARK SMILES IDX 46 68 39 69 40 70 41 71 42 72 43 73 69 74 70 75 79 76 71 77
REMARK SMILES IDX 72 78 78 79 80 80 73 81 74 82 75 83 76 84 77 85 53 86 54 87
REMARK SMILES IDX 63 88 55 89 56 90 62 91 64 92 57 93 58 94 59 95 60 96 61 97
REMARK H PARENT 19 6 12 13 23 28 85 47 51 58
REMARK Flexibility Score: inf
ROOT
ATOM      1  C   UNL A   1      34.126  28.148  25.888  1.00  0.00     0.042 C 
ENDROOT
BRANCH   1   2
ATOM      2  C   UNL A   1      33.361  28.418  24.584  1.00  0.00     0.117 C 
BRANCH   2   3
ATOM      3  N   UNL A   1      33.749  27.575  23.460  1.00  0.00    -0.356 N 
ATOM      4  C   UNL A   1      33.077  26.886  22.504  1.00  0.00     0.226 C 
ATOM      5  O   UNL A   1      33.785  26.350  21.639  1.00  0.00    -0.274 OA
ATOM      6  H   UNL A   1      34.726  27.483  23.376  1.00  0.00     0.163 HD
BRANCH   4   7
ATOM      7  C   UNL A   1      31.557  26.664  22.433  1.00  0.00     0.103 C 
ATOM      8  C   UNL A   1      30.316  25.508  24.223  1.00  0.00     0.093 C 
ATOM      9  C   UNL A   1      29.967  26.964  24.121  1.00  0.00    -0.011 C 
ATOM     10  C   UNL A   1      31.117  25.276  22.941  1.00  0.00     0.042 C 
ATOM     11  C   UNL A   1      30.642  27.592  23.151  1.00  0.00    -0.016 C 
BRANCH   8  12
ATOM     12  N   UNL A   1      31.147  25.337  25.416  1.00  0.00    -0.204 NA
ATOM     13  H   UNL A   1      32.024  25.826  25.238  1.00  0.00     0.142 HD
BRANCH  12  14
ATOM     14  S   UNL A   1      31.548  23.789  25.933  1.00  0.00     0.241 S 
ATOM     15  O   UNL A   1      30.688  22.863  25.227  1.00  0.00    -0.207 OA
ATOM     16  O   UNL A   1      31.522  23.888  27.376  1.00  0.00    -0.207 OA
BRANCH  14  17
ATOM     17  C   UNL A   1      33.235  23.362  25.505  1.00  0.00     0.086 A 
ATOM     18  C   UNL A   1      33.102  20.789  25.599  1.00  0.00     0.047 C 
ATOM     19  C   UNL A   1      33.820  22.084  25.429  1.00  0.00    -0.012 A 
ATOM     20  C   UNL A   1      35.200  22.001  25.116  1.00  0.00     0.045 A 
ATOM     21  Cl  UNL A   1      36.036  20.479  25.062  1.00  0.00    -0.084 Cl
ATOM     22  C   UNL A   1      35.958  23.135  24.828  1.00  0.00     0.021 A 
ATOM     23  C   UNL A   1      34.017  24.497  25.197  1.00  0.00     0.022 A 
ATOM     24  C   UNL A   1      35.362  24.386  24.850  1.00  0.00     0.003 A 
ENDBRANCH  14  17
ENDBRANCH  12  14
ENDBRANCH   8  12
ENDBRANCH   4   7
ENDBRANCH   2   3
ENDBRANCH   1   2
BRANCH   1  25
ATOM     25  C   UNL A   1      33.381  28.468  27.184  1.00  0.00     0.118 C 
BRANCH  25  26
ATOM     26  N   UNL A   1      33.447  29.882  27.500  1.00  0.00    -0.352 N 
ATOM     27  C   UNL A   1      34.440  30.589  28.136  1.00  0.00     0.251 C 
ATOM     28  H   UNL A   1      32.667  30.413  27.218  1.00  0.00     0.163 HD
ATOM     29  O   UNL A   1      34.170  31.697  28.594  1.00  0.00    -0.269 OA
BRANCH  27  30
ATOM     30  C   UNL A   1      35.821  30.054  28.269  1.00  0.00     0.039 A 
ATOM     31  C   UNL A   1      36.224  29.549  29.511  1.00  0.00     0.014 A 
ATOM     32  C   UNL A   1      36.759  30.158  27.236  1.00  0.00     0.014 A 
ATOM     33  C   UNL A   1      37.552  29.155  29.718  1.00  0.00     0.010 A 
ATOM     34  C   UNL A   1      38.072  29.710  27.427  1.00  0.00     0.010 A 
ATOM     35  C   UNL A   1      38.493  29.235  28.679  1.00  0.00    -0.014 A 
BRANCH  35  36
ATOM     36  C   UNL A   1      39.926  28.900  28.919  1.00  0.00     0.031 A 
ATOM     37  C   UNL A   1      40.853  29.924  29.528  1.00  0.00     0.074 A 
ATOM     38  C   UNL A   1      40.407  27.685  28.588  1.00  0.00     0.049 A 
ATOM     39  N   UNL A   1      42.133  29.832  29.795  1.00  0.00    -0.248 NA
ATOM     40  C   UNL A   1      40.267  31.232  29.863  1.00  0.00     0.031 C 
ATOM     41  C   UNL A   1      39.633  26.608  27.969  1.00  0.00     0.029 A 
ATOM     42  N   UNL A   1      41.666  27.150  28.725  1.00  0.00    -0.354 N 
ATOM     43  C   UNL A   1      42.506  31.069  30.313  1.00  0.00     0.074 A 
ATOM     44  C   UNL A   1      41.329  31.910  30.275  1.00  0.00     0.031 C 
ATOM     45  C   UNL A   1      40.426  25.538  27.797  1.00  0.00     0.029 A 
ATOM     46  C   UNL A   1      41.772  25.858  28.268  1.00  0.00     0.049 A 
ATOM     47  H   UNL A   1      42.422  27.647  29.114  1.00  0.00     0.167 HD
ATOM     48  C   UNL A   1      43.709  31.465  30.797  1.00  0.00     0.037 A 
ATOM     49  C   UNL A   1      42.830  25.022  28.232  1.00  0.00     0.037 A 
ATOM     50  C   UNL A   1      44.875  30.621  30.861  1.00  0.00     0.049 A 
ATOM     51  C   UNL A   1      44.153  25.478  28.788  1.00  0.00     0.074 A 
ATOM     52  C   UNL A   1      46.130  30.922  31.365  1.00  0.00     0.029 A 
ATOM     53  N   UNL A   1      44.931  29.310  30.414  1.00  0.00    -0.354 N 
ATOM     54  N   UNL A   1      44.475  26.639  29.308  1.00  0.00    -0.248 NA
ATOM     55  C   UNL A   1      45.253  24.503  28.768  1.00  0.00     0.031 C 
ATOM     56  C   UNL A   1      46.953  29.802  31.193  1.00  0.00     0.029 A 
ATOM     57  C   UNL A   1      46.197  28.789  30.626  1.00  0.00     0.049 A 
ATOM     58  H   UNL A   1      44.180  28.821  30.005  1.00  0.00     0.167 HD
ATOM     59  C   UNL A   1      45.802  26.520  29.711  1.00  0.00     0.074 A 
ATOM     60  C   UNL A   1      46.220  25.174  29.381  1.00  0.00     0.031 C 
ATOM     61  C   UNL A   1      46.599  27.441  30.308  1.00  0.00     0.037 A 
BRANCH  48  62
ATOM     62  C   UNL A   1      43.825  32.880  31.300  1.00  0.00     0.058 A 
ATOM     63  C   UNL A   1      44.282  33.921  30.474  1.00  0.00     0.135 A 
ATOM     64  C   UNL A   1      43.453  33.207  32.614  1.00  0.00     0.135 A 
ATOM     65  F   UNL A   1      44.663  33.665  29.213  1.00  0.00    -0.206 F 
ATOM     66  C   UNL A   1      44.400  35.226  30.944  1.00  0.00     0.059 A 
ATOM     67  C   UNL A   1      43.534  34.510  33.096  1.00  0.00     0.059 A 
ATOM     68  F   UNL A   1      43.005  32.254  33.446  1.00  0.00    -0.206 F 
ATOM     69  C   UNL A   1      44.026  35.510  32.258  1.00  0.00     0.060 A 
BRANCH  69  70
ATOM     70  S   UNL A   1      44.192  37.206  32.856  1.00  0.00     0.124 S 
ATOM     71  O   UNL A   1      43.213  37.230  33.938  1.00  0.00    -0.237 OA
ATOM     72  O   UNL A   1      45.592  37.258  33.267  1.00  0.00    -0.237 OA
ATOM     73  O   UNL A   1      43.855  38.013  31.687  1.00  0.00    -0.744 OA
ENDBRANCH  69  70
ENDBRANCH  48  62
BRANCH  49  74
ATOM     74  C   UNL A   1      42.673  23.648  27.682  1.00  0.00     0.058 A 
ATOM     75  C   UNL A   1      42.806  23.402  26.307  1.00  0.00     0.135 A 
ATOM     76  C   UNL A   1      42.390  22.558  28.517  1.00  0.00     0.135 A 
ATOM     77  F   UNL A   1      43.068  24.414  25.466  1.00  0.00    -0.206 F 
ATOM     78  C   UNL A   1      42.645  22.126  25.776  1.00  0.00     0.059 A 
ATOM     79  C   UNL A   1      42.251  21.267  28.013  1.00  0.00     0.059 A 
ATOM     80  F   UNL A   1      42.267  22.738  29.841  1.00  0.00    -0.206 F 
ATOM     81  C   UNL A   1      42.370  21.064  26.639  1.00  0.00     0.060 A 
BRANCH  81  82
ATOM     82  S   UNL A   1      42.208  19.404  25.945  1.00  0.00     0.124 S 
ATOM     83  O   UNL A   1      42.736  18.581  27.027  1.00  0.00    -0.237 OA
ATOM     84  O   UNL A   1      40.770  19.307  25.712  1.00  0.00    -0.237 OA
ATOM     85  O   UNL A   1      43.028  19.464  24.739  1.00  0.00    -0.744 OA
ENDBRANCH  81  82
ENDBRANCH  49  74
BRANCH  61  86
ATOM     86  C   UNL A   1      47.986  27.008  30.700  1.00  0.00     0.058 A 
ATOM     87  C   UNL A   1      49.094  27.207  29.861  1.00  0.00     0.135 A 
ATOM     88  C   UNL A   1      48.211  26.408  31.950  1.00  0.00     0.135 A 
ATOM     89  F   UNL A   1      48.935  27.775  28.656  1.00  0.00    -0.206 F 
ATOM     90  C   UNL A   1      50.370  26.791  30.232  1.00  0.00     0.059 A 
ATOM     91  C   UNL A   1      49.482  26.009  32.352  1.00  0.00     0.059 A 
ATOM     92  F   UNL A   1      47.189  26.206  32.798  1.00  0.00    -0.206 F 
ATOM     93  C   UNL A   1      50.553  26.189  31.478  1.00  0.00     0.060 A 
BRANCH  93  94
ATOM     94  S   UNL A   1      52.213  25.659  31.952  1.00  0.00     0.124 S 
ATOM     95  O   UNL A   1      51.996  24.246  32.248  1.00  0.00    -0.237 OA
ATOM     96  O   UNL A   1      52.989  25.943  30.749  1.00  0.00    -0.237 OA
ATOM     97  O   UNL A   1      52.522  26.502  33.103  1.00  0.00    -0.744 OA
ENDBRANCH  93  94
ENDBRANCH  61  86
ENDBRANCH  35  36
ENDBRANCH  27  30
ENDBRANCH  25  26
ENDBRANCH   1  25
TORSDOF 16
ENDMDL
MODEL 3
REMARK VINA RESULT:     -11.7      5.693     14.187
REMARK SMILES Cc1c(Cl)cccc1S(=O)(=O)N[C@H]1C=C[C@@H](C(=O)NCCCNC(=O)c2ccc(-c3c4nc(c(-c5c(F)cc(S(=O)(=O)[O-])cc5F)c5ccc([nH]5)c(-c5c(F)cc(S(=O)(=O)[O-])cc5F)c5nc(c(-c6c(F)cc(S(=O)(=O)[O-])cc6F)c6ccc3[nH]6)C=C5)C=C4)cc2)C1
REMARK SMILES IDX 21 1 20 2 19 3 17 4 18 5 16 7 13 8 14 9 92 10 15 11 12 12
REMARK SMILES IDX 9 14 10 15 11 16 8 17 1 18 2 19 3 20 4 21 5 22 7 23 6 24
REMARK SMILES IDX 22 25 23 26 24 27 25 29 26 30 27 31 91 32 28 33 90 34 29 35
REMARK SMILES IDX 30 36 31 37 84 38 32 39 89 40 83 41 85 42 33 43 88 44 82 45
REMARK SMILES IDX 81 46 34 48 68 49 47 50 67 51 48 52 51 53 66 54 86 55 49 56
REMARK SMILES IDX 50 57 65 59 87 60 52 61 35 62 36 63 45 64 37 65 38 66 44 67
REMARK SMILES IDX 46 68 39 69 40 70 41 71 42 72 43 73 69 74 70 75 79 76 71 77
REMARK SMILES IDX 72 78 78 79 80 80 73 81 74 82 75 83 76 84 77 85 53 86 54 87
REMARK SMILES IDX 63 88 55 89 56 90 62 91 64 92 57 93 58 94 59 95 60 96 61 97
REMARK H PARENT 19 6 12 13 23 28 85 47 51 58
REMARK Flexibility Score: inf
ROOT
ATOM      1  C   UNL A   1      46.089  25.133  25.406  1.00  0.00     0.042 C 
ENDROOT
BRANCH   1   2
ATOM      2  C   UNL A   1      46.682  23.925  24.667  1.00  0.00     0.117 C 
BRANCH   2   3
ATOM      3  N   UNL A   1      45.766  23.263  23.745  1.00  0.00    -0.356 N 
ATOM      4  C   UNL A   1      45.066  22.101  23.763  1.00  0.00     0.226 C 
ATOM      5  O   UNL A   1      44.299  21.929  22.804  1.00  0.00    -0.274 OA
ATOM      6  H   UNL A   1      45.624  23.778  22.918  1.00  0.00     0.163 HD
BRANCH   4   7
ATOM      7  C   UNL A   1      45.181  20.979  24.807  1.00  0.00     0.103 C 
ATOM      8  C   UNL A   1      43.256  20.242  26.160  1.00  0.00     0.093 C 
ATOM      9  C   UNL A   1      43.717  19.195  25.188  1.00  0.00    -0.011 C 
ATOM     10  C   UNL A   1      44.393  21.263  26.102  1.00  0.00     0.042 C 
ATOM     11  C   UNL A   1      44.761  19.596  24.452  1.00  0.00    -0.016 C 
BRANCH   8  12
ATOM     12  N   UNL A   1      42.005  20.801  25.645  1.00  0.00    -0.204 NA
ATOM     13  H   UNL A   1      42.096  21.815  25.682  1.00  0.00     0.142 HD
BRANCH  12  14
ATOM     14  S   UNL A   1      40.552  20.414  26.397  1.00  0.00     0.241 S 
ATOM     15  O   UNL A   1      40.795  20.404  27.823  1.00  0.00    -0.207 OA
ATOM     16  O   UNL A   1      40.107  19.226  25.701  1.00  0.00    -0.207 OA
BRANCH  14  17
ATOM     17  C   UNL A   1      39.296  21.655  26.092  1.00  0.00     0.086 A 
ATOM     18  C   UNL A   1      37.573  20.260  24.775  1.00  0.00     0.047 C 
ATOM     19  C   UNL A   1      38.097  21.524  25.366  1.00  0.00    -0.012 A 
ATOM     20  C   UNL A   1      37.279  22.673  25.218  1.00  0.00     0.045 A 
ATOM     21  Cl  UNL A   1      35.813  22.638  24.287  1.00  0.00    -0.084 Cl
ATOM     22  C   UNL A   1      37.605  23.889  25.817  1.00  0.00     0.021 A 
ATOM     23  C   UNL A   1      39.600  22.893  26.701  1.00  0.00     0.022 A 
ATOM     24  C   UNL A   1      38.759  23.996  26.576  1.00  0.00     0.003 A 
ENDBRANCH  14  17
ENDBRANCH  12  14
ENDBRANCH   8  12
ENDBRANCH   4   7
ENDBRANCH   2   3
ENDBRANCH   1   2
BRANCH   1  25
ATOM     25  C   UNL A   1      44.787  24.883  26.168  1.00  0.00     0.118 C 
BRANCH  25  26
ATOM     26  N   UNL A   1      43.627  25.202  25.359  1.00  0.00    -0.352 N 
ATOM     27  C   UNL A   1      42.438  25.785  25.730  1.00  0.00     0.251 C 
ATOM     28  H   UNL A   1      43.701  24.967  24.406  1.00  0.00     0.163 HD
ATOM     29  O   UNL A   1      41.471  25.674  24.979  1.00  0.00    -0.269 OA
BRANCH  27  30
ATOM     30  C   UNL A   1      42.301  26.550  26.998  1.00  0.00     0.039 A 
ATOM     31  C   UNL A   1      41.414  26.074  27.971  1.00  0.00     0.014 A 
ATOM     32  C   UNL A   1      42.930  27.784  27.190  1.00  0.00     0.014 A 
ATOM     33  C   UNL A   1      41.158  26.828  29.123  1.00  0.00     0.010 A 
ATOM     34  C   UNL A   1      42.716  28.510  28.369  1.00  0.00     0.010 A 
ATOM     35  C   UNL A   1      41.802  28.057  29.333  1.00  0.00    -0.014 A 
BRANCH  35  36
ATOM     36  C   UNL A   1      41.466  28.904  30.515  1.00  0.00     0.031 A 
ATOM     37  C   UNL A   1      42.290  28.806  31.776  1.00  0.00     0.074 A 
ATOM     38  C   UNL A   1      40.423  29.755  30.469  1.00  0.00     0.049 A 
ATOM     39  N   UNL A   1      42.145  29.440  32.914  1.00  0.00    -0.248 NA
ATOM     40  C   UNL A   1      43.413  27.855  31.763  1.00  0.00     0.031 C 
ATOM     41  C   UNL A   1      39.526  29.934  29.326  1.00  0.00     0.029 A 
ATOM     42  N   UNL A   1      39.937  30.631  31.410  1.00  0.00    -0.354 N 
ATOM     43  C   UNL A   1      43.145  28.955  33.752  1.00  0.00     0.074 A 
ATOM     44  C   UNL A   1      43.857  27.938  33.009  1.00  0.00     0.031 C 
ATOM     45  C   UNL A   1      38.614  30.874  29.625  1.00  0.00     0.029 A 
ATOM     46  C   UNL A   1      38.840  31.346  30.989  1.00  0.00     0.049 A 
ATOM     47  H   UNL A   1      40.338  30.737  32.304  1.00  0.00     0.167 HD
ATOM     48  C   UNL A   1      43.459  29.333  35.016  1.00  0.00     0.037 A 
ATOM     49  C   UNL A   1      38.101  32.277  31.625  1.00  0.00     0.037 A 
ATOM     50  C   UNL A   1      42.769  30.365  35.749  1.00  0.00     0.049 A 
ATOM     51  C   UNL A   1      38.477  32.693  33.023  1.00  0.00     0.074 A 
ATOM     52  C   UNL A   1      43.034  30.842  37.022  1.00  0.00     0.029 A 
ATOM     53  N   UNL A   1      41.682  31.083  35.274  1.00  0.00    -0.354 N 
ATOM     54  N   UNL A   1      39.448  32.249  33.785  1.00  0.00    -0.248 NA
ATOM     55  C   UNL A   1      37.664  33.750  33.643  1.00  0.00     0.031 C 
ATOM     56  C   UNL A   1      42.088  31.827  37.328  1.00  0.00     0.029 A 
ATOM     57  C   UNL A   1      41.263  31.996  36.228  1.00  0.00     0.049 A 
ATOM     58  H   UNL A   1      41.269  30.962  34.388  1.00  0.00     0.167 HD
ATOM     59  C   UNL A   1      39.387  32.999  34.956  1.00  0.00     0.074 A 
ATOM     60  C   UNL A   1      38.288  33.928  34.800  1.00  0.00     0.031 C 
ATOM     61  C   UNL A   1      40.176  32.929  36.057  1.00  0.00     0.037 A 
BRANCH  48  62
ATOM     62  C   UNL A   1      44.605  28.626  35.690  1.00  0.00     0.058 A 
ATOM     63  C   UNL A   1      45.927  29.084  35.569  1.00  0.00     0.135 A 
ATOM     64  C   UNL A   1      44.379  27.492  36.487  1.00  0.00     0.135 A 
ATOM     65  F   UNL A   1      46.205  30.156  34.809  1.00  0.00    -0.206 F 
ATOM     66  C   UNL A   1      46.988  28.423  36.182  1.00  0.00     0.059 A 
ATOM     67  C   UNL A   1      45.420  26.832  37.134  1.00  0.00     0.059 A 
ATOM     68  F   UNL A   1      43.135  27.013  36.643  1.00  0.00    -0.206 F 
ATOM     69  C   UNL A   1      46.724  27.295  36.961  1.00  0.00     0.060 A 
BRANCH  69  70
ATOM     70  S   UNL A   1      48.110  26.443  37.744  1.00  0.00     0.124 S 
ATOM     71  O   UNL A   1      49.235  27.276  37.329  1.00  0.00    -0.237 OA
ATOM     72  O   UNL A   1      47.760  26.511  39.160  1.00  0.00    -0.237 OA
ATOM     73  O   UNL A   1      48.066  25.109  37.154  1.00  0.00    -0.744 OA
ENDBRANCH  69  70
ENDBRANCH  48  62
BRANCH  49  74
ATOM     74  C   UNL A   1      36.949  32.913  30.931  1.00  0.00     0.058 A 
ATOM     75  C   UNL A   1      35.630  32.543  31.234  1.00  0.00     0.135 A 
ATOM     76  C   UNL A   1      37.142  33.900  29.953  1.00  0.00     0.135 A 
ATOM     77  F   UNL A   1      35.393  31.597  32.155  1.00  0.00    -0.206 F 
ATOM     78  C   UNL A   1      34.543  33.116  30.581  1.00  0.00     0.059 A 
ATOM     79  C   UNL A   1      36.071  34.508  29.305  1.00  0.00     0.059 A 
ATOM     80  F   UNL A   1      38.385  34.299  29.637  1.00  0.00    -0.206 F 
ATOM     81  C   UNL A   1      34.775  34.100  29.618  1.00  0.00     0.060 A 
BRANCH  81  82
ATOM     82  S   UNL A   1      33.356  34.870  28.809  1.00  0.00     0.124 S 
ATOM     83  O   UNL A   1      32.986  33.852  27.832  1.00  0.00    -0.237 OA
ATOM     84  O   UNL A   1      32.429  35.053  29.921  1.00  0.00    -0.237 OA
ATOM     85  O   UNL A   1      33.912  36.102  28.257  1.00  0.00    -0.744 OA
ENDBRANCH  81  82
ENDBRANCH  49  74
BRANCH  61  86
ATOM     86  C   UNL A   1      39.920  33.923  37.157  1.00  0.00     0.058 A 
ATOM     87  C   UNL A   1      39.103  33.622  38.258  1.00  0.00     0.135 A 
ATOM     88  C   UNL A   1      40.527  35.189  37.120  1.00  0.00     0.135 A 
ATOM     89  F   UNL A   1      38.497  32.427  38.343  1.00  0.00    -0.206 F 
ATOM     90  C   UNL A   1      38.865  34.555  39.264  1.00  0.00     0.059 A 
ATOM     91  C   UNL A   1      40.326  36.127  38.128  1.00  0.00     0.059 A 
ATOM     92  F   UNL A   1      41.330  35.524  36.097  1.00  0.00    -0.206 F 
ATOM     93  C   UNL A   1      39.478  35.807  39.188  1.00  0.00     0.060 A 
BRANCH  93  94
ATOM     94  S   UNL A   1      39.170  37.008  40.500  1.00  0.00     0.124 S 
ATOM     95  O   UNL A   1      38.405  36.210  41.453  1.00  0.00    -0.237 OA
ATOM     96  O   UNL A   1      40.521  37.370  40.918  1.00  0.00    -0.237 OA
ATOM     97  O   UNL A   1      38.425  38.066  39.824  1.00  0.00    -0.744 OA
ENDBRANCH  93  94
ENDBRANCH  61  86
ENDBRANCH  35  36
ENDBRANCH  27  30
ENDBRANCH  25  26
ENDBRANCH   1  25
TORSDOF 16
ENDMDL
