MODEL 1
REMARK VINA RESULT:     -12.2      0.000      0.000
REMARK SMILES O=C(NCCCNC(=O)[C@@H]1CCCC[C@@H]1C(=O)Nc1nc(-c2ccc(Cl)c(Cl)c2)cs1)c1ccc(-c2c3nc(c(-c4c(F)cc(S(=O)(=O)[O-])cc4F)c4ccc([nH]4)c(-c4c(F)cc(S(=O)(=O)[O-])cc4F)c4nc(c(-c5c(F)cc(S(=O)(=O)[O-])cc5F)c5ccc2[nH]5)C=C4)C=C3)cc1
REMARK SMILES IDX 5 1 4 2 3 3 1 4 2 5 32 7 33 8 97 9 34 10 96 11 35 12 36 13
REMARK SMILES IDX 37 14 90 15 38 16 95 17 89 18 91 19 39 20 94 21 88 22 87 23
REMARK SMILES IDX 40 25 74 26 53 27 73 28 54 29 57 30 72 31 92 32 55 33 56 34
REMARK SMILES IDX 71 36 93 37 58 38 41 39 42 40 51 41 43 42 44 43 50 44 52 45
REMARK SMILES IDX 45 46 46 47 47 48 48 49 49 50 75 51 76 52 85 53 77 54 78 55
REMARK SMILES IDX 84 56 86 57 79 58 80 59 81 60 82 61 83 62 59 63 60 64 69 65
REMARK SMILES IDX 61 66 62 67 68 68 70 69 63 70 64 71 65 72 66 73 67 74 6 75
REMARK SMILES IDX 7 76 8 77 9 79 10 80 11 81 15 82 12 83 14 84 13 85 16 86
REMARK SMILES IDX 17 87 18 88 19 90 20 91 31 92 21 93 30 94 22 95 23 96 29 97
REMARK SMILES IDX 24 98 27 99 25 100 28 101 26 102
REMARK H PARENT 3 6 91 24 57 35 7 78 18 89
REMARK Flexibility Score: inf
ROOT
ATOM      1  C   UNL A   1      33.044  27.468  25.539  1.00  0.00     0.042 C 
ENDROOT
BRANCH   1   2
ATOM      2  C   UNL A   1      33.746  27.939  26.807  1.00  0.00     0.118 C 
BRANCH   2   3
ATOM      3  N   UNL A   1      33.561  29.370  27.034  1.00  0.00    -0.352 N 
ATOM      4  O   UNL A   1      33.896  31.369  28.006  1.00  0.00    -0.269 OA
ATOM      5  C   UNL A   1      34.353  30.273  27.705  1.00  0.00     0.251 C 
ATOM      6  H   UNL A   1      32.740  29.748  26.645  1.00  0.00     0.163 HD
BRANCH   5   7
ATOM      7  C   UNL A   1      35.746  29.921  28.056  1.00  0.00     0.039 A 
ATOM      8  C   UNL A   1      36.764  30.070  27.116  1.00  0.00     0.014 A 
ATOM      9  C   UNL A   1      36.050  29.481  29.349  1.00  0.00     0.014 A 
ATOM     10  C   UNL A   1      38.043  29.623  27.406  1.00  0.00     0.010 A 
ATOM     11  C   UNL A   1      37.369  29.146  29.679  1.00  0.00     0.010 A 
ATOM     12  C   UNL A   1      38.374  29.193  28.703  1.00  0.00    -0.014 A 
BRANCH  12  13
ATOM     13  C   UNL A   1      39.800  28.902  28.995  1.00  0.00     0.031 A 
ATOM     14  C   UNL A   1      40.429  27.587  28.632  1.00  0.00     0.074 A 
ATOM     15  C   UNL A   1      40.547  29.894  29.521  1.00  0.00     0.049 A 
ATOM     16  N   UNL A   1      41.683  27.222  28.739  1.00  0.00    -0.248 NA
ATOM     17  C   UNL A   1      39.547  26.541  28.093  1.00  0.00     0.031 C 
ATOM     18  C   UNL A   1      40.028  31.202  29.939  1.00  0.00     0.029 A 
ATOM     19  N   UNL A   1      41.894  29.989  29.753  1.00  0.00    -0.354 N 
ATOM     20  C   UNL A   1      41.741  25.909  28.288  1.00  0.00     0.074 A 
ATOM     21  C   UNL A   1      40.388  25.526  27.937  1.00  0.00     0.031 C 
ATOM     22  C   UNL A   1      41.049  31.989  30.300  1.00  0.00     0.029 A 
ATOM     23  C   UNL A   1      42.285  31.224  30.214  1.00  0.00     0.049 A 
ATOM     24  H   UNL A   1      42.520  29.244  29.604  1.00  0.00     0.167 HD
ATOM     25  C   UNL A   1      42.825  25.106  28.168  1.00  0.00     0.037 A 
ATOM     26  C   UNL A   1      43.503  31.689  30.545  1.00  0.00     0.037 A 
ATOM     27  C   UNL A   1      44.167  25.506  28.515  1.00  0.00     0.049 A 
ATOM     28  C   UNL A   1      44.686  30.779  30.394  1.00  0.00     0.074 A 
ATOM     29  C   UNL A   1      45.336  24.767  28.432  1.00  0.00     0.029 A 
ATOM     30  N   UNL A   1      44.522  26.755  29.004  1.00  0.00    -0.354 N 
ATOM     31  N   UNL A   1      44.719  29.543  29.957  1.00  0.00    -0.248 NA
ATOM     32  C   UNL A   1      45.992  31.322  30.781  1.00  0.00     0.031 C 
ATOM     33  C   UNL A   1      46.390  25.557  28.903  1.00  0.00     0.029 A 
ATOM     34  C   UNL A   1      45.889  26.804  29.237  1.00  0.00     0.049 A 
ATOM     35  H   UNL A   1      43.896  27.498  29.162  1.00  0.00     0.167 HD
ATOM     36  C   UNL A   1      46.050  29.155  30.021  1.00  0.00     0.074 A 
ATOM     37  C   UNL A   1      46.795  30.304  30.498  1.00  0.00     0.031 C 
ATOM     38  C   UNL A   1      46.606  27.955  29.725  1.00  0.00     0.037 A 
BRANCH  25  39
ATOM     39  C   UNL A   1      42.613  23.710  27.645  1.00  0.00     0.058 A 
ATOM     40  C   UNL A   1      42.607  23.434  26.268  1.00  0.00     0.135 A 
ATOM     41  C   UNL A   1      42.478  22.626  28.528  1.00  0.00     0.135 A 
ATOM     42  F   UNL A   1      42.715  24.433  25.378  1.00  0.00    -0.206 F 
ATOM     43  C   UNL A   1      42.461  22.137  25.786  1.00  0.00     0.059 A 
ATOM     44  C   UNL A   1      42.355  21.316  28.068  1.00  0.00     0.059 A 
ATOM     45  F   UNL A   1      42.476  22.831  29.854  1.00  0.00    -0.206 F 
ATOM     46  C   UNL A   1      42.339  21.083  26.694  1.00  0.00     0.060 A 
BRANCH  46  47
ATOM     47  S   UNL A   1      42.177  19.404  26.050  1.00  0.00     0.124 S 
ATOM     48  O   UNL A   1      40.740  19.323  25.803  1.00  0.00    -0.237 OA
ATOM     49  O   UNL A   1      43.021  19.442  24.861  1.00  0.00    -0.237 OA
ATOM     50  O   UNL A   1      42.674  18.571  27.140  1.00  0.00    -0.744 OA
ENDBRANCH  46  47
ENDBRANCH  25  39
BRANCH  26  51
ATOM     51  C   UNL A   1      43.648  33.071  31.077  1.00  0.00     0.058 A 
ATOM     52  C   UNL A   1      43.829  34.170  30.226  1.00  0.00     0.135 A 
ATOM     53  C   UNL A   1      43.589  33.317  32.458  1.00  0.00     0.135 A 
ATOM     54  F   UNL A   1      43.894  33.987  28.898  1.00  0.00    -0.206 F 
ATOM     55  C   UNL A   1      43.968  35.461  30.725  1.00  0.00     0.059 A 
ATOM     56  C   UNL A   1      43.691  34.602  32.979  1.00  0.00     0.059 A 
ATOM     57  F   UNL A   1      43.395  32.302  33.315  1.00  0.00    -0.206 F 
ATOM     58  C   UNL A   1      43.898  35.666  32.105  1.00  0.00     0.060 A 
BRANCH  58  59
ATOM     59  S   UNL A   1      44.043  37.347  32.747  1.00  0.00     0.124 S 
ATOM     60  O   UNL A   1      45.389  37.329  33.308  1.00  0.00    -0.237 OA
ATOM     61  O   UNL A   1      43.862  38.155  31.545  1.00  0.00    -0.237 OA
ATOM     62  O   UNL A   1      42.954  37.429  33.716  1.00  0.00    -0.744 OA
ENDBRANCH  58  59
ENDBRANCH  26  51
BRANCH  38  63
ATOM     63  C   UNL A   1      48.093  27.840  29.909  1.00  0.00     0.058 A 
ATOM     64  C   UNL A   1      48.987  28.162  28.874  1.00  0.00     0.135 A 
ATOM     65  C   UNL A   1      48.630  27.403  31.130  1.00  0.00     0.135 A 
ATOM     66  F   UNL A   1      48.523  28.576  27.685  1.00  0.00    -0.206 F 
ATOM     67  C   UNL A   1      50.360  28.013  29.030  1.00  0.00     0.059 A 
ATOM     68  C   UNL A   1      50.002  27.274  31.318  1.00  0.00     0.059 A 
ATOM     69  F   UNL A   1      47.818  27.094  32.154  1.00  0.00    -0.206 F 
ATOM     70  C   UNL A   1      50.857  27.562  30.254  1.00  0.00     0.060 A 
BRANCH  70  71
ATOM     71  S   UNL A   1      52.641  27.366  30.444  1.00  0.00     0.124 S 
ATOM     72  O   UNL A   1      52.754  27.084  31.872  1.00  0.00    -0.237 OA
ATOM     73  O   UNL A   1      52.932  26.248  29.551  1.00  0.00    -0.237 OA
ATOM     74  O   UNL A   1      53.172  28.657  30.015  1.00  0.00    -0.744 OA
ENDBRANCH  70  71
ENDBRANCH  38  63
ENDBRANCH  12  13
ENDBRANCH   5   7
ENDBRANCH   2   3
ENDBRANCH   1   2
BRANCH   1  75
ATOM     75  C   UNL A   1      33.981  27.437  24.340  1.00  0.00     0.117 C 
BRANCH  75  76
ATOM     76  N   UNL A   1      33.675  26.331  23.458  1.00  0.00    -0.356 N 
ATOM     77  C   UNL A   1      34.134  25.063  23.360  1.00  0.00     0.223 C 
ATOM     78  H   UNL A   1      32.987  26.547  22.788  1.00  0.00     0.163 HD
ATOM     79  O   UNL A   1      33.700  24.433  22.385  1.00  0.00    -0.275 OA
BRANCH  77  80
ATOM     80  C   UNL A   1      34.995  24.342  24.418  1.00  0.00     0.091 C 
ATOM     81  C   UNL A   1      36.183  23.477  23.979  1.00  0.00     0.014 C 
ATOM     82  C   UNL A   1      34.032  23.578  25.378  1.00  0.00     0.091 C 
ATOM     83  C   UNL A   1      36.869  22.737  25.125  1.00  0.00     0.001 C 
ATOM     84  C   UNL A   1      34.805  22.886  26.514  1.00  0.00     0.014 C 
ATOM     85  C   UNL A   1      35.892  21.960  25.983  1.00  0.00     0.001 C 
BRANCH  82  86
ATOM     86  C   UNL A   1      33.163  22.539  24.646  1.00  0.00     0.230 C 
ATOM     87  O   UNL A   1      33.653  21.501  24.189  1.00  0.00    -0.274 OA
ATOM     88  N   UNL A   1      31.805  22.669  24.609  1.00  0.00    -0.302 N 
ATOM     89  H   UNL A   1      31.289  21.863  24.380  1.00  0.00     0.172 HD
BRANCH  88  90
ATOM     90  C   UNL A   1      31.094  23.805  24.858  1.00  0.00     0.189 A 
ATOM     91  N   UNL A   1      30.866  24.817  24.064  1.00  0.00    -0.220 NA
ATOM     92  S   UNL A   1      30.395  23.891  26.413  1.00  0.00    -0.105 S 
ATOM     93  C   UNL A   1      30.048  25.724  24.697  1.00  0.00     0.084 A 
ATOM     94  C   UNL A   1      29.745  25.434  26.013  1.00  0.00     0.097 A 
BRANCH  93  95
ATOM     95  C   UNL A   1      29.492  26.847  23.974  1.00  0.00     0.003 A 
ATOM     96  C   UNL A   1      28.100  27.007  23.944  1.00  0.00     0.012 A 
ATOM     97  C   UNL A   1      30.310  27.750  23.291  1.00  0.00     0.032 A 
ATOM     98  C   UNL A   1      27.529  28.080  23.258  1.00  0.00     0.023 A 
ATOM     99  C   UNL A   1      29.736  28.820  22.594  1.00  0.00     0.060 A 
ATOM    100  C   UNL A   1      28.345  28.991  22.583  1.00  0.00     0.059 A 
ATOM    101  Cl  UNL A   1      30.802  29.899  21.763  1.00  0.00    -0.083 Cl
ATOM    102  Cl  UNL A   1      27.575  30.299  21.759  1.00  0.00    -0.083 Cl
ENDBRANCH  93  95
ENDBRANCH  88  90
ENDBRANCH  82  86
ENDBRANCH  77  80
ENDBRANCH  75  76
ENDBRANCH   1  75
TORSDOF 16
ENDMDL
MODEL 2
REMARK VINA RESULT:     -12.2      4.926      9.370
REMARK SMILES O=C(NCCCNC(=O)[C@@H]1CCCC[C@@H]1C(=O)Nc1nc(-c2ccc(Cl)c(Cl)c2)cs1)c1ccc(-c2c3nc(c(-c4c(F)cc(S(=O)(=O)[O-])cc4F)c4ccc([nH]4)c(-c4c(F)cc(S(=O)(=O)[O-])cc4F)c4nc(c(-c5c(F)cc(S(=O)(=O)[O-])cc5F)c5ccc2[nH]5)C=C4)C=C3)cc1
REMARK SMILES IDX 5 1 4 2 3 3 1 4 2 5 32 7 33 8 97 9 34 10 96 11 35 12 36 13
REMARK SMILES IDX 37 14 90 15 38 16 95 17 89 18 91 19 39 20 94 21 88 22 87 23
REMARK SMILES IDX 40 25 74 26 53 27 73 28 54 29 57 30 72 31 92 32 55 33 56 34
REMARK SMILES IDX 71 36 93 37 58 38 41 39 42 40 51 41 43 42 44 43 50 44 52 45
REMARK SMILES IDX 45 46 46 47 47 48 48 49 49 50 75 51 76 52 85 53 77 54 78 55
REMARK SMILES IDX 84 56 86 57 79 58 80 59 81 60 82 61 83 62 59 63 60 64 69 65
REMARK SMILES IDX 61 66 62 67 68 68 70 69 63 70 64 71 65 72 66 73 67 74 6 75
REMARK SMILES IDX 7 76 8 77 9 79 10 80 11 81 15 82 12 83 14 84 13 85 16 86
REMARK SMILES IDX 17 87 18 88 19 90 20 91 31 92 21 93 30 94 22 95 23 96 29 97
REMARK SMILES IDX 24 98 27 99 25 100 28 101 26 102
REMARK H PARENT 3 6 91 24 57 35 7 78 18 89
REMARK Flexibility Score: inf
ROOT
ATOM      1  C   UNL A   1      39.372  22.068  26.505  1.00  0.00     0.042 C 
ENDROOT
BRANCH   1   2
ATOM      2  C   UNL A   1      39.588  23.504  26.969  1.00  0.00     0.118 C 
BRANCH   2   3
ATOM      3  N   UNL A   1      40.424  24.258  26.039  1.00  0.00    -0.352 N 
ATOM      4  O   UNL A   1      41.302  26.082  25.061  1.00  0.00    -0.269 OA
ATOM      5  C   UNL A   1      40.819  25.575  26.067  1.00  0.00     0.251 C 
ATOM      6  H   UNL A   1      40.758  23.742  25.270  1.00  0.00     0.163 HD
BRANCH   5   7
ATOM      7  C   UNL A   1      40.663  26.371  27.304  1.00  0.00     0.039 A 
ATOM      8  C   UNL A   1      41.457  27.496  27.518  1.00  0.00     0.014 A 
ATOM      9  C   UNL A   1      39.685  26.020  28.242  1.00  0.00     0.014 A 
ATOM     10  C   UNL A   1      41.396  28.164  28.730  1.00  0.00     0.010 A 
ATOM     11  C   UNL A   1      39.540  26.773  29.413  1.00  0.00     0.010 A 
ATOM     12  C   UNL A   1      40.411  27.839  29.678  1.00  0.00    -0.014 A 
BRANCH  12  13
ATOM     13  C   UNL A   1      40.283  28.711  30.873  1.00  0.00     0.031 A 
ATOM     14  C   UNL A   1      41.204  28.576  32.052  1.00  0.00     0.074 A 
ATOM     15  C   UNL A   1      39.363  29.695  30.834  1.00  0.00     0.049 A 
ATOM     16  N   UNL A   1      41.275  29.324  33.125  1.00  0.00    -0.248 NA
ATOM     17  C   UNL A   1      42.161  27.459  32.039  1.00  0.00     0.031 C 
ATOM     18  C   UNL A   1      38.395  29.896  29.749  1.00  0.00     0.029 A 
ATOM     19  N   UNL A   1      39.113  30.736  31.690  1.00  0.00    -0.354 N 
ATOM     20  C   UNL A   1      42.275  28.769  33.915  1.00  0.00     0.074 A 
ATOM     21  C   UNL A   1      42.761  27.599  33.215  1.00  0.00     0.031 C 
ATOM     22  C   UNL A   1      37.715  31.029  29.965  1.00  0.00     0.029 A 
ATOM     23  C   UNL A   1      38.139  31.596  31.238  1.00  0.00     0.049 A 
ATOM     24  H   UNL A   1      39.584  30.855  32.546  1.00  0.00     0.167 HD
ATOM     25  C   UNL A   1      42.746  29.206  35.107  1.00  0.00     0.037 A 
ATOM     26  C   UNL A   1      37.633  32.713  31.790  1.00  0.00     0.037 A 
ATOM     27  C   UNL A   1      42.255  30.379  35.789  1.00  0.00     0.049 A 
ATOM     28  C   UNL A   1      38.181  33.176  33.107  1.00  0.00     0.074 A 
ATOM     29  C   UNL A   1      42.665  30.907  37.002  1.00  0.00     0.029 A 
ATOM     30  N   UNL A   1      41.251  31.211  35.314  1.00  0.00    -0.354 N 
ATOM     31  N   UNL A   1      39.133  32.640  33.833  1.00  0.00    -0.248 NA
ATOM     32  C   UNL A   1      37.588  34.389  33.681  1.00  0.00     0.031 C 
ATOM     33  C   UNL A   1      41.885  32.036  37.276  1.00  0.00     0.029 A 
ATOM     34  C   UNL A   1      41.020  32.241  36.214  1.00  0.00     0.049 A 
ATOM     35  H   UNL A   1      40.772  31.089  34.462  1.00  0.00     0.167 HD
ATOM     36  C   UNL A   1      39.251  33.449  34.956  1.00  0.00     0.074 A 
ATOM     37  C   UNL A   1      38.304  34.533  34.788  1.00  0.00     0.031 C 
ATOM     38  C   UNL A   1      40.062  33.302  36.033  1.00  0.00     0.037 A 
BRANCH  25  39
ATOM     39  C   UNL A   1      43.848  28.415  35.761  1.00  0.00     0.058 A 
ATOM     40  C   UNL A   1      43.571  27.360  36.645  1.00  0.00     0.135 A 
ATOM     41  C   UNL A   1      45.195  28.670  35.452  1.00  0.00     0.135 A 
ATOM     42  F   UNL A   1      42.303  27.082  36.989  1.00  0.00    -0.206 F 
ATOM     43  C   UNL A   1      44.587  26.596  37.210  1.00  0.00     0.059 A 
ATOM     44  C   UNL A   1      46.228  27.903  35.988  1.00  0.00     0.059 A 
ATOM     45  F   UNL A   1      45.518  29.667  34.614  1.00  0.00    -0.206 F 
ATOM     46  C   UNL A   1      45.914  26.874  36.872  1.00  0.00     0.060 A 
BRANCH  46  47
ATOM     47  S   UNL A   1      47.219  25.856  37.596  1.00  0.00     0.124 S 
ATOM     48  O   UNL A   1      47.779  25.214  36.410  1.00  0.00    -0.237 OA
ATOM     49  O   UNL A   1      48.071  26.851  38.239  1.00  0.00    -0.237 OA
ATOM     50  O   UNL A   1      46.497  24.972  38.505  1.00  0.00    -0.744 OA
ENDBRANCH  46  47
ENDBRANCH  25  39
BRANCH  26  51
ATOM     51  C   UNL A   1      36.530  33.441  31.108  1.00  0.00     0.058 A 
ATOM     52  C   UNL A   1      36.750  34.171  29.931  1.00  0.00     0.135 A 
ATOM     53  C   UNL A   1      35.222  33.402  31.617  1.00  0.00     0.135 A 
ATOM     54  F   UNL A   1      37.983  34.241  29.405  1.00  0.00    -0.206 F 
ATOM     55  C   UNL A   1      35.719  34.856  29.296  1.00  0.00     0.059 A 
ATOM     56  C   UNL A   1      34.168  34.049  30.982  1.00  0.00     0.059 A 
ATOM     57  F   UNL A   1      34.953  32.698  32.729  1.00  0.00    -0.206 F 
ATOM     58  C   UNL A   1      34.430  34.787  29.830  1.00  0.00     0.060 A 
BRANCH  58  59
ATOM     59  S   UNL A   1      33.087  35.646  28.983  1.00  0.00     0.124 S 
ATOM     60  O   UNL A   1      33.811  36.699  28.281  1.00  0.00    -0.237 OA
ATOM     61  O   UNL A   1      32.522  34.591  28.147  1.00  0.00    -0.237 OA
ATOM     62  O   UNL A   1      32.231  36.090  30.079  1.00  0.00    -0.744 OA
ENDBRANCH  58  59
ENDBRANCH  26  51
BRANCH  38  63
ATOM     63  C   UNL A   1      39.950  34.349  37.104  1.00  0.00     0.058 A 
ATOM     64  C   UNL A   1      39.120  34.168  38.223  1.00  0.00     0.135 A 
ATOM     65  C   UNL A   1      40.677  35.546  37.011  1.00  0.00     0.135 A 
ATOM     66  F   UNL A   1      38.398  33.044  38.354  1.00  0.00    -0.206 F 
ATOM     67  C   UNL A   1      38.982  35.156  39.191  1.00  0.00     0.059 A 
ATOM     68  C   UNL A   1      40.577  36.536  37.983  1.00  0.00     0.059 A 
ATOM     69  F   UNL A   1      41.493  35.763  35.967  1.00  0.00    -0.206 F 
ATOM     70  C   UNL A   1      39.710  36.340  39.058  1.00  0.00     0.060 A 
BRANCH  70  71
ATOM     71  S   UNL A   1      39.520  37.619  40.318  1.00  0.00     0.124 S 
ATOM     72  O   UNL A   1      40.892  38.096  40.460  1.00  0.00    -0.237 OA
ATOM     73  O   UNL A   1      38.588  38.547  39.685  1.00  0.00    -0.237 OA
ATOM     74  O   UNL A   1      38.986  36.889  41.464  1.00  0.00    -0.744 OA
ENDBRANCH  70  71
ENDBRANCH  38  63
ENDBRANCH  12  13
ENDBRANCH   5   7
ENDBRANCH   2   3
ENDBRANCH   1   2
BRANCH   1  75
ATOM     75  C   UNL A   1      38.059  21.897  25.754  1.00  0.00     0.117 C 
BRANCH  75  76
ATOM     76  N   UNL A   1      37.224  23.074  25.874  1.00  0.00    -0.356 N 
ATOM     77  C   UNL A   1      35.907  23.306  25.677  1.00  0.00     0.223 C 
ATOM     78  H   UNL A   1      37.720  23.874  26.160  1.00  0.00     0.163 HD
ATOM     79  O   UNL A   1      35.574  24.495  25.777  1.00  0.00    -0.275 OA
BRANCH  77  80
ATOM     80  C   UNL A   1      34.827  22.218  25.501  1.00  0.00     0.091 C 
ATOM     81  C   UNL A   1      35.215  20.832  24.970  1.00  0.00     0.014 C 
ATOM     82  C   UNL A   1      33.642  22.845  24.703  1.00  0.00     0.091 C 
ATOM     83  C   UNL A   1      34.027  19.900  24.741  1.00  0.00     0.001 C 
ATOM     84  C   UNL A   1      32.483  21.847  24.543  1.00  0.00     0.014 C 
ATOM     85  C   UNL A   1      32.938  20.540  23.905  1.00  0.00     0.001 C 
BRANCH  82  86
ATOM     86  C   UNL A   1      34.067  23.359  23.315  1.00  0.00     0.230 C 
ATOM     87  O   UNL A   1      34.780  22.680  22.569  1.00  0.00    -0.274 OA
ATOM     88  N   UNL A   1      33.549  24.518  22.814  1.00  0.00    -0.302 N 
ATOM     89  H   UNL A   1      33.631  24.657  21.843  1.00  0.00     0.172 HD
BRANCH  88  90
ATOM     90  C   UNL A   1      32.928  25.502  23.525  1.00  0.00     0.189 A 
ATOM     91  N   UNL A   1      33.442  26.325  24.401  1.00  0.00    -0.220 NA
ATOM     92  S   UNL A   1      31.262  25.684  23.201  1.00  0.00    -0.105 S 
ATOM     93  C   UNL A   1      32.472  27.200  24.833  1.00  0.00     0.084 A 
ATOM     94  C   UNL A   1      31.199  26.962  24.352  1.00  0.00     0.097 A 
BRANCH  93  95
ATOM     95  C   UNL A   1      32.818  28.332  25.665  1.00  0.00     0.003 A 
ATOM     96  C   UNL A   1      33.983  28.268  26.440  1.00  0.00     0.012 A 
ATOM     97  C   UNL A   1      32.004  29.466  25.727  1.00  0.00     0.032 A 
ATOM     98  C   UNL A   1      34.350  29.342  27.252  1.00  0.00     0.023 A 
ATOM     99  C   UNL A   1      32.366  30.539  26.550  1.00  0.00     0.060 A 
ATOM    100  C   UNL A   1      33.543  30.481  27.308  1.00  0.00     0.059 A 
ATOM    101  Cl  UNL A   1      31.314  31.911  26.588  1.00  0.00    -0.083 Cl
ATOM    102  Cl  UNL A   1      34.057  31.778  28.328  1.00  0.00    -0.083 Cl
ENDBRANCH  93  95
ENDBRANCH  88  90
ENDBRANCH  82  86
ENDBRANCH  77  80
ENDBRANCH  75  76
ENDBRANCH   1  75
TORSDOF 16
ENDMDL
MODEL 3
REMARK VINA RESULT:     -11.8      3.661      9.281
REMARK SMILES O=C(NCCCNC(=O)[C@@H]1CCCC[C@@H]1C(=O)Nc1nc(-c2ccc(Cl)c(Cl)c2)cs1)c1ccc(-c2c3nc(c(-c4c(F)cc(S(=O)(=O)[O-])cc4F)c4ccc([nH]4)c(-c4c(F)cc(S(=O)(=O)[O-])cc4F)c4nc(c(-c5c(F)cc(S(=O)(=O)[O-])cc5F)c5ccc2[nH]5)C=C4)C=C3)cc1
REMARK SMILES IDX 5 1 4 2 3 3 1 4 2 5 32 7 33 8 97 9 34 10 96 11 35 12 36 13
REMARK SMILES IDX 37 14 90 15 38 16 95 17 89 18 91 19 39 20 94 21 88 22 87 23
REMARK SMILES IDX 40 25 74 26 53 27 73 28 54 29 57 30 72 31 92 32 55 33 56 34
REMARK SMILES IDX 71 36 93 37 58 38 41 39 42 40 51 41 43 42 44 43 50 44 52 45
REMARK SMILES IDX 45 46 46 47 47 48 48 49 49 50 75 51 76 52 85 53 77 54 78 55
REMARK SMILES IDX 84 56 86 57 79 58 80 59 81 60 82 61 83 62 59 63 60 64 69 65
REMARK SMILES IDX 61 66 62 67 68 68 70 69 63 70 64 71 65 72 66 73 67 74 6 75
REMARK SMILES IDX 7 76 8 77 9 79 10 80 11 81 15 82 12 83 14 84 13 85 16 86
REMARK SMILES IDX 17 87 18 88 19 90 20 91 31 92 21 93 30 94 22 95 23 96 29 97
REMARK SMILES IDX 24 98 27 99 25 100 28 101 26 102
REMARK H PARENT 3 6 91 24 57 35 7 78 18 89
REMARK Flexibility Score: inf
ROOT
ATOM      1  C   UNL A   1      35.470  23.900  25.684  1.00  0.00     0.042 C 
ENDROOT
BRANCH   1   2
ATOM      2  C   UNL A   1      36.785  23.882  24.914  1.00  0.00     0.118 C 
BRANCH   2   3
ATOM      3  N   UNL A   1      37.638  22.768  25.318  1.00  0.00    -0.352 N 
ATOM      4  O   UNL A   1      39.518  21.752  26.020  1.00  0.00    -0.269 OA
ATOM      5  C   UNL A   1      38.828  22.766  26.009  1.00  0.00     0.251 C 
ATOM      6  H   UNL A   1      37.310  21.878  25.056  1.00  0.00     0.163 HD
BRANCH   5   7
ATOM      7  C   UNL A   1      39.270  23.978  26.732  1.00  0.00     0.039 A 
ATOM      8  C   UNL A   1      38.928  24.157  28.071  1.00  0.00     0.014 A 
ATOM      9  C   UNL A   1      40.070  24.926  26.084  1.00  0.00     0.014 A 
ATOM     10  C   UNL A   1      39.235  25.349  28.708  1.00  0.00     0.010 A 
ATOM     11  C   UNL A   1      40.485  26.074  26.769  1.00  0.00     0.010 A 
ATOM     12  C   UNL A   1      40.051  26.306  28.082  1.00  0.00    -0.014 A 
BRANCH  12  13
ATOM     13  C   UNL A   1      40.493  27.474  28.885  1.00  0.00     0.031 A 
ATOM     14  C   UNL A   1      39.612  28.674  29.086  1.00  0.00     0.074 A 
ATOM     15  C   UNL A   1      41.685  27.390  29.509  1.00  0.00     0.049 A 
ATOM     16  N   UNL A   1      39.822  29.727  29.836  1.00  0.00    -0.248 NA
ATOM     17  C   UNL A   1      38.340  28.710  28.348  1.00  0.00     0.031 C 
ATOM     18  C   UNL A   1      42.635  26.281  29.357  1.00  0.00     0.029 A 
ATOM     19  N   UNL A   1      42.288  28.212  30.425  1.00  0.00    -0.354 N 
ATOM     20  C   UNL A   1      38.717  30.552  29.658  1.00  0.00     0.074 A 
ATOM     21  C   UNL A   1      37.853  29.894  28.701  1.00  0.00     0.031 C 
ATOM     22  C   UNL A   1      43.656  26.452  30.206  1.00  0.00     0.029 A 
ATOM     23  C   UNL A   1      43.478  27.717  30.906  1.00  0.00     0.049 A 
ATOM     24  H   UNL A   1      41.907  29.074  30.710  1.00  0.00     0.167 HD
ATOM     25  C   UNL A   1      38.449  31.741  30.249  1.00  0.00     0.037 A 
ATOM     26  C   UNL A   1      44.340  28.229  31.803  1.00  0.00     0.037 A 
ATOM     27  C   UNL A   1      39.319  32.380  31.207  1.00  0.00     0.049 A 
ATOM     28  C   UNL A   1      44.012  29.543  32.447  1.00  0.00     0.074 A 
ATOM     29  C   UNL A   1      39.140  33.586  31.864  1.00  0.00     0.029 A 
ATOM     30  N   UNL A   1      40.528  31.863  31.651  1.00  0.00    -0.354 N 
ATOM     31  N   UNL A   1      42.958  30.302  32.270  1.00  0.00    -0.248 NA
ATOM     32  C   UNL A   1      44.988  30.072  33.406  1.00  0.00     0.031 C 
ATOM     33  C   UNL A   1      40.256  33.814  32.677  1.00  0.00     0.029 A 
ATOM     34  C   UNL A   1      41.111  32.730  32.563  1.00  0.00     0.049 A 
ATOM     35  H   UNL A   1      40.916  31.006  31.360  1.00  0.00     0.167 HD
ATOM     36  C   UNL A   1      43.143  31.404  33.093  1.00  0.00     0.074 A 
ATOM     37  C   UNL A   1      44.391  31.189  33.800  1.00  0.00     0.031 C 
ATOM     38  C   UNL A   1      42.360  32.501  33.244  1.00  0.00     0.037 A 
BRANCH  25  39
ATOM     39  C   UNL A   1      37.167  32.438  29.880  1.00  0.00     0.058 A 
ATOM     40  C   UNL A   1      35.940  32.073  30.455  1.00  0.00     0.135 A 
ATOM     41  C   UNL A   1      37.173  33.525  28.989  1.00  0.00     0.135 A 
ATOM     42  F   UNL A   1      35.873  31.031  31.300  1.00  0.00    -0.206 F 
ATOM     43  C   UNL A   1      34.762  32.750  30.151  1.00  0.00     0.059 A 
ATOM     44  C   UNL A   1      36.010  34.232  28.689  1.00  0.00     0.059 A 
ATOM     45  F   UNL A   1      38.317  33.916  28.409  1.00  0.00    -0.206 F 
ATOM     46  C   UNL A   1      34.808  33.831  29.269  1.00  0.00     0.060 A 
BRANCH  46  47
ATOM     47  S   UNL A   1      33.275  34.714  28.906  1.00  0.00     0.124 S 
ATOM     48  O   UNL A   1      32.655  34.778  30.227  1.00  0.00    -0.237 OA
ATOM     49  O   UNL A   1      33.763  35.982  28.374  1.00  0.00    -0.237 OA
ATOM     50  O   UNL A   1      32.605  33.850  27.941  1.00  0.00    -0.744 OA
ENDBRANCH  46  47
ENDBRANCH  25  39
BRANCH  26  51
ATOM     51  C   UNL A   1      45.603  27.505  32.112  1.00  0.00     0.058 A 
ATOM     52  C   UNL A   1      45.653  26.504  33.093  1.00  0.00     0.135 A 
ATOM     53  C   UNL A   1      46.785  27.793  31.411  1.00  0.00     0.135 A 
ATOM     54  F   UNL A   1      44.551  26.193  33.792  1.00  0.00    -0.206 F 
ATOM     55  C   UNL A   1      46.835  25.831  33.385  1.00  0.00     0.059 A 
ATOM     56  C   UNL A   1      47.970  27.110  31.660  1.00  0.00     0.059 A 
ATOM     57  F   UNL A   1      46.784  28.727  30.446  1.00  0.00    -0.206 F 
ATOM     58  C   UNL A   1      47.989  26.142  32.661  1.00  0.00     0.060 A 
BRANCH  58  59
ATOM     59  S   UNL A   1      49.512  25.241  33.016  1.00  0.00     0.124 S 
ATOM     60  O   UNL A   1      50.303  26.262  33.693  1.00  0.00    -0.237 OA
ATOM     61  O   UNL A   1      49.036  24.143  33.852  1.00  0.00    -0.237 OA
ATOM     62  O   UNL A   1      49.985  24.849  31.692  1.00  0.00    -0.744 OA
ENDBRANCH  58  59
ENDBRANCH  26  51
BRANCH  38  63
ATOM     63  C   UNL A   1      42.841  33.541  34.216  1.00  0.00     0.058 A 
ATOM     64  C   UNL A   1      43.671  34.598  33.808  1.00  0.00     0.135 A 
ATOM     65  C   UNL A   1      42.471  33.479  35.568  1.00  0.00     0.135 A 
ATOM     66  F   UNL A   1      44.060  34.695  32.527  1.00  0.00    -0.206 F 
ATOM     67  C   UNL A   1      44.153  35.533  34.715  1.00  0.00     0.059 A 
ATOM     68  C   UNL A   1      42.917  34.422  36.488  1.00  0.00     0.059 A 
ATOM     69  F   UNL A   1      41.670  32.495  36.007  1.00  0.00    -0.206 F 
ATOM     70  C   UNL A   1      43.775  35.433  36.056  1.00  0.00     0.060 A 
BRANCH  70  71
ATOM     71  S   UNL A   1      44.410  36.650  37.228  1.00  0.00     0.124 S 
ATOM     72  O   UNL A   1      43.180  37.305  37.664  1.00  0.00    -0.237 OA
ATOM     73  O   UNL A   1      45.071  35.812  38.224  1.00  0.00    -0.237 OA
ATOM     74  O   UNL A   1      45.304  37.470  36.414  1.00  0.00    -0.744 OA
ENDBRANCH  70  71
ENDBRANCH  38  63
ENDBRANCH  12  13
ENDBRANCH   5   7
ENDBRANCH   2   3
ENDBRANCH   1   2
BRANCH   1  75
ATOM     75  C   UNL A   1      34.603  25.096  25.316  1.00  0.00     0.117 C 
BRANCH  75  76
ATOM     76  N   UNL A   1      33.299  25.016  25.941  1.00  0.00    -0.356 N 
ATOM     77  C   UNL A   1      32.363  25.936  26.264  1.00  0.00     0.223 C 
ATOM     78  H   UNL A   1      33.040  24.098  26.182  1.00  0.00     0.163 HD
ATOM     79  O   UNL A   1      31.400  25.488  26.903  1.00  0.00    -0.275 OA
BRANCH  77  80
ATOM     80  C   UNL A   1      32.345  27.399  25.776  1.00  0.00     0.091 C 
ATOM     81  C   UNL A   1      31.692  28.487  26.638  1.00  0.00     0.014 C 
ATOM     82  C   UNL A   1      31.811  27.408  24.310  1.00  0.00     0.091 C 
ATOM     83  C   UNL A   1      31.649  29.863  25.975  1.00  0.00     0.001 C 
ATOM     84  C   UNL A   1      31.828  28.827  23.715  1.00  0.00     0.014 C 
ATOM     85  C   UNL A   1      31.060  29.818  24.580  1.00  0.00     0.001 C 
BRANCH  82  86
ATOM     86  C   UNL A   1      30.392  26.823  24.192  1.00  0.00     0.230 C 
ATOM     87  O   UNL A   1      29.397  27.481  24.512  1.00  0.00    -0.274 OA
ATOM     88  N   UNL A   1      30.186  25.613  23.594  1.00  0.00    -0.302 N 
ATOM     89  H   UNL A   1      29.268  25.415  23.299  1.00  0.00     0.172 HD
BRANCH  88  90
ATOM     90  C   UNL A   1      31.125  24.653  23.364  1.00  0.00     0.189 A 
ATOM     91  N   UNL A   1      31.292  23.509  23.973  1.00  0.00    -0.220 NA
ATOM     92  S   UNL A   1      32.210  24.997  22.091  1.00  0.00    -0.105 S 
ATOM     93  C   UNL A   1      32.324  22.818  23.382  1.00  0.00     0.084 A 
ATOM     94  C   UNL A   1      33.001  23.497  22.387  1.00  0.00     0.097 A 
BRANCH  93  95
ATOM     95  C   UNL A   1      32.595  21.444  23.744  1.00  0.00     0.003 A 
ATOM     96  C   UNL A   1      33.192  21.179  24.984  1.00  0.00     0.012 A 
ATOM     97  C   UNL A   1      32.295  20.390  22.877  1.00  0.00     0.032 A 
ATOM     98  C   UNL A   1      33.464  19.865  25.368  1.00  0.00     0.023 A 
ATOM     99  C   UNL A   1      32.579  19.073  23.258  1.00  0.00     0.060 A 
ATOM    100  C   UNL A   1      33.157  18.808  24.507  1.00  0.00     0.059 A 
ATOM    101  Cl  UNL A   1      32.192  17.814  22.138  1.00  0.00    -0.083 Cl
ATOM    102  Cl  UNL A   1      33.515  17.206  25.045  1.00  0.00    -0.083 Cl
ENDBRANCH  93  95
ENDBRANCH  88  90
ENDBRANCH  82  86
ENDBRANCH  77  80
ENDBRANCH  75  76
ENDBRANCH   1  75
TORSDOF 16
ENDMDL
