MODEL 1
REMARK VINA RESULT:     -12.5      0.000      0.000
REMARK SMILES COc1ccc([C@H](C)NC(=O)[C@@H](C)n2cc(C(=O)NCCCNC(=O)c3ccc(-c4c5nc(c(-c6c(F)cc(S(=O)(=O)[O-])cc6F)c6ccc([nH]6)c(-c6c(F)cc(S(=O)(=O)[O-])cc6F)c6nc(c(-c7c(F)cc(S(=O)(=O)[O-])cc7F)c7ccc4[nH]7)C=C6)C=C5)cc3)cn2)cc1
REMARK SMILES IDX 20 1 19 2 17 3 18 4 16 6 14 7 15 8 93 9 92 10 12 11 13 12
REMARK SMILES IDX 10 13 9 14 11 16 7 17 8 18 6 19 3 20 4 21 95 22 5 23 94 24
REMARK SMILES IDX 2 25 1 26 21 27 22 28 23 29 24 30 25 32 26 33 27 34 91 35
REMARK SMILES IDX 28 36 90 37 29 38 30 39 31 40 84 41 32 42 89 43 83 44 85 45
REMARK SMILES IDX 33 46 88 47 82 48 81 49 34 51 68 52 47 53 67 54 48 55 51 56
REMARK SMILES IDX 66 57 86 58 49 59 50 60 65 62 87 63 52 64 35 65 36 66 45 67
REMARK SMILES IDX 37 68 38 69 44 70 46 71 39 72 40 73 41 74 42 75 43 76 69 77
REMARK SMILES IDX 70 78 79 79 71 80 72 81 78 82 80 83 73 84 74 85 75 86 76 87
REMARK SMILES IDX 77 88 53 89 54 90 63 91 55 92 56 93 62 94 64 95 57 96 58 97
REMARK SMILES IDX 59 98 60 99 61 100
REMARK H PARENT 19 5 9 15 23 31 85 50 51 61
REMARK Flexibility Score: inf
ROOT
ATOM      1  C   UNL A   1      37.077  22.404  25.723  1.00  0.00     0.118 C 
ENDROOT
BRANCH   1   2
ATOM      2  N   UNL A   1      36.476  22.455  24.396  1.00  0.00    -0.352 N 
ATOM      3  C   UNL A   1      35.442  23.222  23.917  1.00  0.00     0.254 C 
ATOM      4  O   UNL A   1      35.239  23.225  22.693  1.00  0.00    -0.269 OA
ATOM      5  H   UNL A   1      36.874  21.842  23.738  1.00  0.00     0.163 HD
BRANCH   3   6
ATOM      6  C   UNL A   1      34.658  24.057  24.800  1.00  0.00     0.077 A 
ATOM      7  N   UNL A   1      33.615  25.749  25.744  1.00  0.00    -0.260 N 
ATOM      8  C   UNL A   1      34.752  25.405  25.070  1.00  0.00     0.123 A 
ATOM      9  N   UNL A   1      32.925  24.679  26.181  1.00  0.00    -0.180 NA
ATOM     10  C   UNL A   1      33.576  23.651  25.621  1.00  0.00     0.149 A 
BRANCH   7  11
ATOM     11  C   UNL A   1      33.135  27.115  25.892  1.00  0.00     0.193 C 
ATOM     12  C   UNL A   1      34.005  28.054  26.719  1.00  0.00     0.044 C 
BRANCH  11  13
ATOM     13  C   UNL A   1      31.670  27.120  26.345  1.00  0.00     0.245 C 
ATOM     14  N   UNL A   1      30.622  26.927  25.496  1.00  0.00    -0.348 N 
ATOM     15  H   UNL A   1      29.735  26.955  25.922  1.00  0.00     0.164 HD
ATOM     16  O   UNL A   1      31.392  27.309  27.536  1.00  0.00    -0.273 OA
BRANCH  14  17
ATOM     17  C   UNL A   1      30.601  26.685  24.055  1.00  0.00     0.109 C 
ATOM     18  C   UNL A   1      29.924  25.345  23.751  1.00  0.00     0.036 C 
BRANCH  17  19
ATOM     19  C   UNL A   1      29.952  27.835  23.304  1.00  0.00    -0.026 A 
ATOM     20  C   UNL A   1      28.820  29.996  21.870  1.00  0.00     0.118 A 
ATOM     21  C   UNL A   1      30.200  29.805  21.892  1.00  0.00     0.047 A 
ATOM     22  C   UNL A   1      28.000  29.098  22.552  1.00  0.00     0.047 A 
ATOM     23  C   UNL A   1      30.758  28.733  22.592  1.00  0.00     0.009 A 
ATOM     24  C   UNL A   1      28.562  28.026  23.263  1.00  0.00     0.009 A 
BRANCH  20  25
ATOM     25  O   UNL A   1      28.398  31.047  21.107  1.00  0.00    -0.497 OA
ATOM     26  C   UNL A   1      28.143  32.269  21.786  1.00  0.00     0.278 C 
ENDBRANCH  20  25
ENDBRANCH  17  19
ENDBRANCH  14  17
ENDBRANCH  11  13
ENDBRANCH   7  11
ENDBRANCH   3   6
ENDBRANCH   1   2
BRANCH   1  27
ATOM     27  C   UNL A   1      38.520  21.880  25.702  1.00  0.00     0.042 C 
BRANCH  27  28
ATOM     28  C   UNL A   1      39.369  22.531  26.774  1.00  0.00     0.118 C 
BRANCH  28  29
ATOM     29  N   UNL A   1      40.806  22.213  26.666  1.00  0.00    -0.352 N 
ATOM     30  C   UNL A   1      41.882  23.079  26.473  1.00  0.00     0.251 C 
ATOM     31  H   UNL A   1      41.037  21.259  26.742  1.00  0.00     0.163 HD
ATOM     32  O   UNL A   1      42.966  22.660  26.086  1.00  0.00    -0.269 OA
BRANCH  30  33
ATOM     33  C   UNL A   1      41.694  24.509  26.775  1.00  0.00     0.039 A 
ATOM     34  C   UNL A   1      40.976  25.431  26.003  1.00  0.00     0.014 A 
ATOM     35  C   UNL A   1      42.237  24.920  27.962  1.00  0.00     0.014 A 
ATOM     36  C   UNL A   1      40.839  26.733  26.506  1.00  0.00     0.010 A 
ATOM     37  C   UNL A   1      41.506  25.856  28.593  1.00  0.00     0.010 A 
ATOM     38  C   UNL A   1      41.184  26.945  27.837  1.00  0.00    -0.014 A 
BRANCH  38  39
ATOM     39  C   UNL A   1      41.152  28.188  28.581  1.00  0.00     0.031 A 
ATOM     40  C   UNL A   1      42.231  29.127  28.223  1.00  0.00     0.074 A 
ATOM     41  C   UNL A   1      40.050  28.565  29.277  1.00  0.00     0.049 A 
ATOM     42  N   UNL A   1      43.299  29.385  28.897  1.00  0.00    -0.248 NA
ATOM     43  C   UNL A   1      42.230  29.687  26.862  1.00  0.00     0.031 C 
ATOM     44  C   UNL A   1      38.744  27.894  29.420  1.00  0.00     0.029 A 
ATOM     45  N   UNL A   1      39.847  29.724  29.958  1.00  0.00    -0.354 N 
ATOM     46  C   UNL A   1      43.971  30.351  28.159  1.00  0.00     0.074 A 
ATOM     47  C   UNL A   1      43.418  30.293  26.831  1.00  0.00     0.031 C 
ATOM     48  C   UNL A   1      37.838  28.751  29.947  1.00  0.00     0.029 A 
ATOM     49  C   UNL A   1      38.526  29.964  30.334  1.00  0.00     0.049 A 
ATOM     50  H   UNL A   1      40.579  30.349  30.169  1.00  0.00     0.167 HD
ATOM     51  C   UNL A   1      44.722  31.309  28.768  1.00  0.00     0.037 A 
ATOM     52  C   UNL A   1      38.060  31.115  30.887  1.00  0.00     0.037 A 
ATOM     53  C   UNL A   1      44.929  30.997  30.164  1.00  0.00     0.049 A 
ATOM     54  C   UNL A   1      39.254  31.800  31.472  1.00  0.00     0.074 A 
ATOM     55  C   UNL A   1      45.494  29.929  30.837  1.00  0.00     0.029 A 
ATOM     56  N   UNL A   1      44.123  31.628  31.086  1.00  0.00    -0.354 N 
ATOM     57  N   UNL A   1      39.962  31.291  32.451  1.00  0.00    -0.248 NA
ATOM     58  C   UNL A   1      39.964  32.746  30.622  1.00  0.00     0.031 C 
ATOM     59  C   UNL A   1      44.615  29.680  31.934  1.00  0.00     0.029 A 
ATOM     60  C   UNL A   1      43.619  30.659  31.923  1.00  0.00     0.049 A 
ATOM     61  H   UNL A   1      43.941  32.594  31.136  1.00  0.00     0.167 HD
ATOM     62  C   UNL A   1      41.289  31.529  32.106  1.00  0.00     0.074 A 
ATOM     63  C   UNL A   1      41.221  32.472  30.988  1.00  0.00     0.031 C 
ATOM     64  C   UNL A   1      42.306  30.719  32.539  1.00  0.00     0.037 A 
BRANCH  51  65
ATOM     65  C   UNL A   1      44.954  32.689  28.209  1.00  0.00     0.058 A 
ATOM     66  C   UNL A   1      46.263  33.077  27.863  1.00  0.00     0.135 A 
ATOM     67  C   UNL A   1      43.994  33.726  28.233  1.00  0.00     0.135 A 
ATOM     68  F   UNL A   1      47.253  32.173  27.817  1.00  0.00    -0.206 F 
ATOM     69  C   UNL A   1      46.605  34.408  27.625  1.00  0.00     0.059 A 
ATOM     70  C   UNL A   1      44.301  35.049  27.941  1.00  0.00     0.059 A 
ATOM     71  F   UNL A   1      42.734  33.528  28.639  1.00  0.00    -0.206 F 
ATOM     72  C   UNL A   1      45.618  35.388  27.681  1.00  0.00     0.060 A 
BRANCH  72  73
ATOM     73  S   UNL A   1      46.077  37.117  27.482  1.00  0.00     0.124 S 
ATOM     74  O   UNL A   1      44.820  37.788  27.793  1.00  0.00    -0.237 OA
ATOM     75  O   UNL A   1      47.143  37.262  28.468  1.00  0.00    -0.237 OA
ATOM     76  O   UNL A   1      46.506  37.193  26.089  1.00  0.00    -0.744 OA
ENDBRANCH  72  73
ENDBRANCH  51  65
BRANCH  52  77
ATOM     77  C   UNL A   1      36.796  31.818  30.518  1.00  0.00     0.058 A 
ATOM     78  C   UNL A   1      35.891  32.282  31.488  1.00  0.00     0.135 A 
ATOM     79  C   UNL A   1      36.577  32.280  29.201  1.00  0.00     0.135 A 
ATOM     80  F   UNL A   1      36.034  31.915  32.771  1.00  0.00    -0.206 F 
ATOM     81  C   UNL A   1      34.854  33.176  31.179  1.00  0.00     0.059 A 
ATOM     82  C   UNL A   1      35.550  33.164  28.869  1.00  0.00     0.059 A 
ATOM     83  F   UNL A   1      37.415  31.954  28.206  1.00  0.00    -0.206 F 
ATOM     84  C   UNL A   1      34.703  33.627  29.867  1.00  0.00     0.060 A 
BRANCH  84  85
ATOM     85  S   UNL A   1      33.475  34.902  29.490  1.00  0.00     0.124 S 
ATOM     86  O   UNL A   1      32.649  34.240  28.486  1.00  0.00    -0.237 OA
ATOM     87  O   UNL A   1      32.846  35.120  30.788  1.00  0.00    -0.237 OA
ATOM     88  O   UNL A   1      34.280  36.017  28.997  1.00  0.00    -0.744 OA
ENDBRANCH  84  85
ENDBRANCH  52  77
BRANCH  64  89
ATOM     89  C   UNL A   1      41.997  29.654  33.571  1.00  0.00     0.058 A 
ATOM     90  C   UNL A   1      41.673  28.318  33.264  1.00  0.00     0.135 A 
ATOM     91  C   UNL A   1      42.221  29.945  34.924  1.00  0.00     0.135 A 
ATOM     92  F   UNL A   1      41.546  27.918  31.994  1.00  0.00    -0.206 F 
ATOM     93  C   UNL A   1      41.540  27.334  34.247  1.00  0.00     0.059 A 
ATOM     94  C   UNL A   1      42.121  28.975  35.922  1.00  0.00     0.059 A 
ATOM     95  F   UNL A   1      42.602  31.181  35.288  1.00  0.00    -0.206 F 
ATOM     96  C   UNL A   1      41.769  27.672  35.578  1.00  0.00     0.060 A 
BRANCH  96  97
ATOM     97  S   UNL A   1      41.666  26.386  36.843  1.00  0.00     0.124 S 
ATOM     98  O   UNL A   1      40.411  26.714  37.514  1.00  0.00    -0.237 OA
ATOM     99  O   UNL A   1      41.657  25.160  36.051  1.00  0.00    -0.237 OA
ATOM    100  O   UNL A   1      42.872  26.593  37.640  1.00  0.00    -0.744 OA
ENDBRANCH  96  97
ENDBRANCH  64  89
ENDBRANCH  38  39
ENDBRANCH  30  33
ENDBRANCH  28  29
ENDBRANCH  27  28
ENDBRANCH   1  27
TORSDOF 18
ENDMDL
MODEL 2
REMARK VINA RESULT:     -12.2      1.388      2.506
REMARK SMILES COc1ccc([C@H](C)NC(=O)[C@@H](C)n2cc(C(=O)NCCCNC(=O)c3ccc(-c4c5nc(c(-c6c(F)cc(S(=O)(=O)[O-])cc6F)c6ccc([nH]6)c(-c6c(F)cc(S(=O)(=O)[O-])cc6F)c6nc(c(-c7c(F)cc(S(=O)(=O)[O-])cc7F)c7ccc4[nH]7)C=C6)C=C5)cc3)cn2)cc1
REMARK SMILES IDX 20 1 19 2 17 3 18 4 16 6 14 7 15 8 93 9 92 10 12 11 13 12
REMARK SMILES IDX 10 13 9 14 11 16 7 17 8 18 6 19 3 20 4 21 95 22 5 23 94 24
REMARK SMILES IDX 2 25 1 26 21 27 22 28 23 29 24 30 25 32 26 33 27 34 91 35
REMARK SMILES IDX 28 36 90 37 29 38 30 39 31 40 84 41 32 42 89 43 83 44 85 45
REMARK SMILES IDX 33 46 88 47 82 48 81 49 34 51 68 52 47 53 67 54 48 55 51 56
REMARK SMILES IDX 66 57 86 58 49 59 50 60 65 62 87 63 52 64 35 65 36 66 45 67
REMARK SMILES IDX 37 68 38 69 44 70 46 71 39 72 40 73 41 74 42 75 43 76 69 77
REMARK SMILES IDX 70 78 79 79 71 80 72 81 78 82 80 83 73 84 74 85 75 86 76 87
REMARK SMILES IDX 77 88 53 89 54 90 63 91 55 92 56 93 62 94 64 95 57 96 58 97
REMARK SMILES IDX 59 98 60 99 61 100
REMARK H PARENT 19 5 9 15 23 31 85 50 51 61
REMARK Flexibility Score: inf
ROOT
ATOM      1  C   UNL A   1      37.522  22.564  25.300  1.00  0.00     0.118 C 
ENDROOT
BRANCH   1   2
ATOM      2  N   UNL A   1      36.513  22.751  26.336  1.00  0.00    -0.352 N 
ATOM      3  C   UNL A   1      35.217  23.196  26.245  1.00  0.00     0.254 C 
ATOM      4  O   UNL A   1      34.492  23.083  27.244  1.00  0.00    -0.269 OA
ATOM      5  H   UNL A   1      36.808  22.521  27.246  1.00  0.00     0.163 HD
BRANCH   3   6
ATOM      6  C   UNL A   1      34.690  23.715  25.002  1.00  0.00     0.077 A 
ATOM      7  N   UNL A   1      34.111  25.019  23.326  1.00  0.00    -0.260 N 
ATOM      8  C   UNL A   1      34.226  24.974  24.686  1.00  0.00     0.123 A 
ATOM      9  N   UNL A   1      34.188  23.801  22.757  1.00  0.00    -0.180 NA
ATOM     10  C   UNL A   1      34.521  23.008  23.784  1.00  0.00     0.149 A 
BRANCH   7  11
ATOM     11  C   UNL A   1      34.016  26.249  22.554  1.00  0.00     0.193 C 
ATOM     12  C   UNL A   1      34.010  27.550  23.347  1.00  0.00     0.044 C 
BRANCH  11  13
ATOM     13  C   UNL A   1      32.855  26.164  21.556  1.00  0.00     0.245 C 
ATOM     14  N   UNL A   1      31.602  26.630  21.823  1.00  0.00    -0.348 N 
ATOM     15  H   UNL A   1      30.954  26.512  21.092  1.00  0.00     0.164 HD
ATOM     16  O   UNL A   1      33.031  25.651  20.444  1.00  0.00    -0.273 OA
BRANCH  14  17
ATOM     17  C   UNL A   1      31.064  27.277  23.017  1.00  0.00     0.109 C 
ATOM     18  C   UNL A   1      29.738  27.972  22.694  1.00  0.00     0.036 C 
BRANCH  17  19
ATOM     19  C   UNL A   1      30.929  26.298  24.171  1.00  0.00    -0.026 A 
ATOM     20  C   UNL A   1      30.677  24.411  26.264  1.00  0.00     0.118 A 
ATOM     21  C   UNL A   1      30.569  24.012  24.933  1.00  0.00     0.047 A 
ATOM     22  C   UNL A   1      30.927  25.752  26.552  1.00  0.00     0.047 A 
ATOM     23  C   UNL A   1      30.703  24.942  23.900  1.00  0.00     0.009 A 
ATOM     24  C   UNL A   1      31.052  26.688  25.514  1.00  0.00     0.009 A 
BRANCH  20  25
ATOM     25  O   UNL A   1      30.581  23.398  27.175  1.00  0.00    -0.497 OA
ATOM     26  C   UNL A   1      29.331  22.728  27.258  1.00  0.00     0.278 C 
ENDBRANCH  20  25
ENDBRANCH  17  19
ENDBRANCH  14  17
ENDBRANCH  11  13
ENDBRANCH   7  11
ENDBRANCH   3   6
ENDBRANCH   1   2
BRANCH   1  27
ATOM     27  C   UNL A   1      38.711  21.716  25.774  1.00  0.00     0.042 C 
BRANCH  27  28
ATOM     28  C   UNL A   1      39.552  22.451  26.797  1.00  0.00     0.118 C 
BRANCH  28  29
ATOM     29  N   UNL A   1      40.999  22.185  26.675  1.00  0.00    -0.352 N 
ATOM     30  C   UNL A   1      42.040  23.088  26.465  1.00  0.00     0.251 C 
ATOM     31  H   UNL A   1      41.265  21.240  26.754  1.00  0.00     0.163 HD
ATOM     32  O   UNL A   1      43.134  22.707  26.069  1.00  0.00    -0.269 OA
BRANCH  30  33
ATOM     33  C   UNL A   1      41.803  24.512  26.760  1.00  0.00     0.039 A 
ATOM     34  C   UNL A   1      41.010  25.393  26.014  1.00  0.00     0.014 A 
ATOM     35  C   UNL A   1      42.382  24.962  27.916  1.00  0.00     0.014 A 
ATOM     36  C   UNL A   1      40.838  26.693  26.509  1.00  0.00     0.010 A 
ATOM     37  C   UNL A   1      41.641  25.873  28.571  1.00  0.00     0.010 A 
ATOM     38  C   UNL A   1      41.235  26.937  27.820  1.00  0.00    -0.014 A 
BRANCH  38  39
ATOM     39  C   UNL A   1      41.183  28.187  28.551  1.00  0.00     0.031 A 
ATOM     40  C   UNL A   1      42.247  29.140  28.184  1.00  0.00     0.074 A 
ATOM     41  C   UNL A   1      40.075  28.553  29.244  1.00  0.00     0.049 A 
ATOM     42  N   UNL A   1      43.311  29.422  28.855  1.00  0.00    -0.248 NA
ATOM     43  C   UNL A   1      42.237  29.686  26.817  1.00  0.00     0.031 C 
ATOM     44  C   UNL A   1      38.781  27.862  29.394  1.00  0.00     0.029 A 
ATOM     45  N   UNL A   1      39.853  29.715  29.913  1.00  0.00    -0.354 N 
ATOM     46  C   UNL A   1      43.967  30.392  28.107  1.00  0.00     0.074 A 
ATOM     47  C   UNL A   1      43.415  30.311  26.779  1.00  0.00     0.031 C 
ATOM     48  C   UNL A   1      37.860  28.709  29.912  1.00  0.00     0.029 A 
ATOM     49  C   UNL A   1      38.529  29.938  30.287  1.00  0.00     0.049 A 
ATOM     50  H   UNL A   1      40.575  30.354  30.117  1.00  0.00     0.167 HD
ATOM     51  C   UNL A   1      44.701  31.368  28.706  1.00  0.00     0.037 A 
ATOM     52  C   UNL A   1      38.044  31.086  30.828  1.00  0.00     0.037 A 
ATOM     53  C   UNL A   1      44.914  31.073  30.105  1.00  0.00     0.049 A 
ATOM     54  C   UNL A   1      39.226  31.796  31.406  1.00  0.00     0.074 A 
ATOM     55  C   UNL A   1      45.497  30.022  30.789  1.00  0.00     0.029 A 
ATOM     56  N   UNL A   1      44.098  31.700  31.020  1.00  0.00    -0.354 N 
ATOM     57  N   UNL A   1      39.943  31.310  32.390  1.00  0.00    -0.248 NA
ATOM     58  C   UNL A   1      39.921  32.745  30.546  1.00  0.00     0.031 C 
ATOM     59  C   UNL A   1      44.622  29.770  31.888  1.00  0.00     0.029 A 
ATOM     60  C   UNL A   1      43.610  30.732  31.867  1.00  0.00     0.049 A 
ATOM     61  H   UNL A   1      43.900  32.664  31.061  1.00  0.00     0.167 HD
ATOM     62  C   UNL A   1      41.266  31.565  32.042  1.00  0.00     0.074 A 
ATOM     63  C   UNL A   1      41.183  32.495  30.914  1.00  0.00     0.031 C 
ATOM     64  C   UNL A   1      42.296  30.776  32.483  1.00  0.00     0.037 A 
BRANCH  51  65
ATOM     65  C   UNL A   1      44.911  32.745  28.133  1.00  0.00     0.058 A 
ATOM     66  C   UNL A   1      46.181  33.095  27.635  1.00  0.00     0.135 A 
ATOM     67  C   UNL A   1      43.996  33.813  28.280  1.00  0.00     0.135 A 
ATOM     68  F   UNL A   1      47.128  32.159  27.463  1.00  0.00    -0.206 F 
ATOM     69  C   UNL A   1      46.537  34.417  27.366  1.00  0.00     0.059 A 
ATOM     70  C   UNL A   1      44.311  35.128  27.962  1.00  0.00     0.059 A 
ATOM     71  F   UNL A   1      42.789  33.651  28.832  1.00  0.00    -0.206 F 
ATOM     72  C   UNL A   1      45.597  35.428  27.548  1.00  0.00     0.060 A 
BRANCH  72  73
ATOM     73  S   UNL A   1      46.087  37.142  27.307  1.00  0.00     0.124 S 
ATOM     74  O   UNL A   1      44.825  37.749  26.897  1.00  0.00    -0.237 OA
ATOM     75  O   UNL A   1      46.572  37.507  28.634  1.00  0.00    -0.237 OA
ATOM     76  O   UNL A   1      47.113  37.057  26.273  1.00  0.00    -0.744 OA
ENDBRANCH  72  73
ENDBRANCH  51  65
BRANCH  52  77
ATOM     77  C   UNL A   1      36.769  31.764  30.452  1.00  0.00     0.058 A 
ATOM     78  C   UNL A   1      35.931  32.360  31.410  1.00  0.00     0.135 A 
ATOM     79  C   UNL A   1      36.475  32.069  29.104  1.00  0.00     0.135 A 
ATOM     80  F   UNL A   1      36.148  32.147  32.718  1.00  0.00    -0.206 F 
ATOM     81  C   UNL A   1      34.889  33.231  31.057  1.00  0.00     0.059 A 
ATOM     82  C   UNL A   1      35.441  32.926  28.729  1.00  0.00     0.059 A 
ATOM     83  F   UNL A   1      37.246  31.609  28.108  1.00  0.00    -0.206 F 
ATOM     84  C   UNL A   1      34.663  33.523  29.711  1.00  0.00     0.060 A 
BRANCH  84  85
ATOM     85  S   UNL A   1      33.430  34.768  29.256  1.00  0.00     0.124 S 
ATOM     86  O   UNL A   1      32.631  34.054  28.266  1.00  0.00    -0.237 OA
ATOM     87  O   UNL A   1      32.774  35.035  30.531  1.00  0.00    -0.237 OA
ATOM     88  O   UNL A   1      34.234  35.869  28.731  1.00  0.00    -0.744 OA
ENDBRANCH  84  85
ENDBRANCH  52  77
BRANCH  64  89
ATOM     89  C   UNL A   1      42.005  29.717  33.526  1.00  0.00     0.058 A 
ATOM     90  C   UNL A   1      41.715  28.370  33.233  1.00  0.00     0.135 A 
ATOM     91  C   UNL A   1      42.210  30.030  34.877  1.00  0.00     0.135 A 
ATOM     92  F   UNL A   1      41.609  27.951  31.967  1.00  0.00    -0.206 F 
ATOM     93  C   UNL A   1      41.599  27.395  34.227  1.00  0.00     0.059 A 
ATOM     94  C   UNL A   1      42.126  29.070  35.886  1.00  0.00     0.059 A 
ATOM     95  F   UNL A   1      42.558  31.279  35.228  1.00  0.00    -0.206 F 
ATOM     96  C   UNL A   1      41.808  27.755  35.555  1.00  0.00     0.060 A 
BRANCH  96  97
ATOM     97  S   UNL A   1      41.726  26.483  36.835  1.00  0.00     0.124 S 
ATOM     98  O   UNL A   1      42.958  26.717  37.582  1.00  0.00    -0.237 OA
ATOM     99  O   UNL A   1      40.489  26.814  37.536  1.00  0.00    -0.237 OA
ATOM    100  O   UNL A   1      41.685  25.236  36.075  1.00  0.00    -0.744 OA
ENDBRANCH  96  97
ENDBRANCH  64  89
ENDBRANCH  38  39
ENDBRANCH  30  33
ENDBRANCH  28  29
ENDBRANCH  27  28
ENDBRANCH   1  27
TORSDOF 18
ENDMDL
MODEL 3
REMARK VINA RESULT:     -12.0      4.532     11.586
REMARK SMILES COc1ccc([C@H](C)NC(=O)[C@@H](C)n2cc(C(=O)NCCCNC(=O)c3ccc(-c4c5nc(c(-c6c(F)cc(S(=O)(=O)[O-])cc6F)c6ccc([nH]6)c(-c6c(F)cc(S(=O)(=O)[O-])cc6F)c6nc(c(-c7c(F)cc(S(=O)(=O)[O-])cc7F)c7ccc4[nH]7)C=C6)C=C5)cc3)cn2)cc1
REMARK SMILES IDX 20 1 19 2 17 3 18 4 16 6 14 7 15 8 93 9 92 10 12 11 13 12
REMARK SMILES IDX 10 13 9 14 11 16 7 17 8 18 6 19 3 20 4 21 95 22 5 23 94 24
REMARK SMILES IDX 2 25 1 26 21 27 22 28 23 29 24 30 25 32 26 33 27 34 91 35
REMARK SMILES IDX 28 36 90 37 29 38 30 39 31 40 84 41 32 42 89 43 83 44 85 45
REMARK SMILES IDX 33 46 88 47 82 48 81 49 34 51 68 52 47 53 67 54 48 55 51 56
REMARK SMILES IDX 66 57 86 58 49 59 50 60 65 62 87 63 52 64 35 65 36 66 45 67
REMARK SMILES IDX 37 68 38 69 44 70 46 71 39 72 40 73 41 74 42 75 43 76 69 77
REMARK SMILES IDX 70 78 79 79 71 80 72 81 78 82 80 83 73 84 74 85 75 86 76 87
REMARK SMILES IDX 77 88 53 89 54 90 63 91 55 92 56 93 62 94 64 95 57 96 58 97
REMARK SMILES IDX 59 98 60 99 61 100
REMARK H PARENT 19 5 9 15 23 31 85 50 51 61
REMARK Flexibility Score: inf
ROOT
ATOM      1  C   UNL A   1      33.142  34.478  29.110  1.00  0.00     0.118 C 
ENDROOT
BRANCH   1   2
ATOM      2  N   UNL A   1      33.064  35.567  30.076  1.00  0.00    -0.352 N 
ATOM      3  C   UNL A   1      33.663  35.712  31.303  1.00  0.00     0.254 C 
ATOM      4  O   UNL A   1      33.597  36.821  31.856  1.00  0.00    -0.269 OA
ATOM      5  H   UNL A   1      32.492  36.320  29.805  1.00  0.00     0.163 HD
BRANCH   3   6
ATOM      6  C   UNL A   1      34.408  34.628  31.905  1.00  0.00     0.077 A 
ATOM      7  N   UNL A   1      36.007  33.336  32.690  1.00  0.00    -0.260 N 
ATOM      8  C   UNL A   1      35.697  34.196  31.676  1.00  0.00     0.123 A 
ATOM      9  N   UNL A   1      34.928  32.955  33.398  1.00  0.00    -0.180 NA
ATOM     10  C   UNL A   1      33.953  33.730  32.903  1.00  0.00     0.149 A 
BRANCH   7  11
ATOM     11  C   UNL A   1      37.364  32.944  33.043  1.00  0.00     0.193 C 
ATOM     12  C   UNL A   1      37.504  31.776  34.011  1.00  0.00     0.044 C 
BRANCH  11  13
ATOM     13  C   UNL A   1      38.176  34.169  33.479  1.00  0.00     0.245 C 
ATOM     14  N   UNL A   1      39.224  34.668  32.763  1.00  0.00    -0.348 N 
ATOM     15  H   UNL A   1      39.655  35.459  33.159  1.00  0.00     0.164 HD
ATOM     16  O   UNL A   1      37.894  34.757  34.531  1.00  0.00    -0.273 OA
BRANCH  14  17
ATOM     17  C   UNL A   1      39.810  34.219  31.502  1.00  0.00     0.109 C 
ATOM     18  C   UNL A   1      38.991  34.742  30.319  1.00  0.00     0.036 C 
BRANCH  17  19
ATOM     19  C   UNL A   1      41.275  34.606  31.397  1.00  0.00    -0.026 A 
ATOM     20  C   UNL A   1      44.009  35.327  31.287  1.00  0.00     0.118 A 
ATOM     21  C   UNL A   1      43.332  35.300  32.504  1.00  0.00     0.047 A 
ATOM     22  C   UNL A   1      43.327  34.979  30.122  1.00  0.00     0.047 A 
ATOM     23  C   UNL A   1      41.985  34.935  32.560  1.00  0.00     0.009 A 
ATOM     24  C   UNL A   1      41.970  34.621  30.177  1.00  0.00     0.009 A 
BRANCH  20  25
ATOM     25  O   UNL A   1      45.334  35.647  31.375  1.00  0.00    -0.497 OA
ATOM     26  C   UNL A   1      46.153  35.289  30.270  1.00  0.00     0.278 C 
ENDBRANCH  20  25
ENDBRANCH  17  19
ENDBRANCH  14  17
ENDBRANCH  11  13
ENDBRANCH   7  11
ENDBRANCH   3   6
ENDBRANCH   1   2
BRANCH   1  27
ATOM     27  C   UNL A   1      34.224  34.704  28.044  1.00  0.00     0.042 C 
BRANCH  27  28
ATOM     28  C   UNL A   1      35.221  33.564  28.007  1.00  0.00     0.118 C 
BRANCH  28  29
ATOM     29  N   UNL A   1      34.594  32.232  27.907  1.00  0.00    -0.352 N 
ATOM     30  C   UNL A   1      35.204  30.980  27.842  1.00  0.00     0.251 C 
ATOM     31  H   UNL A   1      33.609  32.227  27.884  1.00  0.00     0.163 HD
ATOM     32  O   UNL A   1      34.588  29.999  27.444  1.00  0.00    -0.269 OA
BRANCH  30  33
ATOM     33  C   UNL A   1      36.601  30.857  28.293  1.00  0.00     0.039 A 
ATOM     34  C   UNL A   1      37.211  31.597  29.314  1.00  0.00     0.014 A 
ATOM     35  C   UNL A   1      37.320  29.872  27.670  1.00  0.00     0.014 A 
ATOM     36  C   UNL A   1      38.531  31.270  29.655  1.00  0.00     0.010 A 
ATOM     37  C   UNL A   1      38.196  29.251  28.480  1.00  0.00     0.010 A 
ATOM     38  C   UNL A   1      39.045  30.078  29.155  1.00  0.00    -0.014 A 
BRANCH  38  39
ATOM     39  C   UNL A   1      40.374  29.530  29.343  1.00  0.00     0.031 A 
ATOM     40  C   UNL A   1      40.688  29.189  30.742  1.00  0.00     0.074 A 
ATOM     41  C   UNL A   1      41.104  29.076  28.293  1.00  0.00     0.049 A 
ATOM     42  N   UNL A   1      41.437  29.846  31.560  1.00  0.00    -0.248 NA
ATOM     43  C   UNL A   1      39.915  28.107  31.374  1.00  0.00     0.031 C 
ATOM     44  C   UNL A   1      40.762  29.009  26.860  1.00  0.00     0.029 A 
ATOM     45  N   UNL A   1      42.324  28.477  28.319  1.00  0.00    -0.354 N 
ATOM     46  C   UNL A   1      41.439  29.101  32.732  1.00  0.00     0.074 A 
ATOM     47  C   UNL A   1      40.304  28.220  32.645  1.00  0.00     0.031 C 
ATOM     48  C   UNL A   1      41.645  28.216  26.208  1.00  0.00     0.029 A 
ATOM     49  C   UNL A   1      42.704  27.858  27.130  1.00  0.00     0.049 A 
ATOM     50  H   UNL A   1      42.896  28.479  29.121  1.00  0.00     0.167 HD
ATOM     51  C   UNL A   1      42.530  29.068  33.544  1.00  0.00     0.037 A 
ATOM     52  C   UNL A   1      43.802  27.076  26.963  1.00  0.00     0.037 A 
ATOM     53  C   UNL A   1      43.486  30.086  33.172  1.00  0.00     0.049 A 
ATOM     54  C   UNL A   1      44.735  27.440  28.073  1.00  0.00     0.074 A 
ATOM     55  C   UNL A   1      43.432  31.464  33.069  1.00  0.00     0.029 A 
ATOM     56  N   UNL A   1      44.561  29.701  32.403  1.00  0.00    -0.354 N 
ATOM     57  N   UNL A   1      45.264  28.633  28.201  1.00  0.00    -0.248 NA
ATOM     58  C   UNL A   1      44.638  26.672  29.307  1.00  0.00     0.031 C 
ATOM     59  C   UNL A   1      44.131  31.769  31.861  1.00  0.00     0.029 A 
ATOM     60  C   UNL A   1      44.646  30.577  31.346  1.00  0.00     0.049 A 
ATOM     61  H   UNL A   1      45.160  28.939  32.578  1.00  0.00     0.167 HD
ATOM     62  C   UNL A   1      45.189  28.924  29.559  1.00  0.00     0.074 A 
ATOM     63  C   UNL A   1      44.834  27.654  30.195  1.00  0.00     0.031 C 
ATOM     64  C   UNL A   1      45.115  30.212  30.021  1.00  0.00     0.037 A 
BRANCH  51  65
ATOM     65  C   UNL A   1      42.898  27.902  34.424  1.00  0.00     0.058 A 
ATOM     66  C   UNL A   1      43.044  28.107  35.810  1.00  0.00     0.135 A 
ATOM     67  C   UNL A   1      43.356  26.656  33.939  1.00  0.00     0.135 A 
ATOM     68  F   UNL A   1      42.648  29.259  36.374  1.00  0.00    -0.206 F 
ATOM     69  C   UNL A   1      43.660  27.171  36.640  1.00  0.00     0.059 A 
ATOM     70  C   UNL A   1      43.919  25.685  34.758  1.00  0.00     0.059 A 
ATOM     71  F   UNL A   1      43.374  26.357  32.635  1.00  0.00    -0.206 F 
ATOM     72  C   UNL A   1      44.108  25.968  36.099  1.00  0.00     0.060 A 
BRANCH  72  73
ATOM     73  S   UNL A   1      45.000  24.808  37.145  1.00  0.00     0.124 S 
ATOM     74  O   UNL A   1      46.367  25.305  37.029  1.00  0.00    -0.237 OA
ATOM     75  O   UNL A   1      44.354  25.007  38.438  1.00  0.00    -0.237 OA
ATOM     76  O   UNL A   1      44.741  23.517  36.514  1.00  0.00    -0.744 OA
ENDBRANCH  72  73
ENDBRANCH  51  65
BRANCH  52  77
ATOM     77  C   UNL A   1      43.854  25.779  26.226  1.00  0.00     0.058 A 
ATOM     78  C   UNL A   1      44.859  25.496  25.285  1.00  0.00     0.135 A 
ATOM     79  C   UNL A   1      43.058  24.682  26.624  1.00  0.00     0.135 A 
ATOM     80  F   UNL A   1      45.680  26.471  24.865  1.00  0.00    -0.206 F 
ATOM     81  C   UNL A   1      45.085  24.200  24.796  1.00  0.00     0.059 A 
ATOM     82  C   UNL A   1      43.259  23.387  26.147  1.00  0.00     0.059 A 
ATOM     83  F   UNL A   1      42.110  24.821  27.563  1.00  0.00    -0.206 F 
ATOM     84  C   UNL A   1      44.289  23.146  25.248  1.00  0.00     0.060 A 
BRANCH  84  85
ATOM     85  S   UNL A   1      44.676  21.449  24.749  1.00  0.00     0.124 S 
ATOM     86  O   UNL A   1      46.011  21.266  25.307  1.00  0.00    -0.237 OA
ATOM     87  O   UNL A   1      43.609  20.688  25.390  1.00  0.00    -0.237 OA
ATOM     88  O   UNL A   1      44.611  21.500  23.291  1.00  0.00    -0.744 OA
ENDBRANCH  84  85
ENDBRANCH  52  77
BRANCH  64  89
ATOM     89  C   UNL A   1      45.310  31.348  29.039  1.00  0.00     0.058 A 
ATOM     90  C   UNL A   1      46.565  31.811  28.597  1.00  0.00     0.135 A 
ATOM     91  C   UNL A   1      44.187  31.865  28.377  1.00  0.00     0.135 A 
ATOM     92  F   UNL A   1      47.698  31.300  29.091  1.00  0.00    -0.206 F 
ATOM     93  C   UNL A   1      46.698  32.761  27.581  1.00  0.00     0.059 A 
ATOM     94  C   UNL A   1      44.294  32.794  27.341  1.00  0.00     0.059 A 
ATOM     95  F   UNL A   1      42.960  31.420  28.695  1.00  0.00    -0.206 F 
ATOM     96  C   UNL A   1      45.552  33.247  26.955  1.00  0.00     0.060 A 
BRANCH  96  97
ATOM     97  S   UNL A   1      45.726  34.424  25.595  1.00  0.00     0.124 S 
ATOM     98  O   UNL A   1      44.818  33.871  24.593  1.00  0.00    -0.237 OA
ATOM     99  O   UNL A   1      45.305  35.681  26.204  1.00  0.00    -0.237 OA
ATOM    100  O   UNL A   1      47.145  34.349  25.258  1.00  0.00    -0.744 OA
ENDBRANCH  96  97
ENDBRANCH  64  89
ENDBRANCH  38  39
ENDBRANCH  30  33
ENDBRANCH  28  29
ENDBRANCH  27  28
ENDBRANCH   1  27
TORSDOF 18
ENDMDL
