MODEL 1
REMARK VINA RESULT:     -13.1      0.000      0.000
REMARK SMILES Cc1ccc(S(=O)(=O)Nc2cc3c(cc2C(=O)NCCCNC(=O)c2ccc(-c4c5nc(c(-c6c(F)cc(S(=O)(=O)[O-])cc6F)c6ccc([nH]6)c(-c6c(F)cc(S(=O)(=O)[O-])cc6F)c6nc(c(-c7c(F)cc(S(=O)(=O)[O-])cc7F)c7ccc4[nH]7)C=C6)C=C5)cc2)OCCO3)s1
REMARK SMILES IDX 20 1 19 2 18 3 16 4 17 5 15 7 10 8 11 9 12 10 14 11 13 12
REMARK SMILES IDX 94 13 91 14 93 15 92 16 9 17 6 19 7 20 8 21 5 22 1 23 2 24
REMARK SMILES IDX 3 25 95 26 4 27 21 28 22 29 23 30 24 32 25 33 26 34 90 35
REMARK SMILES IDX 27 36 89 37 28 38 29 39 30 40 83 41 31 42 88 43 82 44 84 45
REMARK SMILES IDX 32 46 87 47 81 48 80 49 33 51 67 52 46 53 66 54 47 55 50 56
REMARK SMILES IDX 65 57 85 58 48 59 49 60 64 62 86 63 51 64 34 65 35 66 44 67
REMARK SMILES IDX 36 68 37 69 43 70 45 71 38 72 39 73 40 74 41 75 42 76 68 77
REMARK SMILES IDX 69 78 78 79 70 80 71 81 77 82 79 83 72 84 73 85 74 86 75 87
REMARK SMILES IDX 76 88 52 89 53 90 62 91 54 92 55 93 61 94 63 95 56 96 57 97
REMARK SMILES IDX 58 98 59 99 60 100
REMARK H PARENT 18 6 9 18 22 31 84 50 50 61
REMARK Flexibility Score: inf
ROOT
ATOM      1  C   UNL A   1      37.629  23.475  25.386  1.00  0.00     0.042 C 
ENDROOT
BRANCH   1   2
ATOM      2  C   UNL A   1      36.945  22.151  25.695  1.00  0.00     0.118 C 
BRANCH   2   3
ATOM      3  N   UNL A   1      35.738  22.268  26.503  1.00  0.00    -0.352 N 
ATOM      4  C   UNL A   1      34.535  22.919  26.367  1.00  0.00     0.253 C 
ATOM      5  O   UNL A   1      33.690  22.691  27.232  1.00  0.00    -0.269 OA
ATOM      6  H   UNL A   1      35.798  21.761  27.344  1.00  0.00     0.163 HD
BRANCH   4   7
ATOM      7  C   UNL A   1      34.221  23.864  25.256  1.00  0.00     0.067 A 
ATOM      8  C   UNL A   1      33.884  23.382  23.968  1.00  0.00     0.066 A 
ATOM      9  C   UNL A   1      33.580  24.278  22.933  1.00  0.00     0.078 A 
ATOM     10  C   UNL A   1      33.590  25.650  23.173  1.00  0.00     0.163 A 
ATOM     11  C   UNL A   1      34.324  25.246  25.442  1.00  0.00     0.066 A 
ATOM     12  C   UNL A   1      33.942  26.128  24.435  1.00  0.00     0.162 A 
ATOM     13  O   UNL A   1      33.249  26.471  22.130  1.00  0.00    -0.486 OA
ATOM     14  O   UNL A   1      33.933  27.459  24.763  1.00  0.00    -0.486 OA
ATOM     15  C   UNL A   1      33.538  27.849  22.414  1.00  0.00     0.271 C 
ATOM     16  C   UNL A   1      33.132  28.204  23.835  1.00  0.00     0.271 C 
BRANCH   8  17
ATOM     17  N   UNL A   1      33.861  21.976  23.684  1.00  0.00    -0.278 N 
ATOM     18  H   UNL A   1      34.698  21.480  23.532  1.00  0.00     0.180 HD
BRANCH  17  19
ATOM     19  S   UNL A   1      32.369  21.191  23.618  1.00  0.00     0.271 S 
ATOM     20  O   UNL A   1      31.797  21.458  22.321  1.00  0.00    -0.200 OA
ATOM     21  O   UNL A   1      31.649  21.560  24.827  1.00  0.00    -0.200 OA
BRANCH  19  22
ATOM     22  C   UNL A   1      32.627  19.438  23.779  1.00  0.00     0.140 A 
ATOM     23  C   UNL A   1      33.557  16.114  25.647  1.00  0.00     0.056 C 
ATOM     24  C   UNL A   1      33.157  17.223  24.734  1.00  0.00     0.003 A 
ATOM     25  C   UNL A   1      32.951  17.165  23.371  1.00  0.00     0.016 A 
ATOM     26  S   UNL A   1      32.925  18.808  25.339  1.00  0.00    -0.127 S 
ATOM     27  C   UNL A   1      32.645  18.439  22.823  1.00  0.00     0.034 A 
ENDBRANCH  19  22
ENDBRANCH  17  19
ENDBRANCH   8  17
ENDBRANCH   4   7
ENDBRANCH   2   3
ENDBRANCH   1   2
BRANCH   1  28
ATOM     28  C   UNL A   1      38.517  24.019  26.496  1.00  0.00     0.118 C 
BRANCH  28  29
ATOM     29  N   UNL A   1      39.936  23.900  26.189  1.00  0.00    -0.352 N 
ATOM     30  C   UNL A   1      41.013  24.678  26.537  1.00  0.00     0.251 C 
ATOM     31  H   UNL A   1      40.164  23.121  25.631  1.00  0.00     0.163 HD
ATOM     32  O   UNL A   1      42.080  24.503  25.951  1.00  0.00    -0.269 OA
BRANCH  30  33
ATOM     33  C   UNL A   1      40.917  25.721  27.585  1.00  0.00     0.039 A 
ATOM     34  C   UNL A   1      39.880  25.640  28.523  1.00  0.00     0.014 A 
ATOM     35  C   UNL A   1      41.779  26.818  27.609  1.00  0.00     0.014 A 
ATOM     36  C   UNL A   1      39.745  26.622  29.510  1.00  0.00     0.010 A 
ATOM     37  C   UNL A   1      41.697  27.751  28.641  1.00  0.00     0.010 A 
ATOM     38  C   UNL A   1      40.673  27.672  29.596  1.00  0.00    -0.014 A 
BRANCH  38  39
ATOM     39  C   UNL A   1      40.583  28.709  30.656  1.00  0.00     0.031 A 
ATOM     40  C   UNL A   1      41.443  28.609  31.888  1.00  0.00     0.074 A 
ATOM     41  C   UNL A   1      39.661  29.687  30.558  1.00  0.00     0.049 A 
ATOM     42  N   UNL A   1      41.422  29.339  32.974  1.00  0.00    -0.248 NA
ATOM     43  C   UNL A   1      42.429  27.518  31.917  1.00  0.00     0.031 C 
ATOM     44  C   UNL A   1      38.725  29.857  29.446  1.00  0.00     0.029 A 
ATOM     45  N   UNL A   1      39.344  30.707  31.420  1.00  0.00    -0.354 N 
ATOM     46  C   UNL A   1      42.363  28.775  33.828  1.00  0.00     0.074 A 
ATOM     47  C   UNL A   1      42.907  27.618  33.149  1.00  0.00     0.031 C 
ATOM     48  C   UNL A   1      37.939  30.917  29.692  1.00  0.00     0.029 A 
ATOM     49  C   UNL A   1      38.294  31.483  30.992  1.00  0.00     0.049 A 
ATOM     50  H   UNL A   1      39.821  30.866  32.266  1.00  0.00     0.167 HD
ATOM     51  C   UNL A   1      42.754  29.192  35.057  1.00  0.00     0.037 A 
ATOM     52  C   UNL A   1      37.677  32.526  31.579  1.00  0.00     0.037 A 
ATOM     53  C   UNL A   1      42.243  30.369  35.710  1.00  0.00     0.049 A 
ATOM     54  C   UNL A   1      38.164  33.013  32.914  1.00  0.00     0.074 A 
ATOM     55  C   UNL A   1      42.633  30.925  36.914  1.00  0.00     0.029 A 
ATOM     56  N   UNL A   1      41.228  31.172  35.208  1.00  0.00    -0.354 N 
ATOM     57  N   UNL A   1      39.105  32.511  33.677  1.00  0.00    -0.248 NA
ATOM     58  C   UNL A   1      37.518  34.212  33.462  1.00  0.00     0.031 C 
ATOM     59  C   UNL A   1      41.833  32.050  37.156  1.00  0.00     0.029 A 
ATOM     60  C   UNL A   1      40.968  32.213  36.086  1.00  0.00     0.049 A 
ATOM     61  H   UNL A   1      40.761  31.024  34.354  1.00  0.00     0.167 HD
ATOM     62  C   UNL A   1      39.173  33.338  34.792  1.00  0.00     0.074 A 
ATOM     63  C   UNL A   1      38.187  34.383  34.595  1.00  0.00     0.031 C 
ATOM     64  C   UNL A   1      39.979  33.241  35.878  1.00  0.00     0.037 A 
BRANCH  51  65
ATOM     65  C   UNL A   1      43.783  28.358  35.769  1.00  0.00     0.058 A 
ATOM     66  C   UNL A   1      43.417  27.337  36.661  1.00  0.00     0.135 A 
ATOM     67  C   UNL A   1      45.153  28.597  35.576  1.00  0.00     0.135 A 
ATOM     68  F   UNL A   1      42.121  27.074  36.893  1.00  0.00    -0.206 F 
ATOM     69  C   UNL A   1      44.369  26.620  37.378  1.00  0.00     0.059 A 
ATOM     70  C   UNL A   1      46.125  27.873  36.262  1.00  0.00     0.059 A 
ATOM     71  F   UNL A   1      45.560  29.557  34.730  1.00  0.00    -0.206 F 
ATOM     72  C   UNL A   1      45.721  26.905  37.181  1.00  0.00     0.060 A 
BRANCH  72  73
ATOM     73  S   UNL A   1      46.949  26.005  38.152  1.00  0.00     0.124 S 
ATOM     74  O   UNL A   1      47.029  24.746  37.419  1.00  0.00    -0.237 OA
ATOM     75  O   UNL A   1      48.123  26.868  38.056  1.00  0.00    -0.237 OA
ATOM     76  O   UNL A   1      46.342  25.925  39.476  1.00  0.00    -0.744 OA
ENDBRANCH  72  73
ENDBRANCH  51  65
BRANCH  52  77
ATOM     77  C   UNL A   1      36.547  33.187  30.879  1.00  0.00     0.058 A 
ATOM     78  C   UNL A   1      35.235  33.069  31.358  1.00  0.00     0.135 A 
ATOM     79  C   UNL A   1      36.768  34.015  29.767  1.00  0.00     0.135 A 
ATOM     80  F   UNL A   1      34.976  32.284  32.416  1.00  0.00    -0.206 F 
ATOM     81  C   UNL A   1      34.180  33.757  30.769  1.00  0.00     0.059 A 
ATOM     82  C   UNL A   1      35.732  34.727  29.171  1.00  0.00     0.059 A 
ATOM     83  F   UNL A   1      38.010  34.174  29.285  1.00  0.00    -0.206 F 
ATOM     84  C   UNL A   1      34.442  34.594  29.681  1.00  0.00     0.060 A 
BRANCH  84  85
ATOM     85  S   UNL A   1      33.087  35.572  28.993  1.00  0.00     0.124 S 
ATOM     86  O   UNL A   1      32.358  35.954  30.197  1.00  0.00    -0.237 OA
ATOM     87  O   UNL A   1      33.800  36.648  28.311  1.00  0.00    -0.237 OA
ATOM     88  O   UNL A   1      32.408  34.627  28.113  1.00  0.00    -0.744 OA
ENDBRANCH  84  85
ENDBRANCH  52  77
BRANCH  64  89
ATOM     89  C   UNL A   1      39.838  34.298  36.936  1.00  0.00     0.058 A 
ATOM     90  C   UNL A   1      40.473  35.544  36.815  1.00  0.00     0.135 A 
ATOM     91  C   UNL A   1      39.020  34.082  38.055  1.00  0.00     0.135 A 
ATOM     92  F   UNL A   1      41.272  35.795  35.766  1.00  0.00    -0.206 F 
ATOM     93  C   UNL A   1      40.314  36.535  37.778  1.00  0.00     0.059 A 
ATOM     94  C   UNL A   1      38.830  35.066  39.020  1.00  0.00     0.059 A 
ATOM     95  F   UNL A   1      38.385  32.909  38.213  1.00  0.00    -0.206 F 
ATOM     96  C   UNL A   1      39.489  36.286  38.877  1.00  0.00     0.060 A 
BRANCH  96  97
ATOM     97  S   UNL A   1      39.260  37.592  40.104  1.00  0.00     0.124 S 
ATOM     98  O   UNL A   1      38.890  36.822  41.286  1.00  0.00    -0.237 OA
ATOM     99  O   UNL A   1      40.576  38.222  40.143  1.00  0.00    -0.237 OA
ATOM    100  O   UNL A   1      38.198  38.412  39.529  1.00  0.00    -0.744 OA
ENDBRANCH  96  97
ENDBRANCH  64  89
ENDBRANCH  38  39
ENDBRANCH  30  33
ENDBRANCH  28  29
ENDBRANCH   1  28
TORSDOF 16
ENDMDL
MODEL 2
REMARK VINA RESULT:     -13.0      6.520     11.843
REMARK SMILES Cc1ccc(S(=O)(=O)Nc2cc3c(cc2C(=O)NCCCNC(=O)c2ccc(-c4c5nc(c(-c6c(F)cc(S(=O)(=O)[O-])cc6F)c6ccc([nH]6)c(-c6c(F)cc(S(=O)(=O)[O-])cc6F)c6nc(c(-c7c(F)cc(S(=O)(=O)[O-])cc7F)c7ccc4[nH]7)C=C6)C=C5)cc2)OCCO3)s1
REMARK SMILES IDX 20 1 19 2 18 3 16 4 17 5 15 7 10 8 11 9 12 10 14 11 13 12
REMARK SMILES IDX 94 13 91 14 93 15 92 16 9 17 6 19 7 20 8 21 5 22 1 23 2 24
REMARK SMILES IDX 3 25 95 26 4 27 21 28 22 29 23 30 24 32 25 33 26 34 90 35
REMARK SMILES IDX 27 36 89 37 28 38 29 39 30 40 83 41 31 42 88 43 82 44 84 45
REMARK SMILES IDX 32 46 87 47 81 48 80 49 33 51 67 52 46 53 66 54 47 55 50 56
REMARK SMILES IDX 65 57 85 58 48 59 49 60 64 62 86 63 51 64 34 65 35 66 44 67
REMARK SMILES IDX 36 68 37 69 43 70 45 71 38 72 39 73 40 74 41 75 42 76 68 77
REMARK SMILES IDX 69 78 78 79 70 80 71 81 77 82 79 83 72 84 73 85 74 86 75 87
REMARK SMILES IDX 76 88 52 89 53 90 62 91 54 92 55 93 61 94 63 95 56 96 57 97
REMARK SMILES IDX 58 98 59 99 60 100
REMARK H PARENT 18 6 9 18 22 31 84 50 50 61
REMARK Flexibility Score: inf
ROOT
ATOM      1  C   UNL A   1      35.059  29.198  27.551  1.00  0.00     0.042 C 
ENDROOT
BRANCH   1   2
ATOM      2  C   UNL A   1      34.054  28.880  26.453  1.00  0.00     0.118 C 
BRANCH   2   3
ATOM      3  N   UNL A   1      33.138  27.792  26.769  1.00  0.00    -0.352 N 
ATOM      4  C   UNL A   1      32.033  27.244  26.165  1.00  0.00     0.253 C 
ATOM      5  O   UNL A   1      31.568  26.232  26.689  1.00  0.00    -0.269 OA
ATOM      6  H   UNL A   1      33.366  27.343  27.615  1.00  0.00     0.163 HD
BRANCH   4   7
ATOM      7  C   UNL A   1      31.386  27.807  24.943  1.00  0.00     0.067 A 
ATOM      8  C   UNL A   1      31.340  27.062  23.740  1.00  0.00     0.066 A 
ATOM      9  C   UNL A   1      30.721  27.595  22.599  1.00  0.00     0.078 A 
ATOM     10  C   UNL A   1      30.133  28.857  22.651  1.00  0.00     0.163 A 
ATOM     11  C   UNL A   1      30.879  29.109  24.938  1.00  0.00     0.066 A 
ATOM     12  C   UNL A   1      30.196  29.600  23.829  1.00  0.00     0.162 A 
ATOM     13  O   UNL A   1      29.513  29.306  21.514  1.00  0.00    -0.486 OA
ATOM     14  O   UNL A   1      29.604  30.829  23.973  1.00  0.00    -0.486 OA
ATOM     15  C   UNL A   1      29.172  30.698  21.603  1.00  0.00     0.271 C 
ATOM     16  C   UNL A   1      28.598  31.027  22.971  1.00  0.00     0.271 C 
BRANCH   8  17
ATOM     17  N   UNL A   1      31.933  25.759  23.650  1.00  0.00    -0.278 N 
ATOM     18  H   UNL A   1      31.423  24.956  23.906  1.00  0.00     0.180 HD
BRANCH  17  19
ATOM     19  S   UNL A   1      33.521  25.632  23.093  1.00  0.00     0.271 S 
ATOM     20  O   UNL A   1      34.114  26.944  23.174  1.00  0.00    -0.200 OA
ATOM     21  O   UNL A   1      33.461  24.931  21.821  1.00  0.00    -0.200 OA
BRANCH  19  22
ATOM     22  C   UNL A   1      34.424  24.530  24.159  1.00  0.00     0.140 A 
ATOM     23  C   UNL A   1      36.047  21.123  25.237  1.00  0.00     0.056 C 
ATOM     24  C   UNL A   1      35.527  22.508  25.050  1.00  0.00     0.003 A 
ATOM     25  C   UNL A   1      35.503  23.535  25.972  1.00  0.00     0.016 A 
ATOM     26  S   UNL A   1      34.831  22.984  23.559  1.00  0.00    -0.127 S 
ATOM     27  C   UNL A   1      34.869  24.697  25.458  1.00  0.00     0.034 A 
ENDBRANCH  19  22
ENDBRANCH  17  19
ENDBRANCH   8  17
ENDBRANCH   4   7
ENDBRANCH   2   3
ENDBRANCH   1   2
BRANCH   1  28
ATOM     28  C   UNL A   1      35.284  30.681  27.813  1.00  0.00     0.118 C 
BRANCH  28  29
ATOM     29  N   UNL A   1      35.312  31.002  29.234  1.00  0.00    -0.352 N 
ATOM     30  C   UNL A   1      36.253  30.763  30.205  1.00  0.00     0.251 C 
ATOM     31  H   UNL A   1      34.511  31.477  29.556  1.00  0.00     0.163 HD
ATOM     32  O   UNL A   1      35.936  30.918  31.383  1.00  0.00    -0.269 OA
BRANCH  30  33
ATOM     33  C   UNL A   1      37.624  30.315  29.870  1.00  0.00     0.039 A 
ATOM     34  C   UNL A   1      38.047  30.381  28.536  1.00  0.00     0.014 A 
ATOM     35  C   UNL A   1      38.470  29.757  30.830  1.00  0.00     0.014 A 
ATOM     36  C   UNL A   1      39.328  29.943  28.181  1.00  0.00     0.010 A 
ATOM     37  C   UNL A   1      39.774  29.398  30.493  1.00  0.00     0.010 A 
ATOM     38  C   UNL A   1      40.214  29.475  29.163  1.00  0.00    -0.014 A 
BRANCH  38  39
ATOM     39  C   UNL A   1      41.594  29.039  28.827  1.00  0.00     0.031 A 
ATOM     40  C   UNL A   1      42.714  30.045  28.774  1.00  0.00     0.074 A 
ATOM     41  C   UNL A   1      41.825  27.759  28.474  1.00  0.00     0.049 A 
ATOM     42  N   UNL A   1      43.952  29.886  28.382  1.00  0.00    -0.248 NA
ATOM     43  C   UNL A   1      42.385  31.420  29.181  1.00  0.00     0.031 C 
ATOM     44  C   UNL A   1      40.813  26.703  28.422  1.00  0.00     0.029 A 
ATOM     45  N   UNL A   1      42.978  27.137  28.067  1.00  0.00    -0.354 N 
ATOM     46  C   UNL A   1      44.538  31.145  28.458  1.00  0.00     0.074 A 
ATOM     47  C   UNL A   1      43.508  32.062  28.895  1.00  0.00     0.031 C 
ATOM     48  C   UNL A   1      41.390  25.563  28.009  1.00  0.00     0.029 A 
ATOM     49  C   UNL A   1      42.803  25.815  27.737  1.00  0.00     0.049 A 
ATOM     50  H   UNL A   1      43.848  27.595  28.015  1.00  0.00     0.167 HD
ATOM     51  C   UNL A   1      45.821  31.502  28.206  1.00  0.00     0.037 A 
ATOM     52  C   UNL A   1      43.675  24.907  27.258  1.00  0.00     0.037 A 
ATOM     53  C   UNL A   1      46.853  30.578  27.814  1.00  0.00     0.049 A 
ATOM     54  C   UNL A   1      45.108  25.305  27.043  1.00  0.00     0.074 A 
ATOM     55  C   UNL A   1      48.201  30.821  27.618  1.00  0.00     0.029 A 
ATOM     56  N   UNL A   1      46.650  29.228  27.560  1.00  0.00    -0.354 N 
ATOM     57  N   UNL A   1      45.663  26.484  27.189  1.00  0.00    -0.248 NA
ATOM     58  C   UNL A   1      46.034  24.251  26.612  1.00  0.00     0.031 C 
ATOM     59  C   UNL A   1      48.808  29.624  27.216  1.00  0.00     0.029 A 
ATOM     60  C   UNL A   1      47.845  28.629  27.195  1.00  0.00     0.049 A 
ATOM     61  H   UNL A   1      45.784  28.765  27.629  1.00  0.00     0.167 HD
ATOM     62  C   UNL A   1      47.006  26.313  26.879  1.00  0.00     0.074 A 
ATOM     63  C   UNL A   1      47.183  24.912  26.552  1.00  0.00     0.031 C 
ATOM     64  C   UNL A   1      48.003  27.233  26.867  1.00  0.00     0.037 A 
BRANCH  51  65
ATOM     65  C   UNL A   1      46.168  32.959  28.345  1.00  0.00     0.058 A 
ATOM     66  C   UNL A   1      46.098  33.841  27.255  1.00  0.00     0.135 A 
ATOM     67  C   UNL A   1      46.598  33.475  29.578  1.00  0.00     0.135 A 
ATOM     68  F   UNL A   1      45.705  33.398  26.050  1.00  0.00    -0.206 F 
ATOM     69  C   UNL A   1      46.494  35.169  27.367  1.00  0.00     0.059 A 
ATOM     70  C   UNL A   1      46.973  34.808  29.720  1.00  0.00     0.059 A 
ATOM     71  F   UNL A   1      46.678  32.677  30.654  1.00  0.00    -0.206 F 
ATOM     72  C   UNL A   1      46.944  35.640  28.601  1.00  0.00     0.060 A 
BRANCH  72  73
ATOM     73  S   UNL A   1      47.504  37.352  28.727  1.00  0.00     0.124 S 
ATOM     74  O   UNL A   1      46.464  38.051  27.976  1.00  0.00    -0.237 OA
ATOM     75  O   UNL A   1      47.503  37.580  30.169  1.00  0.00    -0.237 OA
ATOM     76  O   UNL A   1      48.821  37.324  28.101  1.00  0.00    -0.744 OA
ENDBRANCH  72  73
ENDBRANCH  51  65
BRANCH  52  77
ATOM     77  C   UNL A   1      43.204  23.527  26.981  1.00  0.00     0.058 A 
ATOM     78  C   UNL A   1      42.976  23.094  25.667  1.00  0.00     0.135 A 
ATOM     79  C   UNL A   1      43.054  22.591  28.016  1.00  0.00     0.135 A 
ATOM     80  F   UNL A   1      43.103  23.956  24.646  1.00  0.00    -0.206 F 
ATOM     81  C   UNL A   1      42.625  21.779  25.385  1.00  0.00     0.059 A 
ATOM     82  C   UNL A   1      42.722  21.265  27.758  1.00  0.00     0.059 A 
ATOM     83  F   UNL A   1      43.281  22.954  29.288  1.00  0.00    -0.206 F 
ATOM     84  C   UNL A   1      42.512  20.867  26.437  1.00  0.00     0.060 A 
BRANCH  84  85
ATOM     85  S   UNL A   1      42.169  19.135  26.054  1.00  0.00     0.124 S 
ATOM     86  O   UNL A   1      40.732  19.167  25.808  1.00  0.00    -0.237 OA
ATOM     87  O   UNL A   1      43.012  18.906  24.885  1.00  0.00    -0.237 OA
ATOM     88  O   UNL A   1      42.590  18.437  27.264  1.00  0.00    -0.744 OA
ENDBRANCH  84  85
ENDBRANCH  52  77
BRANCH  64  89
ATOM     89  C   UNL A   1      49.377  26.754  26.499  1.00  0.00     0.058 A 
ATOM     90  C   UNL A   1      50.218  26.144  27.443  1.00  0.00     0.135 A 
ATOM     91  C   UNL A   1      49.839  26.857  25.177  1.00  0.00     0.135 A 
ATOM     92  F   UNL A   1      49.825  26.029  28.721  1.00  0.00    -0.206 F 
ATOM     93  C   UNL A   1      51.477  25.670  27.093  1.00  0.00     0.059 A 
ATOM     94  C   UNL A   1      51.087  26.371  24.800  1.00  0.00     0.059 A 
ATOM     95  F   UNL A   1      49.069  27.426  24.234  1.00  0.00    -0.206 F 
ATOM     96  C   UNL A   1      51.902  25.787  25.768  1.00  0.00     0.060 A 
BRANCH  96  97
ATOM     97  S   UNL A   1      53.524  25.134  25.316  1.00  0.00     0.124 S 
ATOM     98  O   UNL A   1      53.299  23.696  25.409  1.00  0.00    -0.237 OA
ATOM     99  O   UNL A   1      53.712  25.661  23.968  1.00  0.00    -0.237 OA
ATOM    100  O   UNL A   1      54.409  25.699  26.330  1.00  0.00    -0.744 OA
ENDBRANCH  96  97
ENDBRANCH  64  89
ENDBRANCH  38  39
ENDBRANCH  30  33
ENDBRANCH  28  29
ENDBRANCH   1  28
TORSDOF 16
ENDMDL
MODEL 3
REMARK VINA RESULT:     -12.9      6.731     12.410
REMARK SMILES Cc1ccc(S(=O)(=O)Nc2cc3c(cc2C(=O)NCCCNC(=O)c2ccc(-c4c5nc(c(-c6c(F)cc(S(=O)(=O)[O-])cc6F)c6ccc([nH]6)c(-c6c(F)cc(S(=O)(=O)[O-])cc6F)c6nc(c(-c7c(F)cc(S(=O)(=O)[O-])cc7F)c7ccc4[nH]7)C=C6)C=C5)cc2)OCCO3)s1
REMARK SMILES IDX 20 1 19 2 18 3 16 4 17 5 15 7 10 8 11 9 12 10 14 11 13 12
REMARK SMILES IDX 94 13 91 14 93 15 92 16 9 17 6 19 7 20 8 21 5 22 1 23 2 24
REMARK SMILES IDX 3 25 95 26 4 27 21 28 22 29 23 30 24 32 25 33 26 34 90 35
REMARK SMILES IDX 27 36 89 37 28 38 29 39 30 40 83 41 31 42 88 43 82 44 84 45
REMARK SMILES IDX 32 46 87 47 81 48 80 49 33 51 67 52 46 53 66 54 47 55 50 56
REMARK SMILES IDX 65 57 85 58 48 59 49 60 64 62 86 63 51 64 34 65 35 66 44 67
REMARK SMILES IDX 36 68 37 69 43 70 45 71 38 72 39 73 40 74 41 75 42 76 68 77
REMARK SMILES IDX 69 78 78 79 70 80 71 81 77 82 79 83 72 84 73 85 74 86 75 87
REMARK SMILES IDX 76 88 52 89 53 90 62 91 54 92 55 93 61 94 63 95 56 96 57 97
REMARK SMILES IDX 58 98 59 99 60 100
REMARK H PARENT 18 6 9 18 22 31 84 50 50 61
REMARK Flexibility Score: inf
ROOT
ATOM      1  C   UNL A   1      33.968  29.384  27.278  1.00  0.00     0.042 C 
ENDROOT
BRANCH   1   2
ATOM      2  C   UNL A   1      33.105  30.049  26.215  1.00  0.00     0.118 C 
BRANCH   2   3
ATOM      3  N   UNL A   1      33.460  29.703  24.845  1.00  0.00    -0.352 N 
ATOM      4  C   UNL A   1      33.266  28.610  24.035  1.00  0.00     0.253 C 
ATOM      5  O   UNL A   1      33.625  28.726  22.864  1.00  0.00    -0.269 OA
ATOM      6  H   UNL A   1      33.955  30.423  24.392  1.00  0.00     0.163 HD
BRANCH   4   7
ATOM      7  C   UNL A   1      32.664  27.326  24.501  1.00  0.00     0.067 A 
ATOM      8  C   UNL A   1      31.267  27.211  24.700  1.00  0.00     0.066 A 
ATOM      9  C   UNL A   1      30.709  25.997  25.128  1.00  0.00     0.078 A 
ATOM     10  C   UNL A   1      31.528  24.891  25.342  1.00  0.00     0.163 A 
ATOM     11  C   UNL A   1      33.473  26.232  24.821  1.00  0.00     0.066 A 
ATOM     12  C   UNL A   1      32.907  25.007  25.166  1.00  0.00     0.162 A 
ATOM     13  O   UNL A   1      30.918  23.725  25.725  1.00  0.00    -0.486 OA
ATOM     14  O   UNL A   1      33.773  23.956  25.314  1.00  0.00    -0.486 OA
ATOM     15  C   UNL A   1      31.868  22.738  26.157  1.00  0.00     0.271 C 
ATOM     16  C   UNL A   1      33.073  22.707  25.232  1.00  0.00     0.271 C 
BRANCH   8  17
ATOM     17  N   UNL A   1      30.393  28.328  24.488  1.00  0.00    -0.278 N 
ATOM     18  H   UNL A   1      30.352  29.065  25.139  1.00  0.00     0.180 HD
BRANCH  17  19
ATOM     19  S   UNL A   1      29.437  28.352  23.097  1.00  0.00     0.271 S 
ATOM     20  O   UNL A   1      28.272  27.543  23.360  1.00  0.00    -0.200 OA
ATOM     21  O   UNL A   1      30.315  28.033  21.983  1.00  0.00    -0.200 OA
BRANCH  19  22
ATOM     22  C   UNL A   1      28.913  30.022  22.780  1.00  0.00     0.140 A 
ATOM     23  C   UNL A   1      27.665  33.025  20.584  1.00  0.00     0.056 C 
ATOM     24  C   UNL A   1      28.123  32.051  21.616  1.00  0.00     0.003 A 
ATOM     25  C   UNL A   1      28.471  32.307  22.926  1.00  0.00     0.016 A 
ATOM     26  S   UNL A   1      28.298  30.392  21.230  1.00  0.00    -0.127 S 
ATOM     27  C   UNL A   1      28.924  31.139  23.595  1.00  0.00     0.034 A 
ENDBRANCH  19  22
ENDBRANCH  17  19
ENDBRANCH   8  17
ENDBRANCH   4   7
ENDBRANCH   2   3
ENDBRANCH   1   2
BRANCH   1  28
ATOM     28  C   UNL A   1      35.245  30.132  27.637  1.00  0.00     0.118 C 
BRANCH  28  29
ATOM     29  N   UNL A   1      35.277  30.550  29.032  1.00  0.00    -0.352 N 
ATOM     30  C   UNL A   1      36.238  30.416  30.003  1.00  0.00     0.251 C 
ATOM     31  H   UNL A   1      34.461  31.013  29.333  1.00  0.00     0.163 HD
ATOM     32  O   UNL A   1      35.931  30.638  31.172  1.00  0.00    -0.269 OA
BRANCH  30  33
ATOM     33  C   UNL A   1      37.623  30.002  29.678  1.00  0.00     0.039 A 
ATOM     34  C   UNL A   1      38.476  29.623  30.723  1.00  0.00     0.014 A 
ATOM     35  C   UNL A   1      38.120  30.058  28.375  1.00  0.00     0.014 A 
ATOM     36  C   UNL A   1      39.798  29.250  30.453  1.00  0.00     0.010 A 
ATOM     37  C   UNL A   1      39.408  29.607  28.095  1.00  0.00     0.010 A 
ATOM     38  C   UNL A   1      40.266  29.210  29.131  1.00  0.00    -0.014 A 
BRANCH  38  39
ATOM     39  C   UNL A   1      41.651  28.781  28.806  1.00  0.00     0.031 A 
ATOM     40  C   UNL A   1      42.766  29.792  28.759  1.00  0.00     0.074 A 
ATOM     41  C   UNL A   1      41.891  27.501  28.458  1.00  0.00     0.049 A 
ATOM     42  N   UNL A   1      44.008  29.638  28.376  1.00  0.00    -0.248 NA
ATOM     43  C   UNL A   1      42.428  31.166  29.160  1.00  0.00     0.031 C 
ATOM     44  C   UNL A   1      40.884  26.439  28.401  1.00  0.00     0.029 A 
ATOM     45  N   UNL A   1      43.050  26.884  28.060  1.00  0.00    -0.354 N 
ATOM     46  C   UNL A   1      44.588  30.899  28.454  1.00  0.00     0.074 A 
ATOM     47  C   UNL A   1      43.550  31.813  28.881  1.00  0.00     0.031 C 
ATOM     48  C   UNL A   1      41.469  25.302  27.995  1.00  0.00     0.029 A 
ATOM     49  C   UNL A   1      42.883  25.560  27.732  1.00  0.00     0.049 A 
ATOM     50  H   UNL A   1      43.917  27.345  28.013  1.00  0.00     0.167 HD
ATOM     51  C   UNL A   1      45.871  31.262  28.210  1.00  0.00     0.037 A 
ATOM     52  C   UNL A   1      43.764  24.655  27.262  1.00  0.00     0.037 A 
ATOM     53  C   UNL A   1      46.910  30.342  27.827  1.00  0.00     0.049 A 
ATOM     54  C   UNL A   1      45.195  25.059  27.056  1.00  0.00     0.074 A 
ATOM     55  C   UNL A   1      48.258  30.592  27.641  1.00  0.00     0.029 A 
ATOM     56  N   UNL A   1      46.715  28.992  27.575  1.00  0.00    -0.354 N 
ATOM     57  N   UNL A   1      45.744  26.242  27.203  1.00  0.00    -0.248 NA
ATOM     58  C   UNL A   1      46.130  24.009  26.634  1.00  0.00     0.031 C 
ATOM     59  C   UNL A   1      48.873  29.397  27.246  1.00  0.00     0.029 A 
ATOM     60  C   UNL A   1      47.916  28.397  27.220  1.00  0.00     0.049 A 
ATOM     61  H   UNL A   1      45.851  28.524  27.639  1.00  0.00     0.167 HD
ATOM     62  C   UNL A   1      47.090  26.076  26.903  1.00  0.00     0.074 A 
ATOM     63  C   UNL A   1      47.276  24.675  26.580  1.00  0.00     0.031 C 
ATOM     64  C   UNL A   1      48.083  27.001  26.896  1.00  0.00     0.037 A 
BRANCH  51  65
ATOM     65  C   UNL A   1      46.209  32.721  28.348  1.00  0.00     0.058 A 
ATOM     66  C   UNL A   1      46.159  33.597  27.252  1.00  0.00     0.135 A 
ATOM     67  C   UNL A   1      46.612  33.245  29.587  1.00  0.00     0.135 A 
ATOM     68  F   UNL A   1      45.793  33.146  26.042  1.00  0.00    -0.206 F 
ATOM     69  C   UNL A   1      46.548  34.928  27.365  1.00  0.00     0.059 A 
ATOM     70  C   UNL A   1      46.979  34.581  29.730  1.00  0.00     0.059 A 
ATOM     71  F   UNL A   1      46.672  32.454  30.669  1.00  0.00    -0.206 F 
ATOM     72  C   UNL A   1      46.970  35.407  28.606  1.00  0.00     0.060 A 
BRANCH  72  73
ATOM     73  S   UNL A   1      47.521  37.122  28.734  1.00  0.00     0.124 S 
ATOM     74  O   UNL A   1      47.258  37.610  27.383  1.00  0.00    -0.237 OA
ATOM     75  O   UNL A   1      46.654  37.655  29.780  1.00  0.00    -0.237 OA
ATOM     76  O   UNL A   1      48.929  36.998  29.094  1.00  0.00    -0.744 OA
ENDBRANCH  72  73
ENDBRANCH  51  65
BRANCH  52  77
ATOM     77  C   UNL A   1      43.301  23.272  26.984  1.00  0.00     0.058 A 
ATOM     78  C   UNL A   1      43.203  22.795  25.669  1.00  0.00     0.135 A 
ATOM     79  C   UNL A   1      43.030  22.375  28.029  1.00  0.00     0.135 A 
ATOM     80  F   UNL A   1      43.449  23.619  24.638  1.00  0.00    -0.206 F 
ATOM     81  C   UNL A   1      42.862  21.475  25.397  1.00  0.00     0.059 A 
ATOM     82  C   UNL A   1      42.704  21.045  27.783  1.00  0.00     0.059 A 
ATOM     83  F   UNL A   1      43.130  22.780  29.305  1.00  0.00    -0.206 F 
ATOM     84  C   UNL A   1      42.626  20.604  26.463  1.00  0.00     0.060 A 
BRANCH  84  85
ATOM     85  S   UNL A   1      42.296  18.864  26.105  1.00  0.00     0.124 S 
ATOM     86  O   UNL A   1      40.881  18.899  25.751  1.00  0.00    -0.237 OA
ATOM     87  O   UNL A   1      43.222  18.594  25.010  1.00  0.00    -0.237 OA
ATOM     88  O   UNL A   1      42.618  18.199  27.363  1.00  0.00    -0.744 OA
ENDBRANCH  84  85
ENDBRANCH  52  77
BRANCH  64  89
ATOM     89  C   UNL A   1      49.462  26.528  26.539  1.00  0.00     0.058 A 
ATOM     90  C   UNL A   1      49.964  26.652  25.234  1.00  0.00     0.135 A 
ATOM     91  C   UNL A   1      50.310  25.994  27.522  1.00  0.00     0.135 A 
ATOM     92  F   UNL A   1      49.189  27.149  24.257  1.00  0.00    -0.206 F 
ATOM     93  C   UNL A   1      51.254  26.245  24.912  1.00  0.00     0.059 A 
ATOM     94  C   UNL A   1      51.611  25.600  27.227  1.00  0.00     0.059 A 
ATOM     95  F   UNL A   1      49.879  25.862  28.787  1.00  0.00    -0.206 F 
ATOM     96  C   UNL A   1      52.071  25.721  25.917  1.00  0.00     0.060 A 
BRANCH  96  97
ATOM     97  S   UNL A   1      53.757  25.229  25.496  1.00  0.00     0.124 S 
ATOM     98  O   UNL A   1      53.523  24.029  24.702  1.00  0.00    -0.237 OA
ATOM     99  O   UNL A   1      54.250  26.390  24.762  1.00  0.00    -0.237 OA
ATOM    100  O   UNL A   1      54.379  25.010  26.799  1.00  0.00    -0.744 OA
ENDBRANCH  96  97
ENDBRANCH  64  89
ENDBRANCH  38  39
ENDBRANCH  30  33
ENDBRANCH  28  29
ENDBRANCH   1  28
TORSDOF 16
ENDMDL
