MODEL 1
REMARK VINA RESULT:     -10.8      0.000      0.000
REMARK SMILES CC[C@](C)(NC(=O)CCOc1ccc(Cl)c(Cl)c1)C(=O)NCCCNC(=O)c1ccc(-c2c3nc(c(-c4c(F)cc(S(=O)(=O)[O-])cc4F)c4ccc([nH]4)c(-c4c(F)cc(S(=O)(=O)[O-])cc4F)c4nc(c(-c5c(F)cc(S(=O)(=O)[O-])cc5F)c5ccc2[nH]5)C=C4)C=C3)cc1
REMARK SMILES IDX 22 1 21 2 19 3 20 4 3 6 4 7 2 8 1 9 5 10 6 11 7 13 8 14 9 15
REMARK SMILES IDX 10 16 11 17 12 18 18 19 13 20 16 21 14 22 17 23 15 24 23 25
REMARK SMILES IDX 24 26 25 27 26 28 27 30 28 31 29 32 93 33 30 34 92 35 31 36
REMARK SMILES IDX 32 37 33 38 86 39 34 40 91 41 85 42 87 43 35 44 90 45 84 46
REMARK SMILES IDX 83 47 36 49 70 50 49 51 69 52 50 53 53 54 68 55 88 56 51 57
REMARK SMILES IDX 52 58 67 60 89 61 54 62 37 63 38 64 47 65 39 66 40 67 46 68
REMARK SMILES IDX 48 69 41 70 42 71 43 72 44 73 45 74 71 75 72 76 81 77 73 78
REMARK SMILES IDX 74 79 80 80 82 81 75 82 76 83 77 84 78 85 79 86 55 87 56 88
REMARK SMILES IDX 65 89 57 90 58 91 64 92 66 93 59 94 60 95 61 96 62 97 63 98
REMARK H PARENT 21 5 5 12 25 29 87 48 53 59
REMARK Flexibility Score: inf
ROOT
ATOM      1  C   UNL A   1      33.919  26.612  25.231  1.00  0.00     0.117 C 
ENDROOT
BRANCH   1   2
ATOM      2  N   UNL A   1      33.438  25.451  25.965  1.00  0.00    -0.354 N 
ATOM      3  C   UNL A   1      33.755  24.130  25.871  1.00  0.00     0.245 C 
ATOM      4  O   UNL A   1      33.319  23.392  26.760  1.00  0.00    -0.272 OA
ATOM      5  H   UNL A   1      32.764  25.658  26.653  1.00  0.00     0.163 HD
BRANCH   3   6
ATOM      6  C   UNL A   1      34.697  23.598  24.755  1.00  0.00     0.116 C 
ATOM      7  C   UNL A   1      34.689  22.065  24.769  1.00  0.00     0.045 C 
BRANCH   6   8
ATOM      8  C   UNL A   1      36.144  24.056  25.122  1.00  0.00     0.035 C 
ATOM      9  C   UNL A   1      37.037  22.996  25.758  1.00  0.00     0.007 C 
ENDBRANCH   6   8
BRANCH   6  10
ATOM     10  N   UNL A   1      34.281  24.119  23.433  1.00  0.00    -0.342 N 
ATOM     11  C   UNL A   1      33.227  23.824  22.623  1.00  0.00     0.224 C 
ATOM     12  H   UNL A   1      34.882  24.809  23.070  1.00  0.00     0.164 HD
ATOM     13  O   UNL A   1      33.224  24.338  21.501  1.00  0.00    -0.275 OA
BRANCH  11  14
ATOM     14  C   UNL A   1      32.046  23.001  23.090  1.00  0.00     0.141 C 
BRANCH  14  15
ATOM     15  C   UNL A   1      30.898  23.837  23.659  1.00  0.00     0.239 C 
BRANCH  15  16
ATOM     16  O   UNL A   1      31.211  25.230  23.795  1.00  0.00    -0.493 OA
BRANCH  16  17
ATOM     17  C   UNL A   1      30.245  26.151  23.500  1.00  0.00     0.120 A 
ATOM     18  C   UNL A   1      28.914  26.089  23.897  1.00  0.00     0.048 A 
ATOM     19  C   UNL A   1      30.693  27.275  22.798  1.00  0.00     0.068 A 
ATOM     20  C   UNL A   1      28.077  27.198  23.745  1.00  0.00     0.026 A 
ATOM     21  C   UNL A   1      29.854  28.379  22.617  1.00  0.00     0.063 A 
ATOM     22  C   UNL A   1      28.552  28.354  23.127  1.00  0.00     0.059 A 
ATOM     23  Cl  UNL A   1      30.509  29.771  21.827  1.00  0.00    -0.083 Cl
ATOM     24  Cl  UNL A   1      27.500  29.722  23.064  1.00  0.00    -0.083 Cl
ENDBRANCH  16  17
ENDBRANCH  15  16
ENDBRANCH  14  15
ENDBRANCH  11  14
ENDBRANCH   6  10
ENDBRANCH   3   6
ENDBRANCH   1   2
BRANCH   1  25
ATOM     25  C   UNL A   1      33.356  27.937  25.721  1.00  0.00     0.042 C 
BRANCH  25  26
ATOM     26  C   UNL A   1      33.691  28.256  27.168  1.00  0.00     0.118 C 
BRANCH  26  27
ATOM     27  N   UNL A   1      33.595  29.684  27.438  1.00  0.00    -0.352 N 
ATOM     28  C   UNL A   1      34.482  30.493  28.098  1.00  0.00     0.251 C 
ATOM     29  H   UNL A   1      32.783  30.128  27.101  1.00  0.00     0.163 HD
ATOM     30  O   UNL A   1      34.114  31.593  28.519  1.00  0.00    -0.269 OA
BRANCH  28  31
ATOM     31  C   UNL A   1      35.868  30.037  28.306  1.00  0.00     0.039 A 
ATOM     32  C   UNL A   1      36.787  30.108  27.257  1.00  0.00     0.014 A 
ATOM     33  C   UNL A   1      36.254  29.534  29.551  1.00  0.00     0.014 A 
ATOM     34  C   UNL A   1      38.114  29.730  27.478  1.00  0.00     0.010 A 
ATOM     35  C   UNL A   1      37.591  29.246  29.793  1.00  0.00     0.010 A 
ATOM     36  C   UNL A   1      38.532  29.326  28.757  1.00  0.00    -0.014 A 
BRANCH  36  37
ATOM     37  C   UNL A   1      39.937  28.945  29.044  1.00  0.00     0.031 A 
ATOM     38  C   UNL A   1      40.888  29.984  29.579  1.00  0.00     0.074 A 
ATOM     39  C   UNL A   1      40.380  27.711  28.735  1.00  0.00     0.049 A 
ATOM     40  N   UNL A   1      42.183  29.915  29.743  1.00  0.00    -0.248 NA
ATOM     41  C   UNL A   1      40.306  31.288  29.942  1.00  0.00     0.031 C 
ATOM     42  C   UNL A   1      39.562  26.631  28.180  1.00  0.00     0.029 A 
ATOM     43  N   UNL A   1      41.635  27.163  28.822  1.00  0.00    -0.354 N 
ATOM     44  C   UNL A   1      42.572  31.168  30.200  1.00  0.00     0.074 A 
ATOM     45  C   UNL A   1      41.386  31.994  30.238  1.00  0.00     0.031 C 
ATOM     46  C   UNL A   1      40.333  25.549  27.985  1.00  0.00     0.029 A 
ATOM     47  C   UNL A   1      41.708  25.871  28.357  1.00  0.00     0.049 A 
ATOM     48  H   UNL A   1      42.411  27.650  29.184  1.00  0.00     0.167 HD
ATOM     49  C   UNL A   1      43.804  31.585  30.575  1.00  0.00     0.037 A 
ATOM     50  C   UNL A   1      42.766  25.047  28.223  1.00  0.00     0.037 A 
ATOM     51  C   UNL A   1      44.971  30.744  30.563  1.00  0.00     0.049 A 
ATOM     52  C   UNL A   1      44.129  25.534  28.642  1.00  0.00     0.074 A 
ATOM     53  C   UNL A   1      46.256  31.051  30.972  1.00  0.00     0.029 A 
ATOM     54  N   UNL A   1      44.994  29.428  30.123  1.00  0.00    -0.354 N 
ATOM     55  N   UNL A   1      44.473  26.708  29.116  1.00  0.00    -0.248 NA
ATOM     56  C   UNL A   1      45.245  24.587  28.513  1.00  0.00     0.031 C 
ATOM     57  C   UNL A   1      47.066  29.936  30.738  1.00  0.00     0.029 A 
ATOM     58  C   UNL A   1      46.275  28.915  30.237  1.00  0.00     0.049 A 
ATOM     59  H   UNL A   1      44.215  28.933  29.781  1.00  0.00     0.167 HD
ATOM     60  C   UNL A   1      45.837  26.626  29.381  1.00  0.00     0.074 A 
ATOM     61  C   UNL A   1      46.254  25.290  29.011  1.00  0.00     0.031 C 
ATOM     62  C   UNL A   1      46.664  27.570  29.891  1.00  0.00     0.037 A 
BRANCH  49  63
ATOM     63  C   UNL A   1      43.953  33.012  31.029  1.00  0.00     0.058 A 
ATOM     64  C   UNL A   1      43.773  33.383  32.371  1.00  0.00     0.135 A 
ATOM     65  C   UNL A   1      44.314  34.018  30.116  1.00  0.00     0.135 A 
ATOM     66  F   UNL A   1      43.413  32.467  33.284  1.00  0.00    -0.206 F 
ATOM     67  C   UNL A   1      43.914  34.703  32.787  1.00  0.00     0.059 A 
ATOM     68  C   UNL A   1      44.491  35.339  30.515  1.00  0.00     0.059 A 
ATOM     69  F   UNL A   1      44.497  33.720  28.820  1.00  0.00    -0.206 F 
ATOM     70  C   UNL A   1      44.274  35.674  31.851  1.00  0.00     0.060 A 
BRANCH  70  71
ATOM     71  S   UNL A   1      44.456  37.380  32.409  1.00  0.00     0.124 S 
ATOM     72  O   UNL A   1      43.935  38.119  31.262  1.00  0.00    -0.237 OA
ATOM     73  O   UNL A   1      43.626  37.406  33.609  1.00  0.00    -0.237 OA
ATOM     74  O   UNL A   1      45.892  37.512  32.639  1.00  0.00    -0.744 OA
ENDBRANCH  70  71
ENDBRANCH  49  63
BRANCH  50  75
ATOM     75  C   UNL A   1      42.576  23.672  27.688  1.00  0.00     0.058 A 
ATOM     76  C   UNL A   1      42.577  23.431  26.306  1.00  0.00     0.135 A 
ATOM     77  C   UNL A   1      42.407  22.572  28.542  1.00  0.00     0.135 A 
ATOM     78  F   UNL A   1      42.730  24.451  25.448  1.00  0.00    -0.206 F 
ATOM     79  C   UNL A   1      42.401  22.152  25.788  1.00  0.00     0.059 A 
ATOM     80  C   UNL A   1      42.255  21.279  28.049  1.00  0.00     0.059 A 
ATOM     81  F   UNL A   1      42.416  22.745  29.873  1.00  0.00    -0.206 F 
ATOM     82  C   UNL A   1      42.243  21.081  26.669  1.00  0.00     0.060 A 
BRANCH  82  83
ATOM     83  S   UNL A   1      42.060  19.419  25.986  1.00  0.00     0.124 S 
ATOM     84  O   UNL A   1      42.895  19.498  24.793  1.00  0.00    -0.237 OA
ATOM     85  O   UNL A   1      42.572  18.586  27.070  1.00  0.00    -0.237 OA
ATOM     86  O   UNL A   1      40.625  19.311  25.746  1.00  0.00    -0.744 OA
ENDBRANCH  82  83
ENDBRANCH  50  75
BRANCH  62  87
ATOM     87  C   UNL A   1      48.095  27.186  30.147  1.00  0.00     0.058 A 
ATOM     88  C   UNL A   1      49.108  27.420  29.206  1.00  0.00     0.135 A 
ATOM     89  C   UNL A   1      48.467  26.663  31.397  1.00  0.00     0.135 A 
ATOM     90  F   UNL A   1      48.804  27.911  27.994  1.00  0.00    -0.206 F 
ATOM     91  C   UNL A   1      50.441  27.144  29.492  1.00  0.00     0.059 A 
ATOM     92  C   UNL A   1      49.796  26.405  31.714  1.00  0.00     0.059 A 
ATOM     93  F   UNL A   1      47.536  26.428  32.336  1.00  0.00    -0.206 F 
ATOM     94  C   UNL A   1      50.776  26.645  30.753  1.00  0.00     0.060 A 
BRANCH  94  95
ATOM     95  S   UNL A   1      52.517  26.359  31.136  1.00  0.00     0.124 S 
ATOM     96  O   UNL A   1      52.845  27.545  31.920  1.00  0.00    -0.237 OA
ATOM     97  O   UNL A   1      52.471  25.102  31.876  1.00  0.00    -0.237 OA
ATOM     98  O   UNL A   1      53.146  26.281  29.822  1.00  0.00    -0.744 OA
ENDBRANCH  94  95
ENDBRANCH  62  87
ENDBRANCH  36  37
ENDBRANCH  28  31
ENDBRANCH  26  27
ENDBRANCH  25  26
ENDBRANCH   1  25
TORSDOF 19
ENDMDL
MODEL 2
REMARK VINA RESULT:     -10.8      1.792      3.543
REMARK SMILES CC[C@](C)(NC(=O)CCOc1ccc(Cl)c(Cl)c1)C(=O)NCCCNC(=O)c1ccc(-c2c3nc(c(-c4c(F)cc(S(=O)(=O)[O-])cc4F)c4ccc([nH]4)c(-c4c(F)cc(S(=O)(=O)[O-])cc4F)c4nc(c(-c5c(F)cc(S(=O)(=O)[O-])cc5F)c5ccc2[nH]5)C=C4)C=C3)cc1
REMARK SMILES IDX 22 1 21 2 19 3 20 4 3 6 4 7 2 8 1 9 5 10 6 11 7 13 8 14 9 15
REMARK SMILES IDX 10 16 11 17 12 18 18 19 13 20 16 21 14 22 17 23 15 24 23 25
REMARK SMILES IDX 24 26 25 27 26 28 27 30 28 31 29 32 93 33 30 34 92 35 31 36
REMARK SMILES IDX 32 37 33 38 86 39 34 40 91 41 85 42 87 43 35 44 90 45 84 46
REMARK SMILES IDX 83 47 36 49 70 50 49 51 69 52 50 53 53 54 68 55 88 56 51 57
REMARK SMILES IDX 52 58 67 60 89 61 54 62 37 63 38 64 47 65 39 66 40 67 46 68
REMARK SMILES IDX 48 69 41 70 42 71 43 72 44 73 45 74 71 75 72 76 81 77 73 78
REMARK SMILES IDX 74 79 80 80 82 81 75 82 76 83 77 84 78 85 79 86 55 87 56 88
REMARK SMILES IDX 65 89 57 90 58 91 64 92 66 93 59 94 60 95 61 96 62 97 63 98
REMARK H PARENT 21 5 5 12 25 29 87 48 53 59
REMARK Flexibility Score: inf
ROOT
ATOM      1  C   UNL A   1      33.471  26.930  25.372  1.00  0.00     0.117 C 
ENDROOT
BRANCH   1   2
ATOM      2  N   UNL A   1      32.209  26.573  26.003  1.00  0.00    -0.354 N 
ATOM      3  C   UNL A   1      30.933  26.565  25.526  1.00  0.00     0.245 C 
ATOM      4  O   UNL A   1      30.080  26.030  26.241  1.00  0.00    -0.272 OA
ATOM      5  H   UNL A   1      32.293  26.286  26.942  1.00  0.00     0.163 HD
BRANCH   3   6
ATOM      6  C   UNL A   1      30.591  27.113  24.113  1.00  0.00     0.116 C 
ATOM      7  C   UNL A   1      30.895  28.614  24.061  1.00  0.00     0.045 C 
BRANCH   6   8
ATOM      8  C   UNL A   1      29.051  26.946  23.919  1.00  0.00     0.035 C 
ATOM      9  C   UNL A   1      28.339  28.098  23.216  1.00  0.00     0.007 C 
ENDBRANCH   6   8
BRANCH   6  10
ATOM     10  N   UNL A   1      31.352  26.381  23.075  1.00  0.00    -0.342 N 
ATOM     11  C   UNL A   1      31.502  25.053  22.815  1.00  0.00     0.224 C 
ATOM     12  H   UNL A   1      31.845  26.968  22.456  1.00  0.00     0.164 HD
ATOM     13  O   UNL A   1      32.323  24.743  21.947  1.00  0.00    -0.275 OA
BRANCH  11  14
ATOM     14  C   UNL A   1      30.635  23.994  23.461  1.00  0.00     0.141 C 
BRANCH  14  15
ATOM     15  C   UNL A   1      31.418  22.993  24.313  1.00  0.00     0.239 C 
BRANCH  15  16
ATOM     16  O   UNL A   1      32.526  23.574  25.014  1.00  0.00    -0.493 OA
BRANCH  16  17
ATOM     17  C   UNL A   1      33.665  22.835  25.168  1.00  0.00     0.120 A 
ATOM     18  C   UNL A   1      33.814  21.492  24.839  1.00  0.00     0.048 A 
ATOM     19  C   UNL A   1      34.776  23.548  25.630  1.00  0.00     0.068 A 
ATOM     20  C   UNL A   1      35.082  20.906  24.813  1.00  0.00     0.026 A 
ATOM     21  C   UNL A   1      36.045  22.961  25.633  1.00  0.00     0.063 A 
ATOM     22  C   UNL A   1      36.204  21.646  25.186  1.00  0.00     0.059 A 
ATOM     23  Cl  UNL A   1      37.386  23.936  26.124  1.00  0.00    -0.083 Cl
ATOM     24  Cl  UNL A   1      37.750  20.894  25.032  1.00  0.00    -0.083 Cl
ENDBRANCH  16  17
ENDBRANCH  15  16
ENDBRANCH  14  15
ENDBRANCH  11  14
ENDBRANCH   6  10
ENDBRANCH   3   6
ENDBRANCH   1   2
BRANCH   1  25
ATOM     25  C   UNL A   1      34.092  28.214  25.902  1.00  0.00     0.042 C 
BRANCH  25  26
ATOM     26  C   UNL A   1      33.813  28.477  27.371  1.00  0.00     0.118 C 
BRANCH  26  27
ATOM     27  N   UNL A   1      33.737  29.904  27.655  1.00  0.00    -0.352 N 
ATOM     28  C   UNL A   1      34.641  30.697  28.310  1.00  0.00     0.251 C 
ATOM     29  H   UNL A   1      32.925  30.359  27.332  1.00  0.00     0.163 HD
ATOM     30  O   UNL A   1      34.291  31.797  28.746  1.00  0.00    -0.269 OA
BRANCH  28  31
ATOM     31  C   UNL A   1      36.025  30.224  28.496  1.00  0.00     0.039 A 
ATOM     32  C   UNL A   1      36.912  30.233  27.418  1.00  0.00     0.014 A 
ATOM     33  C   UNL A   1      36.440  29.766  29.749  1.00  0.00     0.014 A 
ATOM     34  C   UNL A   1      38.239  29.840  27.616  1.00  0.00     0.010 A 
ATOM     35  C   UNL A   1      37.777  29.463  29.963  1.00  0.00     0.010 A 
ATOM     36  C   UNL A   1      38.688  29.482  28.897  1.00  0.00    -0.014 A 
BRANCH  36  37
ATOM     37  C   UNL A   1      40.094  29.087  29.159  1.00  0.00     0.031 A 
ATOM     38  C   UNL A   1      41.063  30.114  29.684  1.00  0.00     0.074 A 
ATOM     39  C   UNL A   1      40.521  27.851  28.835  1.00  0.00     0.049 A 
ATOM     40  N   UNL A   1      42.360  30.032  29.825  1.00  0.00    -0.248 NA
ATOM     41  C   UNL A   1      40.499  31.421  30.064  1.00  0.00     0.031 C 
ATOM     42  C   UNL A   1      39.684  26.781  28.286  1.00  0.00     0.029 A 
ATOM     43  N   UNL A   1      41.772  27.291  28.898  1.00  0.00    -0.354 N 
ATOM     44  C   UNL A   1      42.768  31.279  30.284  1.00  0.00     0.074 A 
ATOM     45  C   UNL A   1      41.590  32.115  30.346  1.00  0.00     0.031 C 
ATOM     46  C   UNL A   1      40.442  25.694  28.073  1.00  0.00     0.029 A 
ATOM     47  C   UNL A   1      41.826  26.002  28.423  1.00  0.00     0.049 A 
ATOM     48  H   UNL A   1      42.558  27.769  29.249  1.00  0.00     0.167 HD
ATOM     49  C   UNL A   1      44.010  31.683  30.640  1.00  0.00     0.037 A 
ATOM     50  C   UNL A   1      42.874  25.169  28.266  1.00  0.00     0.037 A 
ATOM     51  C   UNL A   1      45.169  30.832  30.604  1.00  0.00     0.049 A 
ATOM     52  C   UNL A   1      44.248  25.641  28.665  1.00  0.00     0.074 A 
ATOM     53  C   UNL A   1      46.463  31.125  30.993  1.00  0.00     0.029 A 
ATOM     54  N   UNL A   1      45.172  29.519  30.156  1.00  0.00    -0.354 N 
ATOM     55  N   UNL A   1      44.611  26.809  29.141  1.00  0.00    -0.248 NA
ATOM     56  C   UNL A   1      45.353  24.685  28.512  1.00  0.00     0.031 C 
ATOM     57  C   UNL A   1      47.259  30.005  30.738  1.00  0.00     0.029 A 
ATOM     58  C   UNL A   1      46.450  28.994  30.245  1.00  0.00     0.049 A 
ATOM     59  H   UNL A   1      44.383  29.032  29.823  1.00  0.00     0.167 HD
ATOM     60  C   UNL A   1      45.978  26.714  29.382  1.00  0.00     0.074 A 
ATOM     61  C   UNL A   1      46.377  25.376  28.997  1.00  0.00     0.031 C 
ATOM     62  C   UNL A   1      46.822  27.647  29.884  1.00  0.00     0.037 A 
BRANCH  49  63
ATOM     63  C   UNL A   1      44.179  33.105  31.100  1.00  0.00     0.058 A 
ATOM     64  C   UNL A   1      44.491  34.141  30.204  1.00  0.00     0.135 A 
ATOM     65  C   UNL A   1      43.994  33.446  32.451  1.00  0.00     0.135 A 
ATOM     66  F   UNL A   1      44.694  33.872  28.905  1.00  0.00    -0.206 F 
ATOM     67  C   UNL A   1      44.645  35.455  30.633  1.00  0.00     0.059 A 
ATOM     68  C   UNL A   1      44.112  34.758  32.898  1.00  0.00     0.059 A 
ATOM     69  F   UNL A   1      43.696  32.496  33.352  1.00  0.00    -0.206 F 
ATOM     70  C   UNL A   1      44.453  35.754  31.983  1.00  0.00     0.060 A 
BRANCH  70  71
ATOM     71  S   UNL A   1      44.652  37.464  32.522  1.00  0.00     0.124 S 
ATOM     72  O   UNL A   1      46.096  37.642  32.400  1.00  0.00    -0.237 OA
ATOM     73  O   UNL A   1      43.840  38.193  31.553  1.00  0.00    -0.237 OA
ATOM     74  O   UNL A   1      44.135  37.454  33.887  1.00  0.00    -0.744 OA
ENDBRANCH  70  71
ENDBRANCH  49  63
BRANCH  50  75
ATOM     75  C   UNL A   1      42.663  23.800  27.726  1.00  0.00     0.058 A 
ATOM     76  C   UNL A   1      42.511  22.702  28.587  1.00  0.00     0.135 A 
ATOM     77  C   UNL A   1      42.591  23.561  26.345  1.00  0.00     0.135 A 
ATOM     78  F   UNL A   1      42.578  22.877  29.915  1.00  0.00    -0.206 F 
ATOM     79  C   UNL A   1      42.313  21.414  28.099  1.00  0.00     0.059 A 
ATOM     80  C   UNL A   1      42.367  22.286  25.834  1.00  0.00     0.059 A 
ATOM     81  F   UNL A   1      42.712  24.578  25.479  1.00  0.00    -0.206 F 
ATOM     82  C   UNL A   1      42.240  21.217  26.719  1.00  0.00     0.060 A 
BRANCH  82  83
ATOM     83  S   UNL A   1      41.937  19.548  26.099  1.00  0.00     0.124 S 
ATOM     84  O   UNL A   1      42.789  19.515  24.916  1.00  0.00    -0.237 OA
ATOM     85  O   UNL A   1      42.370  18.722  27.222  1.00  0.00    -0.237 OA
ATOM     86  O   UNL A   1      40.500  19.540  25.843  1.00  0.00    -0.744 OA
ENDBRANCH  82  83
ENDBRANCH  50  75
BRANCH  62  87
ATOM     87  C   UNL A   1      48.253  27.249  30.114  1.00  0.00     0.058 A 
ATOM     88  C   UNL A   1      49.253  27.485  29.159  1.00  0.00     0.135 A 
ATOM     89  C   UNL A   1      48.641  26.710  31.352  1.00  0.00     0.135 A 
ATOM     90  F   UNL A   1      48.934  27.990  27.957  1.00  0.00    -0.206 F 
ATOM     91  C   UNL A   1      50.588  27.195  29.421  1.00  0.00     0.059 A 
ATOM     92  C   UNL A   1      49.972  26.438  31.646  1.00  0.00     0.059 A 
ATOM     93  F   UNL A   1      47.723  26.473  32.303  1.00  0.00    -0.206 F 
ATOM     94  C   UNL A   1      50.939  26.680  30.672  1.00  0.00     0.060 A 
BRANCH  94  95
ATOM     95  S   UNL A   1      52.683  26.376  31.024  1.00  0.00     0.124 S 
ATOM     96  O   UNL A   1      53.235  26.235  29.681  1.00  0.00    -0.237 OA
ATOM     97  O   UNL A   1      53.071  27.585  31.745  1.00  0.00    -0.237 OA
ATOM     98  O   UNL A   1      52.661  25.157  31.825  1.00  0.00    -0.744 OA
ENDBRANCH  94  95
ENDBRANCH  62  87
ENDBRANCH  36  37
ENDBRANCH  28  31
ENDBRANCH  26  27
ENDBRANCH  25  26
ENDBRANCH   1  25
TORSDOF 19
ENDMDL
MODEL 3
REMARK VINA RESULT:     -10.6      4.243      9.499
REMARK SMILES CC[C@](C)(NC(=O)CCOc1ccc(Cl)c(Cl)c1)C(=O)NCCCNC(=O)c1ccc(-c2c3nc(c(-c4c(F)cc(S(=O)(=O)[O-])cc4F)c4ccc([nH]4)c(-c4c(F)cc(S(=O)(=O)[O-])cc4F)c4nc(c(-c5c(F)cc(S(=O)(=O)[O-])cc5F)c5ccc2[nH]5)C=C4)C=C3)cc1
REMARK SMILES IDX 22 1 21 2 19 3 20 4 3 6 4 7 2 8 1 9 5 10 6 11 7 13 8 14 9 15
REMARK SMILES IDX 10 16 11 17 12 18 18 19 13 20 16 21 14 22 17 23 15 24 23 25
REMARK SMILES IDX 24 26 25 27 26 28 27 30 28 31 29 32 93 33 30 34 92 35 31 36
REMARK SMILES IDX 32 37 33 38 86 39 34 40 91 41 85 42 87 43 35 44 90 45 84 46
REMARK SMILES IDX 83 47 36 49 70 50 49 51 69 52 50 53 53 54 68 55 88 56 51 57
REMARK SMILES IDX 52 58 67 60 89 61 54 62 37 63 38 64 47 65 39 66 40 67 46 68
REMARK SMILES IDX 48 69 41 70 42 71 43 72 44 73 45 74 71 75 72 76 81 77 73 78
REMARK SMILES IDX 74 79 80 80 82 81 75 82 76 83 77 84 78 85 79 86 55 87 56 88
REMARK SMILES IDX 65 89 57 90 58 91 64 92 66 93 59 94 60 95 61 96 62 97 63 98
REMARK H PARENT 21 5 5 12 25 29 87 48 53 59
REMARK Flexibility Score: inf
ROOT
ATOM      1  C   UNL A   1      37.499  20.803  24.568  1.00  0.00     0.117 C 
ENDROOT
BRANCH   1   2
ATOM      2  N   UNL A   1      37.859  22.158  24.960  1.00  0.00    -0.354 N 
ATOM      3  C   UNL A   1      37.093  23.227  25.316  1.00  0.00     0.245 C 
ATOM      4  O   UNL A   1      37.689  24.202  25.784  1.00  0.00    -0.272 OA
ATOM      5  H   UNL A   1      38.828  22.332  24.971  1.00  0.00     0.163 HD
BRANCH   3   6
ATOM      6  C   UNL A   1      35.543  23.181  25.228  1.00  0.00     0.116 C 
ATOM      7  C   UNL A   1      35.125  22.752  23.816  1.00  0.00     0.045 C 
BRANCH   6   8
ATOM      8  C   UNL A   1      35.029  24.641  25.438  1.00  0.00     0.035 C 
ATOM      9  C   UNL A   1      34.206  25.228  24.296  1.00  0.00     0.007 C 
ENDBRANCH   6   8
BRANCH   6  10
ATOM     10  N   UNL A   1      34.992  22.259  26.247  1.00  0.00    -0.342 N 
ATOM     11  C   UNL A   1      33.717  21.911  26.574  1.00  0.00     0.224 C 
ATOM     12  H   UNL A   1      35.680  21.814  26.793  1.00  0.00     0.164 HD
ATOM     13  O   UNL A   1      33.570  21.207  27.577  1.00  0.00    -0.275 OA
BRANCH  11  14
ATOM     14  C   UNL A   1      32.529  22.260  25.703  1.00  0.00     0.141 C 
BRANCH  14  15
ATOM     15  C   UNL A   1      32.285  21.265  24.566  1.00  0.00     0.239 C 
BRANCH  15  16
ATOM     16  O   UNL A   1      31.905  19.957  25.015  1.00  0.00    -0.493 OA
BRANCH  16  17
ATOM     17  C   UNL A   1      32.787  18.926  24.853  1.00  0.00     0.120 A 
ATOM     18  C   UNL A   1      34.121  19.048  24.479  1.00  0.00     0.048 A 
ATOM     19  C   UNL A   1      32.284  17.661  25.173  1.00  0.00     0.068 A 
ATOM     20  C   UNL A   1      34.986  17.956  24.578  1.00  0.00     0.026 A 
ATOM     21  C   UNL A   1      33.139  16.556  25.248  1.00  0.00     0.063 A 
ATOM     22  C   UNL A   1      34.503  16.713  24.987  1.00  0.00     0.059 A 
ATOM     23  Cl  UNL A   1      32.464  15.045  25.747  1.00  0.00    -0.083 Cl
ATOM     24  Cl  UNL A   1      35.645  15.434  25.187  1.00  0.00    -0.083 Cl
ENDBRANCH  16  17
ENDBRANCH  15  16
ENDBRANCH  14  15
ENDBRANCH  11  14
ENDBRANCH   6  10
ENDBRANCH   3   6
ENDBRANCH   1   2
BRANCH   1  25
ATOM     25  C   UNL A   1      38.430  19.729  25.107  1.00  0.00     0.042 C 
BRANCH  25  26
ATOM     26  C   UNL A   1      39.511  20.255  26.036  1.00  0.00     0.118 C 
BRANCH  26  27
ATOM     27  N   UNL A   1      40.570  19.275  26.235  1.00  0.00    -0.352 N 
ATOM     28  C   UNL A   1      41.926  19.467  26.235  1.00  0.00     0.251 C 
ATOM     29  H   UNL A   1      40.270  18.350  26.390  1.00  0.00     0.163 HD
ATOM     30  O   UNL A   1      42.684  18.503  26.097  1.00  0.00    -0.269 OA
BRANCH  28  31
ATOM     31  C   UNL A   1      42.469  20.829  26.390  1.00  0.00     0.039 A 
ATOM     32  C   UNL A   1      42.862  21.552  25.262  1.00  0.00     0.014 A 
ATOM     33  C   UNL A   1      42.592  21.387  27.665  1.00  0.00     0.014 A 
ATOM     34  C   UNL A   1      43.319  22.865  25.411  1.00  0.00     0.010 A 
ATOM     35  C   UNL A   1      42.960  22.718  27.802  1.00  0.00     0.010 A 
ATOM     36  C   UNL A   1      43.342  23.467  26.679  1.00  0.00    -0.014 A 
BRANCH  36  37
ATOM     37  C   UNL A   1      43.791  24.868  26.881  1.00  0.00     0.031 A 
ATOM     38  C   UNL A   1      45.249  25.206  26.709  1.00  0.00     0.074 A 
ATOM     39  C   UNL A   1      42.921  25.801  27.310  1.00  0.00     0.049 A 
ATOM     40  N   UNL A   1      45.880  26.315  26.993  1.00  0.00    -0.248 NA
ATOM     41  C   UNL A   1      46.118  24.138  26.183  1.00  0.00     0.031 C 
ATOM     42  C   UNL A   1      41.492  25.584  27.546  1.00  0.00     0.029 A 
ATOM     43  N   UNL A   1      43.115  27.117  27.648  1.00  0.00    -0.354 N 
ATOM     44  C   UNL A   1      47.218  26.070  26.706  1.00  0.00     0.074 A 
ATOM     45  C   UNL A   1      47.316  24.693  26.276  1.00  0.00     0.031 C 
ATOM     46  C   UNL A   1      40.938  26.728  27.980  1.00  0.00     0.029 A 
ATOM     47  C   UNL A   1      41.978  27.746  28.099  1.00  0.00     0.049 A 
ATOM     48  H   UNL A   1      43.987  27.569  27.575  1.00  0.00     0.167 HD
ATOM     49  C   UNL A   1      48.266  26.925  26.774  1.00  0.00     0.037 A 
ATOM     50  C   UNL A   1      41.798  28.994  28.575  1.00  0.00     0.037 A 
ATOM     51  C   UNL A   1      48.150  28.302  27.172  1.00  0.00     0.049 A 
ATOM     52  C   UNL A   1      42.979  29.926  28.647  1.00  0.00     0.074 A 
ATOM     53  C   UNL A   1      49.139  29.268  27.225  1.00  0.00     0.029 A 
ATOM     54  N   UNL A   1      46.973  28.911  27.582  1.00  0.00    -0.354 N 
ATOM     55  N   UNL A   1      44.231  29.694  28.328  1.00  0.00    -0.248 NA
ATOM     56  C   UNL A   1      42.726  31.287  29.137  1.00  0.00     0.031 C 
ATOM     57  C   UNL A   1      48.569  30.448  27.709  1.00  0.00     0.029 A 
ATOM     58  C   UNL A   1      47.214  30.236  27.903  1.00  0.00     0.049 A 
ATOM     59  H   UNL A   1      46.095  28.468  27.636  1.00  0.00     0.167 HD
ATOM     60  C   UNL A   1      44.905  30.892  28.540  1.00  0.00     0.074 A 
ATOM     61  C   UNL A   1      43.925  31.844  29.016  1.00  0.00     0.031 C 
ATOM     62  C   UNL A   1      46.216  31.178  28.348  1.00  0.00     0.037 A 
BRANCH  49  63
ATOM     63  C   UNL A   1      49.626  26.395  26.410  1.00  0.00     0.058 A 
ATOM     64  C   UNL A   1      50.138  26.505  25.107  1.00  0.00     0.135 A 
ATOM     65  C   UNL A   1      50.445  25.800  27.385  1.00  0.00     0.135 A 
ATOM     66  F   UNL A   1      49.395  27.051  24.132  1.00  0.00    -0.206 F 
ATOM     67  C   UNL A   1      51.398  26.016  24.775  1.00  0.00     0.059 A 
ATOM     68  C   UNL A   1      51.720  25.332  27.084  1.00  0.00     0.059 A 
ATOM     69  F   UNL A   1      50.005  25.668  28.647  1.00  0.00    -0.206 F 
ATOM     70  C   UNL A   1      52.181  25.431  25.771  1.00  0.00     0.060 A 
BRANCH  70  71
ATOM     71  S   UNL A   1      53.814  24.806  25.325  1.00  0.00     0.124 S 
ATOM     72  O   UNL A   1      54.131  25.627  24.159  1.00  0.00    -0.237 OA
ATOM     73  O   UNL A   1      54.594  25.086  26.526  1.00  0.00    -0.237 OA
ATOM     74  O   UNL A   1      53.575  23.393  25.050  1.00  0.00    -0.744 OA
ENDBRANCH  70  71
ENDBRANCH  49  63
BRANCH  50  75
ATOM     75  C   UNL A   1      40.445  29.440  29.002  1.00  0.00     0.058 A 
ATOM     76  C   UNL A   1      40.137  29.609  30.360  1.00  0.00     0.135 A 
ATOM     77  C   UNL A   1      39.439  29.722  28.065  1.00  0.00     0.135 A 
ATOM     78  F   UNL A   1      41.064  29.348  31.295  1.00  0.00    -0.206 F 
ATOM     79  C   UNL A   1      38.877  30.026  30.777  1.00  0.00     0.059 A 
ATOM     80  C   UNL A   1      38.178  30.165  28.456  1.00  0.00     0.059 A 
ATOM     81  F   UNL A   1      39.686  29.593  26.752  1.00  0.00    -0.206 F 
ATOM     82  C   UNL A   1      37.904  30.304  29.815  1.00  0.00     0.060 A 
BRANCH  82  83
ATOM     83  S   UNL A   1      36.286  30.887  30.366  1.00  0.00     0.124 S 
ATOM     84  O   UNL A   1      36.573  32.277  30.703  1.00  0.00    -0.237 OA
ATOM     85  O   UNL A   1      35.464  30.675  29.179  1.00  0.00    -0.237 OA
ATOM     86  O   UNL A   1      35.981  30.014  31.495  1.00  0.00    -0.744 OA
ENDBRANCH  82  83
ENDBRANCH  50  75
BRANCH  62  87
ATOM     87  C   UNL A   1      46.670  32.591  28.588  1.00  0.00     0.058 A 
ATOM     88  C   UNL A   1      47.218  32.998  29.813  1.00  0.00     0.135 A 
ATOM     89  C   UNL A   1      46.641  33.524  27.538  1.00  0.00     0.135 A 
ATOM     90  F   UNL A   1      47.261  32.148  30.851  1.00  0.00    -0.206 F 
ATOM     91  C   UNL A   1      47.717  34.285  29.991  1.00  0.00     0.059 A 
ATOM     92  C   UNL A   1      47.159  34.805  27.685  1.00  0.00     0.059 A 
ATOM     93  F   UNL A   1      46.134  33.181  26.342  1.00  0.00    -0.206 F 
ATOM     94  C   UNL A   1      47.692  35.178  28.918  1.00  0.00     0.060 A 
BRANCH  94  95
ATOM     95  S   UNL A   1      48.409  36.820  29.142  1.00  0.00     0.124 S 
ATOM     96  O   UNL A   1      48.349  37.356  27.785  1.00  0.00    -0.237 OA
ATOM     97  O   UNL A   1      47.497  37.430  30.105  1.00  0.00    -0.237 OA
ATOM     98  O   UNL A   1      49.748  36.541  29.647  1.00  0.00    -0.744 OA
ENDBRANCH  94  95
ENDBRANCH  62  87
ENDBRANCH  36  37
ENDBRANCH  28  31
ENDBRANCH  26  27
ENDBRANCH  25  26
ENDBRANCH   1  25
TORSDOF 19
ENDMDL
