MODEL 1
REMARK VINA RESULT:     -14.2      0.000      0.000
REMARK SMILES Cc1cccc(-c2ccc(Cl)c(C(=O)NCCCNC(=O)c3ccc(-c4c5nc(c(-c6c(F)cc(S(=O)(=O)[O-])cc6F)c6ccc([nH]6)c(-c6c(F)cc(S(=O)(=O)[O-])cc6F)c6nc(c(-c7c(F)cc(S(=O)(=O)[O-])cc7F)c7ccc4[nH]7)C=C6)C=C5)cc3)c2)c1
REMARK SMILES IDX 18 1 17 2 16 3 15 4 13 5 14 6 12 8 7 9 8 10 88 11 9 12 10 13
REMARK SMILES IDX 11 14 6 15 1 16 2 17 3 18 89 19 4 20 5 21 19 22 20 23 21 25
REMARK SMILES IDX 22 26 23 27 87 28 24 29 86 30 25 31 26 32 27 33 80 34 28 35
REMARK SMILES IDX 85 36 79 37 81 38 29 39 84 40 78 41 77 42 30 44 64 45 43 46
REMARK SMILES IDX 63 47 44 48 47 49 62 50 82 51 45 52 46 53 61 55 83 56 48 57
REMARK SMILES IDX 31 58 32 59 41 60 33 61 34 62 40 63 42 64 35 65 36 66 37 67
REMARK SMILES IDX 38 68 39 69 65 70 66 71 75 72 67 73 68 74 74 75 76 76 69 77
REMARK SMILES IDX 70 78 71 79 72 80 73 81 49 82 50 83 59 84 51 85 52 86 58 87
REMARK SMILES IDX 60 88 53 89 54 90 55 91 56 92 57 93
REMARK H PARENT 15 7 19 24 81 43 47 54
REMARK Flexibility Score: inf
ROOT
ATOM      1  C   UNL A   1      34.384  29.750  27.134  1.00  0.00     0.118 C 
ENDROOT
BRANCH   1   2
ATOM      2  C   UNL A   1      32.861  29.748  27.253  1.00  0.00     0.042 C 
BRANCH   2   3
ATOM      3  C   UNL A   1      32.213  30.432  26.059  1.00  0.00     0.118 C 
BRANCH   3   4
ATOM      4  N   UNL A   1      32.484  29.783  24.777  1.00  0.00    -0.352 N 
ATOM      5  C   UNL A   1      32.245  28.577  24.178  1.00  0.00     0.252 C 
ATOM      6  O   UNL A   1      32.631  28.476  23.007  1.00  0.00    -0.269 OA
ATOM      7  H   UNL A   1      32.979  30.385  24.176  1.00  0.00     0.163 HD
BRANCH   5   8
ATOM      8  C   UNL A   1      31.660  27.357  24.806  1.00  0.00     0.059 A 
ATOM      9  C   UNL A   1      32.257  25.241  25.954  1.00  0.00    -0.017 A 
ATOM     10  C   UNL A   1      30.899  24.922  26.025  1.00  0.00     0.010 A 
ATOM     11  C   UNL A   1      32.610  26.498  25.431  1.00  0.00     0.024 A 
ATOM     12  C   UNL A   1      29.958  25.729  25.397  1.00  0.00     0.022 A 
ATOM     13  C   UNL A   1      30.351  26.884  24.701  1.00  0.00     0.053 A 
ATOM     14  Cl  UNL A   1      29.205  27.402  23.525  1.00  0.00    -0.083 Cl
BRANCH   9  15
ATOM     15  C   UNL A   1      33.258  24.187  26.203  1.00  0.00    -0.018 A 
ATOM     16  C   UNL A   1      36.999  23.757  25.497  1.00  0.00     0.044 C 
ATOM     17  C   UNL A   1      35.605  23.478  25.975  1.00  0.00    -0.051 A 
ATOM     18  C   UNL A   1      35.295  22.281  26.621  1.00  0.00     0.003 A 
ATOM     19  C   UNL A   1      34.585  24.413  25.771  1.00  0.00     0.012 A 
ATOM     20  C   UNL A   1      33.991  22.041  27.067  1.00  0.00     0.001 A 
ATOM     21  C   UNL A   1      32.979  22.989  26.864  1.00  0.00     0.009 A 
ENDBRANCH   9  15
ENDBRANCH   5   8
ENDBRANCH   3   4
ENDBRANCH   2   3
ENDBRANCH   1   2
BRANCH   1  22
ATOM     22  N   UNL A   1      35.040  30.982  27.539  1.00  0.00    -0.352 N 
ATOM     23  C   UNL A   1      36.290  31.116  28.164  1.00  0.00     0.251 C 
ATOM     24  H   UNL A   1      34.554  31.817  27.352  1.00  0.00     0.163 HD
ATOM     25  O   UNL A   1      36.673  32.173  28.598  1.00  0.00    -0.269 OA
BRANCH  23  26
ATOM     26  C   UNL A   1      37.130  29.900  28.231  1.00  0.00     0.039 A 
ATOM     27  C   UNL A   1      37.177  29.187  29.433  1.00  0.00     0.014 A 
ATOM     28  C   UNL A   1      38.052  29.654  27.217  1.00  0.00     0.014 A 
ATOM     29  C   UNL A   1      38.273  28.367  29.702  1.00  0.00     0.010 A 
ATOM     30  C   UNL A   1      39.186  28.928  27.525  1.00  0.00     0.010 A 
ATOM     31  C   UNL A   1      39.321  28.318  28.783  1.00  0.00    -0.014 A 
BRANCH  31  32
ATOM     32  C   UNL A   1      40.633  27.731  29.059  1.00  0.00     0.031 A 
ATOM     33  C   UNL A   1      40.920  26.331  28.659  1.00  0.00     0.074 A 
ATOM     34  C   UNL A   1      41.633  28.506  29.535  1.00  0.00     0.049 A 
ATOM     35  N   UNL A   1      41.952  25.648  29.025  1.00  0.00    -0.248 NA
ATOM     36  C   UNL A   1      40.003  25.562  27.826  1.00  0.00     0.031 C 
ATOM     37  C   UNL A   1      43.066  28.236  29.453  1.00  0.00     0.029 A 
ATOM     38  N   UNL A   1      41.542  29.620  30.369  1.00  0.00    -0.354 N 
ATOM     39  C   UNL A   1      41.990  24.491  28.277  1.00  0.00     0.074 A 
ATOM     40  C   UNL A   1      40.723  24.464  27.587  1.00  0.00     0.031 C 
ATOM     41  C   UNL A   1      43.708  28.987  30.359  1.00  0.00     0.029 A 
ATOM     42  C   UNL A   1      42.700  29.644  31.170  1.00  0.00     0.049 A 
ATOM     43  H   UNL A   1      40.803  30.270  30.393  1.00  0.00     0.167 HD
ATOM     44  C   UNL A   1      43.144  23.759  28.232  1.00  0.00     0.037 A 
ATOM     45  C   UNL A   1      42.622  29.535  32.531  1.00  0.00     0.037 A 
ATOM     46  C   UNL A   1      44.123  24.268  29.195  1.00  0.00     0.049 A 
ATOM     47  C   UNL A   1      43.291  28.304  33.100  1.00  0.00     0.074 A 
ATOM     48  C   UNL A   1      45.219  25.108  29.074  1.00  0.00     0.029 A 
ATOM     49  N   UNL A   1      43.862  24.160  30.558  1.00  0.00    -0.354 N 
ATOM     50  N   UNL A   1      43.692  27.291  32.383  1.00  0.00    -0.248 NA
ATOM     51  C   UNL A   1      43.535  28.103  34.527  1.00  0.00     0.031 C 
ATOM     52  C   UNL A   1      45.568  25.566  30.370  1.00  0.00     0.029 A 
ATOM     53  C   UNL A   1      44.699  24.991  31.281  1.00  0.00     0.049 A 
ATOM     54  H   UNL A   1      43.178  23.573  30.954  1.00  0.00     0.167 HD
ATOM     55  C   UNL A   1      44.172  26.306  33.205  1.00  0.00     0.074 A 
ATOM     56  C   UNL A   1      44.090  26.878  34.536  1.00  0.00     0.031 C 
ATOM     57  C   UNL A   1      44.577  25.092  32.727  1.00  0.00     0.037 A 
BRANCH  44  58
ATOM     58  C   UNL A   1      43.488  22.785  27.112  1.00  0.00     0.058 A 
ATOM     59  C   UNL A   1      42.819  21.545  27.001  1.00  0.00     0.135 A 
ATOM     60  C   UNL A   1      44.520  22.966  26.169  1.00  0.00     0.135 A 
ATOM     61  F   UNL A   1      41.738  21.262  27.741  1.00  0.00    -0.206 F 
ATOM     62  C   UNL A   1      43.226  20.528  26.132  1.00  0.00     0.059 A 
ATOM     63  C   UNL A   1      44.986  21.946  25.332  1.00  0.00     0.059 A 
ATOM     64  F   UNL A   1      45.083  24.163  25.970  1.00  0.00    -0.206 F 
ATOM     65  C   UNL A   1      44.341  20.720  25.330  1.00  0.00     0.060 A 
BRANCH  65  66
ATOM     66  S   UNL A   1      44.919  19.368  24.288  1.00  0.00     0.124 S 
ATOM     67  O   UNL A   1      44.191  18.226  24.830  1.00  0.00    -0.237 OA
ATOM     68  O   UNL A   1      44.507  19.812  22.960  1.00  0.00    -0.237 OA
ATOM     69  O   UNL A   1      46.360  19.349  24.522  1.00  0.00    -0.744 OA
ENDBRANCH  65  66
ENDBRANCH  44  58
BRANCH  45  70
ATOM     70  C   UNL A   1      41.423  30.210  33.098  1.00  0.00     0.058 A 
ATOM     71  C   UNL A   1      41.471  31.612  33.212  1.00  0.00     0.135 A 
ATOM     72  C   UNL A   1      40.162  29.600  33.052  1.00  0.00     0.135 A 
ATOM     73  F   UNL A   1      42.658  32.238  33.285  1.00  0.00    -0.206 F 
ATOM     74  C   UNL A   1      40.329  32.390  33.085  1.00  0.00     0.059 A 
ATOM     75  C   UNL A   1      38.999  30.363  32.935  1.00  0.00     0.059 A 
ATOM     76  F   UNL A   1      40.058  28.267  32.953  1.00  0.00    -0.206 F 
ATOM     77  C   UNL A   1      39.109  31.753  32.867  1.00  0.00     0.060 A 
BRANCH  77  78
ATOM     78  S   UNL A   1      37.734  32.764  32.268  1.00  0.00     0.124 S 
ATOM     79  O   UNL A   1      38.350  33.501  31.170  1.00  0.00    -0.237 OA
ATOM     80  O   UNL A   1      36.771  31.735  31.880  1.00  0.00    -0.237 OA
ATOM     81  O   UNL A   1      37.369  33.559  33.435  1.00  0.00    -0.744 OA
ENDBRANCH  77  78
ENDBRANCH  45  70
BRANCH  57  82
ATOM     82  C   UNL A   1      44.963  23.912  33.580  1.00  0.00     0.058 A 
ATOM     83  C   UNL A   1      44.064  22.906  33.975  1.00  0.00     0.135 A 
ATOM     84  C   UNL A   1      46.318  23.696  33.920  1.00  0.00     0.135 A 
ATOM     85  F   UNL A   1      42.772  22.953  33.619  1.00  0.00    -0.206 F 
ATOM     86  C   UNL A   1      44.468  21.794  34.715  1.00  0.00     0.059 A 
ATOM     87  C   UNL A   1      46.751  22.569  34.614  1.00  0.00     0.059 A 
ATOM     88  F   UNL A   1      47.270  24.579  33.578  1.00  0.00    -0.206 F 
ATOM     89  C   UNL A   1      45.815  21.634  35.032  1.00  0.00     0.060 A 
BRANCH  89  90
ATOM     90  S   UNL A   1      46.360  20.178  35.944  1.00  0.00     0.124 S 
ATOM     91  O   UNL A   1      47.808  20.363  35.949  1.00  0.00    -0.237 OA
ATOM     92  O   UNL A   1      45.703  20.335  37.239  1.00  0.00    -0.237 OA
ATOM     93  O   UNL A   1      45.865  19.073  35.130  1.00  0.00    -0.744 OA
ENDBRANCH  89  90
ENDBRANCH  57  82
ENDBRANCH  31  32
ENDBRANCH  23  26
ENDBRANCH   1  22
TORSDOF 14
ENDMDL
MODEL 2
REMARK VINA RESULT:     -14.0      4.667     11.474
REMARK SMILES Cc1cccc(-c2ccc(Cl)c(C(=O)NCCCNC(=O)c3ccc(-c4c5nc(c(-c6c(F)cc(S(=O)(=O)[O-])cc6F)c6ccc([nH]6)c(-c6c(F)cc(S(=O)(=O)[O-])cc6F)c6nc(c(-c7c(F)cc(S(=O)(=O)[O-])cc7F)c7ccc4[nH]7)C=C6)C=C5)cc3)c2)c1
REMARK SMILES IDX 18 1 17 2 16 3 15 4 13 5 14 6 12 8 7 9 8 10 88 11 9 12 10 13
REMARK SMILES IDX 11 14 6 15 1 16 2 17 3 18 89 19 4 20 5 21 19 22 20 23 21 25
REMARK SMILES IDX 22 26 23 27 87 28 24 29 86 30 25 31 26 32 27 33 80 34 28 35
REMARK SMILES IDX 85 36 79 37 81 38 29 39 84 40 78 41 77 42 30 44 64 45 43 46
REMARK SMILES IDX 63 47 44 48 47 49 62 50 82 51 45 52 46 53 61 55 83 56 48 57
REMARK SMILES IDX 31 58 32 59 41 60 33 61 34 62 40 63 42 64 35 65 36 66 37 67
REMARK SMILES IDX 38 68 39 69 65 70 66 71 75 72 67 73 68 74 74 75 76 76 69 77
REMARK SMILES IDX 70 78 71 79 72 80 73 81 49 82 50 83 59 84 51 85 52 86 58 87
REMARK SMILES IDX 60 88 53 89 54 90 55 91 56 92 57 93
REMARK H PARENT 15 7 19 24 81 43 47 54
REMARK Flexibility Score: inf
ROOT
ATOM      1  C   UNL A   1      38.091  23.413  26.194  1.00  0.00     0.118 C 
ENDROOT
BRANCH   1   2
ATOM      2  C   UNL A   1      37.614  22.435  25.122  1.00  0.00     0.042 C 
BRANCH   2   3
ATOM      3  C   UNL A   1      36.602  21.450  25.687  1.00  0.00     0.118 C 
BRANCH   3   4
ATOM      4  N   UNL A   1      35.592  22.058  26.553  1.00  0.00    -0.352 N 
ATOM      5  C   UNL A   1      34.569  22.958  26.443  1.00  0.00     0.252 C 
ATOM      6  O   UNL A   1      33.912  23.149  27.474  1.00  0.00    -0.269 OA
ATOM      7  H   UNL A   1      35.674  21.725  27.476  1.00  0.00     0.163 HD
BRANCH   5   8
ATOM      8  C   UNL A   1      34.222  23.792  25.256  1.00  0.00     0.059 A 
ATOM      9  C   UNL A   1      33.620  26.096  24.562  1.00  0.00    -0.017 A 
ATOM     10  C   UNL A   1      33.494  25.643  23.246  1.00  0.00     0.010 A 
ATOM     11  C   UNL A   1      34.076  25.182  25.529  1.00  0.00     0.024 A 
ATOM     12  C   UNL A   1      33.603  24.287  22.960  1.00  0.00     0.022 A 
ATOM     13  C   UNL A   1      33.860  23.356  23.980  1.00  0.00     0.053 A 
ATOM     14  Cl  UNL A   1      33.376  21.751  23.585  1.00  0.00    -0.083 Cl
BRANCH   9  15
ATOM     15  C   UNL A   1      33.065  27.412  24.927  1.00  0.00    -0.018 A 
ATOM     16  C   UNL A   1      34.024  30.193  27.381  1.00  0.00     0.044 C 
ATOM     17  C   UNL A   1      33.287  29.429  26.321  1.00  0.00    -0.051 A 
ATOM     18  C   UNL A   1      32.141  29.955  25.724  1.00  0.00     0.003 A 
ATOM     19  C   UNL A   1      33.732  28.165  25.919  1.00  0.00     0.012 A 
ATOM     20  C   UNL A   1      31.471  29.232  24.732  1.00  0.00     0.001 A 
ATOM     21  C   UNL A   1      31.931  27.970  24.331  1.00  0.00     0.009 A 
ENDBRANCH   9  15
ENDBRANCH   5   8
ENDBRANCH   3   4
ENDBRANCH   2   3
ENDBRANCH   1   2
BRANCH   1  22
ATOM     22  N   UNL A   1      39.338  23.059  26.852  1.00  0.00    -0.352 N 
ATOM     23  C   UNL A   1      40.256  23.928  27.463  1.00  0.00     0.251 C 
ATOM     24  H   UNL A   1      39.564  22.101  26.872  1.00  0.00     0.163 HD
ATOM     25  O   UNL A   1      41.335  23.548  27.843  1.00  0.00    -0.269 OA
BRANCH  23  26
ATOM     26  C   UNL A   1      39.817  25.328  27.651  1.00  0.00     0.039 A 
ATOM     27  C   UNL A   1      40.345  26.312  26.808  1.00  0.00     0.014 A 
ATOM     28  C   UNL A   1      39.126  25.675  28.808  1.00  0.00     0.014 A 
ATOM     29  C   UNL A   1      40.358  27.642  27.229  1.00  0.00     0.010 A 
ATOM     30  C   UNL A   1      39.233  26.972  29.272  1.00  0.00     0.010 A 
ATOM     31  C   UNL A   1      39.886  27.950  28.505  1.00  0.00    -0.014 A 
BRANCH  31  32
ATOM     32  C   UNL A   1      40.095  29.235  29.172  1.00  0.00     0.031 A 
ATOM     33  C   UNL A   1      39.041  30.278  29.123  1.00  0.00     0.074 A 
ATOM     34  C   UNL A   1      41.176  29.419  29.963  1.00  0.00     0.049 A 
ATOM     35  N   UNL A   1      39.189  31.507  29.492  1.00  0.00    -0.248 NA
ATOM     36  C   UNL A   1      37.711  30.009  28.588  1.00  0.00     0.031 C 
ATOM     37  C   UNL A   1      41.328  30.412  31.023  1.00  0.00     0.029 A 
ATOM     38  N   UNL A   1      42.446  28.857  29.836  1.00  0.00    -0.354 N 
ATOM     39  C   UNL A   1      37.945  32.101  29.518  1.00  0.00     0.074 A 
ATOM     40  C   UNL A   1      37.071  31.140  28.892  1.00  0.00     0.031 C 
ATOM     41  C   UNL A   1      42.631  30.563  31.301  1.00  0.00     0.029 A 
ATOM     42  C   UNL A   1      43.375  29.799  30.317  1.00  0.00     0.049 A 
ATOM     43  H   UNL A   1      42.654  27.965  29.475  1.00  0.00     0.167 HD
ATOM     44  C   UNL A   1      37.782  33.285  30.182  1.00  0.00     0.037 A 
ATOM     45  C   UNL A   1      44.333  30.331  29.498  1.00  0.00     0.037 A 
ATOM     46  C   UNL A   1      39.074  33.828  30.606  1.00  0.00     0.049 A 
ATOM     47  C   UNL A   1      44.220  31.824  29.290  1.00  0.00     0.074 A 
ATOM     48  C   UNL A   1      39.761  33.801  31.810  1.00  0.00     0.029 A 
ATOM     49  N   UNL A   1      39.986  34.255  29.645  1.00  0.00    -0.354 N 
ATOM     50  N   UNL A   1      43.180  32.534  29.630  1.00  0.00    -0.248 NA
ATOM     51  C   UNL A   1      45.258  32.633  28.655  1.00  0.00     0.031 C 
ATOM     52  C   UNL A   1      41.113  34.140  31.553  1.00  0.00     0.029 A 
ATOM     53  C   UNL A   1      41.246  34.394  30.198  1.00  0.00     0.049 A 
ATOM     54  H   UNL A   1      39.765  34.435  28.703  1.00  0.00     0.167 HD
ATOM     55  C   UNL A   1      43.355  33.831  29.226  1.00  0.00     0.074 A 
ATOM     56  C   UNL A   1      44.689  33.852  28.655  1.00  0.00     0.031 C 
ATOM     57  C   UNL A   1      42.381  34.777  29.373  1.00  0.00     0.037 A 
BRANCH  44  58
ATOM     58  C   UNL A   1      36.442  33.786  30.705  1.00  0.00     0.058 A 
ATOM     59  C   UNL A   1      35.442  34.240  29.814  1.00  0.00     0.135 A 
ATOM     60  C   UNL A   1      36.105  33.929  32.066  1.00  0.00     0.135 A 
ATOM     61  F   UNL A   1      35.552  34.068  28.490  1.00  0.00    -0.206 F 
ATOM     62  C   UNL A   1      34.283  34.901  30.233  1.00  0.00     0.059 A 
ATOM     63  C   UNL A   1      34.983  34.638  32.511  1.00  0.00     0.059 A 
ATOM     64  F   UNL A   1      36.814  33.331  33.028  1.00  0.00    -0.206 F 
ATOM     65  C   UNL A   1      34.081  35.136  31.585  1.00  0.00     0.060 A 
BRANCH  65  66
ATOM     66  S   UNL A   1      32.635  36.075  32.109  1.00  0.00     0.124 S 
ATOM     67  O   UNL A   1      33.177  36.906  33.180  1.00  0.00    -0.237 OA
ATOM     68  O   UNL A   1      32.269  36.778  30.884  1.00  0.00    -0.237 OA
ATOM     69  O   UNL A   1      31.697  35.044  32.543  1.00  0.00    -0.744 OA
ENDBRANCH  65  66
ENDBRANCH  44  58
BRANCH  45  70
ATOM     70  C   UNL A   1      44.851  29.353  28.503  1.00  0.00     0.058 A 
ATOM     71  C   UNL A   1      45.780  28.402  28.963  1.00  0.00     0.135 A 
ATOM     72  C   UNL A   1      44.126  29.052  27.342  1.00  0.00     0.135 A 
ATOM     73  F   UNL A   1      46.517  28.658  30.058  1.00  0.00    -0.206 F 
ATOM     74  C   UNL A   1      45.845  27.127  28.416  1.00  0.00     0.059 A 
ATOM     75  C   UNL A   1      44.184  27.781  26.769  1.00  0.00     0.059 A 
ATOM     76  F   UNL A   1      43.234  29.927  26.854  1.00  0.00    -0.206 F 
ATOM     77  C   UNL A   1      44.983  26.806  27.371  1.00  0.00     0.060 A 
BRANCH  77  78
ATOM     78  S   UNL A   1      44.765  25.055  26.975  1.00  0.00     0.124 S 
ATOM     79  O   UNL A   1      44.504  24.474  28.288  1.00  0.00    -0.237 OA
ATOM     80  O   UNL A   1      43.620  25.107  26.067  1.00  0.00    -0.237 OA
ATOM     81  O   UNL A   1      46.036  24.688  26.364  1.00  0.00    -0.744 OA
ENDBRANCH  77  78
ENDBRANCH  45  70
BRANCH  57  82
ATOM     82  C   UNL A   1      42.441  36.174  28.812  1.00  0.00     0.058 A 
ATOM     83  C   UNL A   1      43.057  37.253  29.468  1.00  0.00     0.135 A 
ATOM     84  C   UNL A   1      41.976  36.433  27.502  1.00  0.00     0.135 A 
ATOM     85  F   UNL A   1      43.626  37.098  30.673  1.00  0.00    -0.206 F 
ATOM     86  C   UNL A   1      43.148  38.522  28.893  1.00  0.00     0.059 A 
ATOM     87  C   UNL A   1      42.102  37.677  26.890  1.00  0.00     0.059 A 
ATOM     88  F   UNL A   1      41.388  35.473  26.771  1.00  0.00    -0.206 F 
ATOM     89  C   UNL A   1      42.665  38.726  27.603  1.00  0.00     0.060 A 
BRANCH  89  90
ATOM     90  S   UNL A   1      42.820  40.346  26.827  1.00  0.00     0.124 S 
ATOM     91  O   UNL A   1      43.759  40.062  25.746  1.00  0.00    -0.237 OA
ATOM     92  O   UNL A   1      41.453  40.643  26.410  1.00  0.00    -0.237 OA
ATOM     93  O   UNL A   1      43.332  41.182  27.908  1.00  0.00    -0.744 OA
ENDBRANCH  89  90
ENDBRANCH  57  82
ENDBRANCH  31  32
ENDBRANCH  23  26
ENDBRANCH   1  22
TORSDOF 14
ENDMDL
MODEL 3
REMARK VINA RESULT:     -14.0      1.243      1.975
REMARK SMILES Cc1cccc(-c2ccc(Cl)c(C(=O)NCCCNC(=O)c3ccc(-c4c5nc(c(-c6c(F)cc(S(=O)(=O)[O-])cc6F)c6ccc([nH]6)c(-c6c(F)cc(S(=O)(=O)[O-])cc6F)c6nc(c(-c7c(F)cc(S(=O)(=O)[O-])cc7F)c7ccc4[nH]7)C=C6)C=C5)cc3)c2)c1
REMARK SMILES IDX 18 1 17 2 16 3 15 4 13 5 14 6 12 8 7 9 8 10 88 11 9 12 10 13
REMARK SMILES IDX 11 14 6 15 1 16 2 17 3 18 89 19 4 20 5 21 19 22 20 23 21 25
REMARK SMILES IDX 22 26 23 27 87 28 24 29 86 30 25 31 26 32 27 33 80 34 28 35
REMARK SMILES IDX 85 36 79 37 81 38 29 39 84 40 78 41 77 42 30 44 64 45 43 46
REMARK SMILES IDX 63 47 44 48 47 49 62 50 82 51 45 52 46 53 61 55 83 56 48 57
REMARK SMILES IDX 31 58 32 59 41 60 33 61 34 62 40 63 42 64 35 65 36 66 37 67
REMARK SMILES IDX 38 68 39 69 65 70 66 71 75 72 67 73 68 74 74 75 76 76 69 77
REMARK SMILES IDX 70 78 71 79 72 80 73 81 49 82 50 83 59 84 51 85 52 86 58 87
REMARK SMILES IDX 60 88 53 89 54 90 55 91 56 92 57 93
REMARK H PARENT 15 7 19 24 81 43 47 54
REMARK Flexibility Score: inf
ROOT
ATOM      1  C   UNL A   1      34.056  29.956  26.968  1.00  0.00     0.118 C 
ENDROOT
BRANCH   1   2
ATOM      2  C   UNL A   1      32.547  29.860  27.188  1.00  0.00     0.042 C 
BRANCH   2   3
ATOM      3  C   UNL A   1      31.822  29.524  25.893  1.00  0.00     0.118 C 
BRANCH   3   4
ATOM      4  N   UNL A   1      32.684  28.967  24.851  1.00  0.00    -0.352 N 
ATOM      5  C   UNL A   1      33.161  27.742  24.475  1.00  0.00     0.252 C 
ATOM      6  O   UNL A   1      33.855  27.730  23.451  1.00  0.00    -0.269 OA
ATOM      7  H   UNL A   1      33.014  29.675  24.252  1.00  0.00     0.163 HD
BRANCH   5   8
ATOM      8  C   UNL A   1      33.013  26.451  25.207  1.00  0.00     0.059 A 
ATOM      9  C   UNL A   1      34.259  24.432  25.933  1.00  0.00    -0.017 A 
ATOM     10  C   UNL A   1      33.078  23.930  26.486  1.00  0.00     0.010 A 
ATOM     11  C   UNL A   1      34.228  25.728  25.387  1.00  0.00     0.024 A 
ATOM     12  C   UNL A   1      31.876  24.603  26.298  1.00  0.00     0.022 A 
ATOM     13  C   UNL A   1      31.831  25.802  25.570  1.00  0.00     0.053 A 
ATOM     14  Cl  UNL A   1      30.272  26.163  24.934  1.00  0.00    -0.083 Cl
BRANCH   9  15
ATOM     15  C   UNL A   1      35.404  23.525  25.734  1.00  0.00    -0.018 A 
ATOM     16  C   UNL A   1      35.829  19.805  24.923  1.00  0.00     0.044 C 
ATOM     17  C   UNL A   1      36.158  21.237  25.226  1.00  0.00    -0.051 A 
ATOM     18  C   UNL A   1      37.483  21.667  25.308  1.00  0.00     0.003 A 
ATOM     19  C   UNL A   1      35.137  22.168  25.443  1.00  0.00     0.012 A 
ATOM     20  C   UNL A   1      37.770  23.007  25.584  1.00  0.00     0.001 A 
ATOM     21  C   UNL A   1      36.739  23.933  25.792  1.00  0.00     0.009 A 
ENDBRANCH   9  15
ENDBRANCH   5   8
ENDBRANCH   3   4
ENDBRANCH   2   3
ENDBRANCH   1   2
BRANCH   1  22
ATOM     22  N   UNL A   1      34.677  31.187  27.427  1.00  0.00    -0.352 N 
ATOM     23  C   UNL A   1      35.908  31.326  28.088  1.00  0.00     0.251 C 
ATOM     24  H   UNL A   1      34.178  32.018  27.255  1.00  0.00     0.163 HD
ATOM     25  O   UNL A   1      36.259  32.376  28.564  1.00  0.00    -0.269 OA
BRANCH  23  26
ATOM     26  C   UNL A   1      36.770  30.125  28.139  1.00  0.00     0.039 A 
ATOM     27  C   UNL A   1      36.810  29.380  29.322  1.00  0.00     0.014 A 
ATOM     28  C   UNL A   1      37.715  29.923  27.136  1.00  0.00     0.014 A 
ATOM     29  C   UNL A   1      37.916  28.575  29.590  1.00  0.00     0.010 A 
ATOM     30  C   UNL A   1      38.858  29.212  27.446  1.00  0.00     0.010 A 
ATOM     31  C   UNL A   1      38.981  28.571  28.690  1.00  0.00    -0.014 A 
BRANCH  31  32
ATOM     32  C   UNL A   1      40.300  28.002  28.975  1.00  0.00     0.031 A 
ATOM     33  C   UNL A   1      40.581  26.581  28.655  1.00  0.00     0.074 A 
ATOM     34  C   UNL A   1      41.308  28.804  29.383  1.00  0.00     0.049 A 
ATOM     35  N   UNL A   1      41.621  25.921  29.042  1.00  0.00    -0.248 NA
ATOM     36  C   UNL A   1      39.649  25.762  27.888  1.00  0.00     0.031 C 
ATOM     37  C   UNL A   1      42.740  28.531  29.289  1.00  0.00     0.029 A 
ATOM     38  N   UNL A   1      41.232  29.967  30.149  1.00  0.00    -0.354 N 
ATOM     39  C   UNL A   1      41.646  24.721  28.364  1.00  0.00     0.074 A 
ATOM     40  C   UNL A   1      40.365  24.651  27.703  1.00  0.00     0.031 C 
ATOM     41  C   UNL A   1      43.398  29.336  30.134  1.00  0.00     0.029 A 
ATOM     42  C   UNL A   1      42.405  30.040  30.924  1.00  0.00     0.049 A 
ATOM     43  H   UNL A   1      40.493  30.617  30.148  1.00  0.00     0.167 HD
ATOM     44  C   UNL A   1      42.799  23.988  28.341  1.00  0.00     0.037 A 
ATOM     45  C   UNL A   1      42.354  30.014  32.290  1.00  0.00     0.037 A 
ATOM     46  C   UNL A   1      43.796  24.554  29.252  1.00  0.00     0.049 A 
ATOM     47  C   UNL A   1      43.036  28.821  32.920  1.00  0.00     0.074 A 
ATOM     48  C   UNL A   1      44.889  25.386  29.058  1.00  0.00     0.029 A 
ATOM     49  N   UNL A   1      43.563  24.529  30.624  1.00  0.00    -0.354 N 
ATOM     50  N   UNL A   1      43.425  27.766  32.258  1.00  0.00    -0.248 NA
ATOM     51  C   UNL A   1      43.310  28.707  34.351  1.00  0.00     0.031 C 
ATOM     52  C   UNL A   1      45.262  25.922  30.316  1.00  0.00     0.029 A 
ATOM     53  C   UNL A   1      44.413  25.403  31.278  1.00  0.00     0.049 A 
ATOM     54  H   UNL A   1      42.888  23.967  31.068  1.00  0.00     0.167 HD
ATOM     55  C   UNL A   1      43.922  26.833  33.129  1.00  0.00     0.074 A 
ATOM     56  C   UNL A   1      43.866  27.484  34.424  1.00  0.00     0.031 C 
ATOM     57  C   UNL A   1      44.319  25.592  32.717  1.00  0.00     0.037 A 
BRANCH  44  58
ATOM     58  C   UNL A   1      43.123  22.948  27.276  1.00  0.00     0.058 A 
ATOM     59  C   UNL A   1      42.441  21.710  27.244  1.00  0.00     0.135 A 
ATOM     60  C   UNL A   1      44.146  23.064  26.314  1.00  0.00     0.135 A 
ATOM     61  F   UNL A   1      41.366  21.480  28.010  1.00  0.00    -0.206 F 
ATOM     62  C   UNL A   1      42.830  20.640  26.431  1.00  0.00     0.059 A 
ATOM     63  C   UNL A   1      44.593  21.993  25.532  1.00  0.00     0.059 A 
ATOM     64  F   UNL A   1      44.717  24.241  26.039  1.00  0.00    -0.206 F 
ATOM     65  C   UNL A   1      43.937  20.775  25.608  1.00  0.00     0.060 A 
BRANCH  65  66
ATOM     66  S   UNL A   1      44.492  19.360  24.639  1.00  0.00     0.124 S 
ATOM     67  O   UNL A   1      45.829  19.124  25.172  1.00  0.00    -0.237 OA
ATOM     68  O   UNL A   1      43.489  18.353  24.970  1.00  0.00    -0.237 OA
ATOM     69  O   UNL A   1      44.454  19.852  23.264  1.00  0.00    -0.744 OA
ENDBRANCH  65  66
ENDBRANCH  44  58
BRANCH  45  70
ATOM     70  C   UNL A   1      41.166  30.722  32.839  1.00  0.00     0.058 A 
ATOM     71  C   UNL A   1      40.026  29.943  33.112  1.00  0.00     0.135 A 
ATOM     72  C   UNL A   1      41.301  31.943  33.513  1.00  0.00     0.135 A 
ATOM     73  F   UNL A   1      39.841  28.777  32.471  1.00  0.00    -0.206 F 
ATOM     74  C   UNL A   1      39.161  30.262  34.150  1.00  0.00     0.059 A 
ATOM     75  C   UNL A   1      40.437  32.289  34.553  1.00  0.00     0.059 A 
ATOM     76  F   UNL A   1      42.363  32.729  33.284  1.00  0.00    -0.206 F 
ATOM     77  C   UNL A   1      39.425  31.396  34.914  1.00  0.00     0.060 A 
BRANCH  77  78
ATOM     78  S   UNL A   1      38.575  31.551  36.503  1.00  0.00     0.124 S 
ATOM     79  O   UNL A   1      39.630  32.075  37.364  1.00  0.00    -0.237 OA
ATOM     80  O   UNL A   1      37.507  32.490  36.165  1.00  0.00    -0.237 OA
ATOM     81  O   UNL A   1      38.147  30.187  36.788  1.00  0.00    -0.744 OA
ENDBRANCH  77  78
ENDBRANCH  45  70
BRANCH  57  82
ATOM     82  C   UNL A   1      44.724  24.466  33.632  1.00  0.00     0.058 A 
ATOM     83  C   UNL A   1      43.808  23.642  34.310  1.00  0.00     0.135 A 
ATOM     84  C   UNL A   1      46.085  24.101  33.749  1.00  0.00     0.135 A 
ATOM     85  F   UNL A   1      42.486  23.830  34.189  1.00  0.00    -0.206 F 
ATOM     86  C   UNL A   1      44.217  22.568  35.103  1.00  0.00     0.059 A 
ATOM     87  C   UNL A   1      46.510  23.004  34.494  1.00  0.00     0.059 A 
ATOM     88  F   UNL A   1      47.048  24.802  33.130  1.00  0.00    -0.206 F 
ATOM     89  C   UNL A   1      45.571  22.257  35.191  1.00  0.00     0.060 A 
BRANCH  89  90
ATOM     90  S   UNL A   1      46.110  20.843  36.171  1.00  0.00     0.124 S 
ATOM     91  O   UNL A   1      45.412  19.746  35.507  1.00  0.00    -0.237 OA
ATOM     92  O   UNL A   1      47.560  20.859  36.001  1.00  0.00    -0.237 OA
ATOM     93  O   UNL A   1      45.641  21.174  37.513  1.00  0.00    -0.744 OA
ENDBRANCH  89  90
ENDBRANCH  57  82
ENDBRANCH  31  32
ENDBRANCH  23  26
ENDBRANCH   1  22
TORSDOF 14
ENDMDL
