MODEL 1
REMARK VINA RESULT:     -12.5      0.000      0.000
REMARK SMILES O=C(NCCCNC(=O)c1cccc2c1cc(Br)c1ccccc12)c1ccc(-c2c3nc(c(-c4c(F)cc(S(=O)(=O)[O-])cc4F)c4ccc([nH]4)c(-c4c(F)cc(S(=O)(=O)[O-])cc4F)c4nc(c(-c5c(F)cc(S(=O)(=O)[O-])cc5F)c5ccc2[nH]5)C=C4)C=C3)cc1
REMARK SMILES IDX 1 1 2 2 3 3 25 5 26 6 90 7 27 8 89 9 28 10 29 11 30 12 83 13
REMARK SMILES IDX 31 14 88 15 82 16 84 17 32 18 87 19 81 20 80 21 33 23 67 24
REMARK SMILES IDX 46 25 66 26 47 27 50 28 65 29 85 30 48 31 49 32 64 34 86 35
REMARK SMILES IDX 51 36 34 37 35 38 44 39 36 40 37 41 43 42 45 43 38 44 39 45
REMARK SMILES IDX 40 46 41 47 42 48 68 49 69 50 78 51 70 52 71 53 77 54 79 55
REMARK SMILES IDX 72 56 73 57 74 58 75 59 76 60 52 61 53 62 62 63 54 64 55 65
REMARK SMILES IDX 61 66 63 67 56 68 57 69 58 70 59 71 60 72 4 73 5 74 6 75
REMARK SMILES IDX 7 76 8 77 9 79 10 80 11 81 15 82 12 83 14 84 16 85 13 86
REMARK SMILES IDX 24 87 17 88 19 89 23 90 18 91 20 92 22 93 21 94
REMARK H PARENT 3 4 84 22 50 33 7 78
REMARK Flexibility Score: inf
ROOT
ATOM      1  O   UNL A   1      33.778  31.610  28.325  1.00  0.00    -0.269 OA
ATOM      2  C   UNL A   1      34.149  30.477  28.026  1.00  0.00     0.251 C 
ATOM      3  N   UNL A   1      33.235  29.598  27.501  1.00  0.00    -0.352 N 
ATOM      4  H   UNL A   1      32.375  30.005  27.245  1.00  0.00     0.163 HD
ENDROOT
BRANCH   2   5
ATOM      5  C   UNL A   1      35.561  30.084  28.242  1.00  0.00     0.039 A 
ATOM      6  C   UNL A   1      35.959  29.682  29.523  1.00  0.00     0.014 A 
ATOM      7  C   UNL A   1      36.513  30.182  27.223  1.00  0.00     0.014 A 
ATOM      8  C   UNL A   1      37.293  29.343  29.769  1.00  0.00     0.010 A 
ATOM      9  C   UNL A   1      37.826  29.775  27.450  1.00  0.00     0.010 A 
ATOM     10  C   UNL A   1      38.235  29.368  28.729  1.00  0.00    -0.014 A 
BRANCH  10  11
ATOM     11  C   UNL A   1      39.665  29.043  28.965  1.00  0.00     0.031 A 
ATOM     12  C   UNL A   1      40.576  30.089  29.553  1.00  0.00     0.074 A 
ATOM     13  C   UNL A   1      40.154  27.835  28.621  1.00  0.00     0.049 A 
ATOM     14  N   UNL A   1      41.875  30.065  29.706  1.00  0.00    -0.248 NA
ATOM     15  C   UNL A   1      39.942  31.336  30.017  1.00  0.00     0.031 C 
ATOM     16  C   UNL A   1      39.375  26.734  28.051  1.00  0.00     0.029 A 
ATOM     17  N   UNL A   1      41.430  27.333  28.697  1.00  0.00    -0.354 N 
ATOM     18  C   UNL A   1      42.213  31.288  30.272  1.00  0.00     0.074 A 
ATOM     19  C   UNL A   1      40.992  32.053  30.394  1.00  0.00     0.031 C 
ATOM     20  C   UNL A   1      40.184  25.680  27.850  1.00  0.00     0.029 A 
ATOM     21  C   UNL A   1      41.547  26.043  28.231  1.00  0.00     0.049 A 
ATOM     22  H   UNL A   1      42.190  27.847  29.052  1.00  0.00     0.167 HD
ATOM     23  C   UNL A   1      43.429  31.726  30.676  1.00  0.00     0.037 A 
ATOM     24  C   UNL A   1      42.631  25.252  28.115  1.00  0.00     0.037 A 
ATOM     25  C   UNL A   1      44.639  30.951  30.584  1.00  0.00     0.049 A 
ATOM     26  C   UNL A   1      43.976  25.781  28.536  1.00  0.00     0.074 A 
ATOM     27  C   UNL A   1      45.923  31.313  30.955  1.00  0.00     0.029 A 
ATOM     28  N   UNL A   1      44.711  29.651  30.109  1.00  0.00    -0.354 N 
ATOM     29  N   UNL A   1      44.282  26.953  29.040  1.00  0.00    -0.248 NA
ATOM     30  C   UNL A   1      45.126  24.878  28.373  1.00  0.00     0.031 C 
ATOM     31  C   UNL A   1      46.775  30.237  30.687  1.00  0.00     0.029 A 
ATOM     32  C   UNL A   1      46.015  29.193  30.187  1.00  0.00     0.049 A 
ATOM     33  H   UNL A   1      43.949  29.131  29.768  1.00  0.00     0.167 HD
ATOM     34  C   UNL A   1      45.650  26.912  29.291  1.00  0.00     0.074 A 
ATOM     35  C   UNL A   1      46.112  25.601  28.887  1.00  0.00     0.031 C 
ATOM     36  C   UNL A   1      46.450  27.873  29.811  1.00  0.00     0.037 A 
BRANCH  23  37
ATOM     37  C   UNL A   1      43.518  33.095  31.288  1.00  0.00     0.058 A 
ATOM     38  C   UNL A   1      43.525  33.269  32.681  1.00  0.00     0.135 A 
ATOM     39  C   UNL A   1      43.692  34.233  30.483  1.00  0.00     0.135 A 
ATOM     40  F   UNL A   1      43.339  32.218  33.494  1.00  0.00    -0.206 F 
ATOM     41  C   UNL A   1      43.706  34.523  33.255  1.00  0.00     0.059 A 
ATOM     42  C   UNL A   1      43.897  35.493  31.036  1.00  0.00     0.059 A 
ATOM     43  F   UNL A   1      43.686  34.121  29.146  1.00  0.00    -0.206 F 
ATOM     44  C   UNL A   1      43.902  35.628  32.425  1.00  0.00     0.060 A 
BRANCH  44  45
ATOM     45  S   UNL A   1      44.196  37.235  33.191  1.00  0.00     0.124 S 
ATOM     46  O   UNL A   1      44.279  38.105  32.022  1.00  0.00    -0.237 OA
ATOM     47  O   UNL A   1      43.010  37.403  34.024  1.00  0.00    -0.237 OA
ATOM     48  O   UNL A   1      45.448  37.042  33.918  1.00  0.00    -0.744 OA
ENDBRANCH  44  45
ENDBRANCH  23  37
BRANCH  24  49
ATOM     49  C   UNL A   1      42.501  23.866  27.590  1.00  0.00     0.058 A 
ATOM     50  C   UNL A   1      42.381  22.777  28.468  1.00  0.00     0.135 A 
ATOM     51  C   UNL A   1      42.526  23.596  26.214  1.00  0.00     0.135 A 
ATOM     52  F   UNL A   1      42.360  22.984  29.793  1.00  0.00    -0.206 F 
ATOM     53  C   UNL A   1      42.324  21.468  28.002  1.00  0.00     0.059 A 
ATOM     54  C   UNL A   1      42.444  22.297  25.723  1.00  0.00     0.059 A 
ATOM     55  F   UNL A   1      42.624  24.603  25.331  1.00  0.00    -0.206 F 
ATOM     56  C   UNL A   1      42.362  21.237  26.626  1.00  0.00     0.060 A 
BRANCH  56  57
ATOM     57  S   UNL A   1      42.277  19.534  26.031  1.00  0.00     0.124 S 
ATOM     58  O   UNL A   1      40.863  19.412  25.696  1.00  0.00    -0.237 OA
ATOM     59  O   UNL A   1      43.202  19.556  24.903  1.00  0.00    -0.237 OA
ATOM     60  O   UNL A   1      42.723  18.755  27.183  1.00  0.00    -0.744 OA
ENDBRANCH  56  57
ENDBRANCH  24  49
BRANCH  36  61
ATOM     61  C   UNL A   1      47.894  27.527  30.039  1.00  0.00     0.058 A 
ATOM     62  C   UNL A   1      48.322  26.864  31.198  1.00  0.00     0.135 A 
ATOM     63  C   UNL A   1      48.853  27.817  29.054  1.00  0.00     0.135 A 
ATOM     64  F   UNL A   1      47.446  26.568  32.171  1.00  0.00    -0.206 F 
ATOM     65  C   UNL A   1      49.658  26.520  31.385  1.00  0.00     0.059 A 
ATOM     66  C   UNL A   1      50.188  27.460  29.208  1.00  0.00     0.059 A 
ATOM     67  F   UNL A   1      48.490  28.440  27.920  1.00  0.00    -0.206 F 
ATOM     68  C   UNL A   1      50.583  26.823  30.383  1.00  0.00     0.060 A 
BRANCH  68  69
ATOM     69  S   UNL A   1      52.307  26.345  30.626  1.00  0.00     0.124 S 
ATOM     70  O   UNL A   1      52.167  25.156  31.461  1.00  0.00    -0.237 OA
ATOM     71  O   UNL A   1      52.762  26.109  29.260  1.00  0.00    -0.237 OA
ATOM     72  O   UNL A   1      52.893  27.508  31.284  1.00  0.00    -0.744 OA
ENDBRANCH  68  69
ENDBRANCH  36  61
ENDBRANCH  10  11
ENDBRANCH   2   5
BRANCH   3  73
ATOM     73  C   UNL A   1      33.325  28.166  27.261  1.00  0.00     0.118 C 
BRANCH  73  74
ATOM     74  C   UNL A   1      33.829  27.837  25.861  1.00  0.00     0.042 C 
BRANCH  74  75
ATOM     75  C   UNL A   1      32.850  28.153  24.739  1.00  0.00     0.118 C 
BRANCH  75  76
ATOM     76  N   UNL A   1      33.415  27.967  23.410  1.00  0.00    -0.352 N 
ATOM     77  C   UNL A   1      33.298  26.899  22.552  1.00  0.00     0.251 C 
ATOM     78  H   UNL A   1      33.962  28.715  23.077  1.00  0.00     0.163 HD
ATOM     79  O   UNL A   1      33.866  26.916  21.464  1.00  0.00    -0.269 OA
BRANCH  77  80
ATOM     80  C   UNL A   1      32.469  25.735  22.945  1.00  0.00     0.047 A 
ATOM     81  C   UNL A   1      31.082  25.898  22.859  1.00  0.00     0.014 A 
ATOM     82  C   UNL A   1      33.051  24.511  23.379  1.00  0.00    -0.004 A 
ATOM     83  C   UNL A   1      30.249  24.892  23.306  1.00  0.00     0.002 A 
ATOM     84  C   UNL A   1      32.204  23.465  23.833  1.00  0.00    -0.010 A 
ATOM     85  C   UNL A   1      34.440  24.287  23.377  1.00  0.00     0.026 A 
ATOM     86  C   UNL A   1      30.804  23.710  23.798  1.00  0.00     0.009 A 
ATOM     87  C   UNL A   1      32.773  22.218  24.294  1.00  0.00    -0.009 A 
ATOM     88  C   UNL A   1      34.991  23.069  23.778  1.00  0.00     0.026 A 
ATOM     89  C   UNL A   1      34.180  22.015  24.244  1.00  0.00    -0.004 A 
ATOM     90  C   UNL A   1      31.987  21.149  24.802  1.00  0.00     0.009 A 
ATOM     91  Br  UNL A   1      36.892  22.931  23.645  1.00  0.00    -0.050 Br
ATOM     92  C   UNL A   1      34.708  20.766  24.665  1.00  0.00     0.010 A 
ATOM     93  C   UNL A   1      32.533  19.936  25.222  1.00  0.00     0.001 A 
ATOM     94  C   UNL A   1      33.898  19.740  25.144  1.00  0.00     0.001 A 
ENDBRANCH  77  80
ENDBRANCH  75  76
ENDBRANCH  74  75
ENDBRANCH  73  74
ENDBRANCH   3  73
TORSDOF 13
ENDMDL
MODEL 2
REMARK VINA RESULT:     -12.4      2.403      3.045
REMARK SMILES O=C(NCCCNC(=O)c1cccc2c1cc(Br)c1ccccc12)c1ccc(-c2c3nc(c(-c4c(F)cc(S(=O)(=O)[O-])cc4F)c4ccc([nH]4)c(-c4c(F)cc(S(=O)(=O)[O-])cc4F)c4nc(c(-c5c(F)cc(S(=O)(=O)[O-])cc5F)c5ccc2[nH]5)C=C4)C=C3)cc1
REMARK SMILES IDX 1 1 2 2 3 3 25 5 26 6 90 7 27 8 89 9 28 10 29 11 30 12 83 13
REMARK SMILES IDX 31 14 88 15 82 16 84 17 32 18 87 19 81 20 80 21 33 23 67 24
REMARK SMILES IDX 46 25 66 26 47 27 50 28 65 29 85 30 48 31 49 32 64 34 86 35
REMARK SMILES IDX 51 36 34 37 35 38 44 39 36 40 37 41 43 42 45 43 38 44 39 45
REMARK SMILES IDX 40 46 41 47 42 48 68 49 69 50 78 51 70 52 71 53 77 54 79 55
REMARK SMILES IDX 72 56 73 57 74 58 75 59 76 60 52 61 53 62 62 63 54 64 55 65
REMARK SMILES IDX 61 66 63 67 56 68 57 69 58 70 59 71 60 72 4 73 5 74 6 75
REMARK SMILES IDX 7 76 8 77 9 79 10 80 11 81 15 82 12 83 14 84 16 85 13 86
REMARK SMILES IDX 24 87 17 88 19 89 23 90 18 91 20 92 22 93 21 94
REMARK H PARENT 3 4 84 22 50 33 7 78
REMARK Flexibility Score: inf
ROOT
ATOM      1  O   UNL A   1      35.856  31.135  30.398  1.00  0.00    -0.269 OA
ATOM      2  C   UNL A   1      36.060  30.437  29.407  1.00  0.00     0.251 C 
ATOM      3  N   UNL A   1      35.002  30.117  28.594  1.00  0.00    -0.352 N 
ATOM      4  H   UNL A   1      34.175  30.619  28.779  1.00  0.00     0.163 HD
ENDROOT
BRANCH   2   5
ATOM      5  C   UNL A   1      37.430  29.955  29.117  1.00  0.00     0.039 A 
ATOM      6  C   UNL A   1      38.248  29.569  30.185  1.00  0.00     0.014 A 
ATOM      7  C   UNL A   1      37.946  29.952  27.817  1.00  0.00     0.014 A 
ATOM      8  C   UNL A   1      39.560  29.146  29.949  1.00  0.00     0.010 A 
ATOM      9  C   UNL A   1      39.229  29.463  27.574  1.00  0.00     0.010 A 
ATOM     10  C   UNL A   1      40.055  29.072  28.638  1.00  0.00    -0.014 A 
BRANCH  10  11
ATOM     11  C   UNL A   1      41.453  28.656  28.356  1.00  0.00     0.031 A 
ATOM     12  C   UNL A   1      42.555  29.682  28.399  1.00  0.00     0.074 A 
ATOM     13  C   UNL A   1      41.730  27.379  28.026  1.00  0.00     0.049 A 
ATOM     14  N   UNL A   1      43.810  29.566  28.049  1.00  0.00    -0.248 NA
ATOM     15  C   UNL A   1      42.192  31.025  28.887  1.00  0.00     0.031 C 
ATOM     16  C   UNL A   1      40.756  26.288  27.957  1.00  0.00     0.029 A 
ATOM     17  N   UNL A   1      42.918  26.782  27.682  1.00  0.00    -0.354 N 
ATOM     18  C   UNL A   1      44.381  30.814  28.264  1.00  0.00     0.074 A 
ATOM     19  C   UNL A   1      43.329  31.689  28.732  1.00  0.00     0.031 C 
ATOM     20  C   UNL A   1      41.388  25.153  27.614  1.00  0.00     0.029 A 
ATOM     21  C   UNL A   1      42.803  25.442  27.394  1.00  0.00     0.049 A 
ATOM     22  H   UNL A   1      43.773  27.268  27.644  1.00  0.00     0.167 HD
ATOM     23  C   UNL A   1      45.672  31.192  28.110  1.00  0.00     0.037 A 
ATOM     24  C   UNL A   1      43.729  24.553  26.987  1.00  0.00     0.037 A 
ATOM     25  C   UNL A   1      46.725  30.311  27.675  1.00  0.00     0.049 A 
ATOM     26  C   UNL A   1      45.149  25.011  26.785  1.00  0.00     0.074 A 
ATOM     27  C   UNL A   1      48.064  30.604  27.475  1.00  0.00     0.029 A 
ATOM     28  N   UNL A   1      46.565  28.963  27.397  1.00  0.00    -0.354 N 
ATOM     29  N   UNL A   1      45.666  26.204  26.964  1.00  0.00    -0.248 NA
ATOM     30  C   UNL A   1      46.116  24.001  26.327  1.00  0.00     0.031 C 
ATOM     31  C   UNL A   1      48.710  29.436  27.058  1.00  0.00     0.029 A 
ATOM     32  C   UNL A   1      47.781  28.408  27.037  1.00  0.00     0.049 A 
ATOM     33  H   UNL A   1      45.713  28.473  27.449  1.00  0.00     0.167 HD
ATOM     34  C   UNL A   1      47.021  26.077  26.679  1.00  0.00     0.074 A 
ATOM     35  C   UNL A   1      47.247  24.693  26.320  1.00  0.00     0.031 C 
ATOM     36  C   UNL A   1      47.992  27.021  26.715  1.00  0.00     0.037 A 
BRANCH  23  37
ATOM     37  C   UNL A   1      46.037  32.611  28.442  1.00  0.00     0.058 A 
ATOM     38  C   UNL A   1      45.897  33.637  27.494  1.00  0.00     0.135 A 
ATOM     39  C   UNL A   1      46.440  32.965  29.740  1.00  0.00     0.135 A 
ATOM     40  F   UNL A   1      45.538  33.348  26.234  1.00  0.00    -0.206 F 
ATOM     41  C   UNL A   1      46.140  34.967  27.823  1.00  0.00     0.059 A 
ATOM     42  C   UNL A   1      46.666  34.291  30.096  1.00  0.00     0.059 A 
ATOM     43  F   UNL A   1      46.596  32.021  30.680  1.00  0.00    -0.206 F 
ATOM     44  C   UNL A   1      46.514  35.285  29.130  1.00  0.00     0.060 A 
BRANCH  44  45
ATOM     45  S   UNL A   1      46.763  37.023  29.551  1.00  0.00     0.124 S 
ATOM     46  O   UNL A   1      45.421  37.564  29.362  1.00  0.00    -0.237 OA
ATOM     47  O   UNL A   1      47.225  36.943  30.933  1.00  0.00    -0.237 OA
ATOM     48  O   UNL A   1      47.761  37.469  28.583  1.00  0.00    -0.744 OA
ENDBRANCH  44  45
ENDBRANCH  23  37
BRANCH  24  49
ATOM     49  C   UNL A   1      43.360  23.130  26.753  1.00  0.00     0.058 A 
ATOM     50  C   UNL A   1      43.088  22.275  27.832  1.00  0.00     0.135 A 
ATOM     51  C   UNL A   1      43.304  22.589  25.460  1.00  0.00     0.135 A 
ATOM     52  F   UNL A   1      43.136  22.745  29.088  1.00  0.00    -0.206 F 
ATOM     53  C   UNL A   1      42.805  20.927  27.640  1.00  0.00     0.059 A 
ATOM     54  C   UNL A   1      42.998  21.250  25.241  1.00  0.00     0.059 A 
ATOM     55  F   UNL A   1      43.542  23.369  24.393  1.00  0.00    -0.206 F 
ATOM     56  C   UNL A   1      42.767  20.422  26.340  1.00  0.00     0.060 A 
BRANCH  56  57
ATOM     57  S   UNL A   1      42.389  18.673  26.101  1.00  0.00     0.124 S 
ATOM     58  O   UNL A   1      40.983  18.728  25.714  1.00  0.00    -0.237 OA
ATOM     59  O   UNL A   1      43.327  18.295  25.049  1.00  0.00    -0.237 OA
ATOM     60  O   UNL A   1      42.661  18.090  27.412  1.00  0.00    -0.744 OA
ENDBRANCH  56  57
ENDBRANCH  24  49
BRANCH  36  61
ATOM     61  C   UNL A   1      49.399  26.583  26.422  1.00  0.00     0.058 A 
ATOM     62  C   UNL A   1      50.200  25.968  27.396  1.00  0.00     0.135 A 
ATOM     63  C   UNL A   1      49.931  26.733  25.131  1.00  0.00     0.135 A 
ATOM     64  F   UNL A   1      49.739  25.805  28.646  1.00  0.00    -0.206 F 
ATOM     65  C   UNL A   1      51.491  25.537  27.106  1.00  0.00     0.059 A 
ATOM     66  C   UNL A   1      51.209  26.288  24.812  1.00  0.00     0.059 A 
ATOM     67  F   UNL A   1      49.199  27.304  24.161  1.00  0.00    -0.206 F 
ATOM     68  C   UNL A   1      51.986  25.701  25.810  1.00  0.00     0.060 A 
BRANCH  68  69
ATOM     69  S   UNL A   1      53.652  25.112  25.441  1.00  0.00     0.124 S 
ATOM     70  O   UNL A   1      53.448  23.667  25.392  1.00  0.00    -0.237 OA
ATOM     71  O   UNL A   1      53.935  25.756  24.163  1.00  0.00    -0.237 OA
ATOM     72  O   UNL A   1      54.442  25.596  26.569  1.00  0.00    -0.744 OA
ENDBRANCH  68  69
ENDBRANCH  36  61
ENDBRANCH  10  11
ENDBRANCH   2   5
BRANCH   3  73
ATOM     73  C   UNL A   1      34.899  29.159  27.504  1.00  0.00     0.118 C 
BRANCH  73  74
ATOM     74  C   UNL A   1      33.478  28.643  27.308  1.00  0.00     0.042 C 
BRANCH  74  75
ATOM     75  C   UNL A   1      33.348  27.494  26.318  1.00  0.00     0.118 C 
BRANCH  75  76
ATOM     76  N   UNL A   1      33.711  27.862  24.956  1.00  0.00    -0.352 N 
ATOM     77  C   UNL A   1      33.421  27.226  23.772  1.00  0.00     0.251 C 
ATOM     78  H   UNL A   1      34.242  28.686  24.871  1.00  0.00     0.163 HD
ATOM     79  O   UNL A   1      33.830  27.684  22.709  1.00  0.00    -0.269 OA
BRANCH  77  80
ATOM     80  C   UNL A   1      32.597  25.993  23.789  1.00  0.00     0.047 A 
ATOM     81  C   UNL A   1      31.232  26.150  23.529  1.00  0.00     0.014 A 
ATOM     82  C   UNL A   1      33.166  24.714  24.047  1.00  0.00    -0.004 A 
ATOM     83  C   UNL A   1      30.390  25.061  23.630  1.00  0.00     0.002 A 
ATOM     84  C   UNL A   1      32.312  23.584  24.143  1.00  0.00    -0.010 A 
ATOM     85  C   UNL A   1      34.549  24.516  24.208  1.00  0.00     0.026 A 
ATOM     86  C   UNL A   1      30.921  23.810  23.948  1.00  0.00     0.009 A 
ATOM     87  C   UNL A   1      32.865  22.277  24.420  1.00  0.00    -0.009 A 
ATOM     88  C   UNL A   1      35.093  23.250  24.430  1.00  0.00     0.026 A 
ATOM     89  C   UNL A   1      34.272  22.109  24.543  1.00  0.00    -0.004 A 
ATOM     90  C   UNL A   1      32.063  21.114  24.574  1.00  0.00     0.009 A 
ATOM     91  Br  UNL A   1      36.997  23.171  24.561  1.00  0.00    -0.050 Br
ATOM     92  C   UNL A   1      34.791  20.809  24.774  1.00  0.00     0.010 A 
ATOM     93  C   UNL A   1      32.598  19.848  24.814  1.00  0.00     0.001 A 
ATOM     94  C   UNL A   1      33.967  19.693  24.905  1.00  0.00     0.001 A 
ENDBRANCH  77  80
ENDBRANCH  75  76
ENDBRANCH  74  75
ENDBRANCH  73  74
ENDBRANCH   3  73
TORSDOF 13
ENDMDL
MODEL 3
REMARK VINA RESULT:     -12.4      4.876     10.512
REMARK SMILES O=C(NCCCNC(=O)c1cccc2c1cc(Br)c1ccccc12)c1ccc(-c2c3nc(c(-c4c(F)cc(S(=O)(=O)[O-])cc4F)c4ccc([nH]4)c(-c4c(F)cc(S(=O)(=O)[O-])cc4F)c4nc(c(-c5c(F)cc(S(=O)(=O)[O-])cc5F)c5ccc2[nH]5)C=C4)C=C3)cc1
REMARK SMILES IDX 1 1 2 2 3 3 25 5 26 6 90 7 27 8 89 9 28 10 29 11 30 12 83 13
REMARK SMILES IDX 31 14 88 15 82 16 84 17 32 18 87 19 81 20 80 21 33 23 67 24
REMARK SMILES IDX 46 25 66 26 47 27 50 28 65 29 85 30 48 31 49 32 64 34 86 35
REMARK SMILES IDX 51 36 34 37 35 38 44 39 36 40 37 41 43 42 45 43 38 44 39 45
REMARK SMILES IDX 40 46 41 47 42 48 68 49 69 50 78 51 70 52 71 53 77 54 79 55
REMARK SMILES IDX 72 56 73 57 74 58 75 59 76 60 52 61 53 62 62 63 54 64 55 65
REMARK SMILES IDX 61 66 63 67 56 68 57 69 58 70 59 71 60 72 4 73 5 74 6 75
REMARK SMILES IDX 7 76 8 77 9 79 10 80 11 81 15 82 12 83 14 84 16 85 13 86
REMARK SMILES IDX 24 87 17 88 19 89 23 90 18 91 20 92 22 93 21 94
REMARK H PARENT 3 4 84 22 50 33 7 78
REMARK Flexibility Score: inf
ROOT
ATOM      1  O   UNL A   1      41.638  24.151  26.140  1.00  0.00    -0.269 OA
ATOM      2  C   UNL A   1      40.533  24.475  26.569  1.00  0.00     0.251 C 
ATOM      3  N   UNL A   1      39.420  23.836  26.083  1.00  0.00    -0.352 N 
ATOM      4  H   UNL A   1      39.611  23.036  25.540  1.00  0.00     0.163 HD
ENDROOT
BRANCH   2   5
ATOM      5  C   UNL A   1      40.425  25.544  27.589  1.00  0.00     0.039 A 
ATOM      6  C   UNL A   1      41.336  26.605  27.551  1.00  0.00     0.014 A 
ATOM      7  C   UNL A   1      39.490  25.475  28.627  1.00  0.00     0.014 A 
ATOM      8  C   UNL A   1      41.286  27.610  28.522  1.00  0.00     0.010 A 
ATOM      9  C   UNL A   1      39.394  26.512  29.553  1.00  0.00     0.010 A 
ATOM     10  C   UNL A   1      40.301  27.582  29.521  1.00  0.00    -0.014 A 
BRANCH  10  11
ATOM     11  C   UNL A   1      40.240  28.617  30.584  1.00  0.00     0.031 A 
ATOM     12  C   UNL A   1      41.179  28.529  31.759  1.00  0.00     0.074 A 
ATOM     13  C   UNL A   1      39.328  29.606  30.520  1.00  0.00     0.049 A 
ATOM     14  N   UNL A   1      41.199  29.237  32.859  1.00  0.00    -0.248 NA
ATOM     15  C   UNL A   1      42.227  27.495  31.696  1.00  0.00     0.031 C 
ATOM     16  C   UNL A   1      38.367  29.807  29.433  1.00  0.00     0.029 A 
ATOM     17  N   UNL A   1      39.054  30.629  31.395  1.00  0.00    -0.354 N 
ATOM     18  C   UNL A   1      42.248  28.732  33.617  1.00  0.00     0.074 A 
ATOM     19  C   UNL A   1      42.814  27.626  32.877  1.00  0.00     0.031 C 
ATOM     20  C   UNL A   1      37.627  30.898  29.694  1.00  0.00     0.029 A 
ATOM     21  C   UNL A   1      38.026  31.447  30.988  1.00  0.00     0.049 A 
ATOM     22  H   UNL A   1      39.549  30.765  32.235  1.00  0.00     0.167 HD
ATOM     23  C   UNL A   1      42.713  29.165  34.813  1.00  0.00     0.037 A 
ATOM     24  C   UNL A   1      37.462  32.510  31.595  1.00  0.00     0.037 A 
ATOM     25  C   UNL A   1      42.169  30.286  35.534  1.00  0.00     0.049 A 
ATOM     26  C   UNL A   1      37.975  32.944  32.942  1.00  0.00     0.074 A 
ATOM     27  C   UNL A   1      42.564  30.794  36.760  1.00  0.00     0.029 A 
ATOM     28  N   UNL A   1      41.130  31.087  35.085  1.00  0.00    -0.354 N 
ATOM     29  N   UNL A   1      38.948  32.434  33.660  1.00  0.00    -0.248 NA
ATOM     30  C   UNL A   1      37.313  34.101  33.565  1.00  0.00     0.031 C 
ATOM     31  C   UNL A   1      41.751  31.892  37.061  1.00  0.00     0.029 A 
ATOM     32  C   UNL A   1      40.878  32.090  36.004  1.00  0.00     0.049 A 
ATOM     33  H   UNL A   1      40.645  30.961  34.238  1.00  0.00     0.167 HD
ATOM     34  C   UNL A   1      39.040  33.231  34.796  1.00  0.00     0.074 A 
ATOM     35  C   UNL A   1      38.028  34.259  34.671  1.00  0.00     0.031 C 
ATOM     36  C   UNL A   1      39.889  33.124  35.847  1.00  0.00     0.037 A 
BRANCH  23  37
ATOM     37  C   UNL A   1      43.892  28.451  35.412  1.00  0.00     0.058 A 
ATOM     38  C   UNL A   1      43.716  27.364  36.282  1.00  0.00     0.135 A 
ATOM     39  C   UNL A   1      45.203  28.794  35.044  1.00  0.00     0.135 A 
ATOM     40  F   UNL A   1      42.485  27.011  36.683  1.00  0.00    -0.206 F 
ATOM     41  C   UNL A   1      44.800  26.637  36.763  1.00  0.00     0.059 A 
ATOM     42  C   UNL A   1      46.300  28.066  35.496  1.00  0.00     0.059 A 
ATOM     43  F   UNL A   1      45.425  29.830  34.220  1.00  0.00    -0.206 F 
ATOM     44  C   UNL A   1      46.088  26.989  36.356  1.00  0.00     0.060 A 
BRANCH  44  45
ATOM     45  S   UNL A   1      47.475  25.995  36.943  1.00  0.00     0.124 S 
ATOM     46  O   UNL A   1      47.266  26.025  38.387  1.00  0.00    -0.237 OA
ATOM     47  O   UNL A   1      47.232  24.710  36.294  1.00  0.00    -0.237 OA
ATOM     48  O   UNL A   1      48.645  26.724  36.463  1.00  0.00    -0.744 OA
ENDBRANCH  44  45
ENDBRANCH  23  37
BRANCH  24  49
ATOM     49  C   UNL A   1      36.355  33.256  30.938  1.00  0.00     0.058 A 
ATOM     50  C   UNL A   1      36.605  34.067  29.820  1.00  0.00     0.135 A 
ATOM     51  C   UNL A   1      35.041  33.203  31.427  1.00  0.00     0.135 A 
ATOM     52  F   UNL A   1      37.847  34.156  29.320  1.00  0.00    -0.206 F 
ATOM     53  C   UNL A   1      35.598  34.824  29.230  1.00  0.00     0.059 A 
ATOM     54  C   UNL A   1      34.013  33.931  30.837  1.00  0.00     0.059 A 
ATOM     55  F   UNL A   1      34.747  32.430  32.485  1.00  0.00    -0.206 F 
ATOM     56  C   UNL A   1      34.306  34.754  29.750  1.00  0.00     0.060 A 
BRANCH  56  57
ATOM     57  S   UNL A   1      33.004  35.733  28.970  1.00  0.00     0.124 S 
ATOM     58  O   UNL A   1      33.781  36.759  28.285  1.00  0.00    -0.237 OA
ATOM     59  O   UNL A   1      32.348  34.749  28.115  1.00  0.00    -0.237 OA
ATOM     60  O   UNL A   1      32.208  36.195  30.104  1.00  0.00    -0.744 OA
ENDBRANCH  56  57
ENDBRANCH  24  49
BRANCH  36  61
ATOM     61  C   UNL A   1      39.809  34.178  36.914  1.00  0.00     0.058 A 
ATOM     62  C   UNL A   1      40.416  35.433  36.761  1.00  0.00     0.135 A 
ATOM     63  C   UNL A   1      39.068  33.943  38.083  1.00  0.00     0.135 A 
ATOM     64  F   UNL A   1      41.139  35.705  35.664  1.00  0.00    -0.206 F 
ATOM     65  C   UNL A   1      40.310  36.414  37.743  1.00  0.00     0.059 A 
ATOM     66  C   UNL A   1      38.927  34.917  39.066  1.00  0.00     0.059 A 
ATOM     67  F   UNL A   1      38.457  32.761  38.271  1.00  0.00    -0.206 F 
ATOM     68  C   UNL A   1      39.562  36.145  38.893  1.00  0.00     0.060 A 
BRANCH  68  69
ATOM     69  S   UNL A   1      39.410  37.436  40.144  1.00  0.00     0.124 S 
ATOM     70  O   UNL A   1      38.817  36.699  41.256  1.00  0.00    -0.237 OA
ATOM     71  O   UNL A   1      40.795  37.857  40.330  1.00  0.00    -0.237 OA
ATOM     72  O   UNL A   1      38.541  38.423  39.511  1.00  0.00    -0.744 OA
ENDBRANCH  68  69
ENDBRANCH  36  61
ENDBRANCH  10  11
ENDBRANCH   2   5
BRANCH   3  73
ATOM     73  C   UNL A   1      38.006  24.142  26.236  1.00  0.00     0.118 C 
BRANCH  73  74
ATOM     74  C   UNL A   1      37.145  23.494  25.159  1.00  0.00     0.042 C 
BRANCH  74  75
ATOM     75  C   UNL A   1      35.688  23.937  25.155  1.00  0.00     0.118 C 
BRANCH  75  76
ATOM     76  N   UNL A   1      34.930  23.433  26.292  1.00  0.00    -0.352 N 
ATOM     77  C   UNL A   1      33.569  23.337  26.462  1.00  0.00     0.251 C 
ATOM     78  H   UNL A   1      35.471  23.115  27.051  1.00  0.00     0.163 HD
ATOM     79  O   UNL A   1      33.107  22.894  27.509  1.00  0.00    -0.269 OA
BRANCH  77  80
ATOM     80  C   UNL A   1      32.666  23.759  25.364  1.00  0.00     0.047 A 
ATOM     81  C   UNL A   1      32.213  22.752  24.506  1.00  0.00     0.014 A 
ATOM     82  C   UNL A   1      32.271  25.116  25.197  1.00  0.00    -0.004 A 
ATOM     83  C   UNL A   1      31.453  23.087  23.403  1.00  0.00     0.002 A 
ATOM     84  C   UNL A   1      31.481  25.473  24.072  1.00  0.00    -0.010 A 
ATOM     85  C   UNL A   1      32.628  26.129  26.105  1.00  0.00     0.026 A 
ATOM     86  C   UNL A   1      31.113  24.423  23.186  1.00  0.00     0.009 A 
ATOM     87  C   UNL A   1      31.081  26.849  23.872  1.00  0.00    -0.009 A 
ATOM     88  C   UNL A   1      32.207  27.450  25.941  1.00  0.00     0.026 A 
ATOM     89  C   UNL A   1      31.432  27.839  24.830  1.00  0.00    -0.004 A 
ATOM     90  C   UNL A   1      30.331  27.281  22.746  1.00  0.00     0.009 A 
ATOM     91  Br  UNL A   1      32.739  28.670  27.311  1.00  0.00    -0.050 Br
ATOM     92  C   UNL A   1      30.992  29.174  24.630  1.00  0.00     0.010 A 
ATOM     93  C   UNL A   1      29.921  28.602  22.566  1.00  0.00     0.001 A 
ATOM     94  C   UNL A   1      30.245  29.551  23.516  1.00  0.00     0.001 A 
ENDBRANCH  77  80
ENDBRANCH  75  76
ENDBRANCH  74  75
ENDBRANCH  73  74
ENDBRANCH   3  73
TORSDOF 13
ENDMDL
