MODEL 1
REMARK VINA RESULT:     -13.4      0.000      0.000
REMARK SMILES C[C@@H](C(=O)NCCCNC(=O)c1ccc(-c2c3nc(c(-c4c(F)cc(S(=O)(=O)[O-])cc4F)c4ccc([nH]4)c(-c4c(F)cc(S(=O)(=O)[O-])cc4F)c4nc(c(-c5c(F)cc(S(=O)(=O)[O-])cc5F)c5ccc2[nH]5)C=C4)C=C3)cc1)c1ccc(C[C@H]2CCC[C@H]2O)cc1-c1ccc(O)cc1
REMARK SMILES IDX 6 1 5 2 3 3 4 4 2 6 1 7 78 8 79 9 90 10 80 11 89 12 81 13
REMARK SMILES IDX 91 14 92 15 97 16 93 17 96 18 94 19 95 20 82 22 83 23 84 24
REMARK SMILES IDX 87 25 85 26 86 27 88 28 7 30 8 31 9 32 10 33 11 35 12 36
REMARK SMILES IDX 13 37 77 38 14 39 76 40 15 41 16 42 17 43 70 44 18 45 75 46
REMARK SMILES IDX 69 47 71 48 19 49 74 50 68 51 67 52 20 54 54 55 33 56 53 57
REMARK SMILES IDX 34 58 37 59 52 60 72 61 35 62 36 63 51 65 73 66 38 67 21 68
REMARK SMILES IDX 22 69 31 70 23 71 24 72 30 73 32 74 25 75 26 76 27 77 28 78
REMARK SMILES IDX 29 79 55 80 56 81 65 82 57 83 58 84 64 85 66 86 59 87 60 88
REMARK SMILES IDX 61 89 62 90 63 91 39 92 40 93 49 94 41 95 42 96 48 97 50 98
REMARK SMILES IDX 43 99 44 100 45 101 46 102 47 103
REMARK H PARENT 5 5 95 21 88 29 9 34 71 53 37 64
REMARK Flexibility Score: inf
ROOT
ATOM      1  C   UNL A   1      38.091  21.715  25.681  1.00  0.00     0.117 C 
ENDROOT
BRANCH   1   2
ATOM      2  N   UNL A   1      37.002  22.514  26.204  1.00  0.00    -0.356 N 
ATOM      3  C   UNL A   1      35.789  22.832  25.676  1.00  0.00     0.227 C 
ATOM      4  O   UNL A   1      34.952  23.233  26.491  1.00  0.00    -0.274 OA
ATOM      5  H   UNL A   1      37.168  22.892  27.097  1.00  0.00     0.163 HD
BRANCH   3   6
ATOM      6  C   UNL A   1      35.443  22.530  24.212  1.00  0.00     0.106 C 
ATOM      7  C   UNL A   1      36.444  22.889  23.107  1.00  0.00     0.023 C 
BRANCH   6   8
ATOM      8  C   UNL A   1      34.065  23.037  23.769  1.00  0.00    -0.028 A 
ATOM      9  C   UNL A   1      34.016  24.367  23.310  1.00  0.00     0.005 A 
ATOM     10  C   UNL A   1      32.856  22.296  23.868  1.00  0.00    -0.014 A 
ATOM     11  C   UNL A   1      32.807  24.987  23.022  1.00  0.00     0.004 A 
ATOM     12  C   UNL A   1      31.640  22.978  23.639  1.00  0.00     0.012 A 
ATOM     13  C   UNL A   1      31.604  24.331  23.262  1.00  0.00    -0.047 A 
BRANCH  10  14
ATOM     14  C   UNL A   1      32.799  20.832  24.082  1.00  0.00    -0.018 A 
ATOM     15  C   UNL A   1      33.014  20.328  25.380  1.00  0.00     0.012 A 
ATOM     16  C   UNL A   1      32.520  19.905  23.067  1.00  0.00     0.012 A 
ATOM     17  C   UNL A   1      32.877  18.968  25.668  1.00  0.00     0.047 A 
ATOM     18  C   UNL A   1      32.361  18.541  23.353  1.00  0.00     0.047 A 
ATOM     19  C   UNL A   1      32.527  18.088  24.656  1.00  0.00     0.115 A 
BRANCH  19  20
ATOM     20  O   UNL A   1      32.349  16.778  24.988  1.00  0.00    -0.508 OA
ATOM     21  H   UNL A   1      31.702  16.539  25.624  1.00  0.00     0.293 HD
ENDBRANCH  19  20
ENDBRANCH  10  14
BRANCH  13  22
ATOM     22  C   UNL A   1      30.298  25.071  23.118  1.00  0.00     0.041 C 
BRANCH  22  23
ATOM     23  C   UNL A   1      30.208  26.475  23.748  1.00  0.00     0.022 C 
ATOM     24  C   UNL A   1      31.333  26.845  24.727  1.00  0.00     0.007 C 
ATOM     25  C   UNL A   1      30.083  27.695  22.822  1.00  0.00     0.117 C 
ATOM     26  C   UNL A   1      31.465  28.371  24.665  1.00  0.00     0.003 C 
ATOM     27  C   UNL A   1      30.324  28.860  23.777  1.00  0.00     0.032 C 
BRANCH  25  28
ATOM     28  O   UNL A   1      31.047  27.769  21.786  1.00  0.00    -0.393 OA
ATOM     29  H   UNL A   1      31.305  26.874  21.519  1.00  0.00     0.210 HD
ENDBRANCH  25  28
ENDBRANCH  22  23
ENDBRANCH  13  22
ENDBRANCH   6   8
ENDBRANCH   3   6
ENDBRANCH   1   2
BRANCH   1  30
ATOM     30  C   UNL A   1      39.382  21.905  26.475  1.00  0.00     0.042 C 
BRANCH  30  31
ATOM     31  C   UNL A   1      39.659  23.345  26.898  1.00  0.00     0.118 C 
BRANCH  31  32
ATOM     32  N   UNL A   1      40.609  24.015  26.025  1.00  0.00    -0.352 N 
ATOM     33  C   UNL A   1      41.154  25.270  26.091  1.00  0.00     0.251 C 
ATOM     34  H   UNL A   1      40.911  23.476  25.257  1.00  0.00     0.163 HD
ATOM     35  O   UNL A   1      41.791  25.692  25.130  1.00  0.00    -0.269 OA
BRANCH  33  36
ATOM     36  C   UNL A   1      40.972  26.124  27.288  1.00  0.00     0.039 A 
ATOM     37  C   UNL A   1      41.845  27.200  27.472  1.00  0.00     0.014 A 
ATOM     38  C   UNL A   1      39.999  25.846  28.254  1.00  0.00     0.014 A 
ATOM     39  C   UNL A   1      41.711  28.022  28.592  1.00  0.00     0.010 A 
ATOM     40  C   UNL A   1      39.820  26.710  29.335  1.00  0.00     0.010 A 
ATOM     41  C   UNL A   1      40.680  27.802  29.519  1.00  0.00    -0.014 A 
BRANCH  41  42
ATOM     42  C   UNL A   1      40.498  28.720  30.673  1.00  0.00     0.031 A 
ATOM     43  C   UNL A   1      41.355  28.589  31.904  1.00  0.00     0.074 A 
ATOM     44  C   UNL A   1      39.538  29.663  30.618  1.00  0.00     0.049 A 
ATOM     45  N   UNL A   1      41.353  29.319  32.990  1.00  0.00    -0.248 NA
ATOM     46  C   UNL A   1      42.323  27.482  31.929  1.00  0.00     0.031 C 
ATOM     47  C   UNL A   1      38.600  29.848  29.507  1.00  0.00     0.029 A 
ATOM     48  N   UNL A   1      39.192  30.646  31.510  1.00  0.00    -0.354 N 
ATOM     49  C   UNL A   1      42.311  28.759  33.828  1.00  0.00     0.074 A 
ATOM     50  C   UNL A   1      42.836  27.595  33.146  1.00  0.00     0.031 C 
ATOM     51  C   UNL A   1      37.810  30.902  29.770  1.00  0.00     0.029 A 
ATOM     52  C   UNL A   1      38.167  31.451  31.073  1.00  0.00     0.049 A 
ATOM     53  H   UNL A   1      39.636  30.763  32.382  1.00  0.00     0.167 HD
ATOM     54  C   UNL A   1      42.732  29.188  35.042  1.00  0.00     0.037 A 
ATOM     55  C   UNL A   1      37.586  32.519  31.653  1.00  0.00     0.037 A 
ATOM     56  C   UNL A   1      42.224  30.362  35.706  1.00  0.00     0.049 A 
ATOM     57  C   UNL A   1      38.095  32.998  32.983  1.00  0.00     0.074 A 
ATOM     58  C   UNL A   1      42.627  30.913  36.910  1.00  0.00     0.029 A 
ATOM     59  N   UNL A   1      41.201  31.164  35.223  1.00  0.00    -0.354 N 
ATOM     60  N   UNL A   1      39.051  32.496  33.729  1.00  0.00    -0.248 NA
ATOM     61  C   UNL A   1      37.455  34.194  33.546  1.00  0.00     0.031 C 
ATOM     62  C   UNL A   1      41.825  32.031  37.170  1.00  0.00     0.029 A 
ATOM     63  C   UNL A   1      40.948  32.198  36.110  1.00  0.00     0.049 A 
ATOM     64  H   UNL A   1      40.724  31.020  34.373  1.00  0.00     0.167 HD
ATOM     65  C   UNL A   1      39.137  33.325  34.841  1.00  0.00     0.074 A 
ATOM     66  C   UNL A   1      38.153  34.372  34.659  1.00  0.00     0.031 C 
ATOM     67  C   UNL A   1      39.957  33.226  35.918  1.00  0.00     0.037 A 
BRANCH  54  68
ATOM     68  C   UNL A   1      43.807  28.389  35.728  1.00  0.00     0.058 A 
ATOM     69  C   UNL A   1      43.495  27.338  36.604  1.00  0.00     0.135 A 
ATOM     70  C   UNL A   1      45.163  28.654  35.482  1.00  0.00     0.135 A 
ATOM     71  F   UNL A   1      42.215  27.049  36.886  1.00  0.00    -0.206 F 
ATOM     72  C   UNL A   1      44.489  26.598  37.237  1.00  0.00     0.059 A 
ATOM     73  C   UNL A   1      46.175  27.910  36.084  1.00  0.00     0.059 A 
ATOM     74  F   UNL A   1      45.519  29.648  34.652  1.00  0.00    -0.206 F 
ATOM     75  C   UNL A   1      45.827  26.894  36.973  1.00  0.00     0.060 A 
BRANCH  75  76
ATOM     76  S   UNL A   1      47.106  25.924  37.799  1.00  0.00     0.124 S 
ATOM     77  O   UNL A   1      46.555  24.576  37.703  1.00  0.00    -0.237 OA
ATOM     78  O   UNL A   1      48.281  26.188  36.976  1.00  0.00    -0.237 OA
ATOM     79  O   UNL A   1      47.146  26.491  39.144  1.00  0.00    -0.744 OA
ENDBRANCH  75  76
ENDBRANCH  54  68
BRANCH  55  80
ATOM     80  C   UNL A   1      36.486  33.231  30.954  1.00  0.00     0.058 A 
ATOM     81  C   UNL A   1      35.164  33.144  31.413  1.00  0.00     0.135 A 
ATOM     82  C   UNL A   1      36.737  34.031  29.828  1.00  0.00     0.135 A 
ATOM     83  F   UNL A   1      34.874  32.389  32.484  1.00  0.00    -0.206 F 
ATOM     84  C   UNL A   1      34.125  33.813  30.774  1.00  0.00     0.059 A 
ATOM     85  C   UNL A   1      35.719  34.727  29.185  1.00  0.00     0.059 A 
ATOM     86  F   UNL A   1      37.989  34.162  29.362  1.00  0.00    -0.206 F 
ATOM     87  C   UNL A   1      34.414  34.605  29.661  1.00  0.00     0.060 A 
BRANCH  87  88
ATOM     88  S   UNL A   1      33.070  35.518  28.872  1.00  0.00     0.124 S 
ATOM     89  O   UNL A   1      33.803  36.549  28.147  1.00  0.00    -0.237 OA
ATOM     90  O   UNL A   1      32.436  34.488  28.054  1.00  0.00    -0.237 OA
ATOM     91  O   UNL A   1      32.274  35.984  30.003  1.00  0.00    -0.744 OA
ENDBRANCH  87  88
ENDBRANCH  55  80
BRANCH  67  92
ATOM     92  C   UNL A   1      39.825  34.289  36.972  1.00  0.00     0.058 A 
ATOM     93  C   UNL A   1      40.538  35.495  36.893  1.00  0.00     0.135 A 
ATOM     94  C   UNL A   1      38.966  34.105  38.068  1.00  0.00     0.135 A 
ATOM     95  F   UNL A   1      41.376  35.718  35.867  1.00  0.00    -0.206 F 
ATOM     96  C   UNL A   1      40.436  36.467  37.883  1.00  0.00     0.059 A 
ATOM     97  C   UNL A   1      38.829  35.074  39.057  1.00  0.00     0.059 A 
ATOM     98  F   UNL A   1      38.252  32.974  38.186  1.00  0.00    -0.206 F 
ATOM     99  C   UNL A   1      39.583  36.244  38.965  1.00  0.00     0.060 A 
BRANCH  99 100
ATOM    100  S   UNL A   1      39.458  37.509  40.247  1.00  0.00     0.124 S 
ATOM    101  O   UNL A   1      38.902  36.744  41.359  1.00  0.00    -0.237 OA
ATOM    102  O   UNL A   1      40.844  37.939  40.403  1.00  0.00    -0.237 OA
ATOM    103  O   UNL A   1      38.563  38.500  39.657  1.00  0.00    -0.744 OA
ENDBRANCH  99 100
ENDBRANCH  67  92
ENDBRANCH  41  42
ENDBRANCH  33  36
ENDBRANCH  31  32
ENDBRANCH  30  31
ENDBRANCH   1  30
TORSDOF 19
ENDMDL
MODEL 2
REMARK VINA RESULT:     -13.2      6.461     12.103
REMARK SMILES C[C@@H](C(=O)NCCCNC(=O)c1ccc(-c2c3nc(c(-c4c(F)cc(S(=O)(=O)[O-])cc4F)c4ccc([nH]4)c(-c4c(F)cc(S(=O)(=O)[O-])cc4F)c4nc(c(-c5c(F)cc(S(=O)(=O)[O-])cc5F)c5ccc2[nH]5)C=C4)C=C3)cc1)c1ccc(C[C@H]2CCC[C@H]2O)cc1-c1ccc(O)cc1
REMARK SMILES IDX 6 1 5 2 3 3 4 4 2 6 1 7 78 8 79 9 90 10 80 11 89 12 81 13
REMARK SMILES IDX 91 14 92 15 97 16 93 17 96 18 94 19 95 20 82 22 83 23 84 24
REMARK SMILES IDX 87 25 85 26 86 27 88 28 7 30 8 31 9 32 10 33 11 35 12 36
REMARK SMILES IDX 13 37 77 38 14 39 76 40 15 41 16 42 17 43 70 44 18 45 75 46
REMARK SMILES IDX 69 47 71 48 19 49 74 50 68 51 67 52 20 54 54 55 33 56 53 57
REMARK SMILES IDX 34 58 37 59 52 60 72 61 35 62 36 63 51 65 73 66 38 67 21 68
REMARK SMILES IDX 22 69 31 70 23 71 24 72 30 73 32 74 25 75 26 76 27 77 28 78
REMARK SMILES IDX 29 79 55 80 56 81 65 82 57 83 58 84 64 85 66 86 59 87 60 88
REMARK SMILES IDX 61 89 62 90 63 91 39 92 40 93 49 94 41 95 42 96 48 97 50 98
REMARK SMILES IDX 43 99 44 100 45 101 46 102 47 103
REMARK H PARENT 5 5 95 21 88 29 9 34 71 53 37 64
REMARK Flexibility Score: inf
ROOT
ATOM      1  C   UNL A   1      34.677  29.098  26.529  1.00  0.00     0.117 C 
ENDROOT
BRANCH   1   2
ATOM      2  N   UNL A   1      33.639  30.009  26.091  1.00  0.00    -0.356 N 
ATOM      3  C   UNL A   1      32.284  29.891  26.089  1.00  0.00     0.227 C 
ATOM      4  O   UNL A   1      31.666  30.955  25.980  1.00  0.00    -0.274 OA
ATOM      5  H   UNL A   1      33.973  30.863  25.732  1.00  0.00     0.163 HD
BRANCH   3   6
ATOM      6  C   UNL A   1      31.591  28.556  26.391  1.00  0.00     0.106 C 
ATOM      7  C   UNL A   1      31.483  28.069  27.842  1.00  0.00     0.023 C 
BRANCH   6   8
ATOM      8  C   UNL A   1      32.090  27.378  25.545  1.00  0.00    -0.028 A 
ATOM      9  C   UNL A   1      32.925  26.456  26.205  1.00  0.00     0.005 A 
ATOM     10  C   UNL A   1      31.836  27.209  24.157  1.00  0.00    -0.014 A 
ATOM     11  C   UNL A   1      33.558  25.432  25.512  1.00  0.00     0.004 A 
ATOM     12  C   UNL A   1      32.554  26.205  23.470  1.00  0.00     0.012 A 
ATOM     13  C   UNL A   1      33.448  25.344  24.128  1.00  0.00    -0.047 A 
BRANCH  10  14
ATOM     14  C   UNL A   1      30.786  27.942  23.414  1.00  0.00    -0.018 A 
ATOM     15  C   UNL A   1      29.445  27.528  23.549  1.00  0.00     0.012 A 
ATOM     16  C   UNL A   1      31.039  29.050  22.593  1.00  0.00     0.012 A 
ATOM     17  C   UNL A   1      28.398  28.235  22.955  1.00  0.00     0.047 A 
ATOM     18  C   UNL A   1      29.992  29.777  22.010  1.00  0.00     0.047 A 
ATOM     19  C   UNL A   1      28.678  29.371  22.210  1.00  0.00     0.115 A 
BRANCH  19  20
ATOM     20  O   UNL A   1      27.625  30.065  21.693  1.00  0.00    -0.508 OA
ATOM     21  H   UNL A   1      26.775  29.671  21.658  1.00  0.00     0.293 HD
ENDBRANCH  19  20
ENDBRANCH  10  14
BRANCH  13  22
ATOM     22  C   UNL A   1      34.280  24.343  23.366  1.00  0.00     0.041 C 
BRANCH  22  23
ATOM     23  C   UNL A   1      35.219  23.436  24.184  1.00  0.00     0.022 C 
ATOM     24  C   UNL A   1      34.685  22.030  24.502  1.00  0.00     0.007 C 
ATOM     25  C   UNL A   1      36.650  23.201  23.675  1.00  0.00     0.117 C 
ATOM     26  C   UNL A   1      35.918  21.131  24.645  1.00  0.00     0.003 C 
ATOM     27  C   UNL A   1      37.130  22.054  24.559  1.00  0.00     0.032 C 
BRANCH  25  28
ATOM     28  O   UNL A   1      36.751  22.788  22.324  1.00  0.00    -0.393 OA
ATOM     29  H   UNL A   1      36.782  23.567  21.748  1.00  0.00     0.210 HD
ENDBRANCH  25  28
ENDBRANCH  22  23
ENDBRANCH  13  22
ENDBRANCH   6   8
ENDBRANCH   3   6
ENDBRANCH   1   2
BRANCH   1  30
ATOM     30  C   UNL A   1      35.086  29.341  27.980  1.00  0.00     0.042 C 
BRANCH  30  31
ATOM     31  C   UNL A   1      35.358  30.802  28.326  1.00  0.00     0.118 C 
BRANCH  31  32
ATOM     32  N   UNL A   1      35.485  31.026  29.757  1.00  0.00    -0.352 N 
ATOM     33  C   UNL A   1      36.535  30.798  30.608  1.00  0.00     0.251 C 
ATOM     34  H   UNL A   1      34.683  31.405  30.186  1.00  0.00     0.163 HD
ATOM     35  O   UNL A   1      36.347  30.886  31.818  1.00  0.00    -0.269 OA
BRANCH  33  36
ATOM     36  C   UNL A   1      37.876  30.436  30.093  1.00  0.00     0.039 A 
ATOM     37  C   UNL A   1      38.853  30.043  31.012  1.00  0.00     0.014 A 
ATOM     38  C   UNL A   1      38.197  30.532  28.736  1.00  0.00     0.014 A 
ATOM     39  C   UNL A   1      40.130  29.701  30.567  1.00  0.00     0.010 A 
ATOM     40  C   UNL A   1      39.453  30.121  28.284  1.00  0.00     0.010 A 
ATOM     41  C   UNL A   1      40.434  29.710  29.196  1.00  0.00    -0.014 A 
BRANCH  41  42
ATOM     42  C   UNL A   1      41.775  29.280  28.721  1.00  0.00     0.031 A 
ATOM     43  C   UNL A   1      42.915  30.260  28.640  1.00  0.00     0.074 A 
ATOM     44  C   UNL A   1      41.957  28.002  28.338  1.00  0.00     0.049 A 
ATOM     45  N   UNL A   1      44.155  30.053  28.276  1.00  0.00    -0.248 NA
ATOM     46  C   UNL A   1      42.619  31.657  28.991  1.00  0.00     0.031 C 
ATOM     47  C   UNL A   1      40.914  26.972  28.308  1.00  0.00     0.029 A 
ATOM     48  N   UNL A   1      43.081  27.345  27.906  1.00  0.00    -0.354 N 
ATOM     49  C   UNL A   1      44.785  31.290  28.348  1.00  0.00     0.074 A 
ATOM     50  C   UNL A   1      43.776  32.253  28.738  1.00  0.00     0.031 C 
ATOM     51  C   UNL A   1      41.455  25.809  27.914  1.00  0.00     0.029 A 
ATOM     52  C   UNL A   1      42.873  26.012  27.640  1.00  0.00     0.049 A 
ATOM     53  H   UNL A   1      43.954  27.787  27.794  1.00  0.00     0.167 HD
ATOM     54  C   UNL A   1      46.088  31.592  28.132  1.00  0.00     0.037 A 
ATOM     55  C   UNL A   1      43.732  25.057  27.233  1.00  0.00     0.037 A 
ATOM     56  C   UNL A   1      47.093  30.626  27.768  1.00  0.00     0.049 A 
ATOM     57  C   UNL A   1      45.179  25.410  27.036  1.00  0.00     0.074 A 
ATOM     58  C   UNL A   1      48.451  30.822  27.587  1.00  0.00     0.029 A 
ATOM     59  N   UNL A   1      46.849  29.282  27.530  1.00  0.00    -0.354 N 
ATOM     60  N   UNL A   1      45.771  26.572  27.177  1.00  0.00    -0.248 NA
ATOM     61  C   UNL A   1      46.078  24.318  26.636  1.00  0.00     0.031 C 
ATOM     62  C   UNL A   1      49.023  29.602  27.206  1.00  0.00     0.029 A 
ATOM     63  C   UNL A   1      48.027  28.638  27.188  1.00  0.00     0.049 A 
ATOM     64  H   UNL A   1      45.967  28.848  27.594  1.00  0.00     0.167 HD
ATOM     65  C   UNL A   1      47.115  26.349  26.899  1.00  0.00     0.074 A 
ATOM     66  C   UNL A   1      47.250  24.936  26.603  1.00  0.00     0.031 C 
ATOM     67  C   UNL A   1      48.143  27.233  26.887  1.00  0.00     0.037 A 
BRANCH  54  68
ATOM     68  C   UNL A   1      46.505  33.029  28.299  1.00  0.00     0.058 A 
ATOM     69  C   UNL A   1      46.454  33.937  27.230  1.00  0.00     0.135 A 
ATOM     70  C   UNL A   1      46.930  33.511  29.547  1.00  0.00     0.135 A 
ATOM     71  F   UNL A   1      46.068  33.526  26.011  1.00  0.00    -0.206 F 
ATOM     72  C   UNL A   1      46.838  35.265  27.383  1.00  0.00     0.059 A 
ATOM     73  C   UNL A   1      47.295  34.842  29.730  1.00  0.00     0.059 A 
ATOM     74  F   UNL A   1      46.998  32.686  30.604  1.00  0.00    -0.206 F 
ATOM     75  C   UNL A   1      47.260  35.708  28.637  1.00  0.00     0.060 A 
BRANCH  75  76
ATOM     76  S   UNL A   1      47.754  37.435  28.823  1.00  0.00     0.124 S 
ATOM     77  O   UNL A   1      46.522  38.129  28.460  1.00  0.00    -0.237 OA
ATOM     78  O   UNL A   1      48.128  37.505  30.231  1.00  0.00    -0.237 OA
ATOM     79  O   UNL A   1      48.856  37.576  27.877  1.00  0.00    -0.744 OA
ENDBRANCH  75  76
ENDBRANCH  54  68
BRANCH  55  80
ATOM     80  C   UNL A   1      43.248  23.668  27.026  1.00  0.00     0.058 A 
ATOM     81  C   UNL A   1      43.128  22.779  28.103  1.00  0.00     0.135 A 
ATOM     82  C   UNL A   1      42.873  23.211  25.753  1.00  0.00     0.135 A 
ATOM     83  F   UNL A   1      43.477  23.170  29.339  1.00  0.00    -0.206 F 
ATOM     84  C   UNL A   1      42.667  21.478  27.927  1.00  0.00     0.059 A 
ATOM     85  C   UNL A   1      42.388  21.922  25.555  1.00  0.00     0.059 A 
ATOM     86  F   UNL A   1      42.951  24.031  24.694  1.00  0.00    -0.206 F 
ATOM     87  C   UNL A   1      42.297  21.060  26.647  1.00  0.00     0.060 A 
BRANCH  87  88
ATOM     88  S   UNL A   1      41.643  19.390  26.434  1.00  0.00     0.124 S 
ATOM     89  O   UNL A   1      40.251  19.661  26.097  1.00  0.00    -0.237 OA
ATOM     90  O   UNL A   1      42.473  18.870  25.351  1.00  0.00    -0.237 OA
ATOM     91  O   UNL A   1      41.871  18.774  27.737  1.00  0.00    -0.744 OA
ENDBRANCH  87  88
ENDBRANCH  55  80
BRANCH  67  92
ATOM     92  C   UNL A   1      49.504  26.690  26.553  1.00  0.00     0.058 A 
ATOM     93  C   UNL A   1      50.328  26.119  27.535  1.00  0.00     0.135 A 
ATOM     94  C   UNL A   1      49.985  26.729  25.234  1.00  0.00     0.135 A 
ATOM     95  F   UNL A   1      49.916  26.061  28.812  1.00  0.00    -0.206 F 
ATOM     96  C   UNL A   1      51.598  25.641  27.230  1.00  0.00     0.059 A 
ATOM     97  C   UNL A   1      51.241  26.234  24.902  1.00  0.00     0.059 A 
ATOM     98  F   UNL A   1      49.231  27.254  24.255  1.00  0.00    -0.206 F 
ATOM     99  C   UNL A   1      52.048  25.708  25.911  1.00  0.00     0.060 A 
BRANCH  99 100
ATOM    100  S   UNL A   1      53.699  25.088  25.524  1.00  0.00     0.124 S 
ATOM    101  O   UNL A   1      54.450  25.500  26.705  1.00  0.00    -0.237 OA
ATOM    102  O   UNL A   1      53.472  23.653  25.385  1.00  0.00    -0.237 OA
ATOM    103  O   UNL A   1      54.040  25.784  24.287  1.00  0.00    -0.744 OA
ENDBRANCH  99 100
ENDBRANCH  67  92
ENDBRANCH  41  42
ENDBRANCH  33  36
ENDBRANCH  31  32
ENDBRANCH  30  31
ENDBRANCH   1  30
TORSDOF 19
ENDMDL
MODEL 3
REMARK VINA RESULT:     -13.0      6.457     12.181
REMARK SMILES C[C@@H](C(=O)NCCCNC(=O)c1ccc(-c2c3nc(c(-c4c(F)cc(S(=O)(=O)[O-])cc4F)c4ccc([nH]4)c(-c4c(F)cc(S(=O)(=O)[O-])cc4F)c4nc(c(-c5c(F)cc(S(=O)(=O)[O-])cc5F)c5ccc2[nH]5)C=C4)C=C3)cc1)c1ccc(C[C@H]2CCC[C@H]2O)cc1-c1ccc(O)cc1
REMARK SMILES IDX 6 1 5 2 3 3 4 4 2 6 1 7 78 8 79 9 90 10 80 11 89 12 81 13
REMARK SMILES IDX 91 14 92 15 97 16 93 17 96 18 94 19 95 20 82 22 83 23 84 24
REMARK SMILES IDX 87 25 85 26 86 27 88 28 7 30 8 31 9 32 10 33 11 35 12 36
REMARK SMILES IDX 13 37 77 38 14 39 76 40 15 41 16 42 17 43 70 44 18 45 75 46
REMARK SMILES IDX 69 47 71 48 19 49 74 50 68 51 67 52 20 54 54 55 33 56 53 57
REMARK SMILES IDX 34 58 37 59 52 60 72 61 35 62 36 63 51 65 73 66 38 67 21 68
REMARK SMILES IDX 22 69 31 70 23 71 24 72 30 73 32 74 25 75 26 76 27 77 28 78
REMARK SMILES IDX 29 79 55 80 56 81 65 82 57 83 58 84 64 85 66 86 59 87 60 88
REMARK SMILES IDX 61 89 62 90 63 91 39 92 40 93 49 94 41 95 42 96 48 97 50 98
REMARK SMILES IDX 43 99 44 100 45 101 46 102 47 103
REMARK H PARENT 5 5 95 21 88 29 9 34 71 53 37 64
REMARK Flexibility Score: inf
ROOT
ATOM      1  C   UNL A   1      33.208  30.941  27.196  1.00  0.00     0.117 C 
ENDROOT
BRANCH   1   2
ATOM      2  N   UNL A   1      33.682  30.065  26.144  1.00  0.00    -0.356 N 
ATOM      3  C   UNL A   1      33.090  29.013  25.517  1.00  0.00     0.227 C 
ATOM      4  O   UNL A   1      33.600  28.691  24.440  1.00  0.00    -0.274 OA
ATOM      5  H   UNL A   1      34.592  30.267  25.827  1.00  0.00     0.163 HD
BRANCH   3   6
ATOM      6  C   UNL A   1      31.776  28.407  26.027  1.00  0.00     0.106 C 
ATOM      7  C   UNL A   1      31.464  28.426  27.529  1.00  0.00     0.023 C 
BRANCH   6   8
ATOM      8  C   UNL A   1      31.491  26.990  25.515  1.00  0.00    -0.028 A 
ATOM      9  C   UNL A   1      31.993  25.937  26.304  1.00  0.00     0.005 A 
ATOM     10  C   UNL A   1      30.841  26.684  24.288  1.00  0.00    -0.014 A 
ATOM     11  C   UNL A   1      31.929  24.618  25.872  1.00  0.00     0.004 A 
ATOM     12  C   UNL A   1      30.860  25.343  23.845  1.00  0.00     0.012 A 
ATOM     13  C   UNL A   1      31.440  24.314  24.605  1.00  0.00    -0.047 A 
BRANCH  10  14
ATOM     14  C   UNL A   1      30.050  27.662  23.506  1.00  0.00    -0.018 A 
ATOM     15  C   UNL A   1      28.643  27.587  23.553  1.00  0.00     0.012 A 
ATOM     16  C   UNL A   1      30.617  28.684  22.732  1.00  0.00     0.012 A 
ATOM     17  C   UNL A   1      27.839  28.537  22.919  1.00  0.00     0.047 A 
ATOM     18  C   UNL A   1      29.817  29.653  22.110  1.00  0.00     0.047 A 
ATOM     19  C   UNL A   1      28.433  29.578  22.223  1.00  0.00     0.115 A 
BRANCH  19  20
ATOM     20  O   UNL A   1      27.616  30.516  21.666  1.00  0.00    -0.508 OA
ATOM     21  H   UNL A   1      26.771  30.270  21.344  1.00  0.00     0.293 HD
ENDBRANCH  19  20
ENDBRANCH  10  14
BRANCH  13  22
ATOM     22  C   UNL A   1      31.540  22.906  24.075  1.00  0.00     0.041 C 
BRANCH  22  23
ATOM     23  C   UNL A   1      32.952  22.309  23.920  1.00  0.00     0.022 C 
ATOM     24  C   UNL A   1      34.104  23.322  23.819  1.00  0.00     0.007 C 
ATOM     25  C   UNL A   1      33.436  21.274  24.949  1.00  0.00     0.117 C 
ATOM     26  C   UNL A   1      35.344  22.611  24.371  1.00  0.00     0.003 C 
ATOM     27  C   UNL A   1      34.924  21.167  24.634  1.00  0.00     0.032 C 
BRANCH  25  28
ATOM     28  O   UNL A   1      33.298  21.660  26.305  1.00  0.00    -0.393 OA
ATOM     29  H   UNL A   1      33.652  22.554  26.425  1.00  0.00     0.210 HD
ENDBRANCH  25  28
ENDBRANCH  22  23
ENDBRANCH  13  22
ENDBRANCH   6   8
ENDBRANCH   3   6
ENDBRANCH   1   2
BRANCH   1  30
ATOM     30  C   UNL A   1      34.353  31.606  27.956  1.00  0.00     0.042 C 
BRANCH  30  31
ATOM     31  C   UNL A   1      35.415  30.641  28.475  1.00  0.00     0.118 C 
BRANCH  31  32
ATOM     32  N   UNL A   1      35.513  30.640  29.925  1.00  0.00    -0.352 N 
ATOM     33  C   UNL A   1      36.540  30.263  30.752  1.00  0.00     0.251 C 
ATOM     34  H   UNL A   1      34.709  30.965  30.391  1.00  0.00     0.163 HD
ATOM     35  O   UNL A   1      36.325  30.168  31.957  1.00  0.00    -0.269 OA
BRANCH  33  36
ATOM     36  C   UNL A   1      37.885  29.956  30.214  1.00  0.00     0.039 A 
ATOM     37  C   UNL A   1      38.885  29.576  31.113  1.00  0.00     0.014 A 
ATOM     38  C   UNL A   1      38.188  30.093  28.856  1.00  0.00     0.014 A 
ATOM     39  C   UNL A   1      40.168  29.286  30.646  1.00  0.00     0.010 A 
ATOM     40  C   UNL A   1      39.450  29.734  28.381  1.00  0.00     0.010 A 
ATOM     41  C   UNL A   1      40.455  29.335  29.273  1.00  0.00    -0.014 A 
BRANCH  41  42
ATOM     42  C   UNL A   1      41.804  28.960  28.773  1.00  0.00     0.031 A 
ATOM     43  C   UNL A   1      42.910  29.978  28.702  1.00  0.00     0.074 A 
ATOM     44  C   UNL A   1      42.022  27.697  28.359  1.00  0.00     0.049 A 
ATOM     45  N   UNL A   1      44.152  29.820  28.319  1.00  0.00    -0.248 NA
ATOM     46  C   UNL A   1      42.574  31.357  29.088  1.00  0.00     0.031 C 
ATOM     47  C   UNL A   1      41.013  26.634  28.318  1.00  0.00     0.029 A 
ATOM     48  N   UNL A   1      43.162  27.087  27.900  1.00  0.00    -0.354 N 
ATOM     49  C   UNL A   1      44.742  31.075  28.412  1.00  0.00     0.074 A 
ATOM     50  C   UNL A   1      43.708  31.995  28.835  1.00  0.00     0.031 C 
ATOM     51  C   UNL A   1      41.587  25.498  27.892  1.00  0.00     0.029 A 
ATOM     52  C   UNL A   1      42.995  25.754  27.607  1.00  0.00     0.049 A 
ATOM     53  H   UNL A   1      44.019  27.560  27.789  1.00  0.00     0.167 HD
ATOM     54  C   UNL A   1      46.032  31.424  28.189  1.00  0.00     0.037 A 
ATOM     55  C   UNL A   1      43.879  24.837  27.168  1.00  0.00     0.037 A 
ATOM     56  C   UNL A   1      47.063  30.500  27.792  1.00  0.00     0.049 A 
ATOM     57  C   UNL A   1      45.312  25.241  26.964  1.00  0.00     0.074 A 
ATOM     58  C   UNL A   1      48.412  30.744  27.600  1.00  0.00     0.029 A 
ATOM     59  N   UNL A   1      46.861  29.154  27.526  1.00  0.00    -0.354 N 
ATOM     60  N   UNL A   1      45.867  26.419  27.124  1.00  0.00    -0.248 NA
ATOM     61  C   UNL A   1      46.241  24.189  26.529  1.00  0.00     0.031 C 
ATOM     62  C   UNL A   1      49.019  29.552  27.185  1.00  0.00     0.029 A 
ATOM     63  C   UNL A   1      48.055  28.557  27.157  1.00  0.00     0.049 A 
ATOM     64  H   UNL A   1      45.994  28.690  27.591  1.00  0.00     0.167 HD
ATOM     65  C   UNL A   1      47.214  26.246  26.826  1.00  0.00     0.074 A 
ATOM     66  C   UNL A   1      47.392  24.846  26.498  1.00  0.00     0.031 C 
ATOM     67  C   UNL A   1      48.213  27.164  26.823  1.00  0.00     0.037 A 
BRANCH  54  68
ATOM     68  C   UNL A   1      46.404  32.870  28.384  1.00  0.00     0.058 A 
ATOM     69  C   UNL A   1      46.374  33.785  27.320  1.00  0.00     0.135 A 
ATOM     70  C   UNL A   1      46.763  33.352  29.652  1.00  0.00     0.135 A 
ATOM     71  F   UNL A   1      46.050  33.375  26.083  1.00  0.00    -0.206 F 
ATOM     72  C   UNL A   1      46.717  35.121  27.499  1.00  0.00     0.059 A 
ATOM     73  C   UNL A   1      47.085  34.691  29.859  1.00  0.00     0.059 A 
ATOM     74  F   UNL A   1      46.809  32.521  30.704  1.00  0.00    -0.206 F 
ATOM     75  C   UNL A   1      47.074  35.565  28.773  1.00  0.00     0.060 A 
BRANCH  75  76
ATOM     76  S   UNL A   1      47.514  37.302  28.991  1.00  0.00     0.124 S 
ATOM     77  O   UNL A   1      46.201  37.939  28.966  1.00  0.00    -0.237 OA
ATOM     78  O   UNL A   1      48.190  37.294  30.285  1.00  0.00    -0.237 OA
ATOM     79  O   UNL A   1      48.370  37.582  27.842  1.00  0.00    -0.744 OA
ENDBRANCH  75  76
ENDBRANCH  54  68
BRANCH  55  80
ATOM     80  C   UNL A   1      43.438  23.438  26.936  1.00  0.00     0.058 A 
ATOM     81  C   UNL A   1      43.306  22.930  25.636  1.00  0.00     0.135 A 
ATOM     82  C   UNL A   1      43.163  22.575  28.008  1.00  0.00     0.135 A 
ATOM     83  F   UNL A   1      43.555  23.719  24.579  1.00  0.00    -0.206 F 
ATOM     84  C   UNL A   1      42.903  21.619  25.403  1.00  0.00     0.059 A 
ATOM     85  C   UNL A   1      42.779  21.254  27.801  1.00  0.00     0.059 A 
ATOM     86  F   UNL A   1      43.293  23.008  29.271  1.00  0.00    -0.206 F 
ATOM     87  C   UNL A   1      42.644  20.788  26.494  1.00  0.00     0.060 A 
BRANCH  87  88
ATOM     88  S   UNL A   1      42.178  19.070  26.186  1.00  0.00     0.124 S 
ATOM     89  O   UNL A   1      40.768  19.205  25.842  1.00  0.00    -0.237 OA
ATOM     90  O   UNL A   1      43.071  18.700  25.091  1.00  0.00    -0.237 OA
ATOM     91  O   UNL A   1      42.460  18.415  27.460  1.00  0.00    -0.744 OA
ENDBRANCH  87  88
ENDBRANCH  55  80
BRANCH  67  92
ATOM     92  C   UNL A   1      49.586  26.672  26.461  1.00  0.00     0.058 A 
ATOM     93  C   UNL A   1      50.085  26.781  25.154  1.00  0.00     0.135 A 
ATOM     94  C   UNL A   1      50.418  26.096  27.435  1.00  0.00     0.135 A 
ATOM     95  F   UNL A   1      49.327  27.320  24.185  1.00  0.00    -0.206 F 
ATOM     96  C   UNL A   1      51.345  26.301  24.814  1.00  0.00     0.059 A 
ATOM     97  C   UNL A   1      51.692  25.633  27.124  1.00  0.00     0.059 A 
ATOM     98  F   UNL A   1      49.994  25.979  28.704  1.00  0.00    -0.206 F 
ATOM     99  C   UNL A   1      52.139  25.722  25.805  1.00  0.00     0.060 A 
BRANCH  99 100
ATOM    100  S   UNL A   1      53.773  25.100  25.356  1.00  0.00     0.124 S 
ATOM    101  O   UNL A   1      53.545  23.658  25.351  1.00  0.00    -0.237 OA
ATOM    102  O   UNL A   1      53.995  25.711  24.050  1.00  0.00    -0.237 OA
ATOM    103  O   UNL A   1      54.631  25.596  26.428  1.00  0.00    -0.744 OA
ENDBRANCH  99 100
ENDBRANCH  67  92
ENDBRANCH  41  42
ENDBRANCH  33  36
ENDBRANCH  31  32
ENDBRANCH  30  31
ENDBRANCH   1  30
TORSDOF 19
ENDMDL
