MODEL 1
REMARK VINA RESULT:     -12.8      0.000      0.000
REMARK SMILES O=C(NCCCNC(=O)[C@]12CCC[NH2+][C@@H]1CCN(C(=O)Cc1c(F)cccc1Cl)C2)c1ccc(-c2c3nc(c(-c4c(F)cc(S(=O)(=O)[O-])cc4F)c4ccc([nH]4)c(-c4c(F)cc(S(=O)(=O)[O-])cc4F)c4nc(c(-c5c(F)cc(S(=O)(=O)[O-])cc5F)c5ccc2[nH]5)C=C4)C=C3)cc1
REMARK SMILES IDX 5 1 4 2 3 3 1 4 2 5 31 7 32 8 96 9 33 10 95 11 34 12 35 13
REMARK SMILES IDX 36 14 89 15 37 16 94 17 88 18 90 19 38 20 93 21 87 22 86 23
REMARK SMILES IDX 39 25 73 26 52 27 72 28 53 29 56 30 71 31 91 32 54 33 55 34
REMARK SMILES IDX 70 36 92 37 57 38 40 39 41 40 50 41 42 42 43 43 49 44 51 45
REMARK SMILES IDX 44 46 45 47 46 48 47 49 48 50 74 51 75 52 84 53 76 54 77 55
REMARK SMILES IDX 83 56 85 57 78 58 79 59 80 60 81 61 82 62 58 63 59 64 68 65
REMARK SMILES IDX 60 66 61 67 67 68 69 69 62 70 63 71 64 72 65 73 66 74 6 75
REMARK SMILES IDX 7 76 8 77 9 79 10 80 11 81 15 82 30 83 12 84 14 85 16 86
REMARK SMILES IDX 18 87 13 88 17 91 19 92 20 93 21 94 22 95 23 96 28 97 24 98
REMARK SMILES IDX 25 99 27 100 29 101 26 102
REMARK H PARENT 3 6 90 24 56 35 7 78 14 89 14 90
REMARK Flexibility Score: inf
ROOT
ATOM      1  C   UNL A   1      37.633  22.857  25.827  1.00  0.00     0.042 C 
ENDROOT
BRANCH   1   2
ATOM      2  C   UNL A   1      38.404  24.076  26.289  1.00  0.00     0.118 C 
BRANCH   2   3
ATOM      3  N   UNL A   1      39.839  24.078  25.983  1.00  0.00    -0.352 N 
ATOM      4  O   UNL A   1      42.014  24.683  26.134  1.00  0.00    -0.269 OA
ATOM      5  C   UNL A   1      40.860  24.832  26.527  1.00  0.00     0.251 C 
ATOM      6  H   UNL A   1      40.117  23.446  25.280  1.00  0.00     0.163 HD
BRANCH   5   7
ATOM      7  C   UNL A   1      40.540  25.853  27.544  1.00  0.00     0.039 A 
ATOM      8  C   UNL A   1      41.248  27.049  27.551  1.00  0.00     0.014 A 
ATOM      9  C   UNL A   1      39.616  25.576  28.555  1.00  0.00     0.014 A 
ATOM     10  C   UNL A   1      41.271  27.809  28.702  1.00  0.00     0.010 A 
ATOM     11  C   UNL A   1      39.488  26.464  29.627  1.00  0.00     0.010 A 
ATOM     12  C   UNL A   1      40.355  27.561  29.734  1.00  0.00    -0.014 A 
BRANCH  12  13
ATOM     13  C   UNL A   1      40.285  28.537  30.849  1.00  0.00     0.031 A 
ATOM     14  C   UNL A   1      41.254  28.494  31.996  1.00  0.00     0.074 A 
ATOM     15  C   UNL A   1      39.351  29.507  30.770  1.00  0.00     0.049 A 
ATOM     16  N   UNL A   1      41.313  29.270  33.047  1.00  0.00    -0.248 NA
ATOM     17  C   UNL A   1      42.280  27.439  31.975  1.00  0.00     0.031 C 
ATOM     18  C   UNL A   1      38.364  29.637  29.690  1.00  0.00     0.029 A 
ATOM     19  N   UNL A   1      39.098  30.586  31.571  1.00  0.00    -0.354 N 
ATOM     20  C   UNL A   1      42.343  28.772  33.837  1.00  0.00     0.074 A 
ATOM     21  C   UNL A   1      42.879  27.619  33.146  1.00  0.00     0.031 C 
ATOM     22  C   UNL A   1      37.688  30.780  29.840  1.00  0.00     0.029 A 
ATOM     23  C   UNL A   1      38.094  31.396  31.092  1.00  0.00     0.049 A 
ATOM     24  H   UNL A   1      39.586  30.766  32.407  1.00  0.00     0.167 HD
ATOM     25  C   UNL A   1      42.787  29.237  35.030  1.00  0.00     0.037 A 
ATOM     26  C   UNL A   1      37.530  32.495  31.619  1.00  0.00     0.037 A 
ATOM     27  C   UNL A   1      42.242  30.404  35.682  1.00  0.00     0.049 A 
ATOM     28  C   UNL A   1      38.024  32.973  32.947  1.00  0.00     0.074 A 
ATOM     29  C   UNL A   1      42.629  30.982  36.878  1.00  0.00     0.029 A 
ATOM     30  N   UNL A   1      41.191  31.170  35.192  1.00  0.00    -0.354 N 
ATOM     31  N   UNL A   1      38.991  32.483  33.686  1.00  0.00    -0.248 NA
ATOM     32  C   UNL A   1      37.346  34.138  33.522  1.00  0.00     0.031 C 
ATOM     33  C   UNL A   1      41.777  32.063  37.137  1.00  0.00     0.029 A 
ATOM     34  C   UNL A   1      40.901  32.200  36.073  1.00  0.00     0.049 A 
ATOM     35  H   UNL A   1      40.721  31.005  34.343  1.00  0.00     0.167 HD
ATOM     36  C   UNL A   1      39.054  33.293  34.810  1.00  0.00     0.074 A 
ATOM     37  C   UNL A   1      38.033  34.312  34.641  1.00  0.00     0.031 C 
ATOM     38  C   UNL A   1      39.879  33.203  35.881  1.00  0.00     0.037 A 
BRANCH  25  39
ATOM     39  C   UNL A   1      43.872  28.458  35.727  1.00  0.00     0.058 A 
ATOM     40  C   UNL A   1      45.237  28.711  35.514  1.00  0.00     0.135 A 
ATOM     41  C   UNL A   1      43.537  27.437  36.633  1.00  0.00     0.135 A 
ATOM     42  F   UNL A   1      45.620  29.666  34.652  1.00  0.00    -0.206 F 
ATOM     43  C   UNL A   1      46.226  27.955  36.137  1.00  0.00     0.059 A 
ATOM     44  C   UNL A   1      44.509  26.687  37.290  1.00  0.00     0.059 A 
ATOM     45  F   UNL A   1      42.250  27.148  36.882  1.00  0.00    -0.206 F 
ATOM     46  C   UNL A   1      45.852  26.938  37.018  1.00  0.00     0.060 A 
BRANCH  46  47
ATOM     47  S   UNL A   1      47.145  25.941  37.790  1.00  0.00     0.124 S 
ATOM     48  O   UNL A   1      47.343  26.649  39.051  1.00  0.00    -0.237 OA
ATOM     49  O   UNL A   1      46.509  24.632  37.893  1.00  0.00    -0.237 OA
ATOM     50  O   UNL A   1      48.252  26.025  36.843  1.00  0.00    -0.744 OA
ENDBRANCH  46  47
ENDBRANCH  25  39
BRANCH  26  51
ATOM     51  C   UNL A   1      36.436  33.180  30.884  1.00  0.00     0.058 A 
ATOM     52  C   UNL A   1      35.111  33.107  31.336  1.00  0.00     0.135 A 
ATOM     53  C   UNL A   1      36.704  33.987  29.765  1.00  0.00     0.135 A 
ATOM     54  F   UNL A   1      34.806  32.352  32.401  1.00  0.00    -0.206 F 
ATOM     55  C   UNL A   1      34.090  33.809  30.704  1.00  0.00     0.059 A 
ATOM     56  C   UNL A   1      35.706  34.724  29.138  1.00  0.00     0.059 A 
ATOM     57  F   UNL A   1      37.961  34.112  29.311  1.00  0.00    -0.206 F 
ATOM     58  C   UNL A   1      34.399  34.621  29.612  1.00  0.00     0.060 A 
BRANCH  58  59
ATOM     59  S   UNL A   1      33.077  35.584  28.849  1.00  0.00     0.124 S 
ATOM     60  O   UNL A   1      33.832  36.622  28.157  1.00  0.00    -0.237 OA
ATOM     61  O   UNL A   1      32.427  34.591  28.000  1.00  0.00    -0.237 OA
ATOM     62  O   UNL A   1      32.286  36.033  29.992  1.00  0.00    -0.744 OA
ENDBRANCH  58  59
ENDBRANCH  26  51
BRANCH  38  63
ATOM     63  C   UNL A   1      39.739  34.268  36.930  1.00  0.00     0.058 A 
ATOM     64  C   UNL A   1      40.437  35.482  36.852  1.00  0.00     0.135 A 
ATOM     65  C   UNL A   1      38.874  34.073  38.018  1.00  0.00     0.135 A 
ATOM     66  F   UNL A   1      41.287  35.711  35.838  1.00  0.00    -0.206 F 
ATOM     67  C   UNL A   1      40.305  36.457  37.836  1.00  0.00     0.059 A 
ATOM     68  C   UNL A   1      38.702  35.046  38.995  1.00  0.00     0.059 A 
ATOM     69  F   UNL A   1      38.179  32.929  38.134  1.00  0.00    -0.206 F 
ATOM     70  C   UNL A   1      39.433  36.228  38.902  1.00  0.00     0.060 A 
BRANCH  70  71
ATOM     71  S   UNL A   1      39.252  37.509  40.160  1.00  0.00     0.124 S 
ATOM     72  O   UNL A   1      40.574  38.127  40.144  1.00  0.00    -0.237 OA
ATOM     73  O   UNL A   1      38.166  38.323  39.622  1.00  0.00    -0.237 OA
ATOM     74  O   UNL A   1      38.924  36.757  41.367  1.00  0.00    -0.744 OA
ENDBRANCH  70  71
ENDBRANCH  38  63
ENDBRANCH  12  13
ENDBRANCH   5   7
ENDBRANCH   2   3
ENDBRANCH   1   2
BRANCH   1  75
ATOM     75  C   UNL A   1      36.992  23.040  24.464  1.00  0.00     0.117 C 
BRANCH  75  76
ATOM     76  N   UNL A   1      35.745  22.273  24.222  1.00  0.00    -0.355 N 
ATOM     77  C   UNL A   1      34.390  22.332  24.391  1.00  0.00     0.234 C 
ATOM     78  H   UNL A   1      35.976  21.421  23.787  1.00  0.00     0.163 HD
ATOM     79  O   UNL A   1      33.792  21.401  23.823  1.00  0.00    -0.274 OA
BRANCH  77  80
ATOM     80  C   UNL A   1      33.526  23.411  25.134  1.00  0.00     0.118 C 
ATOM     81  C   UNL A   1      34.176  23.766  26.506  1.00  0.00     0.031 C 
ATOM     82  C   UNL A   1      32.064  23.067  25.374  1.00  0.00     0.201 C 
ATOM     83  C   UNL A   1      33.572  24.746  24.352  1.00  0.00     0.142 C 
ATOM     84  C   UNL A   1      34.020  22.666  27.539  1.00  0.00     0.063 C 
ATOM     85  N   UNL A   1      31.971  21.950  26.347  1.00  0.00    -0.343 N 
ATOM     86  C   UNL A   1      31.401  22.884  23.986  1.00  0.00     0.087 C 
ATOM     87  N   UNL A   1      32.719  24.888  23.182  1.00  0.00    -0.341 N 
ATOM     88  C   UNL A   1      32.557  22.242  27.660  1.00  0.00     0.260 C 
ATOM     89  H   UNL A   1      30.984  21.725  26.481  1.00  0.00     0.346 HD
ATOM     90  H   UNL A   1      32.504  21.175  25.953  1.00  0.00     0.346 HD
ATOM     91  C   UNL A   1      31.460  24.149  23.120  1.00  0.00     0.125 C 
BRANCH  87  92
ATOM     92  C   UNL A   1      32.832  26.135  22.543  1.00  0.00     0.227 C 
ATOM     93  O   UNL A   1      33.655  26.328  21.642  1.00  0.00    -0.275 OA
BRANCH  92  94
ATOM     94  C   UNL A   1      31.845  27.229  22.929  1.00  0.00     0.140 C 
BRANCH  94  95
ATOM     95  C   UNL A   1      32.179  27.797  24.290  1.00  0.00     0.016 A 
ATOM     96  C   UNL A   1      33.230  28.723  24.405  1.00  0.00     0.128 A 
ATOM     97  C   UNL A   1      31.474  27.478  25.456  1.00  0.00     0.047 A 
ATOM     98  F   UNL A   1      33.991  29.013  23.340  1.00  0.00    -0.207 F 
ATOM     99  C   UNL A   1      33.521  29.373  25.601  1.00  0.00     0.039 A 
ATOM    100  C   UNL A   1      31.769  28.120  26.668  1.00  0.00     0.021 A 
ATOM    101  Cl  UNL A   1      30.222  26.289  25.478  1.00  0.00    -0.084 Cl
ATOM    102  C   UNL A   1      32.777  29.081  26.736  1.00  0.00     0.005 A 
ENDBRANCH  94  95
ENDBRANCH  92  94
ENDBRANCH  87  92
ENDBRANCH  77  80
ENDBRANCH  75  76
ENDBRANCH   1  75
TORSDOF 16
ENDMDL
MODEL 2
REMARK VINA RESULT:     -12.8      6.649     12.008
REMARK SMILES O=C(NCCCNC(=O)[C@]12CCC[NH2+][C@@H]1CCN(C(=O)Cc1c(F)cccc1Cl)C2)c1ccc(-c2c3nc(c(-c4c(F)cc(S(=O)(=O)[O-])cc4F)c4ccc([nH]4)c(-c4c(F)cc(S(=O)(=O)[O-])cc4F)c4nc(c(-c5c(F)cc(S(=O)(=O)[O-])cc5F)c5ccc2[nH]5)C=C4)C=C3)cc1
REMARK SMILES IDX 5 1 4 2 3 3 1 4 2 5 31 7 32 8 96 9 33 10 95 11 34 12 35 13
REMARK SMILES IDX 36 14 89 15 37 16 94 17 88 18 90 19 38 20 93 21 87 22 86 23
REMARK SMILES IDX 39 25 73 26 52 27 72 28 53 29 56 30 71 31 91 32 54 33 55 34
REMARK SMILES IDX 70 36 92 37 57 38 40 39 41 40 50 41 42 42 43 43 49 44 51 45
REMARK SMILES IDX 44 46 45 47 46 48 47 49 48 50 74 51 75 52 84 53 76 54 77 55
REMARK SMILES IDX 83 56 85 57 78 58 79 59 80 60 81 61 82 62 58 63 59 64 68 65
REMARK SMILES IDX 60 66 61 67 67 68 69 69 62 70 63 71 64 72 65 73 66 74 6 75
REMARK SMILES IDX 7 76 8 77 9 79 10 80 11 81 15 82 30 83 12 84 14 85 16 86
REMARK SMILES IDX 18 87 13 88 17 91 19 92 20 93 21 94 22 95 23 96 28 97 24 98
REMARK SMILES IDX 25 99 27 100 29 101 26 102
REMARK H PARENT 3 6 90 24 56 35 7 78 14 89 14 90
REMARK Flexibility Score: inf
ROOT
ATOM      1  C   UNL A   1      34.084  30.140  26.865  1.00  0.00     0.042 C 
ENDROOT
BRANCH   1   2
ATOM      2  C   UNL A   1      35.155  29.509  27.731  1.00  0.00     0.118 C 
BRANCH   2   3
ATOM      3  N   UNL A   1      35.302  30.073  29.078  1.00  0.00    -0.352 N 
ATOM      4  O   UNL A   1      36.346  30.710  30.982  1.00  0.00    -0.269 OA
ATOM      5  C   UNL A   1      36.427  30.198  29.868  1.00  0.00     0.251 C 
ATOM      6  H   UNL A   1      34.470  30.415  29.480  1.00  0.00     0.163 HD
BRANCH   5   7
ATOM      7  C   UNL A   1      37.713  29.661  29.381  1.00  0.00     0.039 A 
ATOM      8  C   UNL A   1      38.590  29.075  30.287  1.00  0.00     0.014 A 
ATOM      9  C   UNL A   1      38.094  29.841  28.049  1.00  0.00     0.014 A 
ATOM     10  C   UNL A   1      39.923  28.962  29.953  1.00  0.00     0.010 A 
ATOM     11  C   UNL A   1      39.399  29.523  27.661  1.00  0.00     0.010 A 
ATOM     12  C   UNL A   1      40.339  29.130  28.624  1.00  0.00    -0.014 A 
BRANCH  12  13
ATOM     13  C   UNL A   1      41.743  28.790  28.288  1.00  0.00     0.031 A 
ATOM     14  C   UNL A   1      42.849  29.797  28.409  1.00  0.00     0.074 A 
ATOM     15  C   UNL A   1      42.004  27.518  27.921  1.00  0.00     0.049 A 
ATOM     16  N   UNL A   1      44.122  29.651  28.141  1.00  0.00    -0.248 NA
ATOM     17  C   UNL A   1      42.488  31.146  28.874  1.00  0.00     0.031 C 
ATOM     18  C   UNL A   1      40.994  26.460  27.778  1.00  0.00     0.029 A 
ATOM     19  N   UNL A   1      43.181  26.879  27.645  1.00  0.00    -0.354 N 
ATOM     20  C   UNL A   1      44.705  30.895  28.354  1.00  0.00     0.074 A 
ATOM     21  C   UNL A   1      43.644  31.789  28.767  1.00  0.00     0.031 C 
ATOM     22  C   UNL A   1      41.602  25.293  27.544  1.00  0.00     0.029 A 
ATOM     23  C   UNL A   1      43.025  25.538  27.386  1.00  0.00     0.049 A 
ATOM     24  H   UNL A   1      44.054  27.335  27.631  1.00  0.00     0.167 HD
ATOM     25  C   UNL A   1      46.005  31.250  28.208  1.00  0.00     0.037 A 
ATOM     26  C   UNL A   1      43.922  24.606  27.022  1.00  0.00     0.037 A 
ATOM     27  C   UNL A   1      47.042  30.327  27.814  1.00  0.00     0.049 A 
ATOM     28  C   UNL A   1      45.346  25.030  26.846  1.00  0.00     0.074 A 
ATOM     29  C   UNL A   1      48.396  30.567  27.658  1.00  0.00     0.029 A 
ATOM     30  N   UNL A   1      46.839  28.986  27.510  1.00  0.00    -0.354 N 
ATOM     31  N   UNL A   1      45.878  26.213  27.040  1.00  0.00    -0.248 NA
ATOM     32  C   UNL A   1      46.286  24.004  26.390  1.00  0.00     0.031 C 
ATOM     33  C   UNL A   1      49.001  29.387  27.209  1.00  0.00     0.029 A 
ATOM     34  C   UNL A   1      48.038  28.393  27.146  1.00  0.00     0.049 A 
ATOM     35  H   UNL A   1      45.970  28.525  27.549  1.00  0.00     0.167 HD
ATOM     36  C   UNL A   1      47.226  26.072  26.747  1.00  0.00     0.074 A 
ATOM     37  C   UNL A   1      47.425  24.682  26.377  1.00  0.00     0.031 C 
ATOM     38  C   UNL A   1      48.209  27.005  26.782  1.00  0.00     0.037 A 
BRANCH  25  39
ATOM     39  C   UNL A   1      46.366  32.697  28.421  1.00  0.00     0.058 A 
ATOM     40  C   UNL A   1      46.785  33.193  29.667  1.00  0.00     0.135 A 
ATOM     41  C   UNL A   1      46.296  33.608  27.353  1.00  0.00     0.135 A 
ATOM     42  F   UNL A   1      46.861  32.376  30.729  1.00  0.00    -0.206 F 
ATOM     43  C   UNL A   1      47.076  34.542  29.856  1.00  0.00     0.059 A 
ATOM     44  C   UNL A   1      46.612  34.955  27.511  1.00  0.00     0.059 A 
ATOM     45  F   UNL A   1      45.907  33.194  26.137  1.00  0.00    -0.206 F 
ATOM     46  C   UNL A   1      46.979  35.417  28.773  1.00  0.00     0.060 A 
BRANCH  46  47
ATOM     47  S   UNL A   1      47.325  37.169  29.040  1.00  0.00     0.124 S 
ATOM     48  O   UNL A   1      48.733  37.248  28.666  1.00  0.00    -0.237 OA
ATOM     49  O   UNL A   1      46.390  37.816  28.125  1.00  0.00    -0.237 OA
ATOM     50  O   UNL A   1      47.041  37.360  30.459  1.00  0.00    -0.744 OA
ENDBRANCH  46  47
ENDBRANCH  25  39
BRANCH  26  51
ATOM     51  C   UNL A   1      43.474  23.209  26.791  1.00  0.00     0.058 A 
ATOM     52  C   UNL A   1      43.447  22.667  25.499  1.00  0.00     0.135 A 
ATOM     53  C   UNL A   1      43.144  22.363  27.864  1.00  0.00     0.135 A 
ATOM     54  F   UNL A   1      43.757  23.435  24.443  1.00  0.00    -0.206 F 
ATOM     55  C   UNL A   1      43.107  21.337  25.277  1.00  0.00     0.059 A 
ATOM     56  C   UNL A   1      42.833  21.022  27.670  1.00  0.00     0.059 A 
ATOM     57  F   UNL A   1      43.182  22.826  29.123  1.00  0.00    -0.206 F 
ATOM     58  C   UNL A   1      42.810  20.521  26.370  1.00  0.00     0.060 A 
BRANCH  58  59
ATOM     59  S   UNL A   1      42.444  18.779  26.073  1.00  0.00     0.124 S 
ATOM     60  O   UNL A   1      41.033  18.834  25.711  1.00  0.00    -0.237 OA
ATOM     61  O   UNL A   1      43.371  18.452  24.993  1.00  0.00    -0.237 OA
ATOM     62  O   UNL A   1      42.744  18.149  27.355  1.00  0.00    -0.744 OA
ENDBRANCH  58  59
ENDBRANCH  26  51
BRANCH  38  63
ATOM     63  C   UNL A   1      49.596  26.533  26.456  1.00  0.00     0.058 A 
ATOM     64  C   UNL A   1      50.121  26.614  25.158  1.00  0.00     0.135 A 
ATOM     65  C   UNL A   1      50.417  26.011  27.469  1.00  0.00     0.135 A 
ATOM     66  F   UNL A   1      49.371  27.092  24.153  1.00  0.00    -0.206 F 
ATOM     67  C   UNL A   1      51.405  26.164  24.868  1.00  0.00     0.059 A 
ATOM     68  C   UNL A   1      51.713  25.586  27.208  1.00  0.00     0.059 A 
ATOM     69  F   UNL A   1      49.961  25.919  28.729  1.00  0.00    -0.206 F 
ATOM     70  C   UNL A   1      52.193  25.652  25.901  1.00  0.00     0.060 A 
BRANCH  70  71
ATOM     71  S   UNL A   1      53.865  25.093  25.518  1.00  0.00     0.124 S 
ATOM     72  O   UNL A   1      54.428  24.914  26.852  1.00  0.00    -0.237 OA
ATOM     73  O   UNL A   1      53.619  23.868  24.764  1.00  0.00    -0.237 OA
ATOM     74  O   UNL A   1      54.424  26.197  24.743  1.00  0.00    -0.744 OA
ENDBRANCH  70  71
ENDBRANCH  38  63
ENDBRANCH  12  13
ENDBRANCH   5   7
ENDBRANCH   2   3
ENDBRANCH   1   2
BRANCH   1  75
ATOM     75  C   UNL A   1      33.423  29.152  25.922  1.00  0.00     0.117 C 
BRANCH  75  76
ATOM     76  N   UNL A   1      32.305  28.360  26.488  1.00  0.00    -0.355 N 
ATOM     77  C   UNL A   1      31.513  27.273  26.237  1.00  0.00     0.234 C 
ATOM     78  H   UNL A   1      32.037  28.757  27.348  1.00  0.00     0.163 HD
ATOM     79  O   UNL A   1      30.790  26.970  27.202  1.00  0.00    -0.274 OA
BRANCH  77  80
ATOM     80  C   UNL A   1      31.445  26.367  24.958  1.00  0.00     0.118 C 
ATOM     81  C   UNL A   1      31.224  27.246  23.689  1.00  0.00     0.031 C 
ATOM     82  C   UNL A   1      30.401  25.262  24.961  1.00  0.00     0.201 C 
ATOM     83  C   UNL A   1      32.825  25.709  24.710  1.00  0.00     0.142 C 
ATOM     84  C   UNL A   1      29.817  27.803  23.591  1.00  0.00     0.063 C 
ATOM     85  N   UNL A   1      29.044  25.862  24.921  1.00  0.00    -0.343 N 
ATOM     86  C   UNL A   1      30.744  24.308  26.131  1.00  0.00     0.087 C 
ATOM     87  N   UNL A   1      33.182  24.542  25.502  1.00  0.00    -0.341 N 
ATOM     88  C   UNL A   1      28.783  26.688  23.737  1.00  0.00     0.260 C 
ATOM     89  H   UNL A   1      28.359  25.105  24.940  1.00  0.00     0.346 HD
ATOM     90  H   UNL A   1      28.974  26.479  25.730  1.00  0.00     0.346 HD
ATOM     91  C   UNL A   1      32.127  23.659  25.993  1.00  0.00     0.125 C 
BRANCH  87  92
ATOM     92  C   UNL A   1      34.452  24.018  25.202  1.00  0.00     0.227 C 
ATOM     93  O   UNL A   1      34.977  24.185  24.097  1.00  0.00    -0.275 OA
BRANCH  92  94
ATOM     94  C   UNL A   1      35.213  23.306  26.314  1.00  0.00     0.140 C 
BRANCH  94  95
ATOM     95  C   UNL A   1      36.076  22.200  25.751  1.00  0.00     0.016 A 
ATOM     96  C   UNL A   1      37.467  22.383  25.691  1.00  0.00     0.128 A 
ATOM     97  C   UNL A   1      35.570  20.971  25.309  1.00  0.00     0.047 A 
ATOM     98  F   UNL A   1      38.006  23.563  26.029  1.00  0.00    -0.207 F 
ATOM     99  C   UNL A   1      38.334  21.369  25.292  1.00  0.00     0.039 A 
ATOM    100  C   UNL A   1      36.436  19.950  24.895  1.00  0.00     0.021 A 
ATOM    101  Cl  UNL A   1      33.876  20.646  25.241  1.00  0.00    -0.084 Cl
ATOM    102  C   UNL A   1      37.817  20.140  24.906  1.00  0.00     0.005 A 
ENDBRANCH  94  95
ENDBRANCH  92  94
ENDBRANCH  87  92
ENDBRANCH  77  80
ENDBRANCH  75  76
ENDBRANCH   1  75
TORSDOF 16
ENDMDL
MODEL 3
REMARK VINA RESULT:     -12.7      6.522     11.756
REMARK SMILES O=C(NCCCNC(=O)[C@]12CCC[NH2+][C@@H]1CCN(C(=O)Cc1c(F)cccc1Cl)C2)c1ccc(-c2c3nc(c(-c4c(F)cc(S(=O)(=O)[O-])cc4F)c4ccc([nH]4)c(-c4c(F)cc(S(=O)(=O)[O-])cc4F)c4nc(c(-c5c(F)cc(S(=O)(=O)[O-])cc5F)c5ccc2[nH]5)C=C4)C=C3)cc1
REMARK SMILES IDX 5 1 4 2 3 3 1 4 2 5 31 7 32 8 96 9 33 10 95 11 34 12 35 13
REMARK SMILES IDX 36 14 89 15 37 16 94 17 88 18 90 19 38 20 93 21 87 22 86 23
REMARK SMILES IDX 39 25 73 26 52 27 72 28 53 29 56 30 71 31 91 32 54 33 55 34
REMARK SMILES IDX 70 36 92 37 57 38 40 39 41 40 50 41 42 42 43 43 49 44 51 45
REMARK SMILES IDX 44 46 45 47 46 48 47 49 48 50 74 51 75 52 84 53 76 54 77 55
REMARK SMILES IDX 83 56 85 57 78 58 79 59 80 60 81 61 82 62 58 63 59 64 68 65
REMARK SMILES IDX 60 66 61 67 67 68 69 69 62 70 63 71 64 72 65 73 66 74 6 75
REMARK SMILES IDX 7 76 8 77 9 79 10 80 11 81 15 82 30 83 12 84 14 85 16 86
REMARK SMILES IDX 18 87 13 88 17 91 19 92 20 93 21 94 22 95 23 96 28 97 24 98
REMARK SMILES IDX 25 99 27 100 29 101 26 102
REMARK H PARENT 3 6 90 24 56 35 7 78 14 89 14 90
REMARK Flexibility Score: inf
ROOT
ATOM      1  C   UNL A   1      34.577  29.725  27.086  1.00  0.00     0.042 C 
ENDROOT
BRANCH   1   2
ATOM      2  C   UNL A   1      35.736  29.599  28.055  1.00  0.00     0.118 C 
BRANCH   2   3
ATOM      3  N   UNL A   1      35.489  30.096  29.413  1.00  0.00    -0.352 N 
ATOM      4  O   UNL A   1      35.976  30.832  31.497  1.00  0.00    -0.269 OA
ATOM      5  C   UNL A   1      36.384  30.423  30.413  1.00  0.00     0.251 C 
ATOM      6  H   UNL A   1      34.540  30.214  29.648  1.00  0.00     0.163 HD
BRANCH   5   7
ATOM      7  C   UNL A   1      37.828  30.223  30.182  1.00  0.00     0.039 A 
ATOM      8  C   UNL A   1      38.402  30.708  29.012  1.00  0.00     0.014 A 
ATOM      9  C   UNL A   1      38.586  29.459  31.073  1.00  0.00     0.014 A 
ATOM     10  C   UNL A   1      39.602  30.181  28.584  1.00  0.00     0.010 A 
ATOM     11  C   UNL A   1      39.891  29.099  30.727  1.00  0.00     0.010 A 
ATOM     12  C   UNL A   1      40.391  29.414  29.455  1.00  0.00    -0.014 A 
BRANCH  12  13
ATOM     13  C   UNL A   1      41.761  29.054  29.015  1.00  0.00     0.031 A 
ATOM     14  C   UNL A   1      42.906  30.018  29.136  1.00  0.00     0.074 A 
ATOM     15  C   UNL A   1      41.957  27.802  28.553  1.00  0.00     0.049 A 
ATOM     16  N   UNL A   1      44.156  29.851  28.785  1.00  0.00    -0.248 NA
ATOM     17  C   UNL A   1      42.619  31.343  29.707  1.00  0.00     0.031 C 
ATOM     18  C   UNL A   1      40.905  26.787  28.401  1.00  0.00     0.029 A 
ATOM     19  N   UNL A   1      43.094  27.148  28.167  1.00  0.00    -0.354 N 
ATOM     20  C   UNL A   1      44.792  31.060  29.043  1.00  0.00     0.074 A 
ATOM     21  C   UNL A   1      43.788  31.956  29.574  1.00  0.00     0.031 C 
ATOM     22  C   UNL A   1      41.458  25.621  28.057  1.00  0.00     0.029 A 
ATOM     23  C   UNL A   1      42.878  25.832  27.832  1.00  0.00     0.049 A 
ATOM     24  H   UNL A   1      43.979  27.577  28.132  1.00  0.00     0.167 HD
ATOM     25  C   UNL A   1      46.093  31.383  28.843  1.00  0.00     0.037 A 
ATOM     26  C   UNL A   1      43.720  24.900  27.356  1.00  0.00     0.037 A 
ATOM     27  C   UNL A   1      47.074  30.457  28.330  1.00  0.00     0.049 A 
ATOM     28  C   UNL A   1      45.145  25.291  27.125  1.00  0.00     0.074 A 
ATOM     29  C   UNL A   1      48.425  30.666  28.111  1.00  0.00     0.029 A 
ATOM     30  N   UNL A   1      46.808  29.146  27.954  1.00  0.00    -0.354 N 
ATOM     31  N   UNL A   1      45.728  26.442  27.363  1.00  0.00    -0.248 NA
ATOM     32  C   UNL A   1      46.023  24.269  26.549  1.00  0.00     0.031 C 
ATOM     33  C   UNL A   1      48.962  29.500  27.553  1.00  0.00     0.029 A 
ATOM     34  C   UNL A   1      47.963  28.542  27.482  1.00  0.00     0.049 A 
ATOM     35  H   UNL A   1      45.928  28.710  28.014  1.00  0.00     0.167 HD
ATOM     36  C   UNL A   1      47.052  26.279  26.983  1.00  0.00     0.074 A 
ATOM     37  C   UNL A   1      47.181  24.912  26.513  1.00  0.00     0.031 C 
ATOM     38  C   UNL A   1      48.066  27.178  27.020  1.00  0.00     0.037 A 
BRANCH  25  39
ATOM     39  C   UNL A   1      46.515  32.802  29.128  1.00  0.00     0.058 A 
ATOM     40  C   UNL A   1      46.999  33.206  30.384  1.00  0.00     0.135 A 
ATOM     41  C   UNL A   1      46.438  33.777  28.120  1.00  0.00     0.135 A 
ATOM     42  F   UNL A   1      47.085  32.323  31.391  1.00  0.00    -0.206 F 
ATOM     43  C   UNL A   1      47.347  34.530  30.641  1.00  0.00     0.059 A 
ATOM     44  C   UNL A   1      46.809  35.101  28.345  1.00  0.00     0.059 A 
ATOM     45  F   UNL A   1      45.987  33.453  26.898  1.00  0.00    -0.206 F 
ATOM     46  C   UNL A   1      47.241  35.473  29.616  1.00  0.00     0.060 A 
BRANCH  46  47
ATOM     47  S   UNL A   1      47.660  37.192  29.974  1.00  0.00     0.124 S 
ATOM     48  O   UNL A   1      47.964  37.700  28.640  1.00  0.00    -0.237 OA
ATOM     49  O   UNL A   1      46.431  37.695  30.578  1.00  0.00    -0.237 OA
ATOM     50  O   UNL A   1      48.800  37.084  30.879  1.00  0.00    -0.744 OA
ENDBRANCH  46  47
ENDBRANCH  25  39
BRANCH  26  51
ATOM     51  C   UNL A   1      43.212  23.535  27.062  1.00  0.00     0.058 A 
ATOM     52  C   UNL A   1      42.964  23.129  25.744  1.00  0.00     0.135 A 
ATOM     53  C   UNL A   1      43.043  22.585  28.085  1.00  0.00     0.135 A 
ATOM     54  F   UNL A   1      43.115  23.999  24.735  1.00  0.00    -0.206 F 
ATOM     55  C   UNL A   1      42.566  21.830  25.448  1.00  0.00     0.059 A 
ATOM     56  C   UNL A   1      42.678  21.272  27.810  1.00  0.00     0.059 A 
ATOM     57  F   UNL A   1      43.295  22.916  29.361  1.00  0.00    -0.206 F 
ATOM     58  C   UNL A   1      42.434  20.907  26.488  1.00  0.00     0.060 A 
BRANCH  58  59
ATOM     59  S   UNL A   1      41.989  19.205  26.081  1.00  0.00     0.124 S 
ATOM     60  O   UNL A   1      42.376  18.503  27.299  1.00  0.00    -0.237 OA
ATOM     61  O   UNL A   1      40.555  19.316  25.834  1.00  0.00    -0.237 OA
ATOM     62  O   UNL A   1      42.799  18.920  24.901  1.00  0.00    -0.744 OA
ENDBRANCH  58  59
ENDBRANCH  26  51
BRANCH  38  63
ATOM     63  C   UNL A   1      49.416  26.686  26.583  1.00  0.00     0.058 A 
ATOM     64  C   UNL A   1      50.282  26.017  27.460  1.00  0.00     0.135 A 
ATOM     65  C   UNL A   1      49.836  26.874  25.256  1.00  0.00     0.135 A 
ATOM     66  F   UNL A   1      49.932  25.825  28.742  1.00  0.00    -0.206 F 
ATOM     67  C   UNL A   1      51.534  25.576  27.044  1.00  0.00     0.059 A 
ATOM     68  C   UNL A   1      51.068  26.413  24.811  1.00  0.00     0.059 A 
ATOM     69  F   UNL A   1      49.039  27.505  24.377  1.00  0.00    -0.206 F 
ATOM     70  C   UNL A   1      51.916  25.778  25.717  1.00  0.00     0.060 A 
BRANCH  70  71
ATOM     71  S   UNL A   1      53.532  25.181  25.182  1.00  0.00     0.124 S 
ATOM     72  O   UNL A   1      53.570  25.637  23.796  1.00  0.00    -0.237 OA
ATOM     73  O   UNL A   1      54.437  25.866  26.099  1.00  0.00    -0.237 OA
ATOM     74  O   UNL A   1      53.439  23.736  25.366  1.00  0.00    -0.744 OA
ENDBRANCH  70  71
ENDBRANCH  38  63
ENDBRANCH  12  13
ENDBRANCH   5   7
ENDBRANCH   2   3
ENDBRANCH   1   2
BRANCH   1  75
ATOM     75  C   UNL A   1      34.128  28.391  26.518  1.00  0.00     0.117 C 
BRANCH  75  76
ATOM     76  N   UNL A   1      32.749  27.969  26.860  1.00  0.00    -0.355 N 
ATOM     77  C   UNL A   1      31.765  27.091  26.498  1.00  0.00     0.234 C 
ATOM     78  H   UNL A   1      32.427  28.515  27.614  1.00  0.00     0.163 HD
ATOM     79  O   UNL A   1      30.806  27.087  27.289  1.00  0.00    -0.274 OA
BRANCH  77  80
ATOM     80  C   UNL A   1      31.721  26.091  25.290  1.00  0.00     0.118 C 
ATOM     81  C   UNL A   1      31.590  26.876  23.948  1.00  0.00     0.031 C 
ATOM     82  C   UNL A   1      30.636  25.026  25.326  1.00  0.00     0.201 C 
ATOM     83  C   UNL A   1      33.084  25.369  25.159  1.00  0.00     0.142 C 
ATOM     84  C   UNL A   1      30.211  27.471  23.741  1.00  0.00     0.063 C 
ATOM     85  N   UNL A   1      29.306  25.667  25.176  1.00  0.00    -0.343 N 
ATOM     86  C   UNL A   1      30.889  24.154  26.581  1.00  0.00     0.087 C 
ATOM     87  N   UNL A   1      33.361  24.255  26.054  1.00  0.00    -0.341 N 
ATOM     88  C   UNL A   1      29.130  26.407  23.921  1.00  0.00     0.260 C 
ATOM     89  H   UNL A   1      28.593  24.937  25.219  1.00  0.00     0.346 HD
ATOM     90  H   UNL A   1      29.223  26.347  25.931  1.00  0.00     0.346 HD
ATOM     91  C   UNL A   1      32.252  23.450  26.559  1.00  0.00     0.125 C 
BRANCH  87  92
ATOM     92  C   UNL A   1      34.622  23.667  25.856  1.00  0.00     0.227 C 
ATOM     93  O   UNL A   1      35.427  23.534  26.783  1.00  0.00    -0.275 OA
BRANCH  92  94
ATOM     94  C   UNL A   1      34.943  23.109  24.475  1.00  0.00     0.140 C 
BRANCH  94  95
ATOM     95  C   UNL A   1      34.179  21.828  24.222  1.00  0.00     0.016 A 
ATOM     96  C   UNL A   1      34.631  20.636  24.812  1.00  0.00     0.128 A 
ATOM     97  C   UNL A   1      33.012  21.762  23.452  1.00  0.00     0.047 A 
ATOM     98  F   UNL A   1      35.783  20.619  25.498  1.00  0.00    -0.207 F 
ATOM     99  C   UNL A   1      33.918  19.444  24.719  1.00  0.00     0.039 A 
ATOM    100  C   UNL A   1      32.295  20.562  23.344  1.00  0.00     0.021 A 
ATOM    101  Cl  UNL A   1      32.396  23.129  22.597  1.00  0.00    -0.084 Cl
ATOM    102  C   UNL A   1      32.735  19.409  23.992  1.00  0.00     0.005 A 
ENDBRANCH  94  95
ENDBRANCH  92  94
ENDBRANCH  87  92
ENDBRANCH  77  80
ENDBRANCH  75  76
ENDBRANCH   1  75
TORSDOF 16
ENDMDL
