MODEL 1
REMARK VINA RESULT:     -10.4      0.000      0.000
REMARK SMILES CC(C)CCN(C(=O)N[C@H](C(=O)NCCCNC(=O)c1ccc(-c2c3nc(c(-c4c(F)cc(S(=O)(=O)[O-])cc4F)c4ccc([nH]4)c(-c4c(F)cc(S(=O)(=O)[O-])cc4F)c4nc(c(-c5c(F)cc(S(=O)(=O)[O-])cc5F)c5ccc2[nH]5)C=C4)C=C3)cc1)[C@H](C)O)C1CCCC1
REMARK SMILES IDX 14 1 13 2 11 3 12 4 10 6 9 7 7 8 8 9 6 11 5 12 4 13 2 14
REMARK SMILES IDX 1 15 3 16 89 17 90 18 93 19 91 20 92 21 86 22 87 23 88 24
REMARK SMILES IDX 15 26 16 27 17 28 18 29 19 31 20 32 21 33 85 34 22 35 84 36
REMARK SMILES IDX 23 37 24 38 25 39 78 40 26 41 83 42 77 43 79 44 27 45 82 46
REMARK SMILES IDX 76 47 75 48 28 50 62 51 41 52 61 53 42 54 45 55 60 56 80 57
REMARK SMILES IDX 43 58 44 59 59 61 81 62 46 63 29 64 30 65 39 66 31 67 32 68
REMARK SMILES IDX 38 69 40 70 33 71 34 72 35 73 36 74 37 75 63 76 64 77 73 78
REMARK SMILES IDX 65 79 66 80 72 81 74 82 67 83 68 84 69 85 70 86 71 87 47 88
REMARK SMILES IDX 48 89 57 90 49 91 50 92 56 93 58 94 51 95 52 96 53 97 54 98
REMARK SMILES IDX 55 99
REMARK H PARENT 13 5 9 10 88 25 17 30 79 49 45 60
REMARK Flexibility Score: inf
ROOT
ATOM      1  C   UNL A   1      31.672  27.899  25.797  1.00  0.00     0.117 C 
ENDROOT
BRANCH   1   2
ATOM      2  N   UNL A   1      30.967  26.863  25.065  1.00  0.00    -0.354 N 
ATOM      3  C   UNL A   1      31.230  26.265  23.871  1.00  0.00     0.245 C 
ATOM      4  O   UNL A   1      30.336  25.523  23.440  1.00  0.00    -0.273 OA
ATOM      5  H   UNL A   1      30.153  26.534  25.512  1.00  0.00     0.163 HD
BRANCH   3   6
ATOM      6  C   UNL A   1      32.591  26.370  23.118  1.00  0.00     0.201 C 
BRANCH   6   7
ATOM      7  N   UNL A   1      32.632  25.185  22.217  1.00  0.00    -0.324 N 
ATOM      8  C   UNL A   1      33.293  24.004  22.289  1.00  0.00     0.318 C 
ATOM      9  O   UNL A   1      33.592  23.433  21.242  1.00  0.00    -0.249 OA
ATOM     10  H   UNL A   1      32.071  25.278  21.413  1.00  0.00     0.166 HD
BRANCH   8  11
ATOM     11  N   UNL A   1      33.693  23.550  23.530  1.00  0.00    -0.322 N 
BRANCH  11  12
ATOM     12  C   UNL A   1      32.824  22.620  24.280  1.00  0.00     0.122 C 
BRANCH  12  13
ATOM     13  C   UNL A   1      32.428  21.300  23.600  1.00  0.00     0.024 C 
BRANCH  13  14
ATOM     14  C   UNL A   1      33.096  20.027  24.149  1.00  0.00    -0.016 C 
ATOM     15  C   UNL A   1      32.988  19.905  25.671  1.00  0.00     0.007 C 
ATOM     16  C   UNL A   1      32.496  18.785  23.489  1.00  0.00     0.007 C 
ENDBRANCH  13  14
ENDBRANCH  12  13
ENDBRANCH  11  12
BRANCH  11  17
ATOM     17  C   UNL A   1      35.095  23.825  23.908  1.00  0.00     0.087 C 
ATOM     18  C   UNL A   1      35.340  24.042  25.400  1.00  0.00     0.025 C 
ATOM     19  C   UNL A   1      36.136  22.813  23.430  1.00  0.00     0.025 C 
ATOM     20  C   UNL A   1      36.813  23.738  25.607  1.00  0.00     0.002 C 
ATOM     21  C   UNL A   1      37.206  22.748  24.519  1.00  0.00     0.002 C 
ENDBRANCH  11  17
ENDBRANCH   8  11
ENDBRANCH   6   7
BRANCH   6  22
ATOM     22  C   UNL A   1      32.863  27.685  22.353  1.00  0.00     0.143 C 
ATOM     23  C   UNL A   1      34.012  28.528  22.886  1.00  0.00     0.041 C 
BRANCH  22  24
ATOM     24  O   UNL A   1      31.682  28.492  22.299  1.00  0.00    -0.391 OA
ATOM     25  H   UNL A   1      31.637  29.050  23.091  1.00  0.00     0.211 HD
ENDBRANCH  22  24
ENDBRANCH   6  22
ENDBRANCH   3   6
ENDBRANCH   1   2
BRANCH   1  26
ATOM     26  C   UNL A   1      32.866  27.304  26.546  1.00  0.00     0.042 C 
BRANCH  26  27
ATOM     27  C   UNL A   1      34.110  28.173  26.502  1.00  0.00     0.118 C 
BRANCH  27  28
ATOM     28  N   UNL A   1      33.824  29.514  26.983  1.00  0.00    -0.352 N 
ATOM     29  C   UNL A   1      34.545  30.299  27.851  1.00  0.00     0.251 C 
ATOM     30  H   UNL A   1      32.997  29.918  26.637  1.00  0.00     0.163 HD
ATOM     31  O   UNL A   1      33.994  31.271  28.368  1.00  0.00    -0.269 OA
BRANCH  29  32
ATOM     32  C   UNL A   1      35.960  29.993  28.169  1.00  0.00     0.039 A 
ATOM     33  C   UNL A   1      36.930  30.149  27.172  1.00  0.00     0.014 A 
ATOM     34  C   UNL A   1      36.334  29.487  29.418  1.00  0.00     0.014 A 
ATOM     35  C   UNL A   1      38.264  29.821  27.435  1.00  0.00     0.010 A 
ATOM     36  C   UNL A   1      37.676  29.253  29.709  1.00  0.00     0.010 A 
ATOM     37  C   UNL A   1      38.651  29.383  28.712  1.00  0.00    -0.014 A 
BRANCH  37  38
ATOM     38  C   UNL A   1      40.052  28.984  29.006  1.00  0.00     0.031 A 
ATOM     39  C   UNL A   1      40.994  29.978  29.638  1.00  0.00     0.074 A 
ATOM     40  C   UNL A   1      40.494  27.760  28.659  1.00  0.00     0.049 A 
ATOM     41  N   UNL A   1      42.273  29.863  29.893  1.00  0.00    -0.248 NA
ATOM     42  C   UNL A   1      40.431  31.291  29.998  1.00  0.00     0.031 C 
ATOM     43  C   UNL A   1      39.695  26.727  27.996  1.00  0.00     0.029 A 
ATOM     44  N   UNL A   1      41.727  27.176  28.809  1.00  0.00    -0.354 N 
ATOM     45  C   UNL A   1      42.669  31.092  30.411  1.00  0.00     0.074 A 
ATOM     46  C   UNL A   1      41.510  31.956  30.383  1.00  0.00     0.031 C 
ATOM     47  C   UNL A   1      40.449  25.630  27.821  1.00  0.00     0.029 A 
ATOM     48  C   UNL A   1      41.793  25.890  28.328  1.00  0.00     0.049 A 
ATOM     49  H   UNL A   1      42.493  27.637  29.223  1.00  0.00     0.167 HD
ATOM     50  C   UNL A   1      43.880  31.461  30.891  1.00  0.00     0.037 A 
ATOM     51  C   UNL A   1      42.822  25.021  28.299  1.00  0.00     0.037 A 
ATOM     52  C   UNL A   1      45.015  30.578  30.968  1.00  0.00     0.049 A 
ATOM     53  C   UNL A   1      44.145  25.435  28.882  1.00  0.00     0.074 A 
ATOM     54  C   UNL A   1      46.268  30.828  31.498  1.00  0.00     0.029 A 
ATOM     55  N   UNL A   1      45.026  29.268  30.511  1.00  0.00    -0.354 N 
ATOM     56  N   UNL A   1      44.488  26.586  29.410  1.00  0.00    -0.248 NA
ATOM     57  C   UNL A   1      45.219  24.433  28.873  1.00  0.00     0.031 C 
ATOM     58  C   UNL A   1      47.047  29.676  31.338  1.00  0.00     0.029 A 
ATOM     59  C   UNL A   1      46.266  28.698  30.742  1.00  0.00     0.049 A 
ATOM     60  H   UNL A   1      44.265  28.811  30.087  1.00  0.00     0.167 HD
ATOM     61  C   UNL A   1      45.809  26.438  29.818  1.00  0.00     0.074 A 
ATOM     62  C   UNL A   1      46.198  25.083  29.486  1.00  0.00     0.031 C 
ATOM     63  C   UNL A   1      46.628  27.343  30.412  1.00  0.00     0.037 A 
BRANCH  50  64
ATOM     64  C   UNL A   1      44.034  32.874  31.385  1.00  0.00     0.058 A 
ATOM     65  C   UNL A   1      43.864  33.204  32.740  1.00  0.00     0.135 A 
ATOM     66  C   UNL A   1      44.369  33.910  30.499  1.00  0.00     0.135 A 
ATOM     67  F   UNL A   1      43.527  32.256  33.628  1.00  0.00    -0.206 F 
ATOM     68  C   UNL A   1      43.984  34.514  33.191  1.00  0.00     0.059 A 
ATOM     69  C   UNL A   1      44.523  35.224  30.934  1.00  0.00     0.059 A 
ATOM     70  F   UNL A   1      44.544  33.653  29.193  1.00  0.00    -0.206 F 
ATOM     71  C   UNL A   1      44.310  35.519  32.280  1.00  0.00     0.060 A 
BRANCH  71  72
ATOM     72  S   UNL A   1      44.456  37.216  32.878  1.00  0.00     0.124 S 
ATOM     73  O   UNL A   1      43.369  37.275  33.851  1.00  0.00    -0.237 OA
ATOM     74  O   UNL A   1      45.807  37.236  33.437  1.00  0.00    -0.237 OA
ATOM     75  O   UNL A   1      44.268  38.018  31.677  1.00  0.00    -0.744 OA
ENDBRANCH  71  72
ENDBRANCH  50  64
BRANCH  51  76
ATOM     76  C   UNL A   1      42.626  23.659  27.735  1.00  0.00     0.058 A 
ATOM     77  C   UNL A   1      42.738  23.431  26.355  1.00  0.00     0.135 A 
ATOM     78  C   UNL A   1      42.349  22.559  28.560  1.00  0.00     0.135 A 
ATOM     79  F   UNL A   1      42.997  24.453  25.525  1.00  0.00    -0.206 F 
ATOM     80  C   UNL A   1      42.568  22.163  25.810  1.00  0.00     0.059 A 
ATOM     81  C   UNL A   1      42.197  21.276  28.040  1.00  0.00     0.059 A 
ATOM     82  F   UNL A   1      42.251  22.721  29.887  1.00  0.00    -0.206 F 
ATOM     83  C   UNL A   1      42.300  21.090  26.662  1.00  0.00     0.060 A 
BRANCH  83  84
ATOM     84  S   UNL A   1      42.137  19.437  25.950  1.00  0.00     0.124 S 
ATOM     85  O   UNL A   1      40.710  19.384  25.655  1.00  0.00    -0.237 OA
ATOM     86  O   UNL A   1      43.026  19.510  24.795  1.00  0.00    -0.237 OA
ATOM     87  O   UNL A   1      42.594  18.563  27.027  1.00  0.00    -0.744 OA
ENDBRANCH  83  84
ENDBRANCH  51  76
BRANCH  63  88
ATOM     88  C   UNL A   1      48.012  26.885  30.767  1.00  0.00     0.058 A 
ATOM     89  C   UNL A   1      49.093  27.063  29.890  1.00  0.00     0.135 A 
ATOM     90  C   UNL A   1      48.269  26.306  32.021  1.00  0.00     0.135 A 
ATOM     91  F   UNL A   1      48.898  27.607  28.679  1.00  0.00    -0.206 F 
ATOM     92  C   UNL A   1      50.379  26.660  30.234  1.00  0.00     0.059 A 
ATOM     93  C   UNL A   1      49.551  25.918  32.394  1.00  0.00     0.059 A 
ATOM     94  F   UNL A   1      47.270  26.125  32.899  1.00  0.00    -0.206 F 
ATOM     95  C   UNL A   1      50.598  26.088  31.489  1.00  0.00     0.060 A 
BRANCH  95  96
ATOM     96  S   UNL A   1      52.276  25.596  31.938  1.00  0.00     0.124 S 
ATOM     97  O   UNL A   1      52.105  24.169  32.189  1.00  0.00    -0.237 OA
ATOM     98  O   UNL A   1      53.036  25.942  30.741  1.00  0.00    -0.237 OA
ATOM     99  O   UNL A   1      52.565  26.412  33.114  1.00  0.00    -0.744 OA
ENDBRANCH  95  96
ENDBRANCH  63  88
ENDBRANCH  37  38
ENDBRANCH  29  32
ENDBRANCH  27  28
ENDBRANCH  26  27
ENDBRANCH   1  26
TORSDOF 21
ENDMDL
MODEL 2
REMARK VINA RESULT:     -10.3      4.781     10.453
REMARK SMILES CC(C)CCN(C(=O)N[C@H](C(=O)NCCCNC(=O)c1ccc(-c2c3nc(c(-c4c(F)cc(S(=O)(=O)[O-])cc4F)c4ccc([nH]4)c(-c4c(F)cc(S(=O)(=O)[O-])cc4F)c4nc(c(-c5c(F)cc(S(=O)(=O)[O-])cc5F)c5ccc2[nH]5)C=C4)C=C3)cc1)[C@H](C)O)C1CCCC1
REMARK SMILES IDX 14 1 13 2 11 3 12 4 10 6 9 7 7 8 8 9 6 11 5 12 4 13 2 14
REMARK SMILES IDX 1 15 3 16 89 17 90 18 93 19 91 20 92 21 86 22 87 23 88 24
REMARK SMILES IDX 15 26 16 27 17 28 18 29 19 31 20 32 21 33 85 34 22 35 84 36
REMARK SMILES IDX 23 37 24 38 25 39 78 40 26 41 83 42 77 43 79 44 27 45 82 46
REMARK SMILES IDX 76 47 75 48 28 50 62 51 41 52 61 53 42 54 45 55 60 56 80 57
REMARK SMILES IDX 43 58 44 59 59 61 81 62 46 63 29 64 30 65 39 66 31 67 32 68
REMARK SMILES IDX 38 69 40 70 33 71 34 72 35 73 36 74 37 75 63 76 64 77 73 78
REMARK SMILES IDX 65 79 66 80 72 81 74 82 67 83 68 84 69 85 70 86 71 87 47 88
REMARK SMILES IDX 48 89 57 90 49 91 50 92 56 93 58 94 51 95 52 96 53 97 54 98
REMARK SMILES IDX 55 99
REMARK H PARENT 13 5 9 10 88 25 17 30 79 49 45 60
REMARK Flexibility Score: inf
ROOT
ATOM      1  C   UNL A   1      36.540  22.510  25.732  1.00  0.00     0.117 C 
ENDROOT
BRANCH   1   2
ATOM      2  N   UNL A   1      35.521  22.809  26.722  1.00  0.00    -0.354 N 
ATOM      3  C   UNL A   1      34.162  22.778  26.653  1.00  0.00     0.245 C 
ATOM      4  O   UNL A   1      33.570  23.250  27.634  1.00  0.00    -0.273 OA
ATOM      5  H   UNL A   1      35.876  23.082  27.599  1.00  0.00     0.163 HD
BRANCH   3   6
ATOM      6  C   UNL A   1      33.356  22.095  25.506  1.00  0.00     0.201 C 
BRANCH   6   7
ATOM      7  N   UNL A   1      34.029  22.522  24.247  1.00  0.00    -0.324 N 
ATOM      8  C   UNL A   1      33.854  23.593  23.435  1.00  0.00     0.318 C 
ATOM      9  O   UNL A   1      34.122  23.475  22.241  1.00  0.00    -0.249 OA
ATOM     10  H   UNL A   1      34.737  21.908  23.948  1.00  0.00     0.166 HD
BRANCH   8  11
ATOM     11  N   UNL A   1      33.283  24.733  23.965  1.00  0.00    -0.322 N 
BRANCH  11  12
ATOM     12  C   UNL A   1      34.151  25.797  24.509  1.00  0.00     0.122 C 
BRANCH  12  13
ATOM     13  C   UNL A   1      33.828  26.342  25.909  1.00  0.00     0.024 C 
BRANCH  13  14
ATOM     14  C   UNL A   1      33.473  27.837  25.989  1.00  0.00    -0.016 C 
ATOM     15  C   UNL A   1      33.652  28.566  24.656  1.00  0.00     0.007 C 
ATOM     16  C   UNL A   1      32.037  28.017  26.485  1.00  0.00     0.007 C 
ENDBRANCH  13  14
ENDBRANCH  12  13
ENDBRANCH  11  12
BRANCH  11  17
ATOM     17  C   UNL A   1      31.840  24.923  23.710  1.00  0.00     0.087 C 
ATOM     18  C   UNL A   1      30.942  24.856  24.944  1.00  0.00     0.025 C 
ATOM     19  C   UNL A   1      31.447  26.187  22.945  1.00  0.00     0.025 C 
ATOM     20  C   UNL A   1      29.683  25.610  24.559  1.00  0.00     0.002 C 
ATOM     21  C   UNL A   1      30.094  26.626  23.503  1.00  0.00     0.002 C 
ENDBRANCH  11  17
ENDBRANCH   8  11
ENDBRANCH   6   7
BRANCH   6  22
ATOM     22  C   UNL A   1      33.202  20.560  25.584  1.00  0.00     0.143 C 
ATOM     23  C   UNL A   1      34.083  19.764  24.632  1.00  0.00     0.041 C 
BRANCH  22  24
ATOM     24  O   UNL A   1      31.838  20.178  25.381  1.00  0.00    -0.391 OA
ATOM     25  H   UNL A   1      31.725  19.860  24.472  1.00  0.00     0.211 HD
ENDBRANCH  22  24
ENDBRANCH   6  22
ENDBRANCH   3   6
ENDBRANCH   1   2
BRANCH   1  26
ATOM     26  C   UNL A   1      37.438  23.728  25.507  1.00  0.00     0.042 C 
BRANCH  26  27
ATOM     27  C   UNL A   1      38.431  23.970  26.629  1.00  0.00     0.118 C 
BRANCH  27  28
ATOM     28  N   UNL A   1      39.793  23.975  26.125  1.00  0.00    -0.352 N 
ATOM     29  C   UNL A   1      40.806  24.873  26.362  1.00  0.00     0.251 C 
ATOM     30  H   UNL A   1      40.024  23.229  25.528  1.00  0.00     0.163 HD
ATOM     31  O   UNL A   1      41.783  24.877  25.614  1.00  0.00    -0.269 OA
BRANCH  29  32
ATOM     32  C   UNL A   1      40.736  25.828  27.495  1.00  0.00     0.039 A 
ATOM     33  C   UNL A   1      39.727  25.675  28.452  1.00  0.00     0.014 A 
ATOM     34  C   UNL A   1      41.611  26.916  27.587  1.00  0.00     0.014 A 
ATOM     35  C   UNL A   1      39.612  26.591  29.502  1.00  0.00     0.010 A 
ATOM     36  C   UNL A   1      41.556  27.770  28.686  1.00  0.00     0.010 A 
ATOM     37  C   UNL A   1      40.535  27.640  29.636  1.00  0.00    -0.014 A 
BRANCH  37  38
ATOM     38  C   UNL A   1      40.410  28.654  30.715  1.00  0.00     0.031 A 
ATOM     39  C   UNL A   1      41.286  28.554  31.939  1.00  0.00     0.074 A 
ATOM     40  C   UNL A   1      39.481  29.625  30.626  1.00  0.00     0.049 A 
ATOM     41  N   UNL A   1      41.274  29.277  33.029  1.00  0.00    -0.248 NA
ATOM     42  C   UNL A   1      42.285  27.471  31.954  1.00  0.00     0.031 C 
ATOM     43  C   UNL A   1      38.539  29.798  29.518  1.00  0.00     0.029 A 
ATOM     44  N   UNL A   1      39.168  30.648  31.486  1.00  0.00    -0.354 N 
ATOM     45  C   UNL A   1      42.236  28.720  33.866  1.00  0.00     0.074 A 
ATOM     46  C   UNL A   1      42.774  27.566  33.182  1.00  0.00     0.031 C 
ATOM     47  C   UNL A   1      37.774  30.876  29.753  1.00  0.00     0.029 A 
ATOM     48  C   UNL A   1      38.147  31.452  31.041  1.00  0.00     0.049 A 
ATOM     49  H   UNL A   1      39.634  30.791  32.342  1.00  0.00     0.167 HD
ATOM     50  C   UNL A   1      42.653  29.146  35.082  1.00  0.00     0.037 A 
ATOM     51  C   UNL A   1      37.575  32.533  31.610  1.00  0.00     0.037 A 
ATOM     52  C   UNL A   1      42.154  30.329  35.733  1.00  0.00     0.049 A 
ATOM     53  C   UNL A   1      38.088  33.016  32.939  1.00  0.00     0.074 A 
ATOM     54  C   UNL A   1      42.554  30.888  36.933  1.00  0.00     0.029 A 
ATOM     55  N   UNL A   1      41.150  31.142  35.226  1.00  0.00    -0.354 N 
ATOM     56  N   UNL A   1      39.030  32.503  33.694  1.00  0.00    -0.248 NA
ATOM     57  C   UNL A   1      37.466  34.227  33.491  1.00  0.00     0.031 C 
ATOM     58  C   UNL A   1      41.774  32.026  37.166  1.00  0.00     0.029 A 
ATOM     59  C   UNL A   1      40.914  32.196  36.092  1.00  0.00     0.049 A 
ATOM     60  H   UNL A   1      40.677  30.993  34.376  1.00  0.00     0.167 HD
ATOM     61  C   UNL A   1      39.131  33.343  34.798  1.00  0.00     0.074 A 
ATOM     62  C   UNL A   1      38.163  34.402  34.605  1.00  0.00     0.031 C 
ATOM     63  C   UNL A   1      39.950  33.245  35.875  1.00  0.00     0.037 A 
BRANCH  50  64
ATOM     64  C   UNL A   1      43.713  28.335  35.778  1.00  0.00     0.058 A 
ATOM     65  C   UNL A   1      45.082  28.577  35.570  1.00  0.00     0.135 A 
ATOM     66  C   UNL A   1      43.361  27.315  36.676  1.00  0.00     0.135 A 
ATOM     67  F   UNL A   1      45.476  29.529  34.710  1.00  0.00    -0.206 F 
ATOM     68  C   UNL A   1      46.060  27.812  36.196  1.00  0.00     0.059 A 
ATOM     69  C   UNL A   1      44.324  26.556  37.336  1.00  0.00     0.059 A 
ATOM     70  F   UNL A   1      42.068  27.041  36.914  1.00  0.00    -0.206 F 
ATOM     71  C   UNL A   1      45.671  26.801  37.076  1.00  0.00     0.060 A 
BRANCH  71  72
ATOM     72  S   UNL A   1      46.951  25.812  37.877  1.00  0.00     0.124 S 
ATOM     73  O   UNL A   1      47.953  26.829  38.185  1.00  0.00    -0.237 OA
ATOM     74  O   UNL A   1      46.243  25.256  39.029  1.00  0.00    -0.237 OA
ATOM     75  O   UNL A   1      47.328  24.848  36.853  1.00  0.00    -0.744 OA
ENDBRANCH  71  72
ENDBRANCH  50  64
BRANCH  51  76
ATOM     76  C   UNL A   1      36.483  33.252  30.902  1.00  0.00     0.058 A 
ATOM     77  C   UNL A   1      35.156  33.160  31.348  1.00  0.00     0.135 A 
ATOM     78  C   UNL A   1      36.744  34.062  29.787  1.00  0.00     0.135 A 
ATOM     79  F   UNL A   1      34.856  32.394  32.408  1.00  0.00    -0.206 F 
ATOM     80  C   UNL A   1      34.123  33.834  30.706  1.00  0.00     0.059 A 
ATOM     81  C   UNL A   1      35.730  34.764  29.140  1.00  0.00     0.059 A 
ATOM     82  F   UNL A   1      37.999  34.198  29.333  1.00  0.00    -0.206 F 
ATOM     83  C   UNL A   1      34.421  34.636  29.602  1.00  0.00     0.060 A 
BRANCH  83  84
ATOM     84  S   UNL A   1      33.080  35.551  28.809  1.00  0.00     0.124 S 
ATOM     85  O   UNL A   1      32.342  36.049  29.964  1.00  0.00    -0.237 OA
ATOM     86  O   UNL A   1      33.807  36.553  28.035  1.00  0.00    -0.237 OA
ATOM     87  O   UNL A   1      32.402  34.530  28.016  1.00  0.00    -0.744 OA
ENDBRANCH  83  84
ENDBRANCH  51  76
BRANCH  63  88
ATOM     88  C   UNL A   1      39.854  34.327  36.910  1.00  0.00     0.058 A 
ATOM     89  C   UNL A   1      40.625  35.496  36.825  1.00  0.00     0.135 A 
ATOM     90  C   UNL A   1      38.943  34.214  37.973  1.00  0.00     0.135 A 
ATOM     91  F   UNL A   1      41.512  35.650  35.830  1.00  0.00    -0.206 F 
ATOM     92  C   UNL A   1      40.513  36.508  37.773  1.00  0.00     0.059 A 
ATOM     93  C   UNL A   1      38.798  35.224  38.918  1.00  0.00     0.059 A 
ATOM     94  F   UNL A   1      38.174  33.120  38.091  1.00  0.00    -0.206 F 
ATOM     95  C   UNL A   1      39.597  36.362  38.817  1.00  0.00     0.060 A 
BRANCH  95  96
ATOM     96  S   UNL A   1      39.439  37.694  40.025  1.00  0.00     0.124 S 
ATOM     97  O   UNL A   1      39.397  36.947  41.279  1.00  0.00    -0.237 OA
ATOM     98  O   UNL A   1      40.649  38.475  39.794  1.00  0.00    -0.237 OA
ATOM     99  O   UNL A   1      38.193  38.351  39.643  1.00  0.00    -0.744 OA
ENDBRANCH  95  96
ENDBRANCH  63  88
ENDBRANCH  37  38
ENDBRANCH  29  32
ENDBRANCH  27  28
ENDBRANCH  26  27
ENDBRANCH   1  26
TORSDOF 21
ENDMDL
MODEL 3
REMARK VINA RESULT:     -10.2      4.725     10.453
REMARK SMILES CC(C)CCN(C(=O)N[C@H](C(=O)NCCCNC(=O)c1ccc(-c2c3nc(c(-c4c(F)cc(S(=O)(=O)[O-])cc4F)c4ccc([nH]4)c(-c4c(F)cc(S(=O)(=O)[O-])cc4F)c4nc(c(-c5c(F)cc(S(=O)(=O)[O-])cc5F)c5ccc2[nH]5)C=C4)C=C3)cc1)[C@H](C)O)C1CCCC1
REMARK SMILES IDX 14 1 13 2 11 3 12 4 10 6 9 7 7 8 8 9 6 11 5 12 4 13 2 14
REMARK SMILES IDX 1 15 3 16 89 17 90 18 93 19 91 20 92 21 86 22 87 23 88 24
REMARK SMILES IDX 15 26 16 27 17 28 18 29 19 31 20 32 21 33 85 34 22 35 84 36
REMARK SMILES IDX 23 37 24 38 25 39 78 40 26 41 83 42 77 43 79 44 27 45 82 46
REMARK SMILES IDX 76 47 75 48 28 50 62 51 41 52 61 53 42 54 45 55 60 56 80 57
REMARK SMILES IDX 43 58 44 59 59 61 81 62 46 63 29 64 30 65 39 66 31 67 32 68
REMARK SMILES IDX 38 69 40 70 33 71 34 72 35 73 36 74 37 75 63 76 64 77 73 78
REMARK SMILES IDX 65 79 66 80 72 81 74 82 67 83 68 84 69 85 70 86 71 87 47 88
REMARK SMILES IDX 48 89 57 90 49 91 50 92 56 93 58 94 51 95 52 96 53 97 54 98
REMARK SMILES IDX 55 99
REMARK H PARENT 13 5 9 10 88 25 17 30 79 49 45 60
REMARK Flexibility Score: inf
ROOT
ATOM      1  C   UNL A   1      36.273  23.596  25.269  1.00  0.00     0.117 C 
ENDROOT
BRANCH   1   2
ATOM      2  N   UNL A   1      35.493  22.547  24.636  1.00  0.00    -0.354 N 
ATOM      3  C   UNL A   1      34.180  22.489  24.285  1.00  0.00     0.245 C 
ATOM      4  O   UNL A   1      33.781  21.379  23.905  1.00  0.00    -0.273 OA
ATOM      5  H   UNL A   1      36.006  21.734  24.422  1.00  0.00     0.163 HD
BRANCH   3   6
ATOM      6  C   UNL A   1      33.231  23.725  24.225  1.00  0.00     0.201 C 
BRANCH   6   7
ATOM      7  N   UNL A   1      33.783  24.589  23.144  1.00  0.00    -0.324 N 
ATOM      8  C   UNL A   1      33.354  25.750  22.594  1.00  0.00     0.318 C 
ATOM      9  O   UNL A   1      33.647  25.990  21.424  1.00  0.00    -0.249 OA
ATOM     10  H   UNL A   1      34.621  24.250  22.755  1.00  0.00     0.166 HD
BRANCH   8  11
ATOM     11  N   UNL A   1      32.519  26.561  23.337  1.00  0.00    -0.322 N 
BRANCH  11  12
ATOM     12  C   UNL A   1      31.102  26.703  22.943  1.00  0.00     0.122 C 
BRANCH  12  13
ATOM     13  C   UNL A   1      30.641  28.063  22.396  1.00  0.00     0.024 C 
BRANCH  13  14
ATOM     14  C   UNL A   1      29.662  28.853  23.283  1.00  0.00    -0.016 C 
ATOM     15  C   UNL A   1      30.343  29.972  24.074  1.00  0.00     0.007 C 
ATOM     16  C   UNL A   1      28.530  29.436  22.436  1.00  0.00     0.007 C 
ENDBRANCH  13  14
ENDBRANCH  12  13
ENDBRANCH  11  12
BRANCH  11  17
ATOM     17  C   UNL A   1      33.044  27.028  24.636  1.00  0.00     0.087 C 
ATOM     18  C   UNL A   1      33.724  28.396  24.615  1.00  0.00     0.025 C 
ATOM     19  C   UNL A   1      32.054  27.044  25.801  1.00  0.00     0.025 C 
ATOM     20  C   UNL A   1      33.656  28.893  26.047  1.00  0.00     0.002 C 
ATOM     21  C   UNL A   1      32.435  28.238  26.675  1.00  0.00     0.002 C 
ENDBRANCH  11  17
ENDBRANCH   8  11
ENDBRANCH   6   7
BRANCH   6  22
ATOM     22  C   UNL A   1      31.727  23.437  24.019  1.00  0.00     0.143 C 
ATOM     23  C   UNL A   1      31.002  22.855  25.224  1.00  0.00     0.041 C 
BRANCH  22  24
ATOM     24  O   UNL A   1      31.526  22.574  22.896  1.00  0.00    -0.391 OA
ATOM     25  H   UNL A   1      31.965  21.725  23.059  1.00  0.00     0.211 HD
ENDBRANCH  22  24
ENDBRANCH   6  22
ENDBRANCH   3   6
ENDBRANCH   1   2
BRANCH   1  26
ATOM     26  C   UNL A   1      37.681  23.092  25.591  1.00  0.00     0.042 C 
BRANCH  26  27
ATOM     27  C   UNL A   1      38.487  24.043  26.457  1.00  0.00     0.118 C 
BRANCH  27  28
ATOM     28  N   UNL A   1      39.911  23.879  26.223  1.00  0.00    -0.352 N 
ATOM     29  C   UNL A   1      40.953  24.698  26.586  1.00  0.00     0.251 C 
ATOM     30  H   UNL A   1      40.166  23.064  25.734  1.00  0.00     0.163 HD
ATOM     31  O   UNL A   1      42.045  24.546  26.039  1.00  0.00    -0.269 OA
BRANCH  29  32
ATOM     32  C   UNL A   1      40.780  25.752  27.615  1.00  0.00     0.039 A 
ATOM     33  C   UNL A   1      41.649  26.848  27.617  1.00  0.00     0.014 A 
ATOM     34  C   UNL A   1      39.815  25.638  28.621  1.00  0.00     0.014 A 
ATOM     35  C   UNL A   1      41.536  27.830  28.606  1.00  0.00     0.010 A 
ATOM     36  C   UNL A   1      39.640  26.663  29.546  1.00  0.00     0.010 A 
ATOM     37  C   UNL A   1      40.520  27.753  29.573  1.00  0.00    -0.014 A 
BRANCH  37  38
ATOM     38  C   UNL A   1      40.404  28.757  30.662  1.00  0.00     0.031 A 
ATOM     39  C   UNL A   1      41.296  28.650  31.874  1.00  0.00     0.074 A 
ATOM     40  C   UNL A   1      39.471  29.726  30.593  1.00  0.00     0.049 A 
ATOM     41  N   UNL A   1      41.295  29.364  32.970  1.00  0.00    -0.248 NA
ATOM     42  C   UNL A   1      42.299  27.571  31.867  1.00  0.00     0.031 C 
ATOM     43  C   UNL A   1      38.515  29.905  29.498  1.00  0.00     0.029 A 
ATOM     44  N   UNL A   1      39.165  30.740  31.465  1.00  0.00    -0.354 N 
ATOM     45  C   UNL A   1      42.269  28.804  33.790  1.00  0.00     0.074 A 
ATOM     46  C   UNL A   1      42.803  27.658  33.089  1.00  0.00     0.031 C 
ATOM     47  C   UNL A   1      37.749  30.978  29.752  1.00  0.00     0.029 A 
ATOM     48  C   UNL A   1      38.135  31.544  31.040  1.00  0.00     0.049 A 
ATOM     49  H   UNL A   1      39.640  30.878  32.317  1.00  0.00     0.167 HD
ATOM     50  C   UNL A   1      42.701  29.220  35.004  1.00  0.00     0.037 A 
ATOM     51  C   UNL A   1      37.567  32.617  31.625  1.00  0.00     0.037 A 
ATOM     52  C   UNL A   1      42.205  30.396  35.671  1.00  0.00     0.049 A 
ATOM     53  C   UNL A   1      38.094  33.091  32.952  1.00  0.00     0.074 A 
ATOM     54  C   UNL A   1      42.618  30.946  36.872  1.00  0.00     0.029 A 
ATOM     55  N   UNL A   1      41.192  31.209  35.184  1.00  0.00    -0.354 N 
ATOM     56  N   UNL A   1      39.048  32.576  33.691  1.00  0.00    -0.248 NA
ATOM     57  C   UNL A   1      37.475  34.295  33.522  1.00  0.00     0.031 C 
ATOM     58  C   UNL A   1      41.837  32.079  37.124  1.00  0.00     0.029 A 
ATOM     59  C   UNL A   1      40.962  32.255  36.063  1.00  0.00     0.049 A 
ATOM     60  H   UNL A   1      40.708  31.066  34.339  1.00  0.00     0.167 HD
ATOM     61  C   UNL A   1      39.159  33.406  34.800  1.00  0.00     0.074 A 
ATOM     62  C   UNL A   1      38.185  34.463  34.629  1.00  0.00     0.031 C 
ATOM     63  C   UNL A   1      39.992  33.302  35.866  1.00  0.00     0.037 A 
BRANCH  50  64
ATOM     64  C   UNL A   1      43.772  28.408  35.681  1.00  0.00     0.058 A 
ATOM     65  C   UNL A   1      45.136  28.625  35.421  1.00  0.00     0.135 A 
ATOM     66  C   UNL A   1      43.436  27.411  36.609  1.00  0.00     0.135 A 
ATOM     67  F   UNL A   1      45.513  29.555  34.530  1.00  0.00    -0.206 F 
ATOM     68  C   UNL A   1      46.124  27.859  36.029  1.00  0.00     0.059 A 
ATOM     69  C   UNL A   1      44.410  26.650  37.252  1.00  0.00     0.059 A 
ATOM     70  F   UNL A   1      42.149  27.160  36.897  1.00  0.00    -0.206 F 
ATOM     71  C   UNL A   1      45.751  26.871  36.941  1.00  0.00     0.060 A 
BRANCH  71  72
ATOM     72  S   UNL A   1      47.044  25.878  37.718  1.00  0.00     0.124 S 
ATOM     73  O   UNL A   1      48.095  25.928  36.706  1.00  0.00    -0.237 OA
ATOM     74  O   UNL A   1      47.315  26.623  38.946  1.00  0.00    -0.237 OA
ATOM     75  O   UNL A   1      46.412  24.580  37.904  1.00  0.00    -0.744 OA
ENDBRANCH  71  72
ENDBRANCH  50  64
BRANCH  51  76
ATOM     76  C   UNL A   1      36.463  33.339  30.938  1.00  0.00     0.058 A 
ATOM     77  C   UNL A   1      35.143  33.243  31.403  1.00  0.00     0.135 A 
ATOM     78  C   UNL A   1      36.706  34.154  29.822  1.00  0.00     0.135 A 
ATOM     79  F   UNL A   1      34.861  32.472  32.464  1.00  0.00    -0.206 F 
ATOM     80  C   UNL A   1      34.100  33.919  30.780  1.00  0.00     0.059 A 
ATOM     81  C   UNL A   1      35.682  34.857  29.194  1.00  0.00     0.059 A 
ATOM     82  F   UNL A   1      37.954  34.293  29.349  1.00  0.00    -0.206 F 
ATOM     83  C   UNL A   1      34.380  34.726  29.675  1.00  0.00     0.060 A 
BRANCH  83  84
ATOM     84  S   UNL A   1      33.026  35.644  28.907  1.00  0.00     0.124 S 
ATOM     85  O   UNL A   1      33.752  36.656  28.149  1.00  0.00    -0.237 OA
ATOM     86  O   UNL A   1      32.362  34.610  28.119  1.00  0.00    -0.237 OA
ATOM     87  O   UNL A   1      32.264  36.134  30.051  1.00  0.00    -0.744 OA
ENDBRANCH  83  84
ENDBRANCH  51  76
BRANCH  63  88
ATOM     88  C   UNL A   1      39.905  34.375  36.912  1.00  0.00     0.058 A 
ATOM     89  C   UNL A   1      39.132  34.211  38.071  1.00  0.00     0.135 A 
ATOM     90  C   UNL A   1      40.643  35.562  36.775  1.00  0.00     0.135 A 
ATOM     91  F   UNL A   1      38.405  33.096  38.246  1.00  0.00    -0.206 F 
ATOM     92  C   UNL A   1      39.075  35.198  39.049  1.00  0.00     0.059 A 
ATOM     93  C   UNL A   1      40.618  36.551  37.751  1.00  0.00     0.059 A 
ATOM     94  F   UNL A   1      41.407  35.761  35.689  1.00  0.00    -0.206 F 
ATOM     95  C   UNL A   1      39.821  36.366  38.880  1.00  0.00     0.060 A 
BRANCH  95  96
ATOM     96  S   UNL A   1      39.763  37.628  40.169  1.00  0.00     0.124 S 
ATOM     97  O   UNL A   1      39.629  36.810  41.372  1.00  0.00    -0.237 OA
ATOM     98  O   UNL A   1      41.044  38.306  40.004  1.00  0.00    -0.237 OA
ATOM     99  O   UNL A   1      38.590  38.421  39.815  1.00  0.00    -0.744 OA
ENDBRANCH  95  96
ENDBRANCH  63  88
ENDBRANCH  37  38
ENDBRANCH  29  32
ENDBRANCH  27  28
ENDBRANCH  26  27
ENDBRANCH   1  26
TORSDOF 21
ENDMDL
