MODEL 1
REMARK VINA RESULT:     -11.6      0.000      0.000
REMARK SMILES CCCC(O)(CCC)[C@@]1(C)CC[C@@H](C(=O)NCCCNC(=O)c2ccc(-c3c4nc(c(-c5c(F)cc(S(=O)(=O)[O-])cc5F)c5ccc([nH]5)c(-c5c(F)cc(S(=O)(=O)[O-])cc5F)c5nc(c(-c6c(F)cc(S(=O)(=O)[O-])cc6F)c6ccc3[nH]6)C=C5)C=C4)cc2)C(C)(C)O1
REMARK SMILES IDX 18 1 17 2 16 3 14 4 15 5 13 7 9 8 10 9 11 10 92 11 12 12
REMARK SMILES IDX 89 13 90 14 91 15 4 16 3 17 2 18 1 19 5 20 6 22 7 23 8 24
REMARK SMILES IDX 19 25 20 26 21 27 22 29 23 30 24 31 88 32 25 33 87 34 26 35
REMARK SMILES IDX 27 36 28 37 81 38 29 39 86 40 80 41 82 42 30 43 85 44 79 45
REMARK SMILES IDX 78 46 31 48 65 49 44 50 64 51 45 52 48 53 63 54 83 55 46 56
REMARK SMILES IDX 47 57 62 59 84 60 49 61 32 62 33 63 42 64 34 65 35 66 41 67
REMARK SMILES IDX 43 68 36 69 37 70 38 71 39 72 40 73 66 74 67 75 76 76 68 77
REMARK SMILES IDX 69 78 75 79 77 80 70 81 71 82 72 83 73 84 74 85 50 86 51 87
REMARK SMILES IDX 60 88 52 89 53 90 59 91 61 92 54 93 55 94 56 95 57 96 58 97
REMARK H PARENT 16 6 5 21 20 28 82 47 48 58
REMARK Flexibility Score: inf
ROOT
ATOM      1  C   UNL A   1      38.288  23.525  26.319  1.00  0.00     0.042 C 
ENDROOT
BRANCH   1   2
ATOM      2  C   UNL A   1      37.663  22.318  25.629  1.00  0.00     0.117 C 
BRANCH   2   3
ATOM      3  N   UNL A   1      37.225  22.529  24.268  1.00  0.00    -0.356 N 
ATOM      4  C   UNL A   1      35.979  22.763  23.773  1.00  0.00     0.226 C 
ATOM      5  O   UNL A   1      35.940  23.245  22.633  1.00  0.00    -0.275 OA
ATOM      6  H   UNL A   1      37.941  22.499  23.592  1.00  0.00     0.163 HD
BRANCH   4   7
ATOM      7  C   UNL A   1      34.650  22.523  24.526  1.00  0.00     0.110 C 
ATOM      8  C   UNL A   1      31.764  23.194  24.902  1.00  0.00     0.095 C 
ATOM      9  C   UNL A   1      30.711  22.892  26.001  1.00  0.00     0.045 C 
ATOM     10  C   UNL A   1      32.206  21.846  24.334  1.00  0.00     0.039 C 
ATOM     11  O   UNL A   1      32.785  23.751  25.767  1.00  0.00    -0.366 OA
ATOM     12  C   UNL A   1      33.555  21.922  23.653  1.00  0.00     0.019 C 
ATOM     13  C   UNL A   1      34.197  23.541  25.609  1.00  0.00     0.075 C 
ATOM     14  C   UNL A   1      34.746  24.962  25.564  1.00  0.00     0.043 C 
ATOM     15  C   UNL A   1      34.745  23.010  26.963  1.00  0.00     0.043 C 
BRANCH   8  16
ATOM     16  C   UNL A   1      31.221  24.298  23.793  1.00  0.00     0.093 C 
BRANCH  16  17
ATOM     17  C   UNL A   1      30.701  25.713  24.283  1.00  0.00     0.038 C 
BRANCH  17  18
ATOM     18  C   UNL A   1      29.594  26.540  23.589  1.00  0.00    -0.000 C 
ATOM     19  C   UNL A   1      29.865  28.039  23.455  1.00  0.00     0.004 C 
ENDBRANCH  17  18
ENDBRANCH  16  17
BRANCH  16  20
ATOM     20  O   UNL A   1      30.116  23.667  23.108  1.00  0.00    -0.387 OA
ATOM     21  H   UNL A   1      30.453  23.151  22.360  1.00  0.00     0.211 HD
ENDBRANCH  16  20
BRANCH  16  22
ATOM     22  C   UNL A   1      32.252  24.587  22.616  1.00  0.00     0.038 C 
BRANCH  22  23
ATOM     23  C   UNL A   1      32.444  26.022  22.065  1.00  0.00    -0.000 C 
ATOM     24  C   UNL A   1      33.642  26.812  22.551  1.00  0.00     0.004 C 
ENDBRANCH  22  23
ENDBRANCH  16  22
ENDBRANCH   8  16
ENDBRANCH   4   7
ENDBRANCH   2   3
ENDBRANCH   1   2
BRANCH   1  25
ATOM     25  C   UNL A   1      39.628  23.270  26.975  1.00  0.00     0.118 C 
BRANCH  25  26
ATOM     26  N   UNL A   1      40.755  23.731  26.175  1.00  0.00    -0.352 N 
ATOM     27  C   UNL A   1      41.436  24.927  26.203  1.00  0.00     0.251 C 
ATOM     28  H   UNL A   1      41.081  23.084  25.508  1.00  0.00     0.163 HD
ATOM     29  O   UNL A   1      42.268  25.162  25.324  1.00  0.00    -0.269 OA
BRANCH  27  30
ATOM     30  C   UNL A   1      41.162  25.944  27.248  1.00  0.00     0.039 A 
ATOM     31  C   UNL A   1      40.299  25.626  28.302  1.00  0.00     0.014 A 
ATOM     32  C   UNL A   1      41.744  27.211  27.201  1.00  0.00     0.014 A 
ATOM     33  C   UNL A   1      40.091  26.545  29.337  1.00  0.00     0.010 A 
ATOM     34  C   UNL A   1      41.645  28.066  28.293  1.00  0.00     0.010 A 
ATOM     35  C   UNL A   1      40.798  27.757  29.366  1.00  0.00    -0.014 A 
BRANCH  35  36
ATOM     36  C   UNL A   1      40.649  28.730  30.483  1.00  0.00     0.031 A 
ATOM     37  C   UNL A   1      41.488  28.580  31.729  1.00  0.00     0.074 A 
ATOM     38  C   UNL A   1      39.710  29.695  30.416  1.00  0.00     0.049 A 
ATOM     39  N   UNL A   1      41.449  29.269  32.840  1.00  0.00    -0.248 NA
ATOM     40  C   UNL A   1      42.472  27.485  31.743  1.00  0.00     0.031 C 
ATOM     41  C   UNL A   1      38.784  29.899  29.300  1.00  0.00     0.029 A 
ATOM     42  N   UNL A   1      39.365  30.677  31.313  1.00  0.00    -0.354 N 
ATOM     43  C   UNL A   1      42.375  28.671  33.690  1.00  0.00     0.074 A 
ATOM     44  C   UNL A   1      42.912  27.527  32.990  1.00  0.00     0.031 C 
ATOM     45  C   UNL A   1      37.996  30.953  29.568  1.00  0.00     0.029 A 
ATOM     46  C   UNL A   1      38.326  31.472  30.890  1.00  0.00     0.049 A 
ATOM     47  H   UNL A   1      39.819  30.798  32.179  1.00  0.00     0.167 HD
ATOM     48  C   UNL A   1      42.765  29.056  34.928  1.00  0.00     0.037 A 
ATOM     49  C   UNL A   1      37.701  32.498  31.502  1.00  0.00     0.037 A 
ATOM     50  C   UNL A   1      42.254  30.221  35.601  1.00  0.00     0.049 A 
ATOM     51  C   UNL A   1      38.170  32.932  32.863  1.00  0.00     0.074 A 
ATOM     52  C   UNL A   1      42.643  30.753  36.817  1.00  0.00     0.029 A 
ATOM     53  N   UNL A   1      41.235  31.031  35.118  1.00  0.00    -0.354 N 
ATOM     54  N   UNL A   1      39.112  32.411  33.614  1.00  0.00    -0.248 NA
ATOM     55  C   UNL A   1      37.503  34.097  33.459  1.00  0.00     0.031 C 
ATOM     56  C   UNL A   1      41.821  31.848  37.097  1.00  0.00     0.029 A 
ATOM     57  C   UNL A   1      40.962  32.040  36.026  1.00  0.00     0.049 A 
ATOM     58  H   UNL A   1      40.774  30.906  34.257  1.00  0.00     0.167 HD
ATOM     59  C   UNL A   1      39.166  33.197  34.760  1.00  0.00     0.074 A 
ATOM     60  C   UNL A   1      38.172  34.238  34.595  1.00  0.00     0.031 C 
ATOM     61  C   UNL A   1      39.966  33.069  35.848  1.00  0.00     0.037 A 
BRANCH  48  62
ATOM     62  C   UNL A   1      43.791  28.206  35.635  1.00  0.00     0.058 A 
ATOM     63  C   UNL A   1      43.425  27.172  36.512  1.00  0.00     0.135 A 
ATOM     64  C   UNL A   1      45.162  28.425  35.421  1.00  0.00     0.135 A 
ATOM     65  F   UNL A   1      42.130  26.924  36.765  1.00  0.00    -0.206 F 
ATOM     66  C   UNL A   1      44.379  26.418  37.188  1.00  0.00     0.059 A 
ATOM     67  C   UNL A   1      46.134  27.659  36.060  1.00  0.00     0.059 A 
ATOM     68  F   UNL A   1      45.572  29.397  34.592  1.00  0.00    -0.206 F 
ATOM     69  C   UNL A   1      45.732  26.671  36.958  1.00  0.00     0.060 A 
BRANCH  69  70
ATOM     70  S   UNL A   1      46.956  25.694  37.854  1.00  0.00     0.124 S 
ATOM     71  O   UNL A   1      46.756  24.371  37.269  1.00  0.00    -0.237 OA
ATOM     72  O   UNL A   1      48.206  26.359  37.501  1.00  0.00    -0.237 OA
ATOM     73  O   UNL A   1      46.548  25.831  39.249  1.00  0.00    -0.744 OA
ENDBRANCH  69  70
ENDBRANCH  48  62
BRANCH  49  74
ATOM     74  C   UNL A   1      36.575  33.190  30.814  1.00  0.00     0.058 A 
ATOM     75  C   UNL A   1      35.249  33.024  31.240  1.00  0.00     0.135 A 
ATOM     76  C   UNL A   1      36.811  34.065  29.741  1.00  0.00     0.135 A 
ATOM     77  F   UNL A   1      34.970  32.193  32.256  1.00  0.00    -0.206 F 
ATOM     78  C   UNL A   1      34.196  33.695  30.626  1.00  0.00     0.059 A 
ATOM     79  C   UNL A   1      35.778  34.768  29.128  1.00  0.00     0.059 A 
ATOM     80  F   UNL A   1      38.063  34.271  29.304  1.00  0.00    -0.206 F 
ATOM     81  C   UNL A   1      34.472  34.572  29.575  1.00  0.00     0.060 A 
BRANCH  81  82
ATOM     82  S   UNL A   1      33.106  35.493  28.834  1.00  0.00     0.124 S 
ATOM     83  O   UNL A   1      33.816  36.479  28.028  1.00  0.00    -0.237 OA
ATOM     84  O   UNL A   1      32.401  34.451  28.095  1.00  0.00    -0.237 OA
ATOM     85  O   UNL A   1      32.390  36.021  29.992  1.00  0.00    -0.744 OA
ENDBRANCH  81  82
ENDBRANCH  49  74
BRANCH  61  86
ATOM     86  C   UNL A   1      39.826  34.096  36.938  1.00  0.00     0.058 A 
ATOM     87  C   UNL A   1      40.418  35.365  36.842  1.00  0.00     0.135 A 
ATOM     88  C   UNL A   1      39.036  33.826  38.069  1.00  0.00     0.135 A 
ATOM     89  F   UNL A   1      41.186  35.674  35.785  1.00  0.00    -0.206 F 
ATOM     90  C   UNL A   1      40.251  36.322  37.838  1.00  0.00     0.059 A 
ATOM     91  C   UNL A   1      38.829  34.778  39.061  1.00  0.00     0.059 A 
ATOM     92  F   UNL A   1      38.437  32.633  38.206  1.00  0.00    -0.206 F 
ATOM     93  C   UNL A   1      39.451  36.020  38.942  1.00  0.00     0.060 A 
BRANCH  93  94
ATOM     94  S   UNL A   1      39.215  37.283  40.210  1.00  0.00     0.124 S 
ATOM     95  O   UNL A   1      38.417  38.273  39.494  1.00  0.00    -0.237 OA
ATOM     96  O   UNL A   1      38.517  36.545  41.258  1.00  0.00    -0.237 OA
ATOM     97  O   UNL A   1      40.576  37.693  40.540  1.00  0.00    -0.744 OA
ENDBRANCH  93  94
ENDBRANCH  61  86
ENDBRANCH  35  36
ENDBRANCH  27  30
ENDBRANCH  25  26
ENDBRANCH   1  25
TORSDOF 19
ENDMDL
MODEL 2
REMARK VINA RESULT:     -11.5      6.517     11.919
REMARK SMILES CCCC(O)(CCC)[C@@]1(C)CC[C@@H](C(=O)NCCCNC(=O)c2ccc(-c3c4nc(c(-c5c(F)cc(S(=O)(=O)[O-])cc5F)c5ccc([nH]5)c(-c5c(F)cc(S(=O)(=O)[O-])cc5F)c5nc(c(-c6c(F)cc(S(=O)(=O)[O-])cc6F)c6ccc3[nH]6)C=C5)C=C4)cc2)C(C)(C)O1
REMARK SMILES IDX 18 1 17 2 16 3 14 4 15 5 13 7 9 8 10 9 11 10 92 11 12 12
REMARK SMILES IDX 89 13 90 14 91 15 4 16 3 17 2 18 1 19 5 20 6 22 7 23 8 24
REMARK SMILES IDX 19 25 20 26 21 27 22 29 23 30 24 31 88 32 25 33 87 34 26 35
REMARK SMILES IDX 27 36 28 37 81 38 29 39 86 40 80 41 82 42 30 43 85 44 79 45
REMARK SMILES IDX 78 46 31 48 65 49 44 50 64 51 45 52 48 53 63 54 83 55 46 56
REMARK SMILES IDX 47 57 62 59 84 60 49 61 32 62 33 63 42 64 34 65 35 66 41 67
REMARK SMILES IDX 43 68 36 69 37 70 38 71 39 72 40 73 66 74 67 75 76 76 68 77
REMARK SMILES IDX 69 78 75 79 77 80 70 81 71 82 72 83 73 84 74 85 50 86 51 87
REMARK SMILES IDX 60 88 52 89 53 90 59 91 61 92 54 93 55 94 56 95 57 96 58 97
REMARK H PARENT 16 6 5 21 20 28 82 47 48 58
REMARK Flexibility Score: inf
ROOT
ATOM      1  C   UNL A   1      34.430  29.723  27.667  1.00  0.00     0.042 C 
ENDROOT
BRANCH   1   2
ATOM      2  C   UNL A   1      33.498  30.021  26.499  1.00  0.00     0.117 C 
BRANCH   2   3
ATOM      3  N   UNL A   1      33.921  29.513  25.212  1.00  0.00    -0.356 N 
ATOM      4  C   UNL A   1      33.666  28.318  24.614  1.00  0.00     0.226 C 
ATOM      5  O   UNL A   1      33.855  28.283  23.390  1.00  0.00    -0.275 OA
ATOM      6  H   UNL A   1      34.481  30.129  24.686  1.00  0.00     0.163 HD
BRANCH   4   7
ATOM      7  C   UNL A   1      33.127  27.053  25.321  1.00  0.00     0.110 C 
ATOM      8  C   UNL A   1      32.001  24.294  25.121  1.00  0.00     0.095 C 
ATOM      9  C   UNL A   1      31.301  23.329  26.116  1.00  0.00     0.045 C 
ATOM     10  C   UNL A   1      33.404  24.548  25.668  1.00  0.00     0.039 C 
ATOM     11  O   UNL A   1      31.144  25.443  25.339  1.00  0.00    -0.366 OA
ATOM     12  C   UNL A   1      34.011  25.825  25.129  1.00  0.00     0.019 C 
ATOM     13  C   UNL A   1      31.593  26.806  25.371  1.00  0.00     0.075 C 
ATOM     14  C   UNL A   1      30.702  27.480  24.335  1.00  0.00     0.043 C 
ATOM     15  C   UNL A   1      31.095  27.432  26.704  1.00  0.00     0.043 C 
BRANCH   8  16
ATOM     16  C   UNL A   1      31.926  23.751  23.557  1.00  0.00     0.093 C 
BRANCH  16  17
ATOM     17  C   UNL A   1      32.814  24.443  22.442  1.00  0.00     0.038 C 
BRANCH  17  18
ATOM     18  C   UNL A   1      32.394  25.681  21.615  1.00  0.00    -0.000 C 
ATOM     19  C   UNL A   1      32.555  25.558  20.100  1.00  0.00     0.004 C 
ENDBRANCH  17  18
ENDBRANCH  16  17
BRANCH  16  20
ATOM     20  O   UNL A   1      30.550  23.907  23.145  1.00  0.00    -0.387 OA
ATOM     21  H   UNL A   1      30.521  24.175  22.213  1.00  0.00     0.211 HD
ENDBRANCH  16  20
BRANCH  16  22
ATOM     22  C   UNL A   1      32.167  22.185  23.410  1.00  0.00     0.038 C 
BRANCH  22  23
ATOM     23  C   UNL A   1      33.522  21.552  23.810  1.00  0.00    -0.000 C 
ATOM     24  C   UNL A   1      33.516  20.486  24.887  1.00  0.00     0.004 C 
ENDBRANCH  22  23
ENDBRANCH  16  22
ENDBRANCH   8  16
ENDBRANCH   4   7
ENDBRANCH   2   3
ENDBRANCH   1   2
BRANCH   1  25
ATOM     25  C   UNL A   1      35.355  30.856  28.058  1.00  0.00     0.118 C 
BRANCH  25  26
ATOM     26  N   UNL A   1      35.401  31.090  29.495  1.00  0.00    -0.352 N 
ATOM     27  C   UNL A   1      36.369  30.766  30.419  1.00  0.00     0.251 C 
ATOM     28  H   UNL A   1      34.614  31.553  29.864  1.00  0.00     0.163 HD
ATOM     29  O   UNL A   1      36.128  30.925  31.617  1.00  0.00    -0.269 OA
BRANCH  27  30
ATOM     30  C   UNL A   1      37.675  30.201  29.998  1.00  0.00     0.039 A 
ATOM     31  C   UNL A   1      37.995  30.156  28.638  1.00  0.00     0.014 A 
ATOM     32  C   UNL A   1      38.589  29.710  30.930  1.00  0.00     0.014 A 
ATOM     33  C   UNL A   1      39.252  29.699  28.229  1.00  0.00     0.010 A 
ATOM     34  C   UNL A   1      39.883  29.385  30.537  1.00  0.00     0.010 A 
ATOM     35  C   UNL A   1      40.227  29.352  29.179  1.00  0.00    -0.014 A 
BRANCH  35  36
ATOM     36  C   UNL A   1      41.596  28.922  28.782  1.00  0.00     0.031 A 
ATOM     37  C   UNL A   1      42.708  29.939  28.691  1.00  0.00     0.074 A 
ATOM     38  C   UNL A   1      41.824  27.641  28.427  1.00  0.00     0.049 A 
ATOM     39  N   UNL A   1      43.941  29.781  28.285  1.00  0.00    -0.248 NA
ATOM     40  C   UNL A   1      42.377  31.323  29.065  1.00  0.00     0.031 C 
ATOM     41  C   UNL A   1      40.817  26.578  28.400  1.00  0.00     0.029 A 
ATOM     42  N   UNL A   1      42.973  27.017  28.004  1.00  0.00    -0.354 N 
ATOM     43  C   UNL A   1      44.518  31.047  28.325  1.00  0.00     0.074 A 
ATOM     44  C   UNL A   1      43.484  31.969  28.732  1.00  0.00     0.031 C 
ATOM     45  C   UNL A   1      41.396  25.432  28.007  1.00  0.00     0.029 A 
ATOM     46  C   UNL A   1      42.802  25.685  27.711  1.00  0.00     0.049 A 
ATOM     47  H   UNL A   1      43.837  27.482  27.918  1.00  0.00     0.167 HD
ATOM     48  C   UNL A   1      45.800  31.406  28.076  1.00  0.00     0.037 A 
ATOM     49  C   UNL A   1      43.676  24.770  27.244  1.00  0.00     0.037 A 
ATOM     50  C   UNL A   1      46.834  30.473  27.710  1.00  0.00     0.049 A 
ATOM     51  C   UNL A   1      45.103  25.179  27.005  1.00  0.00     0.074 A 
ATOM     52  C   UNL A   1      48.182  30.714  27.522  1.00  0.00     0.029 A 
ATOM     53  N   UNL A   1      46.631  29.121  27.470  1.00  0.00    -0.354 N 
ATOM     54  N   UNL A   1      45.653  26.363  27.138  1.00  0.00    -0.248 NA
ATOM     55  C   UNL A   1      46.032  24.131  26.562  1.00  0.00     0.031 C 
ATOM     56  C   UNL A   1      48.785  29.521  27.111  1.00  0.00     0.029 A 
ATOM     57  C   UNL A   1      47.825  28.521  27.105  1.00  0.00     0.049 A 
ATOM     58  H   UNL A   1      45.767  28.656  27.547  1.00  0.00     0.167 HD
ATOM     59  C   UNL A   1      46.997  26.198  26.817  1.00  0.00     0.074 A 
ATOM     60  C   UNL A   1      47.177  24.796  26.499  1.00  0.00     0.031 C 
ATOM     61  C   UNL A   1      47.989  27.122  26.790  1.00  0.00     0.037 A 
BRANCH  48  62
ATOM     62  C   UNL A   1      46.152  32.867  28.186  1.00  0.00     0.058 A 
ATOM     63  C   UNL A   1      46.555  33.447  29.400  1.00  0.00     0.135 A 
ATOM     64  C   UNL A   1      46.096  33.698  27.055  1.00  0.00     0.135 A 
ATOM     65  F   UNL A   1      46.616  32.706  30.518  1.00  0.00    -0.206 F 
ATOM     66  C   UNL A   1      46.842  34.805  29.500  1.00  0.00     0.059 A 
ATOM     67  C   UNL A   1      46.413  35.053  27.124  1.00  0.00     0.059 A 
ATOM     68  F   UNL A   1      45.720  33.200  25.866  1.00  0.00    -0.206 F 
ATOM     69  C   UNL A   1      46.765  35.600  28.356  1.00  0.00     0.060 A 
BRANCH  69  70
ATOM     70  S   UNL A   1      47.127  37.362  28.506  1.00  0.00     0.124 S 
ATOM     71  O   UNL A   1      45.994  37.952  27.799  1.00  0.00    -0.237 OA
ATOM     72  O   UNL A   1      47.140  37.557  29.953  1.00  0.00    -0.237 OA
ATOM     73  O   UNL A   1      48.421  37.502  27.846  1.00  0.00    -0.744 OA
ENDBRANCH  69  70
ENDBRANCH  48  62
BRANCH  49  74
ATOM     74  C   UNL A   1      43.218  23.375  26.995  1.00  0.00     0.058 A 
ATOM     75  C   UNL A   1      43.026  22.894  25.691  1.00  0.00     0.135 A 
ATOM     76  C   UNL A   1      43.003  22.482  28.057  1.00  0.00     0.135 A 
ATOM     77  F   UNL A   1      43.210  23.709  24.641  1.00  0.00    -0.206 F 
ATOM     78  C   UNL A   1      42.634  21.581  25.448  1.00  0.00     0.059 A 
ATOM     79  C   UNL A   1      42.637  21.157  27.839  1.00  0.00     0.059 A 
ATOM     80  F   UNL A   1      43.188  22.887  29.323  1.00  0.00    -0.206 F 
ATOM     81  C   UNL A   1      42.449  20.717  26.530  1.00  0.00     0.060 A 
BRANCH  81  82
ATOM     82  S   UNL A   1      42.012  18.996  26.199  1.00  0.00     0.124 S 
ATOM     83  O   UNL A   1      40.612  19.116  25.809  1.00  0.00    -0.237 OA
ATOM     84  O   UNL A   1      42.944  18.644  25.132  1.00  0.00    -0.237 OA
ATOM     85  O   UNL A   1      42.257  18.335  27.478  1.00  0.00    -0.744 OA
ENDBRANCH  81  82
ENDBRANCH  49  74
BRANCH  61  86
ATOM     86  C   UNL A   1      49.371  26.648  26.433  1.00  0.00     0.058 A 
ATOM     87  C   UNL A   1      49.865  26.727  25.121  1.00  0.00     0.135 A 
ATOM     88  C   UNL A   1      50.234  26.164  27.430  1.00  0.00     0.135 A 
ATOM     89  F   UNL A   1      49.081  27.176  24.129  1.00  0.00    -0.206 F 
ATOM     90  C   UNL A   1      51.159  26.321  24.807  1.00  0.00     0.059 A 
ATOM     91  C   UNL A   1      51.541  25.783  27.144  1.00  0.00     0.059 A 
ATOM     92  F   UNL A   1      49.817  26.079  28.703  1.00  0.00    -0.206 F 
ATOM     93  C   UNL A   1      51.990  25.855  25.826  1.00  0.00     0.060 A 
BRANCH  93  94
ATOM     94  S   UNL A   1      53.677  25.365  25.411  1.00  0.00     0.124 S 
ATOM     95  O   UNL A   1      54.453  26.122  26.387  1.00  0.00    -0.237 OA
ATOM     96  O   UNL A   1      53.640  23.920  25.614  1.00  0.00    -0.237 OA
ATOM     97  O   UNL A   1      53.824  25.793  24.023  1.00  0.00    -0.744 OA
ENDBRANCH  93  94
ENDBRANCH  61  86
ENDBRANCH  35  36
ENDBRANCH  27  30
ENDBRANCH  25  26
ENDBRANCH   1  25
TORSDOF 19
ENDMDL
MODEL 3
REMARK VINA RESULT:     -11.4      6.647     11.592
REMARK SMILES CCCC(O)(CCC)[C@@]1(C)CC[C@@H](C(=O)NCCCNC(=O)c2ccc(-c3c4nc(c(-c5c(F)cc(S(=O)(=O)[O-])cc5F)c5ccc([nH]5)c(-c5c(F)cc(S(=O)(=O)[O-])cc5F)c5nc(c(-c6c(F)cc(S(=O)(=O)[O-])cc6F)c6ccc3[nH]6)C=C5)C=C4)cc2)C(C)(C)O1
REMARK SMILES IDX 18 1 17 2 16 3 14 4 15 5 13 7 9 8 10 9 11 10 92 11 12 12
REMARK SMILES IDX 89 13 90 14 91 15 4 16 3 17 2 18 1 19 5 20 6 22 7 23 8 24
REMARK SMILES IDX 19 25 20 26 21 27 22 29 23 30 24 31 88 32 25 33 87 34 26 35
REMARK SMILES IDX 27 36 28 37 81 38 29 39 86 40 80 41 82 42 30 43 85 44 79 45
REMARK SMILES IDX 78 46 31 48 65 49 44 50 64 51 45 52 48 53 63 54 83 55 46 56
REMARK SMILES IDX 47 57 62 59 84 60 49 61 32 62 33 63 42 64 34 65 35 66 41 67
REMARK SMILES IDX 43 68 36 69 37 70 38 71 39 72 40 73 66 74 67 75 76 76 68 77
REMARK SMILES IDX 69 78 75 79 77 80 70 81 71 82 72 83 73 84 74 85 50 86 51 87
REMARK SMILES IDX 60 88 52 89 53 90 59 91 61 92 54 93 55 94 56 95 57 96 58 97
REMARK H PARENT 16 6 5 21 20 28 82 47 48 58
REMARK Flexibility Score: inf
ROOT
ATOM      1  C   UNL A   1      34.764  29.690  27.387  1.00  0.00     0.042 C 
ENDROOT
BRANCH   1   2
ATOM      2  C   UNL A   1      33.333  30.051  27.006  1.00  0.00     0.117 C 
BRANCH   2   3
ATOM      3  N   UNL A   1      32.309  29.148  27.482  1.00  0.00    -0.356 N 
ATOM      4  C   UNL A   1      31.712  28.094  26.862  1.00  0.00     0.226 C 
ATOM      5  O   UNL A   1      31.132  27.294  27.609  1.00  0.00    -0.275 OA
ATOM      6  H   UNL A   1      31.994  29.323  28.399  1.00  0.00     0.163 HD
BRANCH   4   7
ATOM      7  C   UNL A   1      31.745  27.804  25.343  1.00  0.00     0.110 C 
ATOM      8  C   UNL A   1      31.621  25.822  23.113  1.00  0.00     0.095 C 
ATOM      9  C   UNL A   1      31.948  25.868  21.596  1.00  0.00     0.045 C 
ATOM     10  C   UNL A   1      30.498  26.831  23.351  1.00  0.00     0.039 C 
ATOM     11  O   UNL A   1      32.888  26.334  23.595  1.00  0.00    -0.366 OA
ATOM     12  C   UNL A   1      30.423  27.279  24.794  1.00  0.00     0.019 C 
ATOM     13  C   UNL A   1      33.041  27.227  24.708  1.00  0.00     0.075 C 
ATOM     14  C   UNL A   1      34.036  26.491  25.598  1.00  0.00     0.043 C 
ATOM     15  C   UNL A   1      33.867  28.449  24.218  1.00  0.00     0.043 C 
BRANCH   8  16
ATOM     16  C   UNL A   1      31.329  24.282  23.649  1.00  0.00     0.093 C 
BRANCH  16  17
ATOM     17  C   UNL A   1      32.397  23.142  23.382  1.00  0.00     0.038 C 
BRANCH  17  18
ATOM     18  C   UNL A   1      33.749  23.003  24.121  1.00  0.00    -0.000 C 
ATOM     19  C   UNL A   1      34.985  22.874  23.232  1.00  0.00     0.004 C 
ENDBRANCH  17  18
ENDBRANCH  16  17
BRANCH  16  20
ATOM     20  O   UNL A   1      30.105  23.860  23.007  1.00  0.00    -0.387 OA
ATOM     21  H   UNL A   1      30.173  22.923  22.767  1.00  0.00     0.211 HD
ENDBRANCH  16  20
BRANCH  16  22
ATOM     22  C   UNL A   1      30.967  24.199  25.196  1.00  0.00     0.038 C 
BRANCH  22  23
ATOM     23  C   UNL A   1      30.687  22.834  25.872  1.00  0.00    -0.000 C 
ATOM     24  C   UNL A   1      29.753  22.812  27.065  1.00  0.00     0.004 C 
ENDBRANCH  22  23
ENDBRANCH  16  22
ENDBRANCH   8  16
ENDBRANCH   4   7
ENDBRANCH   2   3
ENDBRANCH   1   2
BRANCH   1  25
ATOM     25  C   UNL A   1      35.526  30.770  28.126  1.00  0.00     0.118 C 
BRANCH  25  26
ATOM     26  N   UNL A   1      35.527  30.584  29.571  1.00  0.00    -0.352 N 
ATOM     27  C   UNL A   1      36.474  30.017  30.394  1.00  0.00     0.251 C 
ATOM     28  H   UNL A   1      34.723  30.916  30.032  1.00  0.00     0.163 HD
ATOM     29  O   UNL A   1      36.198  29.826  31.581  1.00  0.00    -0.269 OA
BRANCH  27  30
ATOM     30  C   UNL A   1      37.801  29.607  29.872  1.00  0.00     0.039 A 
ATOM     31  C   UNL A   1      38.118  29.863  28.534  1.00  0.00     0.014 A 
ATOM     32  C   UNL A   1      38.737  28.967  30.685  1.00  0.00     0.014 A 
ATOM     33  C   UNL A   1      39.393  29.553  28.046  1.00  0.00     0.010 A 
ATOM     34  C   UNL A   1      40.042  28.785  30.239  1.00  0.00     0.010 A 
ATOM     35  C   UNL A   1      40.383  29.053  28.906  1.00  0.00    -0.014 A 
BRANCH  35  36
ATOM     36  C   UNL A   1      41.767  28.772  28.436  1.00  0.00     0.031 A 
ATOM     37  C   UNL A   1      42.143  27.381  27.987  1.00  0.00     0.074 A 
ATOM     38  C   UNL A   1      42.706  29.739  28.487  1.00  0.00     0.049 A 
ATOM     39  N   UNL A   1      43.310  26.916  27.624  1.00  0.00    -0.248 NA
ATOM     40  C   UNL A   1      41.073  26.369  27.986  1.00  0.00     0.031 C 
ATOM     41  C   UNL A   1      42.489  31.104  28.972  1.00  0.00     0.029 A 
ATOM     42  N   UNL A   1      44.036  29.719  28.144  1.00  0.00    -0.354 N 
ATOM     43  C   UNL A   1      43.120  25.558  27.385  1.00  0.00     0.074 A 
ATOM     44  C   UNL A   1      41.743  25.262  27.706  1.00  0.00     0.031 C 
ATOM     45  C   UNL A   1      43.637  31.795  28.873  1.00  0.00     0.029 A 
ATOM     46  C   UNL A   1      44.681  30.914  28.361  1.00  0.00     0.049 A 
ATOM     47  H   UNL A   1      44.485  28.923  27.778  1.00  0.00     0.167 HD
ATOM     48  C   UNL A   1      44.002  24.645  26.913  1.00  0.00     0.037 A 
ATOM     49  C   UNL A   1      45.971  31.261  28.179  1.00  0.00     0.037 A 
ATOM     50  C   UNL A   1      45.362  24.959  26.557  1.00  0.00     0.049 A 
ATOM     51  C   UNL A   1      46.929  30.244  27.623  1.00  0.00     0.074 A 
ATOM     52  C   UNL A   1      46.313  24.134  25.987  1.00  0.00     0.029 A 
ATOM     53  N   UNL A   1      45.965  26.195  26.746  1.00  0.00    -0.354 N 
ATOM     54  N   UNL A   1      46.708  28.988  27.315  1.00  0.00    -0.248 NA
ATOM     55  C   UNL A   1      48.307  30.689  27.378  1.00  0.00     0.031 C 
ATOM     56  C   UNL A   1      47.508  24.852  25.885  1.00  0.00     0.029 A 
ATOM     57  C   UNL A   1      47.285  26.145  26.332  1.00  0.00     0.049 A 
ATOM     58  H   UNL A   1      45.520  26.989  27.120  1.00  0.00     0.167 HD
ATOM     59  C   UNL A   1      47.912  28.498  26.820  1.00  0.00     0.074 A 
ATOM     60  C   UNL A   1      48.853  29.600  26.855  1.00  0.00     0.031 C 
ATOM     61  C   UNL A   1      48.211  27.252  26.375  1.00  0.00     0.037 A 
BRANCH  48  62
ATOM     62  C   UNL A   1      43.525  23.224  26.759  1.00  0.00     0.058 A 
ATOM     63  C   UNL A   1      43.280  22.396  27.866  1.00  0.00     0.135 A 
ATOM     64  C   UNL A   1      43.298  22.686  25.481  1.00  0.00     0.135 A 
ATOM     65  F   UNL A   1      43.491  22.850  29.112  1.00  0.00    -0.206 F 
ATOM     66  C   UNL A   1      42.876  21.073  27.713  1.00  0.00     0.059 A 
ATOM     67  C   UNL A   1      42.859  21.376  25.305  1.00  0.00     0.059 A 
ATOM     68  F   UNL A   1      43.511  23.431  24.385  1.00  0.00    -0.206 F 
ATOM     69  C   UNL A   1      42.671  20.572  26.427  1.00  0.00     0.060 A 
BRANCH  69  70
ATOM     70  S   UNL A   1      42.160  18.850  26.246  1.00  0.00     0.124 S 
ATOM     71  O   UNL A   1      40.779  19.004  25.797  1.00  0.00    -0.237 OA
ATOM     72  O   UNL A   1      43.098  18.350  25.246  1.00  0.00    -0.237 OA
ATOM     73  O   UNL A   1      42.326  18.302  27.589  1.00  0.00    -0.744 OA
ENDBRANCH  69  70
ENDBRANCH  48  62
BRANCH  49  74
ATOM     74  C   UNL A   1      46.416  32.642  28.514  1.00  0.00     0.058 A 
ATOM     75  C   UNL A   1      46.927  32.955  29.782  1.00  0.00     0.135 A 
ATOM     76  C   UNL A   1      46.379  33.667  27.554  1.00  0.00     0.135 A 
ATOM     77  F   UNL A   1      46.977  32.014  30.737  1.00  0.00    -0.206 F 
ATOM     78  C   UNL A   1      47.379  34.235  30.091  1.00  0.00     0.059 A 
ATOM     79  C   UNL A   1      46.850  34.947  27.831  1.00  0.00     0.059 A 
ATOM     80  F   UNL A   1      45.915  33.417  26.320  1.00  0.00    -0.206 F 
ATOM     81  C   UNL A   1      47.344  35.223  29.105  1.00  0.00     0.060 A 
BRANCH  81  82
ATOM     82  S   UNL A   1      48.002  36.860  29.495  1.00  0.00     0.124 S 
ATOM     83  O   UNL A   1      49.402  36.713  29.117  1.00  0.00    -0.237 OA
ATOM     84  O   UNL A   1      47.195  37.724  28.638  1.00  0.00    -0.237 OA
ATOM     85  O   UNL A   1      47.744  36.993  30.926  1.00  0.00    -0.744 OA
ENDBRANCH  81  82
ENDBRANCH  49  74
BRANCH  61  86
ATOM     86  C   UNL A   1      49.604  27.012  25.861  1.00  0.00     0.058 A 
ATOM     87  C   UNL A   1      50.612  26.475  26.677  1.00  0.00     0.135 A 
ATOM     88  C   UNL A   1      49.917  27.267  24.516  1.00  0.00     0.135 A 
ATOM     89  F   UNL A   1      50.369  26.218  27.972  1.00  0.00    -0.206 F 
ATOM     90  C   UNL A   1      51.888  26.222  26.183  1.00  0.00     0.059 A 
ATOM     91  C   UNL A   1      51.175  26.991  23.992  1.00  0.00     0.059 A 
ATOM     92  F   UNL A   1      48.987  27.769  23.688  1.00  0.00    -0.206 F 
ATOM     93  C   UNL A   1      52.159  26.479  24.838  1.00  0.00     0.060 A 
BRANCH  93  94
ATOM     94  S   UNL A   1      53.808  26.112  24.201  1.00  0.00     0.124 S 
ATOM     95  O   UNL A   1      54.090  24.830  24.837  1.00  0.00    -0.237 OA
ATOM     96  O   UNL A   1      53.582  26.069  22.760  1.00  0.00    -0.237 OA
ATOM     97  O   UNL A   1      54.612  27.236  24.671  1.00  0.00    -0.744 OA
ENDBRANCH  93  94
ENDBRANCH  61  86
ENDBRANCH  35  36
ENDBRANCH  27  30
ENDBRANCH  25  26
ENDBRANCH   1  25
TORSDOF 19
ENDMDL
