MODEL 1
REMARK VINA RESULT:     -15.6      0.000      0.000
REMARK SMILES Cc1ccc(S(=O)(=O)n2cc(C(=O)C(=O)N[C@@H](Cc3c[nH]c4ccccc34)C(=O)NCCCNC(=O)c3ccc(-c4c5nc(c(-c6c(F)cc(S(=O)(=O)[O-])cc6F)c6ccc([nH]6)c(-c6c(F)cc(S(=O)(=O)[O-])cc6F)c6nc(c(-c7c(F)cc(S(=O)(=O)[O-])cc7F)c7ccc4[nH]7)C=C6)C=C5)cc3)c3ccccc32)cc1
REMARK SMILES IDX 31 1 30 2 28 3 29 4 17 6 16 7 14 8 15 9 12 11 13 12 11 13
REMARK SMILES IDX 9 14 10 15 108 16 103 17 107 18 104 19 106 20 105 21 6 22
REMARK SMILES IDX 7 23 8 24 5 25 1 26 2 27 3 28 110 29 4 30 109 31 18 32 19 33
REMARK SMILES IDX 20 34 27 35 21 36 22 37 26 38 23 40 25 41 24 42 32 43 33 44
REMARK SMILES IDX 34 45 35 46 36 48 37 49 38 50 102 51 39 52 101 53 40 54
REMARK SMILES IDX 41 55 42 56 95 57 43 58 100 59 94 60 96 61 44 62 99 63 93 64
REMARK SMILES IDX 92 65 45 67 79 68 58 69 78 70 59 71 62 72 77 73 97 74 60 75
REMARK SMILES IDX 61 76 76 78 98 79 63 80 46 81 47 82 56 83 48 84 49 85 55 86
REMARK SMILES IDX 57 87 50 88 51 89 52 90 53 91 54 92 80 93 81 94 90 95 82 96
REMARK SMILES IDX 83 97 89 98 91 99 84 100 85 101 86 102 87 103 88 104 64 105
REMARK SMILES IDX 65 106 74 107 66 108 67 109 73 110 75 111 68 112 69 113
REMARK SMILES IDX 70 114 71 115 72 116
REMARK H PARENT 30 5 16 10 21 39 34 47 96 66 62 77
REMARK Flexibility Score: inf
ROOT
ATOM      1  C   UNL A   1      33.462  30.203  26.656  1.00  0.00     0.117 C 
ENDROOT
BRANCH   1   2
ATOM      2  N   UNL A   1      34.152  29.101  25.975  1.00  0.00    -0.354 N 
ATOM      3  C   UNL A   1      33.583  28.419  24.909  1.00  0.00     0.242 C 
ATOM      4  O   UNL A   1      34.287  28.104  23.943  1.00  0.00    -0.273 OA
ATOM      5  H   UNL A   1      35.047  28.834  26.285  1.00  0.00     0.163 HD
BRANCH   3   6
ATOM      6  C   UNL A   1      32.037  28.126  24.897  1.00  0.00     0.176 C 
BRANCH   6   7
ATOM      7  N   UNL A   1      31.668  27.139  25.941  1.00  0.00    -0.337 N 
ATOM      8  C   UNL A   1      31.430  25.769  25.862  1.00  0.00     0.293 C 
ATOM      9  O   UNL A   1      31.033  25.142  26.841  1.00  0.00    -0.265 OA
ATOM     10  H   UNL A   1      31.574  27.517  26.845  1.00  0.00     0.164 HD
BRANCH   8  11
ATOM     11  C   UNL A   1      31.658  25.002  24.555  1.00  0.00     0.252 C 
ATOM     12  O   UNL A   1      30.991  25.369  23.591  1.00  0.00    -0.283 OA
BRANCH  11  13
ATOM     13  C   UNL A   1      32.514  23.800  24.474  1.00  0.00     0.054 A 
ATOM     14  N   UNL A   1      33.458  21.771  24.125  1.00  0.00    -0.240 N 
ATOM     15  C   UNL A   1      32.239  22.445  24.218  1.00  0.00     0.117 A 
ATOM     16  C   UNL A   1      34.473  22.749  24.136  1.00  0.00     0.065 A 
ATOM     17  C   UNL A   1      33.908  23.846  24.773  1.00  0.00     0.012 A 
ATOM     18  C   UNL A   1      35.869  22.624  23.979  1.00  0.00     0.028 A 
ATOM     19  C   UNL A   1      34.758  24.735  25.462  1.00  0.00     0.011 A 
ATOM     20  C   UNL A   1      36.681  23.460  24.742  1.00  0.00     0.002 A 
ATOM     21  C   UNL A   1      36.130  24.474  25.513  1.00  0.00     0.001 A 
BRANCH  14  22
ATOM     22  S   UNL A   1      34.002  20.353  24.972  1.00  0.00     0.268 S 
ATOM     23  O   UNL A   1      33.525  20.591  26.326  1.00  0.00    -0.201 OA
ATOM     24  O   UNL A   1      35.430  20.386  24.665  1.00  0.00    -0.201 OA
BRANCH  22  25
ATOM     25  C   UNL A   1      33.699  18.645  24.726  1.00  0.00     0.088 A 
ATOM     26  C   UNL A   1      32.690  14.499  25.427  1.00  0.00     0.044 C 
ATOM     27  C   UNL A   1      33.012  15.929  25.102  1.00  0.00    -0.051 A 
ATOM     28  C   UNL A   1      32.399  16.897  25.880  1.00  0.00     0.005 A 
ATOM     29  C   UNL A   1      33.933  16.335  24.106  1.00  0.00     0.005 A 
ATOM     30  C   UNL A   1      32.729  18.221  25.678  1.00  0.00     0.022 A 
ATOM     31  C   UNL A   1      34.292  17.698  23.912  1.00  0.00     0.022 A 
ENDBRANCH  22  25
ENDBRANCH  14  22
ENDBRANCH  11  13
ENDBRANCH   8  11
ENDBRANCH   6   7
BRANCH   6  32
ATOM     32  C   UNL A   1      31.097  29.410  24.796  1.00  0.00     0.072 C 
BRANCH  32  33
ATOM     33  C   UNL A   1      29.902  29.516  23.819  1.00  0.00    -0.020 A 
ATOM     34  C   UNL A   1      29.478  28.494  22.969  1.00  0.00     0.087 A 
ATOM     35  C   UNL A   1      29.172  30.701  23.385  1.00  0.00     0.003 A 
ATOM     36  N   UNL A   1      28.649  29.024  22.006  1.00  0.00    -0.361 N 
ATOM     37  C   UNL A   1      28.524  30.383  22.182  1.00  0.00     0.046 A 
ATOM     38  C   UNL A   1      29.207  32.062  23.763  1.00  0.00     0.010 A 
ATOM     39  H   UNL A   1      28.209  28.505  21.295  1.00  0.00     0.166 HD
ATOM     40  C   UNL A   1      28.006  31.358  21.307  1.00  0.00     0.026 A 
ATOM     41  C   UNL A   1      28.742  33.048  22.879  1.00  0.00     0.001 A 
ATOM     42  C   UNL A   1      28.173  32.701  21.657  1.00  0.00     0.002 A 
ENDBRANCH  32  33
ENDBRANCH   6  32
ENDBRANCH   3   6
ENDBRANCH   1   2
BRANCH   1  43
ATOM     43  C   UNL A   1      34.147  31.191  27.639  1.00  0.00     0.042 C 
BRANCH  43  44
ATOM     44  C   UNL A   1      35.556  30.689  28.410  1.00  0.00     0.118 C 
BRANCH  44  45
ATOM     45  N   UNL A   1      36.945  29.646  28.293  1.00  0.00    -0.352 N 
ATOM     46  C   UNL A   1      38.017  28.644  28.857  1.00  0.00     0.251 C 
ATOM     47  H   UNL A   1      37.203  29.730  27.347  1.00  0.00     0.163 HD
ATOM     48  O   UNL A   1      38.246  27.765  27.991  1.00  0.00    -0.269 OA
BRANCH  46  49
ATOM     49  C   UNL A   1      38.861  28.268  30.330  1.00  0.00     0.039 A 
ATOM     50  C   UNL A   1      38.304  28.355  31.625  1.00  0.00     0.014 A 
ATOM     51  C   UNL A   1      40.214  28.009  30.486  1.00  0.00     0.014 A 
ATOM     52  C   UNL A   1      39.005  29.118  32.633  1.00  0.00     0.010 A 
ATOM     53  C   UNL A   1      40.924  28.854  31.395  1.00  0.00     0.010 A 
ATOM     54  C   UNL A   1      40.257  29.642  32.333  1.00  0.00    -0.014 A 
BRANCH  54  55
ATOM     55  C   UNL A   1      40.852  30.924  32.888  1.00  0.00     0.031 A 
ATOM     56  C   UNL A   1      41.919  30.802  33.861  1.00  0.00     0.074 A 
ATOM     57  C   UNL A   1      40.662  32.246  32.573  1.00  0.00     0.049 A 
ATOM     58  N   UNL A   1      41.821  31.174  35.092  1.00  0.00    -0.248 NA
ATOM     59  C   UNL A   1      43.215  30.277  33.464  1.00  0.00     0.031 C 
ATOM     60  C   UNL A   1      41.240  33.503  33.096  1.00  0.00     0.029 A 
ATOM     61  N   UNL A   1      39.828  32.789  31.615  1.00  0.00    -0.354 N 
ATOM     62  C   UNL A   1      43.120  31.203  35.544  1.00  0.00     0.074 A 
ATOM     63  C   UNL A   1      43.886  30.402  34.609  1.00  0.00     0.031 C 
ATOM     64  C   UNL A   1      40.413  34.533  32.792  1.00  0.00     0.029 A 
ATOM     65  C   UNL A   1      39.285  33.983  32.074  1.00  0.00     0.049 A 
ATOM     66  H   UNL A   1      39.645  32.387  30.735  1.00  0.00     0.167 HD
ATOM     67  C   UNL A   1      43.556  32.170  36.402  1.00  0.00     0.037 A 
ATOM     68  C   UNL A   1      37.949  33.977  32.375  1.00  0.00     0.037 A 
ATOM     69  C   UNL A   1      42.608  33.291  36.489  1.00  0.00     0.049 A 
ATOM     70  C   UNL A   1      37.722  34.053  33.861  1.00  0.00     0.074 A 
ATOM     71  C   UNL A   1      42.639  34.611  36.059  1.00  0.00     0.029 A 
ATOM     72  N   UNL A   1      41.287  33.054  36.820  1.00  0.00    -0.354 N 
ATOM     73  N   UNL A   1      38.680  34.277  34.709  1.00  0.00    -0.248 NA
ATOM     74  C   UNL A   1      36.444  33.808  34.525  1.00  0.00     0.031 C 
ATOM     75  C   UNL A   1      41.334  35.166  36.190  1.00  0.00     0.029 A 
ATOM     76  C   UNL A   1      40.507  34.188  36.704  1.00  0.00     0.049 A 
ATOM     77  H   UNL A   1      40.943  32.178  37.105  1.00  0.00     0.167 HD
ATOM     78  C   UNL A   1      38.234  34.074  35.981  1.00  0.00     0.074 A 
ATOM     79  C   UNL A   1      36.812  33.821  35.821  1.00  0.00     0.031 C 
ATOM     80  C   UNL A   1      39.093  34.089  37.041  1.00  0.00     0.037 A 
BRANCH  67  81
ATOM     81  C   UNL A   1      44.987  32.233  36.891  1.00  0.00     0.058 A 
ATOM     82  C   UNL A   1      45.436  31.438  37.962  1.00  0.00     0.135 A 
ATOM     83  C   UNL A   1      45.993  33.019  36.281  1.00  0.00     0.135 A 
ATOM     84  F   UNL A   1      44.646  30.529  38.545  1.00  0.00    -0.206 F 
ATOM     85  C   UNL A   1      46.737  31.503  38.461  1.00  0.00     0.059 A 
ATOM     86  C   UNL A   1      47.281  33.153  36.801  1.00  0.00     0.059 A 
ATOM     87  F   UNL A   1      45.781  33.644  35.111  1.00  0.00    -0.206 F 
ATOM     88  C   UNL A   1      47.647  32.383  37.893  1.00  0.00     0.060 A 
BRANCH  88  89
ATOM     89  S   UNL A   1      49.324  32.430  38.543  1.00  0.00     0.124 S 
ATOM     90  O   UNL A   1      49.150  31.889  39.888  1.00  0.00    -0.237 OA
ATOM     91  O   UNL A   1      50.036  31.572  37.601  1.00  0.00    -0.237 OA
ATOM     92  O   UNL A   1      49.674  33.846  38.486  1.00  0.00    -0.744 OA
ENDBRANCH  88  89
ENDBRANCH  67  81
BRANCH  68  93
ATOM     93  C   UNL A   1      37.121  33.155  31.393  1.00  0.00     0.058 A 
ATOM     94  C   UNL A   1      36.058  32.486  32.004  1.00  0.00     0.135 A 
ATOM     95  C   UNL A   1      36.715  33.784  30.237  1.00  0.00     0.135 A 
ATOM     96  F   UNL A   1      36.299  31.395  32.740  1.00  0.00    -0.206 F 
ATOM     97  C   UNL A   1      34.763  33.049  32.025  1.00  0.00     0.059 A 
ATOM     98  C   UNL A   1      35.364  34.155  30.099  1.00  0.00     0.059 A 
ATOM     99  F   UNL A   1      37.593  34.073  29.263  1.00  0.00    -0.206 F 
ATOM    100  C   UNL A   1      34.451  34.100  31.145  1.00  0.00     0.060 A 
BRANCH 100 101
ATOM    101  S   UNL A   1      33.092  35.695  31.566  1.00  0.00     0.124 S 
ATOM    102  O   UNL A   1      31.964  35.289  32.311  1.00  0.00    -0.237 OA
ATOM    103  O   UNL A   1      33.845  36.588  32.439  1.00  0.00    -0.237 OA
ATOM    104  O   UNL A   1      32.551  36.189  30.341  1.00  0.00    -0.744 OA
ENDBRANCH 100 101
ENDBRANCH  68  93
BRANCH  80 105
ATOM    105  C   UNL A   1      38.689  33.968  38.485  1.00  0.00     0.058 A 
ATOM    106  C   UNL A   1      38.048  32.831  39.001  1.00  0.00     0.135 A 
ATOM    107  C   UNL A   1      38.812  35.056  39.383  1.00  0.00     0.135 A 
ATOM    108  F   UNL A   1      37.747  31.788  38.214  1.00  0.00    -0.206 F 
ATOM    109  C   UNL A   1      37.656  32.742  40.337  1.00  0.00     0.059 A 
ATOM    110  C   UNL A   1      38.384  35.008  40.702  1.00  0.00     0.059 A 
ATOM    111  F   UNL A   1      39.366  36.223  39.030  1.00  0.00    -0.206 F 
ATOM    112  C   UNL A   1      37.840  33.834  41.182  1.00  0.00     0.060 A 
BRANCH 112 113
ATOM    113  S   UNL A   1      37.341  33.717  42.904  1.00  0.00     0.124 S 
ATOM    114  O   UNL A   1      37.061  35.108  43.242  1.00  0.00    -0.237 OA
ATOM    115  O   UNL A   1      36.177  32.841  42.808  1.00  0.00    -0.237 OA
ATOM    116  O   UNL A   1      38.509  33.140  43.563  1.00  0.00    -0.744 OA
ENDBRANCH 112 113
ENDBRANCH  80 105
ENDBRANCH  54  55
ENDBRANCH  46  49
ENDBRANCH  44  45
ENDBRANCH  43  44
ENDBRANCH   1  43
TORSDOF 20
ENDMDL
MODEL 2
REMARK VINA RESULT:     -15.2      1.194      2.691
REMARK SMILES Cc1ccc(S(=O)(=O)n2cc(C(=O)C(=O)N[C@@H](Cc3c[nH]c4ccccc34)C(=O)NCCCNC(=O)c3ccc(-c4c5nc(c(-c6c(F)cc(S(=O)(=O)[O-])cc6F)c6ccc([nH]6)c(-c6c(F)cc(S(=O)(=O)[O-])cc6F)c6nc(c(-c7c(F)cc(S(=O)(=O)[O-])cc7F)c7ccc4[nH]7)C=C6)C=C5)cc3)c3ccccc32)cc1
REMARK SMILES IDX 31 1 30 2 28 3 29 4 17 6 16 7 14 8 15 9 12 11 13 12 11 13
REMARK SMILES IDX 9 14 10 15 108 16 103 17 107 18 104 19 106 20 105 21 6 22
REMARK SMILES IDX 7 23 8 24 5 25 1 26 2 27 3 28 110 29 4 30 109 31 18 32 19 33
REMARK SMILES IDX 20 34 27 35 21 36 22 37 26 38 23 40 25 41 24 42 32 43 33 44
REMARK SMILES IDX 34 45 35 46 36 48 37 49 38 50 102 51 39 52 101 53 40 54
REMARK SMILES IDX 41 55 42 56 95 57 43 58 100 59 94 60 96 61 44 62 99 63 93 64
REMARK SMILES IDX 92 65 45 67 79 68 58 69 78 70 59 71 62 72 77 73 97 74 60 75
REMARK SMILES IDX 61 76 76 78 98 79 63 80 46 81 47 82 56 83 48 84 49 85 55 86
REMARK SMILES IDX 57 87 50 88 51 89 52 90 53 91 54 92 80 93 81 94 90 95 82 96
REMARK SMILES IDX 83 97 89 98 91 99 84 100 85 101 86 102 87 103 88 104 64 105
REMARK SMILES IDX 65 106 74 107 66 108 67 109 73 110 75 111 68 112 69 113
REMARK SMILES IDX 70 114 71 115 72 116
REMARK H PARENT 30 5 16 10 21 39 34 47 96 66 62 77
REMARK Flexibility Score: inf
ROOT
ATOM      1  C   UNL A   1      33.662  30.100  26.819  1.00  0.00     0.117 C 
ENDROOT
BRANCH   1   2
ATOM      2  N   UNL A   1      34.260  29.076  25.953  1.00  0.00    -0.354 N 
ATOM      3  C   UNL A   1      33.607  28.581  24.833  1.00  0.00     0.242 C 
ATOM      4  O   UNL A   1      34.247  28.377  23.797  1.00  0.00    -0.273 OA
ATOM      5  H   UNL A   1      35.154  28.728  26.174  1.00  0.00     0.163 HD
BRANCH   3   6
ATOM      6  C   UNL A   1      32.049  28.363  24.864  1.00  0.00     0.176 C 
BRANCH   6   7
ATOM      7  N   UNL A   1      31.646  27.511  26.010  1.00  0.00    -0.337 N 
ATOM      8  C   UNL A   1      31.444  26.137  26.102  1.00  0.00     0.293 C 
ATOM      9  O   UNL A   1      31.009  25.632  27.135  1.00  0.00    -0.265 OA
ATOM     10  H   UNL A   1      31.496  28.003  26.850  1.00  0.00     0.164 HD
BRANCH   8  11
ATOM     11  C   UNL A   1      31.758  25.211  24.922  1.00  0.00     0.252 C 
ATOM     12  O   UNL A   1      31.079  25.376  23.911  1.00  0.00    -0.283 OA
BRANCH  11  13
ATOM     13  C   UNL A   1      32.713  24.087  25.022  1.00  0.00     0.054 A 
ATOM     14  N   UNL A   1      34.303  22.574  25.575  1.00  0.00    -0.240 N 
ATOM     15  C   UNL A   1      33.880  23.887  25.780  1.00  0.00     0.117 A 
ATOM     16  C   UNL A   1      33.290  21.921  24.845  1.00  0.00     0.065 A 
ATOM     17  C   UNL A   1      32.612  22.937  24.184  1.00  0.00     0.012 A 
ATOM     18  C   UNL A   1      33.165  20.573  24.451  1.00  0.00     0.028 A 
ATOM     19  C   UNL A   1      31.967  22.635  22.967  1.00  0.00     0.011 A 
ATOM     20  C   UNL A   1      32.603  20.315  23.203  1.00  0.00     0.002 A 
ATOM     21  C   UNL A   1      32.053  21.340  22.447  1.00  0.00     0.001 A 
BRANCH  14  22
ATOM     22  S   UNL A   1      35.859  21.980  25.074  1.00  0.00     0.268 S 
ATOM     23  O   UNL A   1      35.970  22.493  23.716  1.00  0.00    -0.201 OA
ATOM     24  O   UNL A   1      35.697  20.549  25.322  1.00  0.00    -0.201 OA
BRANCH  22  25
ATOM     25  C   UNL A   1      37.470  22.200  25.727  1.00  0.00     0.088 A 
ATOM     26  C   UNL A   1      41.232  23.983  26.898  1.00  0.00     0.044 C 
ATOM     27  C   UNL A   1      39.934  23.308  26.557  1.00  0.00    -0.051 A 
ATOM     28  C   UNL A   1      38.804  24.108  26.538  1.00  0.00     0.005 A 
ATOM     29  C   UNL A   1      39.812  21.943  26.204  1.00  0.00     0.005 A 
ATOM     30  C   UNL A   1      37.603  23.553  26.148  1.00  0.00     0.022 A 
ATOM     31  C   UNL A   1      38.578  21.375  25.777  1.00  0.00     0.022 A 
ENDBRANCH  22  25
ENDBRANCH  14  22
ENDBRANCH  11  13
ENDBRANCH   8  11
ENDBRANCH   6   7
BRANCH   6  32
ATOM     32  C   UNL A   1      31.169  29.672  24.632  1.00  0.00     0.072 C 
BRANCH  32  33
ATOM     33  C   UNL A   1      29.920  29.708  23.719  1.00  0.00    -0.020 A 
ATOM     34  C   UNL A   1      29.470  28.638  22.946  1.00  0.00     0.087 A 
ATOM     35  C   UNL A   1      29.145  30.858  23.268  1.00  0.00     0.003 A 
ATOM     36  N   UNL A   1      28.579  29.104  22.006  1.00  0.00    -0.361 N 
ATOM     37  C   UNL A   1      28.438  30.468  22.120  1.00  0.00     0.046 A 
ATOM     38  C   UNL A   1      29.174  32.237  23.575  1.00  0.00     0.010 A 
ATOM     39  H   UNL A   1      28.111  28.543  21.347  1.00  0.00     0.166 HD
ATOM     40  C   UNL A   1      27.855  31.389  21.228  1.00  0.00     0.026 A 
ATOM     41  C   UNL A   1      28.643  33.169  22.670  1.00  0.00     0.001 A 
ATOM     42  C   UNL A   1      28.015  32.750  21.500  1.00  0.00     0.002 A 
ENDBRANCH  32  33
ENDBRANCH   6  32
ENDBRANCH   3   6
ENDBRANCH   1   2
BRANCH   1  43
ATOM     43  C   UNL A   1      34.470  31.033  27.760  1.00  0.00     0.042 C 
BRANCH  43  44
ATOM     44  C   UNL A   1      36.129  30.784  27.884  1.00  0.00     0.118 C 
BRANCH  44  45
ATOM     45  N   UNL A   1      37.384  29.580  27.961  1.00  0.00    -0.352 N 
ATOM     46  C   UNL A   1      38.293  28.523  28.688  1.00  0.00     0.251 C 
ATOM     47  H   UNL A   1      37.700  29.533  27.030  1.00  0.00     0.163 HD
ATOM     48  O   UNL A   1      38.457  27.538  27.929  1.00  0.00    -0.269 OA
BRANCH  46  49
ATOM     49  C   UNL A   1      39.005  28.207  30.243  1.00  0.00     0.039 A 
ATOM     50  C   UNL A   1      38.351  28.384  31.482  1.00  0.00     0.014 A 
ATOM     51  C   UNL A   1      40.332  27.918  30.521  1.00  0.00     0.014 A 
ATOM     52  C   UNL A   1      38.995  29.182  32.500  1.00  0.00     0.010 A 
ATOM     53  C   UNL A   1      40.996  28.793  31.437  1.00  0.00     0.010 A 
ATOM     54  C   UNL A   1      40.283  29.652  32.275  1.00  0.00    -0.014 A 
BRANCH  54  55
ATOM     55  C   UNL A   1      40.876  30.946  32.806  1.00  0.00     0.031 A 
ATOM     56  C   UNL A   1      41.918  30.846  33.806  1.00  0.00     0.074 A 
ATOM     57  C   UNL A   1      40.704  32.259  32.446  1.00  0.00     0.049 A 
ATOM     58  N   UNL A   1      41.794  31.254  35.023  1.00  0.00    -0.248 NA
ATOM     59  C   UNL A   1      43.219  30.299  33.457  1.00  0.00     0.031 C 
ATOM     60  C   UNL A   1      41.280  33.526  32.945  1.00  0.00     0.029 A 
ATOM     61  N   UNL A   1      39.898  32.779  31.453  1.00  0.00    -0.354 N 
ATOM     62  C   UNL A   1      43.082  31.288  35.505  1.00  0.00     0.074 A 
ATOM     63  C   UNL A   1      43.864  30.453  34.614  1.00  0.00     0.031 C 
ATOM     64  C   UNL A   1      40.468  34.554  32.591  1.00  0.00     0.029 A 
ATOM     65  C   UNL A   1      39.354  33.991  31.863  1.00  0.00     0.049 A 
ATOM     66  H   UNL A   1      39.732  32.352  30.581  1.00  0.00     0.167 HD
ATOM     67  C   UNL A   1      43.505  32.277  36.344  1.00  0.00     0.037 A 
ATOM     68  C   UNL A   1      38.010  34.003  32.132  1.00  0.00     0.037 A 
ATOM     69  C   UNL A   1      42.564  33.406  36.375  1.00  0.00     0.049 A 
ATOM     70  C   UNL A   1      37.749  34.126  33.608  1.00  0.00     0.074 A 
ATOM     71  C   UNL A   1      42.616  34.713  35.906  1.00  0.00     0.029 A 
ATOM     72  N   UNL A   1      41.234  33.190  36.681  1.00  0.00    -0.354 N 
ATOM     73  N   UNL A   1      38.688  34.367  34.472  1.00  0.00    -0.248 NA
ATOM     74  C   UNL A   1      36.453  33.910  34.248  1.00  0.00     0.031 C 
ATOM     75  C   UNL A   1      41.313  35.281  35.989  1.00  0.00     0.029 A 
ATOM     76  C   UNL A   1      40.466  34.325  36.513  1.00  0.00     0.049 A 
ATOM     77  H   UNL A   1      40.875  32.325  36.983  1.00  0.00     0.167 HD
ATOM     78  C   UNL A   1      38.210  34.206  35.738  1.00  0.00     0.074 A 
ATOM     79  C   UNL A   1      36.790  33.959  35.552  1.00  0.00     0.031 C 
ATOM     80  C   UNL A   1      39.044  34.247  36.818  1.00  0.00     0.037 A 
BRANCH  67  81
ATOM     81  C   UNL A   1      44.925  32.344  36.866  1.00  0.00     0.058 A 
ATOM     82  C   UNL A   1      45.333  31.604  37.991  1.00  0.00     0.135 A 
ATOM     83  C   UNL A   1      45.959  33.078  36.239  1.00  0.00     0.135 A 
ATOM     84  F   UNL A   1      44.512  30.742  38.604  1.00  0.00    -0.206 F 
ATOM     85  C   UNL A   1      46.621  31.675  38.519  1.00  0.00     0.059 A 
ATOM     86  C   UNL A   1      47.236  33.220  36.783  1.00  0.00     0.059 A 
ATOM     87  F   UNL A   1      45.787  33.639  35.031  1.00  0.00    -0.206 F 
ATOM     88  C   UNL A   1      47.561  32.507  37.926  1.00  0.00     0.060 A 
BRANCH  88  89
ATOM     89  S   UNL A   1      49.222  32.563  38.615  1.00  0.00     0.124 S 
ATOM     90  O   UNL A   1      49.107  31.682  39.773  1.00  0.00    -0.237 OA
ATOM     91  O   UNL A   1      50.025  32.056  37.508  1.00  0.00    -0.237 OA
ATOM     92  O   UNL A   1      49.414  33.976  38.930  1.00  0.00    -0.744 OA
ENDBRANCH  88  89
ENDBRANCH  67  81
BRANCH  68  93
ATOM     93  C   UNL A   1      37.200  33.158  31.154  1.00  0.00     0.058 A 
ATOM     94  C   UNL A   1      36.150  32.472  31.770  1.00  0.00     0.135 A 
ATOM     95  C   UNL A   1      36.781  33.771  29.994  1.00  0.00     0.135 A 
ATOM     96  F   UNL A   1      36.413  31.390  32.513  1.00  0.00    -0.206 F 
ATOM     97  C   UNL A   1      34.844  33.008  31.787  1.00  0.00     0.059 A 
ATOM     98  C   UNL A   1      35.423  34.114  29.853  1.00  0.00     0.059 A 
ATOM     99  F   UNL A   1      37.653  34.072  29.019  1.00  0.00    -0.206 F 
ATOM    100  C   UNL A   1      34.511  34.047  30.900  1.00  0.00     0.060 A 
BRANCH 100 101
ATOM    101  S   UNL A   1      33.120  35.616  31.310  1.00  0.00     0.124 S 
ATOM    102  O   UNL A   1      33.700  36.725  31.965  1.00  0.00    -0.237 OA
ATOM    103  O   UNL A   1      32.721  36.097  29.992  1.00  0.00    -0.237 OA
ATOM    104  O   UNL A   1      32.130  35.142  32.222  1.00  0.00    -0.744 OA
ENDBRANCH 100 101
ENDBRANCH  68  93
BRANCH  80 105
ATOM    105  C   UNL A   1      38.604  34.173  38.255  1.00  0.00     0.058 A 
ATOM    106  C   UNL A   1      38.830  35.211  39.172  1.00  0.00     0.135 A 
ATOM    107  C   UNL A   1      38.051  32.989  38.802  1.00  0.00     0.135 A 
ATOM    108  F   UNL A   1      39.473  36.330  38.807  1.00  0.00    -0.206 F 
ATOM    109  C   UNL A   1      38.438  35.120  40.507  1.00  0.00     0.059 A 
ATOM    110  C   UNL A   1      37.701  32.858  40.138  1.00  0.00     0.059 A 
ATOM    111  F   UNL A   1      37.811  31.898  38.063  1.00  0.00    -0.206 F 
ATOM    112  C   UNL A   1      37.863  33.942  40.977  1.00  0.00     0.060 A 
BRANCH 112 113
ATOM    113  S   UNL A   1      37.354  33.827  42.696  1.00  0.00     0.124 S 
ATOM    114  O   UNL A   1      38.365  32.940  43.262  1.00  0.00    -0.237 OA
ATOM    115  O   UNL A   1      37.430  35.224  43.113  1.00  0.00    -0.237 OA
ATOM    116  O   UNL A   1      36.007  33.267  42.619  1.00  0.00    -0.744 OA
ENDBRANCH 112 113
ENDBRANCH  80 105
ENDBRANCH  54  55
ENDBRANCH  46  49
ENDBRANCH  44  45
ENDBRANCH  43  44
ENDBRANCH   1  43
TORSDOF 20
ENDMDL
MODEL 3
REMARK VINA RESULT:     -14.6      5.648      8.161
REMARK SMILES Cc1ccc(S(=O)(=O)n2cc(C(=O)C(=O)N[C@@H](Cc3c[nH]c4ccccc34)C(=O)NCCCNC(=O)c3ccc(-c4c5nc(c(-c6c(F)cc(S(=O)(=O)[O-])cc6F)c6ccc([nH]6)c(-c6c(F)cc(S(=O)(=O)[O-])cc6F)c6nc(c(-c7c(F)cc(S(=O)(=O)[O-])cc7F)c7ccc4[nH]7)C=C6)C=C5)cc3)c3ccccc32)cc1
REMARK SMILES IDX 31 1 30 2 28 3 29 4 17 6 16 7 14 8 15 9 12 11 13 12 11 13
REMARK SMILES IDX 9 14 10 15 108 16 103 17 107 18 104 19 106 20 105 21 6 22
REMARK SMILES IDX 7 23 8 24 5 25 1 26 2 27 3 28 110 29 4 30 109 31 18 32 19 33
REMARK SMILES IDX 20 34 27 35 21 36 22 37 26 38 23 40 25 41 24 42 32 43 33 44
REMARK SMILES IDX 34 45 35 46 36 48 37 49 38 50 102 51 39 52 101 53 40 54
REMARK SMILES IDX 41 55 42 56 95 57 43 58 100 59 94 60 96 61 44 62 99 63 93 64
REMARK SMILES IDX 92 65 45 67 79 68 58 69 78 70 59 71 62 72 77 73 97 74 60 75
REMARK SMILES IDX 61 76 76 78 98 79 63 80 46 81 47 82 56 83 48 84 49 85 55 86
REMARK SMILES IDX 57 87 50 88 51 89 52 90 53 91 54 92 80 93 81 94 90 95 82 96
REMARK SMILES IDX 83 97 89 98 91 99 84 100 85 101 86 102 87 103 88 104 64 105
REMARK SMILES IDX 65 106 74 107 66 108 67 109 73 110 75 111 68 112 69 113
REMARK SMILES IDX 70 114 71 115 72 116
REMARK H PARENT 30 5 16 10 21 39 34 47 96 66 62 77
REMARK Flexibility Score: inf
ROOT
ATOM      1  C   UNL A   1      33.256  28.285  25.510  1.00  0.00     0.117 C 
ENDROOT
BRANCH   1   2
ATOM      2  N   UNL A   1      33.343  27.050  24.722  1.00  0.00    -0.354 N 
ATOM      3  C   UNL A   1      32.274  26.570  23.979  1.00  0.00     0.242 C 
ATOM      4  O   UNL A   1      32.478  26.094  22.858  1.00  0.00    -0.273 OA
ATOM      5  H   UNL A   1      34.187  26.543  24.721  1.00  0.00     0.163 HD
BRANCH   3   6
ATOM      6  C   UNL A   1      30.807  26.710  24.531  1.00  0.00     0.176 C 
BRANCH   6   7
ATOM      7  N   UNL A   1      30.632  25.954  25.796  1.00  0.00    -0.337 N 
ATOM      8  C   UNL A   1      30.847  24.611  26.096  1.00  0.00     0.293 C 
ATOM      9  O   UNL A   1      30.543  24.156  27.196  1.00  0.00    -0.265 OA
ATOM     10  H   UNL A   1      30.308  26.495  26.552  1.00  0.00     0.164 HD
BRANCH   8  11
ATOM     11  C   UNL A   1      31.472  23.663  25.068  1.00  0.00     0.252 C 
ATOM     12  O   UNL A   1      30.749  23.329  24.132  1.00  0.00    -0.283 OA
BRANCH  11  13
ATOM     13  C   UNL A   1      32.808  23.057  25.250  1.00  0.00     0.054 A 
ATOM     14  N   UNL A   1      34.924  22.488  25.824  1.00  0.00    -0.240 N 
ATOM     15  C   UNL A   1      34.020  23.550  25.765  1.00  0.00     0.117 A 
ATOM     16  C   UNL A   1      34.203  21.315  25.523  1.00  0.00     0.065 A 
ATOM     17  C   UNL A   1      33.111  21.744  24.781  1.00  0.00     0.012 A 
ATOM     18  C   UNL A   1      34.607  19.964  25.529  1.00  0.00     0.028 A 
ATOM     19  C   UNL A   1      32.536  20.853  23.852  1.00  0.00     0.011 A 
ATOM     20  C   UNL A   1      34.086  19.130  24.541  1.00  0.00     0.002 A 
ATOM     21  C   UNL A   1      33.096  19.583  23.681  1.00  0.00     0.001 A 
BRANCH  14  22
ATOM     22  S   UNL A   1      36.532  22.370  25.173  1.00  0.00     0.268 S 
ATOM     23  O   UNL A   1      37.091  23.680  25.476  1.00  0.00    -0.201 OA
ATOM     24  O   UNL A   1      36.240  21.983  23.795  1.00  0.00    -0.201 OA
BRANCH  22  25
ATOM     25  C   UNL A   1      37.859  21.274  25.501  1.00  0.00     0.088 A 
ATOM     26  C   UNL A   1      41.814  19.714  26.287  1.00  0.00     0.044 C 
ATOM     27  C   UNL A   1      40.408  20.189  26.058  1.00  0.00    -0.051 A 
ATOM     28  C   UNL A   1      40.103  21.464  26.504  1.00  0.00     0.005 A 
ATOM     29  C   UNL A   1      39.415  19.447  25.376  1.00  0.00     0.005 A 
ATOM     30  C   UNL A   1      38.850  21.978  26.241  1.00  0.00     0.022 A 
ATOM     31  C   UNL A   1      38.130  19.985  25.083  1.00  0.00     0.022 A 
ENDBRANCH  22  25
ENDBRANCH  14  22
ENDBRANCH  11  13
ENDBRANCH   8  11
ENDBRANCH   6   7
BRANCH   6  32
ATOM     32  C   UNL A   1      30.209  28.188  24.520  1.00  0.00     0.072 C 
BRANCH  32  33
ATOM     33  C   UNL A   1      29.984  29.006  23.226  1.00  0.00    -0.020 A 
ATOM     34  C   UNL A   1      30.886  29.078  22.165  1.00  0.00     0.087 A 
ATOM     35  C   UNL A   1      28.989  30.036  22.952  1.00  0.00     0.003 A 
ATOM     36  N   UNL A   1      30.553  30.145  21.361  1.00  0.00    -0.361 N 
ATOM     37  C   UNL A   1      29.457  30.801  21.874  1.00  0.00     0.046 A 
ATOM     38  C   UNL A   1      27.877  30.535  23.667  1.00  0.00     0.010 A 
ATOM     39  H   UNL A   1      31.030  30.401  20.539  1.00  0.00     0.166 HD
ATOM     40  C   UNL A   1      28.937  32.069  21.547  1.00  0.00     0.026 A 
ATOM     41  C   UNL A   1      27.381  31.818  23.388  1.00  0.00     0.001 A 
ATOM     42  C   UNL A   1      27.921  32.583  22.358  1.00  0.00     0.002 A 
ENDBRANCH  32  33
ENDBRANCH   6  32
ENDBRANCH   3   6
ENDBRANCH   1   2
BRANCH   1  43
ATOM     43  C   UNL A   1      33.493  28.367  27.042  1.00  0.00     0.042 C 
BRANCH  43  44
ATOM     44  C   UNL A   1      34.608  29.492  27.610  1.00  0.00     0.118 C 
BRANCH  44  45
ATOM     45  N   UNL A   1      36.209  29.703  28.261  1.00  0.00    -0.352 N 
ATOM     46  C   UNL A   1      37.778  29.635  28.214  1.00  0.00     0.251 C 
ATOM     47  H   UNL A   1      36.034  30.070  29.157  1.00  0.00     0.163 HD
ATOM     48  O   UNL A   1      38.246  30.648  28.787  1.00  0.00    -0.269 OA
BRANCH  46  49
ATOM     49  C   UNL A   1      39.062  28.706  27.498  1.00  0.00     0.039 A 
ATOM     50  C   UNL A   1      39.488  27.436  27.945  1.00  0.00     0.014 A 
ATOM     51  C   UNL A   1      39.963  29.120  26.528  1.00  0.00     0.014 A 
ATOM     52  C   UNL A   1      40.891  27.232  28.226  1.00  0.00     0.010 A 
ATOM     53  C   UNL A   1      41.350  29.029  26.868  1.00  0.00     0.010 A 
ATOM     54  C   UNL A   1      41.792  28.250  27.937  1.00  0.00    -0.014 A 
BRANCH  54  55
ATOM     55  C   UNL A   1      43.079  28.552  28.685  1.00  0.00     0.031 A 
ATOM     56  C   UNL A   1      44.270  27.830  28.287  1.00  0.00     0.074 A 
ATOM     57  C   UNL A   1      43.400  29.487  29.636  1.00  0.00     0.049 A 
ATOM     58  N   UNL A   1      44.887  26.983  29.039  1.00  0.00    -0.248 NA
ATOM     59  C   UNL A   1      44.873  28.073  26.986  1.00  0.00     0.031 C 
ATOM     60  C   UNL A   1      44.649  29.799  30.364  1.00  0.00     0.029 A 
ATOM     61  N   UNL A   1      42.590  30.454  30.198  1.00  0.00    -0.354 N 
ATOM     62  C   UNL A   1      46.108  26.810  28.428  1.00  0.00     0.074 A 
ATOM     63  C   UNL A   1      45.942  27.279  27.065  1.00  0.00     0.031 C 
ATOM     64  C   UNL A   1      44.345  30.478  31.498  1.00  0.00     0.029 A 
ATOM     65  C   UNL A   1      42.907  30.623  31.541  1.00  0.00     0.049 A 
ATOM     66  H   UNL A   1      41.889  30.950  29.717  1.00  0.00     0.167 HD
ATOM     67  C   UNL A   1      47.255  26.668  29.151  1.00  0.00     0.037 A 
ATOM     68  C   UNL A   1      41.989  30.173  32.452  1.00  0.00     0.037 A 
ATOM     69  C   UNL A   1      47.064  27.050  30.558  1.00  0.00     0.049 A 
ATOM     70  C   UNL A   1      42.478  28.939  33.160  1.00  0.00     0.074 A 
ATOM     71  C   UNL A   1      47.509  28.113  31.334  1.00  0.00     0.029 A 
ATOM     72  N   UNL A   1      46.065  26.456  31.306  1.00  0.00    -0.354 N 
ATOM     73  N   UNL A   1      43.690  28.487  33.031  1.00  0.00    -0.248 NA
ATOM     74  C   UNL A   1      41.651  28.068  33.990  1.00  0.00     0.031 C 
ATOM     75  C   UNL A   1      46.799  28.107  32.569  1.00  0.00     0.029 A 
ATOM     76  C   UNL A   1      45.925  27.039  32.550  1.00  0.00     0.049 A 
ATOM     77  H   UNL A   1      45.516  25.704  30.987  1.00  0.00     0.167 HD
ATOM     78  C   UNL A   1      43.790  27.252  33.599  1.00  0.00     0.074 A 
ATOM     79  C   UNL A   1      42.495  27.045  34.225  1.00  0.00     0.031 C 
ATOM     80  C   UNL A   1      44.919  26.499  33.454  1.00  0.00     0.037 A 
BRANCH  67  81
ATOM     81  C   UNL A   1      48.610  26.501  28.497  1.00  0.00     0.058 A 
ATOM     82  C   UNL A   1      48.978  25.301  27.860  1.00  0.00     0.135 A 
ATOM     83  C   UNL A   1      49.571  27.535  28.403  1.00  0.00     0.135 A 
ATOM     84  F   UNL A   1      48.122  24.281  27.727  1.00  0.00    -0.206 F 
ATOM     85  C   UNL A   1      50.233  25.103  27.283  1.00  0.00     0.059 A 
ATOM     86  C   UNL A   1      50.856  27.343  27.893  1.00  0.00     0.059 A 
ATOM     87  F   UNL A   1      49.276  28.799  28.748  1.00  0.00    -0.206 F 
ATOM     88  C   UNL A   1      51.177  26.119  27.327  1.00  0.00     0.060 A 
BRANCH  88  89
ATOM     89  S   UNL A   1      52.779  25.843  26.557  1.00  0.00     0.124 S 
ATOM     90  O   UNL A   1      52.631  24.500  26.005  1.00  0.00    -0.237 OA
ATOM     91  O   UNL A   1      52.835  26.928  25.582  1.00  0.00    -0.237 OA
ATOM     92  O   UNL A   1      53.718  25.955  27.670  1.00  0.00    -0.744 OA
ENDBRANCH  88  89
ENDBRANCH  67  81
BRANCH  68  93
ATOM     93  C   UNL A   1      40.548  30.438  32.026  1.00  0.00     0.058 A 
ATOM     94  C   UNL A   1      39.666  29.437  32.439  1.00  0.00     0.135 A 
ATOM     95  C   UNL A   1      40.039  31.691  32.290  1.00  0.00     0.135 A 
ATOM     96  F   UNL A   1      39.656  28.261  31.800  1.00  0.00    -0.206 F 
ATOM     97  C   UNL A   1      38.928  29.569  33.636  1.00  0.00     0.059 A 
ATOM     98  C   UNL A   1      39.101  31.843  33.329  1.00  0.00     0.059 A 
ATOM     99  F   UNL A   1      40.448  32.763  31.594  1.00  0.00    -0.206 F 
ATOM    100  C   UNL A   1      38.804  30.833  34.237  1.00  0.00     0.060 A 
BRANCH 100 101
ATOM    101  S   UNL A   1      38.664  31.187  36.340  1.00  0.00     0.124 S 
ATOM    102  O   UNL A   1      37.705  32.165  36.682  1.00  0.00    -0.237 OA
ATOM    103  O   UNL A   1      38.161  29.930  36.883  1.00  0.00    -0.237 OA
ATOM    104  O   UNL A   1      39.901  31.720  36.812  1.00  0.00    -0.744 OA
ENDBRANCH 100 101
ENDBRANCH  68  93
BRANCH  80 105
ATOM    105  C   UNL A   1      45.162  25.169  34.115  1.00  0.00     0.058 A 
ATOM    106  C   UNL A   1      45.875  25.038  35.317  1.00  0.00     0.135 A 
ATOM    107  C   UNL A   1      44.798  23.952  33.489  1.00  0.00     0.135 A 
ATOM    108  F   UNL A   1      46.395  26.109  35.935  1.00  0.00    -0.206 F 
ATOM    109  C   UNL A   1      46.115  23.797  35.906  1.00  0.00     0.059 A 
ATOM    110  C   UNL A   1      45.071  22.705  34.032  1.00  0.00     0.059 A 
ATOM    111  F   UNL A   1      44.148  23.910  32.319  1.00  0.00    -0.206 F 
ATOM    112  C   UNL A   1      45.697  22.636  35.260  1.00  0.00     0.060 A 
BRANCH 112 113
ATOM    113  S   UNL A   1      46.001  21.038  36.022  1.00  0.00     0.124 S 
ATOM    114  O   UNL A   1      47.443  20.884  35.861  1.00  0.00    -0.237 OA
ATOM    115  O   UNL A   1      45.537  21.276  37.386  1.00  0.00    -0.237 OA
ATOM    116  O   UNL A   1      45.185  20.120  35.233  1.00  0.00    -0.744 OA
ENDBRANCH 112 113
ENDBRANCH  80 105
ENDBRANCH  54  55
ENDBRANCH  46  49
ENDBRANCH  44  45
ENDBRANCH  43  44
ENDBRANCH   1  43
TORSDOF 20
ENDMDL
