MODEL 1
REMARK VINA RESULT:     -13.1      0.000      0.000
REMARK SMILES O=C(NCCCNC(=O)[C@@]1(Cl)C=CC=C(c2ccccc2)[C@H]1Cl)c1ccc(-c2c3nc(c(-c4c(F)cc(S(=O)(=O)[O-])cc4F)c4ccc([nH]4)c(-c4c(F)cc(S(=O)(=O)[O-])cc4F)c4nc(c(-c5c(F)cc(S(=O)(=O)[O-])cc5F)c5ccc2[nH]5)C=C4)C=C3)cc1
REMARK SMILES IDX 4 1 3 2 1 3 2 4 24 6 25 7 89 8 26 9 88 10 27 11 28 12 29 13
REMARK SMILES IDX 82 14 30 15 87 16 81 17 83 18 31 19 86 20 80 21 79 22 32 24
REMARK SMILES IDX 66 25 45 26 65 27 46 28 49 29 64 30 84 31 47 32 48 33 63 35
REMARK SMILES IDX 85 36 50 37 33 38 34 39 43 40 35 41 36 42 42 43 44 44 37 45
REMARK SMILES IDX 38 46 39 47 40 48 41 49 67 50 68 51 77 52 69 53 70 54 76 55
REMARK SMILES IDX 78 56 71 57 72 58 73 59 74 60 75 61 51 62 52 63 61 64 53 65
REMARK SMILES IDX 54 66 60 67 62 68 55 69 56 70 57 71 58 72 59 73 5 74 6 75
REMARK SMILES IDX 7 76 8 77 9 79 10 80 11 81 12 82 22 83 13 84 15 85 23 86
REMARK SMILES IDX 14 87 16 88 17 89 21 90 18 91 20 92 19 93
REMARK H PARENT 3 5 83 23 49 34 7 78
REMARK Flexibility Score: inf
ROOT
ATOM      1  C   UNL A   1      40.065  23.281  26.920  1.00  0.00     0.118 C 
ENDROOT
BRANCH   1   2
ATOM      2  N   UNL A   1      40.908  24.005  25.979  1.00  0.00    -0.352 N 
ATOM      3  O   UNL A   1      41.913  25.770  25.020  1.00  0.00    -0.269 OA
ATOM      4  C   UNL A   1      41.388  25.293  26.021  1.00  0.00     0.251 C 
ATOM      5  H   UNL A   1      41.177  23.489  25.186  1.00  0.00     0.163 HD
BRANCH   4   6
ATOM      6  C   UNL A   1      41.255  26.107  27.250  1.00  0.00     0.039 A 
ATOM      7  C   UNL A   1      40.243  25.850  28.175  1.00  0.00     0.014 A 
ATOM      8  C   UNL A   1      42.177  27.130  27.497  1.00  0.00     0.014 A 
ATOM      9  C   UNL A   1      40.043  26.719  29.241  1.00  0.00     0.010 A 
ATOM     10  C   UNL A   1      42.036  27.939  28.630  1.00  0.00     0.010 A 
ATOM     11  C   UNL A   1      40.940  27.770  29.490  1.00  0.00    -0.014 A 
BRANCH  11  12
ATOM     12  C   UNL A   1      40.722  28.644  30.673  1.00  0.00     0.031 A 
ATOM     13  C   UNL A   1      41.620  28.561  31.879  1.00  0.00     0.074 A 
ATOM     14  C   UNL A   1      39.731  29.557  30.629  1.00  0.00     0.049 A 
ATOM     15  N   UNL A   1      41.604  29.289  32.968  1.00  0.00    -0.248 NA
ATOM     16  C   UNL A   1      42.663  27.524  31.871  1.00  0.00     0.031 C 
ATOM     17  C   UNL A   1      38.784  29.720  29.522  1.00  0.00     0.029 A 
ATOM     18  N   UNL A   1      39.371  30.539  31.516  1.00  0.00    -0.354 N 
ATOM     19  C   UNL A   1      42.611  28.784  33.783  1.00  0.00     0.074 A 
ATOM     20  C   UNL A   1      43.204  27.672  33.073  1.00  0.00     0.031 C 
ATOM     21  C   UNL A   1      37.997  30.778  29.766  1.00  0.00     0.029 A 
ATOM     22  C   UNL A   1      38.339  31.331  31.071  1.00  0.00     0.049 A 
ATOM     23  H   UNL A   1      39.809  30.665  32.390  1.00  0.00     0.167 HD
ATOM     24  C   UNL A   1      43.008  29.213  35.005  1.00  0.00     0.037 A 
ATOM     25  C   UNL A   1      37.729  32.383  31.647  1.00  0.00     0.037 A 
ATOM     26  C   UNL A   1      42.431  30.342  35.692  1.00  0.00     0.049 A 
ATOM     27  C   UNL A   1      38.197  32.846  32.998  1.00  0.00     0.074 A 
ATOM     28  C   UNL A   1      42.791  30.882  36.915  1.00  0.00     0.029 A 
ATOM     29  N   UNL A   1      41.374  31.105  35.217  1.00  0.00    -0.354 N 
ATOM     30  N   UNL A   1      39.170  32.373  33.738  1.00  0.00    -0.248 NA
ATOM     31  C   UNL A   1      37.483  33.983  33.591  1.00  0.00     0.031 C 
ATOM     32  C   UNL A   1      41.925  31.945  37.198  1.00  0.00     0.029 A 
ATOM     33  C   UNL A   1      41.057  32.099  36.129  1.00  0.00     0.049 A 
ATOM     34  H   UNL A   1      40.916  30.961  34.358  1.00  0.00     0.167 HD
ATOM     35  C   UNL A   1      39.200  33.168  34.877  1.00  0.00     0.074 A 
ATOM     36  C   UNL A   1      38.157  34.162  34.719  1.00  0.00     0.031 C 
ATOM     37  C   UNL A   1      40.018  33.083  35.955  1.00  0.00     0.037 A 
BRANCH  24  38
ATOM     38  C   UNL A   1      44.107  28.450  35.695  1.00  0.00     0.058 A 
ATOM     39  C   UNL A   1      45.463  28.752  35.489  1.00  0.00     0.135 A 
ATOM     40  C   UNL A   1      43.797  27.424  36.603  1.00  0.00     0.135 A 
ATOM     41  F   UNL A   1      45.819  29.712  34.622  1.00  0.00    -0.206 F 
ATOM     42  C   UNL A   1      46.472  28.045  36.137  1.00  0.00     0.059 A 
ATOM     43  C   UNL A   1      44.790  26.722  37.282  1.00  0.00     0.059 A 
ATOM     44  F   UNL A   1      42.518  27.095  36.840  1.00  0.00    -0.206 F 
ATOM     45  C   UNL A   1      46.125  27.029  37.029  1.00  0.00     0.060 A 
BRANCH  45  46
ATOM     46  S   UNL A   1      47.445  26.118  37.860  1.00  0.00     0.124 S 
ATOM     47  O   UNL A   1      48.314  25.780  36.738  1.00  0.00    -0.237 OA
ATOM     48  O   UNL A   1      47.973  27.110  38.792  1.00  0.00    -0.237 OA
ATOM     49  O   UNL A   1      46.748  24.994  38.476  1.00  0.00    -0.744 OA
ENDBRANCH  45  46
ENDBRANCH  24  38
BRANCH  25  50
ATOM     50  C   UNL A   1      36.620  33.074  30.939  1.00  0.00     0.058 A 
ATOM     51  C   UNL A   1      35.293  32.946  31.375  1.00  0.00     0.135 A 
ATOM     52  C   UNL A   1      36.868  33.900  29.832  1.00  0.00     0.135 A 
ATOM     53  F   UNL A   1      35.006  32.166  32.429  1.00  0.00    -0.206 F 
ATOM     54  C   UNL A   1      34.249  33.601  30.731  1.00  0.00     0.059 A 
ATOM     55  C   UNL A   1      35.845  34.587  29.188  1.00  0.00     0.059 A 
ATOM     56  F   UNL A   1      38.124  34.071  29.388  1.00  0.00    -0.206 F 
ATOM     57  C   UNL A   1      34.536  34.422  29.638  1.00  0.00     0.060 A 
BRANCH  57  58
ATOM     58  S   UNL A   1      33.182  35.310  28.839  1.00  0.00     0.124 S 
ATOM     59  O   UNL A   1      32.437  35.806  29.990  1.00  0.00    -0.237 OA
ATOM     60  O   UNL A   1      33.894  36.316  28.056  1.00  0.00    -0.237 OA
ATOM     61  O   UNL A   1      32.520  34.272  28.055  1.00  0.00    -0.744 OA
ENDBRANCH  57  58
ENDBRANCH  25  50
BRANCH  37  62
ATOM     62  C   UNL A   1      39.838  34.117  37.030  1.00  0.00     0.058 A 
ATOM     63  C   UNL A   1      39.053  33.871  38.168  1.00  0.00     0.135 A 
ATOM     64  C   UNL A   1      40.477  35.363  36.929  1.00  0.00     0.135 A 
ATOM     65  F   UNL A   1      38.414  32.699  38.309  1.00  0.00    -0.206 F 
ATOM     66  C   UNL A   1      38.881  34.838  39.153  1.00  0.00     0.059 A 
ATOM     67  C   UNL A   1      40.341  36.335  37.915  1.00  0.00     0.059 A 
ATOM     68  F   UNL A   1      41.248  35.644  35.867  1.00  0.00    -0.206 F 
ATOM     69  C   UNL A   1      39.526  36.069  39.016  1.00  0.00     0.060 A 
BRANCH  69  70
ATOM     70  S   UNL A   1      39.306  37.313  40.305  1.00  0.00     0.124 S 
ATOM     71  O   UNL A   1      38.531  38.330  39.602  1.00  0.00    -0.237 OA
ATOM     72  O   UNL A   1      38.592  36.573  41.340  1.00  0.00    -0.237 OA
ATOM     73  O   UNL A   1      40.675  37.692  40.646  1.00  0.00    -0.744 OA
ENDBRANCH  69  70
ENDBRANCH  37  62
ENDBRANCH  11  12
ENDBRANCH   4   6
ENDBRANCH   1   2
BRANCH   1  74
ATOM     74  C   UNL A   1      38.852  22.644  26.255  1.00  0.00     0.042 C 
BRANCH  74  75
ATOM     75  C   UNL A   1      37.793  23.645  25.805  1.00  0.00     0.117 C 
BRANCH  75  76
ATOM     76  N   UNL A   1      37.265  23.362  24.479  1.00  0.00    -0.354 N 
ATOM     77  C   UNL A   1      36.061  22.907  24.020  1.00  0.00     0.247 C 
ATOM     78  H   UNL A   1      37.913  23.536  23.759  1.00  0.00     0.163 HD
ATOM     79  O   UNL A   1      35.937  23.007  22.790  1.00  0.00    -0.273 OA
BRANCH  77  80
ATOM     80  C   UNL A   1      34.865  22.479  24.917  1.00  0.00     0.161 C 
ATOM     81  Cl  UNL A   1      34.928  23.197  26.568  1.00  0.00    -0.102 Cl
ATOM     82  C   UNL A   1      33.660  23.084  24.212  1.00  0.00     0.008 C 
ATOM     83  C   UNL A   1      34.749  20.923  25.128  1.00  0.00     0.146 C 
ATOM     84  C   UNL A   1      32.716  22.349  23.611  1.00  0.00    -0.002 C 
ATOM     85  C   UNL A   1      33.655  20.215  24.338  1.00  0.00    -0.020 C 
ATOM     86  Cl  UNL A   1      36.323  20.045  25.030  1.00  0.00    -0.115 Cl
ATOM     87  C   UNL A   1      32.733  20.909  23.643  1.00  0.00     0.006 C 
BRANCH  85  88
ATOM     88  C   UNL A   1      33.478  18.755  24.501  1.00  0.00    -0.021 A 
ATOM     89  C   UNL A   1      32.813  18.229  25.617  1.00  0.00     0.008 A 
ATOM     90  C   UNL A   1      33.962  17.866  23.529  1.00  0.00     0.008 A 
ATOM     91  C   UNL A   1      32.626  16.850  25.748  1.00  0.00     0.001 A 
ATOM     92  C   UNL A   1      33.771  16.489  23.658  1.00  0.00     0.001 A 
ATOM     93  C   UNL A   1      33.099  15.982  24.767  1.00  0.00     0.000 A 
ENDBRANCH  85  88
ENDBRANCH  77  80
ENDBRANCH  75  76
ENDBRANCH  74  75
ENDBRANCH   1  74
TORSDOF 14
ENDMDL
MODEL 2
REMARK VINA RESULT:     -12.8      7.359     12.837
REMARK SMILES O=C(NCCCNC(=O)[C@@]1(Cl)C=CC=C(c2ccccc2)[C@H]1Cl)c1ccc(-c2c3nc(c(-c4c(F)cc(S(=O)(=O)[O-])cc4F)c4ccc([nH]4)c(-c4c(F)cc(S(=O)(=O)[O-])cc4F)c4nc(c(-c5c(F)cc(S(=O)(=O)[O-])cc5F)c5ccc2[nH]5)C=C4)C=C3)cc1
REMARK SMILES IDX 4 1 3 2 1 3 2 4 24 6 25 7 89 8 26 9 88 10 27 11 28 12 29 13
REMARK SMILES IDX 82 14 30 15 87 16 81 17 83 18 31 19 86 20 80 21 79 22 32 24
REMARK SMILES IDX 66 25 45 26 65 27 46 28 49 29 64 30 84 31 47 32 48 33 63 35
REMARK SMILES IDX 85 36 50 37 33 38 34 39 43 40 35 41 36 42 42 43 44 44 37 45
REMARK SMILES IDX 38 46 39 47 40 48 41 49 67 50 68 51 77 52 69 53 70 54 76 55
REMARK SMILES IDX 78 56 71 57 72 58 73 59 74 60 75 61 51 62 52 63 61 64 53 65
REMARK SMILES IDX 54 66 60 67 62 68 55 69 56 70 57 71 58 72 59 73 5 74 6 75
REMARK SMILES IDX 7 76 8 77 9 79 10 80 11 81 12 82 22 83 13 84 15 85 23 86
REMARK SMILES IDX 14 87 16 88 17 89 21 90 18 91 20 92 19 93
REMARK H PARENT 3 5 83 23 49 34 7 78
REMARK Flexibility Score: inf
ROOT
ATOM      1  C   UNL A   1      35.559  31.160  28.342  1.00  0.00     0.118 C 
ENDROOT
BRANCH   1   2
ATOM      2  N   UNL A   1      35.550  30.934  29.779  1.00  0.00    -0.352 N 
ATOM      3  O   UNL A   1      36.139  30.017  31.744  1.00  0.00    -0.269 OA
ATOM      4  C   UNL A   1      36.445  30.266  30.583  1.00  0.00     0.251 C 
ATOM      5  H   UNL A   1      34.781  31.324  30.253  1.00  0.00     0.163 HD
BRANCH   4   6
ATOM      6  C   UNL A   1      37.755  29.828  30.049  1.00  0.00     0.039 A 
ATOM      7  C   UNL A   1      38.729  29.291  30.891  1.00  0.00     0.014 A 
ATOM      8  C   UNL A   1      38.004  29.931  28.677  1.00  0.00     0.014 A 
ATOM      9  C   UNL A   1      40.002  29.030  30.397  1.00  0.00     0.010 A 
ATOM     10  C   UNL A   1      39.254  29.566  28.164  1.00  0.00     0.010 A 
ATOM     11  C   UNL A   1      40.280  29.154  29.027  1.00  0.00    -0.014 A 
BRANCH  11  12
ATOM     12  C   UNL A   1      41.640  28.812  28.531  1.00  0.00     0.031 A 
ATOM     13  C   UNL A   1      42.748  29.831  28.529  1.00  0.00     0.074 A 
ATOM     14  C   UNL A   1      41.883  27.548  28.127  1.00  0.00     0.049 A 
ATOM     15  N   UNL A   1      44.003  29.681  28.186  1.00  0.00    -0.248 NA
ATOM     16  C   UNL A   1      42.407  31.197  28.956  1.00  0.00     0.031 C 
ATOM     17  C   UNL A   1      40.884  26.477  28.066  1.00  0.00     0.029 A 
ATOM     18  N   UNL A   1      43.043  26.940  27.722  1.00  0.00    -0.354 N 
ATOM     19  C   UNL A   1      44.593  30.933  28.329  1.00  0.00     0.074 A 
ATOM     20  C   UNL A   1      43.553  31.837  28.768  1.00  0.00     0.031 C 
ATOM     21  C   UNL A   1      41.486  25.332  27.713  1.00  0.00     0.029 A 
ATOM     22  C   UNL A   1      42.897  25.597  27.461  1.00  0.00     0.049 A 
ATOM     23  H   UNL A   1      43.899  27.417  27.625  1.00  0.00     0.167 HD
ATOM     24  C   UNL A   1      45.884  31.290  28.120  1.00  0.00     0.037 A 
ATOM     25  C   UNL A   1      43.796  24.679  27.060  1.00  0.00     0.037 A 
ATOM     26  C   UNL A   1      46.920  30.375  27.711  1.00  0.00     0.049 A 
ATOM     27  C   UNL A   1      45.222  25.100  26.848  1.00  0.00     0.074 A 
ATOM     28  C   UNL A   1      48.267  30.631  27.513  1.00  0.00     0.029 A 
ATOM     29  N   UNL A   1      46.728  29.028  27.438  1.00  0.00    -0.354 N 
ATOM     30  N   UNL A   1      45.765  26.281  27.017  1.00  0.00    -0.248 NA
ATOM     31  C   UNL A   1      46.156  24.064  26.389  1.00  0.00     0.031 C 
ATOM     32  C   UNL A   1      48.880  29.449  27.081  1.00  0.00     0.029 A 
ATOM     33  C   UNL A   1      47.926  28.445  27.057  1.00  0.00     0.049 A 
ATOM     34  H   UNL A   1      45.867  28.557  27.504  1.00  0.00     0.167 HD
ATOM     35  C   UNL A   1      47.110  26.128  26.706  1.00  0.00     0.074 A 
ATOM     36  C   UNL A   1      47.300  24.735  26.353  1.00  0.00     0.031 C 
ATOM     37  C   UNL A   1      48.099  27.056  26.712  1.00  0.00     0.037 A 
BRANCH  24  38
ATOM     38  C   UNL A   1      46.250  32.738  28.309  1.00  0.00     0.058 A 
ATOM     39  C   UNL A   1      46.164  33.669  27.262  1.00  0.00     0.135 A 
ATOM     40  C   UNL A   1      46.659  33.208  29.569  1.00  0.00     0.135 A 
ATOM     41  F   UNL A   1      45.792  33.274  26.034  1.00  0.00    -0.206 F 
ATOM     42  C   UNL A   1      46.497  35.008  27.449  1.00  0.00     0.059 A 
ATOM     43  C   UNL A   1      46.973  34.547  29.785  1.00  0.00     0.059 A 
ATOM     44  F   UNL A   1      46.758  32.362  30.605  1.00  0.00    -0.206 F 
ATOM     45  C   UNL A   1      46.904  35.436  28.714  1.00  0.00     0.060 A 
BRANCH  45  46
ATOM     46  S   UNL A   1      47.338  37.175  28.941  1.00  0.00     0.124 S 
ATOM     47  O   UNL A   1      47.028  37.368  30.354  1.00  0.00    -0.237 OA
ATOM     48  O   UNL A   1      48.756  37.193  28.598  1.00  0.00    -0.237 OA
ATOM     49  O   UNL A   1      46.461  37.871  28.005  1.00  0.00    -0.744 OA
ENDBRANCH  45  46
ENDBRANCH  24  38
BRANCH  25  50
ATOM     50  C   UNL A   1      43.370  23.271  26.848  1.00  0.00     0.058 A 
ATOM     51  C   UNL A   1      43.254  22.738  25.556  1.00  0.00     0.135 A 
ATOM     52  C   UNL A   1      43.099  22.422  27.933  1.00  0.00     0.135 A 
ATOM     53  F   UNL A   1      43.501  23.510  24.487  1.00  0.00    -0.206 F 
ATOM     54  C   UNL A   1      42.873  21.417  25.345  1.00  0.00     0.059 A 
ATOM     55  C   UNL A   1      42.742  21.091  27.749  1.00  0.00     0.059 A 
ATOM     56  F   UNL A   1      43.214  22.880  29.190  1.00  0.00    -0.206 F 
ATOM     57  C   UNL A   1      42.622  20.600  26.450  1.00  0.00     0.060 A 
BRANCH  57  58
ATOM     58  S   UNL A   1      42.177  18.872  26.170  1.00  0.00     0.124 S 
ATOM     59  O   UNL A   1      43.117  18.494  25.121  1.00  0.00    -0.237 OA
ATOM     60  O   UNL A   1      42.411  18.278  27.483  1.00  0.00    -0.237 OA
ATOM     61  O   UNL A   1      40.776  18.950  25.767  1.00  0.00    -0.744 OA
ENDBRANCH  57  58
ENDBRANCH  25  50
BRANCH  37  62
ATOM     62  C   UNL A   1      49.481  26.582  26.360  1.00  0.00     0.058 A 
ATOM     63  C   UNL A   1      50.014  26.752  25.073  1.00  0.00     0.135 A 
ATOM     64  C   UNL A   1      50.288  25.969  27.331  1.00  0.00     0.135 A 
ATOM     65  F   UNL A   1      49.281  27.326  24.106  1.00  0.00    -0.206 F 
ATOM     66  C   UNL A   1      51.290  26.299  24.751  1.00  0.00     0.059 A 
ATOM     67  C   UNL A   1      51.576  25.533  27.039  1.00  0.00     0.059 A 
ATOM     68  F   UNL A   1      49.829  25.793  28.580  1.00  0.00    -0.206 F 
ATOM     69  C   UNL A   1      52.063  25.687  25.741  1.00  0.00     0.060 A 
BRANCH  69  70
ATOM     70  S   UNL A   1      53.721  25.114  25.318  1.00  0.00     0.124 S 
ATOM     71  O   UNL A   1      54.526  25.759  26.350  1.00  0.00    -0.237 OA
ATOM     72  O   UNL A   1      53.592  23.665  25.428  1.00  0.00    -0.237 OA
ATOM     73  O   UNL A   1      53.917  25.619  23.962  1.00  0.00    -0.744 OA
ENDBRANCH  69  70
ENDBRANCH  37  62
ENDBRANCH  11  12
ENDBRANCH   4   6
ENDBRANCH   1   2
BRANCH   1  74
ATOM     74  C   UNL A   1      34.291  30.664  27.659  1.00  0.00     0.042 C 
BRANCH  74  75
ATOM     75  C   UNL A   1      34.302  29.173  27.336  1.00  0.00     0.117 C 
BRANCH  75  76
ATOM     76  N   UNL A   1      33.014  28.532  27.549  1.00  0.00    -0.354 N 
ATOM     77  C   UNL A   1      32.087  27.975  26.714  1.00  0.00     0.247 C 
ATOM     78  H   UNL A   1      32.755  28.490  28.498  1.00  0.00     0.163 HD
ATOM     79  O   UNL A   1      31.211  27.332  27.313  1.00  0.00    -0.273 OA
BRANCH  77  80
ATOM     80  C   UNL A   1      32.180  27.953  25.161  1.00  0.00     0.161 C 
ATOM     81  Cl  UNL A   1      33.876  27.946  24.555  1.00  0.00    -0.102 Cl
ATOM     82  C   UNL A   1      31.567  26.610  24.790  1.00  0.00     0.008 C 
ATOM     83  C   UNL A   1      31.477  29.175  24.461  1.00  0.00     0.146 C 
ATOM     84  C   UNL A   1      30.403  26.489  24.139  1.00  0.00    -0.002 C 
ATOM     85  C   UNL A   1      30.131  28.893  23.804  1.00  0.00    -0.020 C 
ATOM     86  Cl  UNL A   1      31.432  30.675  25.465  1.00  0.00    -0.115 Cl
ATOM     87  C   UNL A   1      29.665  27.636  23.677  1.00  0.00     0.006 C 
BRANCH  85  88
ATOM     88  C   UNL A   1      29.423  29.993  23.112  1.00  0.00    -0.021 A 
ATOM     89  C   UNL A   1      29.486  30.129  21.719  1.00  0.00     0.008 A 
ATOM     90  C   UNL A   1      28.658  30.917  23.842  1.00  0.00     0.008 A 
ATOM     91  C   UNL A   1      28.790  31.155  21.073  1.00  0.00     0.001 A 
ATOM     92  C   UNL A   1      27.960  31.938  23.195  1.00  0.00     0.001 A 
ATOM     93  C   UNL A   1      28.023  32.055  21.810  1.00  0.00     0.000 A 
ENDBRANCH  85  88
ENDBRANCH  77  80
ENDBRANCH  75  76
ENDBRANCH  74  75
ENDBRANCH   1  74
TORSDOF 14
ENDMDL
MODEL 3
REMARK VINA RESULT:     -12.5      5.519     10.170
REMARK SMILES O=C(NCCCNC(=O)[C@@]1(Cl)C=CC=C(c2ccccc2)[C@H]1Cl)c1ccc(-c2c3nc(c(-c4c(F)cc(S(=O)(=O)[O-])cc4F)c4ccc([nH]4)c(-c4c(F)cc(S(=O)(=O)[O-])cc4F)c4nc(c(-c5c(F)cc(S(=O)(=O)[O-])cc5F)c5ccc2[nH]5)C=C4)C=C3)cc1
REMARK SMILES IDX 4 1 3 2 1 3 2 4 24 6 25 7 89 8 26 9 88 10 27 11 28 12 29 13
REMARK SMILES IDX 82 14 30 15 87 16 81 17 83 18 31 19 86 20 80 21 79 22 32 24
REMARK SMILES IDX 66 25 45 26 65 27 46 28 49 29 64 30 84 31 47 32 48 33 63 35
REMARK SMILES IDX 85 36 50 37 33 38 34 39 43 40 35 41 36 42 42 43 44 44 37 45
REMARK SMILES IDX 38 46 39 47 40 48 41 49 67 50 68 51 77 52 69 53 70 54 76 55
REMARK SMILES IDX 78 56 71 57 72 58 73 59 74 60 75 61 51 62 52 63 61 64 53 65
REMARK SMILES IDX 54 66 60 67 62 68 55 69 56 70 57 71 58 72 59 73 5 74 6 75
REMARK SMILES IDX 7 76 8 77 9 79 10 80 11 81 12 82 22 83 13 84 15 85 23 86
REMARK SMILES IDX 14 87 16 88 17 89 21 90 18 91 20 92 19 93
REMARK H PARENT 3 5 83 23 49 34 7 78
REMARK Flexibility Score: inf
ROOT
ATOM      1  C   UNL A   1      34.095  28.317  26.809  1.00  0.00     0.118 C 
ENDROOT
BRANCH   1   2
ATOM      2  N   UNL A   1      33.935  29.631  27.413  1.00  0.00    -0.352 N 
ATOM      3  O   UNL A   1      34.380  31.363  28.772  1.00  0.00    -0.269 OA
ATOM      4  C   UNL A   1      34.796  30.364  28.196  1.00  0.00     0.251 C 
ATOM      5  H   UNL A   1      33.071  30.066  27.231  1.00  0.00     0.163 HD
BRANCH   4   6
ATOM      6  C   UNL A   1      36.206  29.942  28.363  1.00  0.00     0.039 A 
ATOM      7  C   UNL A   1      36.651  29.388  29.564  1.00  0.00     0.014 A 
ATOM      8  C   UNL A   1      37.093  30.077  27.291  1.00  0.00     0.014 A 
ATOM      9  C   UNL A   1      38.006  29.142  29.752  1.00  0.00     0.010 A 
ATOM     10  C   UNL A   1      38.438  29.727  27.448  1.00  0.00     0.010 A 
ATOM     11  C   UNL A   1      38.917  29.298  28.696  1.00  0.00    -0.014 A 
BRANCH  11  12
ATOM     12  C   UNL A   1      40.350  28.971  28.922  1.00  0.00     0.031 A 
ATOM     13  C   UNL A   1      40.916  27.632  28.527  1.00  0.00     0.074 A 
ATOM     14  C   UNL A   1      41.157  29.919  29.442  1.00  0.00     0.049 A 
ATOM     15  N   UNL A   1      42.152  27.208  28.601  1.00  0.00    -0.248 NA
ATOM     16  C   UNL A   1      39.975  26.637  27.991  1.00  0.00     0.031 C 
ATOM     17  C   UNL A   1      40.721  31.248  29.879  1.00  0.00     0.029 A 
ATOM     18  N   UNL A   1      42.510  29.927  29.663  1.00  0.00    -0.354 N 
ATOM     19  C   UNL A   1      42.135  25.892  28.148  1.00  0.00     0.074 A 
ATOM     20  C   UNL A   1      40.760  25.581  27.824  1.00  0.00     0.031 C 
ATOM     21  C   UNL A   1      41.791  31.963  30.254  1.00  0.00     0.029 A 
ATOM     22  C   UNL A   1      42.980  31.127  30.143  1.00  0.00     0.049 A 
ATOM     23  H   UNL A   1      43.090  29.149  29.496  1.00  0.00     0.167 HD
ATOM     24  C   UNL A   1      43.171  25.030  28.010  1.00  0.00     0.037 A 
ATOM     25  C   UNL A   1      44.229  31.514  30.464  1.00  0.00     0.037 A 
ATOM     26  C   UNL A   1      44.542  25.359  28.307  1.00  0.00     0.049 A 
ATOM     27  C   UNL A   1      45.360  30.541  30.290  1.00  0.00     0.074 A 
ATOM     28  C   UNL A   1      45.669  24.568  28.161  1.00  0.00     0.029 A 
ATOM     29  N   UNL A   1      44.975  26.577  28.811  1.00  0.00    -0.354 N 
ATOM     30  N   UNL A   1      45.326  29.313  29.833  1.00  0.00    -0.248 NA
ATOM     31  C   UNL A   1      46.698  31.007  30.676  1.00  0.00     0.031 C 
ATOM     32  C   UNL A   1      46.777  25.294  28.614  1.00  0.00     0.029 A 
ATOM     33  C   UNL A   1      46.348  26.554  28.997  1.00  0.00     0.049 A 
ATOM     34  H   UNL A   1      44.392  27.346  29.008  1.00  0.00     0.167 HD
ATOM     35  C   UNL A   1      46.641  28.864  29.856  1.00  0.00     0.074 A 
ATOM     36  C   UNL A   1      47.446  29.959  30.358  1.00  0.00     0.031 C 
ATOM     37  C   UNL A   1      47.136  27.654  29.494  1.00  0.00     0.037 A 
BRANCH  24  38
ATOM     38  C   UNL A   1      42.863  23.635  27.534  1.00  0.00     0.058 A 
ATOM     39  C   UNL A   1      42.886  23.293  26.173  1.00  0.00     0.135 A 
ATOM     40  C   UNL A   1      42.577  22.616  28.458  1.00  0.00     0.135 A 
ATOM     41  F   UNL A   1      43.140  24.228  25.244  1.00  0.00    -0.206 F 
ATOM     42  C   UNL A   1      42.609  21.998  25.742  1.00  0.00     0.059 A 
ATOM     43  C   UNL A   1      42.321  21.309  28.053  1.00  0.00     0.059 A 
ATOM     44  F   UNL A   1      42.543  22.887  29.772  1.00  0.00    -0.206 F 
ATOM     45  C   UNL A   1      42.323  21.014  26.690  1.00  0.00     0.060 A 
BRANCH  45  46
ATOM     46  S   UNL A   1      41.961  19.340  26.118  1.00  0.00     0.124 S 
ATOM     47  O   UNL A   1      42.324  18.549  27.289  1.00  0.00    -0.237 OA
ATOM     48  O   UNL A   1      40.533  19.411  25.821  1.00  0.00    -0.237 OA
ATOM     49  O   UNL A   1      42.832  19.179  24.958  1.00  0.00    -0.744 OA
ENDBRANCH  45  46
ENDBRANCH  24  38
BRANCH  25  50
ATOM     50  C   UNL A   1      44.469  32.891  30.970  1.00  0.00     0.058 A 
ATOM     51  C   UNL A   1      44.725  33.951  30.088  1.00  0.00     0.135 A 
ATOM     52  C   UNL A   1      44.419  33.180  32.343  1.00  0.00     0.135 A 
ATOM     53  F   UNL A   1      44.784  33.724  28.766  1.00  0.00    -0.206 F 
ATOM     54  C   UNL A   1      44.934  35.247  30.548  1.00  0.00     0.059 A 
ATOM     55  C   UNL A   1      44.599  34.472  32.825  1.00  0.00     0.059 A 
ATOM     56  F   UNL A   1      44.160  32.203  33.226  1.00  0.00    -0.206 F 
ATOM     57  C   UNL A   1      44.866  35.497  31.920  1.00  0.00     0.060 A 
BRANCH  57  58
ATOM     58  S   UNL A   1      45.088  37.190  32.506  1.00  0.00     0.124 S 
ATOM     59  O   UNL A   1      46.320  37.074  33.278  1.00  0.00    -0.237 OA
ATOM     60  O   UNL A   1      45.185  37.939  31.256  1.00  0.00    -0.237 OA
ATOM     61  O   UNL A   1      43.876  37.437  33.280  1.00  0.00    -0.744 OA
ENDBRANCH  57  58
ENDBRANCH  25  50
BRANCH  37  62
ATOM     62  C   UNL A   1      48.624  27.469  29.595  1.00  0.00     0.058 A 
ATOM     63  C   UNL A   1      49.221  26.892  30.727  1.00  0.00     0.135 A 
ATOM     64  C   UNL A   1      49.459  27.855  28.535  1.00  0.00     0.135 A 
ATOM     65  F   UNL A   1      48.467  26.514  31.771  1.00  0.00    -0.206 F 
ATOM     66  C   UNL A   1      50.600  26.736  30.818  1.00  0.00     0.059 A 
ATOM     67  C   UNL A   1      50.838  27.683  28.593  1.00  0.00     0.059 A 
ATOM     68  F   UNL A   1      48.937  28.401  27.426  1.00  0.00    -0.206 F 
ATOM     69  C   UNL A   1      51.402  27.138  29.747  1.00  0.00     0.060 A 
BRANCH  69  70
ATOM     70  S   UNL A   1      53.189  26.919  29.869  1.00  0.00     0.124 S 
ATOM     71  O   UNL A   1      53.502  26.333  28.570  1.00  0.00    -0.237 OA
ATOM     72  O   UNL A   1      53.661  28.284  30.079  1.00  0.00    -0.237 OA
ATOM     73  O   UNL A   1      53.343  26.026  31.015  1.00  0.00    -0.744 OA
ENDBRANCH  69  70
ENDBRANCH  37  62
ENDBRANCH  11  12
ENDBRANCH   4   6
ENDBRANCH   1   2
BRANCH   1  74
ATOM     74  C   UNL A   1      32.764  27.641  26.504  1.00  0.00     0.042 C 
BRANCH  74  75
ATOM     75  C   UNL A   1      32.889  26.174  26.106  1.00  0.00     0.117 C 
BRANCH  75  76
ATOM     76  N   UNL A   1      31.817  25.345  26.633  1.00  0.00    -0.354 N 
ATOM     77  C   UNL A   1      31.449  24.043  26.441  1.00  0.00     0.247 C 
ATOM     78  H   UNL A   1      31.230  25.824  27.262  1.00  0.00     0.163 HD
ATOM     79  O   UNL A   1      30.595  23.651  27.251  1.00  0.00    -0.273 OA
BRANCH  77  80
ATOM     80  C   UNL A   1      32.136  23.055  25.455  1.00  0.00     0.161 C 
ATOM     81  Cl  UNL A   1      31.265  21.485  25.308  1.00  0.00    -0.102 Cl
ATOM     82  C   UNL A   1      32.019  23.759  24.111  1.00  0.00     0.008 C 
ATOM     83  C   UNL A   1      33.618  22.691  25.843  1.00  0.00     0.146 C 
ATOM     84  C   UNL A   1      33.072  24.243  23.442  1.00  0.00    -0.002 C 
ATOM     85  C   UNL A   1      34.713  23.360  25.020  1.00  0.00    -0.020 C 
ATOM     86  Cl  UNL A   1      33.960  22.777  27.613  1.00  0.00    -0.115 Cl
ATOM     87  C   UNL A   1      34.421  24.074  23.917  1.00  0.00     0.006 C 
BRANCH  85  88
ATOM     88  C   UNL A   1      36.129  23.050  25.319  1.00  0.00    -0.021 A 
ATOM     89  C   UNL A   1      36.978  24.017  25.873  1.00  0.00     0.008 A 
ATOM     90  C   UNL A   1      36.646  21.769  25.066  1.00  0.00     0.008 A 
ATOM     91  C   UNL A   1      38.306  23.706  26.178  1.00  0.00     0.001 A 
ATOM     92  C   UNL A   1      37.971  21.458  25.375  1.00  0.00     0.001 A 
ATOM     93  C   UNL A   1      38.801  22.426  25.934  1.00  0.00     0.000 A 
ENDBRANCH  85  88
ENDBRANCH  77  80
ENDBRANCH  75  76
ENDBRANCH  74  75
ENDBRANCH   1  74
TORSDOF 14
ENDMDL
