MODEL 1
REMARK VINA RESULT:     -11.4      0.000      0.000
REMARK SMILES C[C@H]1C[C@H]1CN(C)c1cccc(F)c1C(=O)NCCCNC(=O)c1ccc(-c2c3nc(c(-c4c(F)cc(S(=O)(=O)[O-])cc4F)c4ccc([nH]4)c(-c4c(F)cc(S(=O)(=O)[O-])cc4F)c4nc(c(-c5c(F)cc(S(=O)(=O)[O-])cc5F)c5ccc2[nH]5)C=C4)C=C3)cc1
REMARK SMILES IDX 19 1 18 2 17 3 15 4 16 5 14 7 8 8 9 9 10 10 12 11 11 12
REMARK SMILES IDX 13 13 6 14 7 15 5 16 4 17 1 18 2 19 3 20 20 21 21 22 22 23
REMARK SMILES IDX 23 25 24 26 25 27 89 28 26 29 88 30 27 31 28 32 29 33 82 34
REMARK SMILES IDX 30 35 87 36 81 37 83 38 31 39 86 40 80 41 79 42 32 44 66 45
REMARK SMILES IDX 45 46 65 47 46 48 49 49 64 50 84 51 47 52 48 53 63 55 85 56
REMARK SMILES IDX 50 57 33 58 34 59 43 60 35 61 36 62 42 63 44 64 37 65 38 66
REMARK SMILES IDX 39 67 40 68 41 69 67 70 68 71 77 72 69 73 70 74 76 75 78 76
REMARK SMILES IDX 71 77 72 78 73 79 74 80 75 81 51 82 52 83 61 84 53 85 54 86
REMARK SMILES IDX 60 87 62 88 55 89 56 90 57 91 58 92 59 93
REMARK H PARENT 17 6 21 24 83 43 49 54
REMARK Flexibility Score: inf
ROOT
ATOM      1  C   UNL A   1      32.335  27.776  26.709  1.00  0.00     0.042 C 
ENDROOT
BRANCH   1   2
ATOM      2  C   UNL A   1      32.323  26.379  26.107  1.00  0.00     0.118 C 
BRANCH   2   3
ATOM      3  N   UNL A   1      31.371  25.439  26.694  1.00  0.00    -0.352 N 
ATOM      4  C   UNL A   1      31.188  24.080  26.481  1.00  0.00     0.256 C 
ATOM      5  O   UNL A   1      30.491  23.462  27.285  1.00  0.00    -0.269 OA
ATOM      6  H   UNL A   1      30.755  25.838  27.351  1.00  0.00     0.163 HD
BRANCH   4   7
ATOM      7  C   UNL A   1      31.752  23.404  25.282  1.00  0.00     0.098 A 
ATOM      8  C   UNL A   1      32.941  22.641  25.328  1.00  0.00     0.052 A 
ATOM      9  C   UNL A   1      33.227  21.810  24.227  1.00  0.00     0.027 A 
ATOM     10  C   UNL A   1      32.455  21.824  23.067  1.00  0.00     0.005 A 
ATOM     11  C   UNL A   1      31.085  23.522  24.057  1.00  0.00     0.138 A 
ATOM     12  C   UNL A   1      31.410  22.725  22.964  1.00  0.00     0.040 A 
ATOM     13  F   UNL A   1      30.101  24.422  23.895  1.00  0.00    -0.206 F 
BRANCH   8  14
ATOM     14  N   UNL A   1      33.920  22.734  26.309  1.00  0.00    -0.374 N 
ATOM     15  C   UNL A   1      33.782  22.042  27.575  1.00  0.00     0.143 C 
BRANCH  14  16
ATOM     16  C   UNL A   1      34.992  23.712  26.107  1.00  0.00     0.120 C 
BRANCH  16  17
ATOM     17  C   UNL A   1      36.329  23.019  26.035  1.00  0.00     0.011 C 
ATOM     18  C   UNL A   1      36.585  23.030  23.373  1.00  0.00     0.008 C 
ATOM     19  C   UNL A   1      37.061  22.680  24.742  1.00  0.00    -0.009 C 
ATOM     20  C   UNL A   1      37.573  23.780  25.632  1.00  0.00     0.009 C 
ENDBRANCH  16  17
ENDBRANCH  14  16
ENDBRANCH   8  14
ENDBRANCH   4   7
ENDBRANCH   2   3
ENDBRANCH   1   2
BRANCH   1  21
ATOM     21  C   UNL A   1      33.702  28.354  27.029  1.00  0.00     0.118 C 
BRANCH  21  22
ATOM     22  N   UNL A   1      33.658  29.711  27.559  1.00  0.00    -0.352 N 
ATOM     23  C   UNL A   1      34.603  30.466  28.217  1.00  0.00     0.251 C 
ATOM     24  H   UNL A   1      32.798  30.171  27.422  1.00  0.00     0.163 HD
ATOM     25  O   UNL A   1      34.276  31.550  28.691  1.00  0.00    -0.269 OA
BRANCH  23  26
ATOM     26  C   UNL A   1      35.993  29.980  28.392  1.00  0.00     0.039 A 
ATOM     27  C   UNL A   1      36.892  30.099  27.326  1.00  0.00     0.014 A 
ATOM     28  C   UNL A   1      36.415  29.384  29.580  1.00  0.00     0.014 A 
ATOM     29  C   UNL A   1      38.224  29.705  27.487  1.00  0.00     0.010 A 
ATOM     30  C   UNL A   1      37.763  29.093  29.776  1.00  0.00     0.010 A 
ATOM     31  C   UNL A   1      38.685  29.245  28.731  1.00  0.00    -0.014 A 
BRANCH  31  32
ATOM     32  C   UNL A   1      40.115  28.903  28.962  1.00  0.00     0.031 A 
ATOM     33  C   UNL A   1      41.056  29.936  29.527  1.00  0.00     0.074 A 
ATOM     34  C   UNL A   1      40.581  27.688  28.604  1.00  0.00     0.049 A 
ATOM     35  N   UNL A   1      42.350  29.865  29.704  1.00  0.00    -0.248 NA
ATOM     36  C   UNL A   1      40.471  31.230  29.921  1.00  0.00     0.031 C 
ATOM     37  C   UNL A   1      39.780  26.613  28.012  1.00  0.00     0.029 A 
ATOM     38  N   UNL A   1      41.842  27.150  28.681  1.00  0.00    -0.354 N 
ATOM     39  C   UNL A   1      42.732  31.100  30.217  1.00  0.00     0.074 A 
ATOM     40  C   UNL A   1      41.546  31.925  30.263  1.00  0.00     0.031 C 
ATOM     41  C   UNL A   1      40.559  25.538  27.814  1.00  0.00     0.029 A 
ATOM     42  C   UNL A   1      41.924  25.856  28.217  1.00  0.00     0.049 A 
ATOM     43  H   UNL A   1      42.617  27.643  29.035  1.00  0.00     0.167 HD
ATOM     44  C   UNL A   1      43.952  31.498  30.645  1.00  0.00     0.037 A 
ATOM     45  C   UNL A   1      42.980  25.023  28.120  1.00  0.00     0.037 A 
ATOM     46  C   UNL A   1      45.122  30.659  30.632  1.00  0.00     0.049 A 
ATOM     47  C   UNL A   1      44.333  25.502  28.579  1.00  0.00     0.074 A 
ATOM     48  C   UNL A   1      46.395  30.958  31.083  1.00  0.00     0.029 A 
ATOM     49  N   UNL A   1      45.160  29.357  30.158  1.00  0.00    -0.354 N 
ATOM     50  N   UNL A   1      44.665  26.661  29.096  1.00  0.00    -0.248 NA
ATOM     51  C   UNL A   1      45.455  24.563  28.441  1.00  0.00     0.031 C 
ATOM     52  C   UNL A   1      47.215  29.853  30.839  1.00  0.00     0.029 A 
ATOM     53  C   UNL A   1      46.439  28.845  30.288  1.00  0.00     0.049 A 
ATOM     54  H   UNL A   1      44.391  28.869  29.783  1.00  0.00     0.167 HD
ATOM     55  C   UNL A   1      46.024  26.578  29.375  1.00  0.00     0.074 A 
ATOM     56  C   UNL A   1      46.452  25.252  28.980  1.00  0.00     0.031 C 
ATOM     57  C   UNL A   1      46.845  27.515  29.909  1.00  0.00     0.037 A 
BRANCH  44  58
ATOM     58  C   UNL A   1      44.093  32.890  31.199  1.00  0.00     0.058 A 
ATOM     59  C   UNL A   1      43.849  33.150  32.557  1.00  0.00     0.135 A 
ATOM     60  C   UNL A   1      44.379  33.983  30.365  1.00  0.00     0.135 A 
ATOM     61  F   UNL A   1      43.580  32.142  33.402  1.00  0.00    -0.206 F 
ATOM     62  C   UNL A   1      43.852  34.446  33.062  1.00  0.00     0.059 A 
ATOM     63  C   UNL A   1      44.414  35.285  30.854  1.00  0.00     0.059 A 
ATOM     64  F   UNL A   1      44.643  33.788  29.064  1.00  0.00    -0.206 F 
ATOM     65  C   UNL A   1      44.129  35.509  32.199  1.00  0.00     0.060 A 
BRANCH  65  66
ATOM     66  S   UNL A   1      44.120  37.185  32.869  1.00  0.00     0.124 S 
ATOM     67  O   UNL A   1      45.401  37.237  33.565  1.00  0.00    -0.237 OA
ATOM     68  O   UNL A   1      44.018  37.995  31.660  1.00  0.00    -0.237 OA
ATOM     69  O   UNL A   1      42.939  37.201  33.726  1.00  0.00    -0.744 OA
ENDBRANCH  65  66
ENDBRANCH  44  58
BRANCH  45  70
ATOM     70  C   UNL A   1      42.799  23.642  27.593  1.00  0.00     0.058 A 
ATOM     71  C   UNL A   1      42.959  23.348  26.230  1.00  0.00     0.135 A 
ATOM     72  C   UNL A   1      42.459  22.583  28.450  1.00  0.00     0.135 A 
ATOM     73  F   UNL A   1      43.273  24.323  25.362  1.00  0.00    -0.206 F 
ATOM     74  C   UNL A   1      42.772  22.062  25.734  1.00  0.00     0.059 A 
ATOM     75  C   UNL A   1      42.297  21.282  27.983  1.00  0.00     0.059 A 
ATOM     76  F   UNL A   1      42.306  22.809  29.765  1.00  0.00    -0.206 F 
ATOM     77  C   UNL A   1      42.444  21.034  26.618  1.00  0.00     0.060 A 
BRANCH  77  78
ATOM     78  S   UNL A   1      42.227  19.368  25.956  1.00  0.00     0.124 S 
ATOM     79  O   UNL A   1      40.786  19.330  25.730  1.00  0.00    -0.237 OA
ATOM     80  O   UNL A   1      43.058  19.408  24.757  1.00  0.00    -0.237 OA
ATOM     81  O   UNL A   1      42.719  18.510  27.029  1.00  0.00    -0.744 OA
ENDBRANCH  77  78
ENDBRANCH  45  70
BRANCH  57  82
ATOM     82  C   UNL A   1      48.284  27.144  30.136  1.00  0.00     0.058 A 
ATOM     83  C   UNL A   1      48.672  26.511  31.329  1.00  0.00     0.135 A 
ATOM     84  C   UNL A   1      49.289  27.497  29.224  1.00  0.00     0.135 A 
ATOM     85  F   UNL A   1      47.751  26.159  32.240  1.00  0.00    -0.206 F 
ATOM     86  C   UNL A   1      50.009  26.264  31.619  1.00  0.00     0.059 A 
ATOM     87  C   UNL A   1      50.631  27.230  29.479  1.00  0.00     0.059 A 
ATOM     88  F   UNL A   1      48.968  28.094  28.064  1.00  0.00    -0.206 F 
ATOM     89  C   UNL A   1      50.982  26.631  30.689  1.00  0.00     0.060 A 
BRANCH  89  90
ATOM     90  S   UNL A   1      52.713  26.303  31.083  1.00  0.00     0.124 S 
ATOM     91  O   UNL A   1      53.098  27.524  31.782  1.00  0.00    -0.237 OA
ATOM     92  O   UNL A   1      52.618  25.102  31.908  1.00  0.00    -0.237 OA
ATOM     93  O   UNL A   1      53.328  26.109  29.773  1.00  0.00    -0.744 OA
ENDBRANCH  89  90
ENDBRANCH  57  82
ENDBRANCH  31  32
ENDBRANCH  23  26
ENDBRANCH  21  22
ENDBRANCH   1  21
TORSDOF 16
ENDMDL
MODEL 2
REMARK VINA RESULT:     -10.8      5.006     10.456
REMARK SMILES C[C@H]1C[C@H]1CN(C)c1cccc(F)c1C(=O)NCCCNC(=O)c1ccc(-c2c3nc(c(-c4c(F)cc(S(=O)(=O)[O-])cc4F)c4ccc([nH]4)c(-c4c(F)cc(S(=O)(=O)[O-])cc4F)c4nc(c(-c5c(F)cc(S(=O)(=O)[O-])cc5F)c5ccc2[nH]5)C=C4)C=C3)cc1
REMARK SMILES IDX 19 1 18 2 17 3 15 4 16 5 14 7 8 8 9 9 10 10 12 11 11 12
REMARK SMILES IDX 13 13 6 14 7 15 5 16 4 17 1 18 2 19 3 20 20 21 21 22 22 23
REMARK SMILES IDX 23 25 24 26 25 27 89 28 26 29 88 30 27 31 28 32 29 33 82 34
REMARK SMILES IDX 30 35 87 36 81 37 83 38 31 39 86 40 80 41 79 42 32 44 66 45
REMARK SMILES IDX 45 46 65 47 46 48 49 49 64 50 84 51 47 52 48 53 63 55 85 56
REMARK SMILES IDX 50 57 33 58 34 59 43 60 35 61 36 62 42 63 44 64 37 65 38 66
REMARK SMILES IDX 39 67 40 68 41 69 67 70 68 71 77 72 69 73 70 74 76 75 78 76
REMARK SMILES IDX 71 77 72 78 73 79 74 80 75 81 51 82 52 83 61 84 53 85 54 86
REMARK SMILES IDX 60 87 62 88 55 89 56 90 57 91 58 92 59 93
REMARK H PARENT 17 6 21 24 83 43 49 54
REMARK Flexibility Score: inf
ROOT
ATOM      1  C   UNL A   1      37.251  23.703  25.259  1.00  0.00     0.042 C 
ENDROOT
BRANCH   1   2
ATOM      2  C   UNL A   1      36.375  22.466  25.388  1.00  0.00     0.118 C 
BRANCH   2   3
ATOM      3  N   UNL A   1      35.488  22.430  26.547  1.00  0.00    -0.352 N 
ATOM      4  C   UNL A   1      34.197  21.940  26.689  1.00  0.00     0.256 C 
ATOM      5  O   UNL A   1      33.761  21.793  27.830  1.00  0.00    -0.269 OA
ATOM      6  H   UNL A   1      35.871  22.819  27.367  1.00  0.00     0.163 HD
BRANCH   4   7
ATOM      7  C   UNL A   1      33.340  21.672  25.503  1.00  0.00     0.098 A 
ATOM      8  C   UNL A   1      32.284  22.529  25.118  1.00  0.00     0.052 A 
ATOM      9  C   UNL A   1      31.733  22.351  23.833  1.00  0.00     0.027 A 
ATOM     10  C   UNL A   1      32.103  21.291  23.008  1.00  0.00     0.005 A 
ATOM     11  C   UNL A   1      33.583  20.530  24.732  1.00  0.00     0.138 A 
ATOM     12  C   UNL A   1      32.996  20.347  23.484  1.00  0.00     0.040 A 
ATOM     13  F   UNL A   1      34.399  19.560  25.179  1.00  0.00    -0.206 F 
BRANCH   8  14
ATOM     14  N   UNL A   1      31.654  23.451  25.944  1.00  0.00    -0.374 N 
ATOM     15  C   UNL A   1      30.718  23.027  26.966  1.00  0.00     0.143 C 
BRANCH  14  16
ATOM     16  C   UNL A   1      31.808  24.871  25.618  1.00  0.00     0.120 C 
BRANCH  16  17
ATOM     17  C   UNL A   1      33.232  25.312  25.846  1.00  0.00     0.011 C 
ATOM     18  C   UNL A   1      34.028  25.259  23.293  1.00  0.00     0.008 C 
ATOM     19  C   UNL A   1      34.278  25.469  24.748  1.00  0.00    -0.009 C 
ATOM     20  C   UNL A   1      33.694  26.686  25.413  1.00  0.00     0.009 C 
ENDBRANCH  16  17
ENDBRANCH  14  16
ENDBRANCH   8  14
ENDBRANCH   4   7
ENDBRANCH   2   3
ENDBRANCH   1   2
BRANCH   1  21
ATOM     21  C   UNL A   1      38.146  24.015  26.446  1.00  0.00     0.118 C 
BRANCH  21  22
ATOM     22  N   UNL A   1      39.570  23.907  26.156  1.00  0.00    -0.352 N 
ATOM     23  C   UNL A   1      40.645  24.664  26.564  1.00  0.00     0.251 C 
ATOM     24  H   UNL A   1      39.805  23.159  25.561  1.00  0.00     0.163 HD
ATOM     25  O   UNL A   1      41.747  24.451  26.066  1.00  0.00    -0.269 OA
BRANCH  23  26
ATOM     26  C   UNL A   1      40.490  25.748  27.564  1.00  0.00     0.039 A 
ATOM     27  C   UNL A   1      39.545  25.599  28.585  1.00  0.00     0.014 A 
ATOM     28  C   UNL A   1      41.244  26.920  27.495  1.00  0.00     0.014 A 
ATOM     29  C   UNL A   1      39.424  26.578  29.576  1.00  0.00     0.010 A 
ATOM     30  C   UNL A   1      41.200  27.842  28.538  1.00  0.00     0.010 A 
ATOM     31  C   UNL A   1      40.286  27.686  29.590  1.00  0.00    -0.014 A 
BRANCH  31  32
ATOM     32  C   UNL A   1      40.245  28.700  30.678  1.00  0.00     0.031 A 
ATOM     33  C   UNL A   1      41.177  28.580  31.856  1.00  0.00     0.074 A 
ATOM     34  C   UNL A   1      39.328  29.689  30.641  1.00  0.00     0.049 A 
ATOM     35  N   UNL A   1      41.225  29.299  32.949  1.00  0.00    -0.248 NA
ATOM     36  C   UNL A   1      42.170  27.492  31.817  1.00  0.00     0.031 C 
ATOM     37  C   UNL A   1      38.343  29.892  29.574  1.00  0.00     0.029 A 
ATOM     38  N   UNL A   1      39.068  30.709  31.522  1.00  0.00    -0.354 N 
ATOM     39  C   UNL A   1      42.239  28.748  33.723  1.00  0.00     0.074 A 
ATOM     40  C   UNL A   1      42.739  27.594  33.009  1.00  0.00     0.031 C 
ATOM     41  C   UNL A   1      37.615  30.986  29.846  1.00  0.00     0.029 A 
ATOM     42  C   UNL A   1      38.042  31.538  31.127  1.00  0.00     0.049 A 
ATOM     43  H   UNL A   1      39.569  30.837  32.360  1.00  0.00     0.167 HD
ATOM     44  C   UNL A   1      42.734  29.183  34.904  1.00  0.00     0.037 A 
ATOM     45  C   UNL A   1      37.501  32.616  31.731  1.00  0.00     0.037 A 
ATOM     46  C   UNL A   1      42.258  30.355  35.593  1.00  0.00     0.049 A 
ATOM     47  C   UNL A   1      38.053  33.063  33.059  1.00  0.00     0.074 A 
ATOM     48  C   UNL A   1      42.723  30.901  36.776  1.00  0.00     0.029 A 
ATOM     49  N   UNL A   1      41.222  31.165  35.156  1.00  0.00    -0.354 N 
ATOM     50  N   UNL A   1      39.038  32.549  33.757  1.00  0.00    -0.248 NA
ATOM     51  C   UNL A   1      37.423  34.234  33.684  1.00  0.00     0.031 C 
ATOM     52  C   UNL A   1      41.938  32.016  37.079  1.00  0.00     0.029 A 
ATOM     53  C   UNL A   1      41.020  32.197  36.057  1.00  0.00     0.049 A 
ATOM     54  H   UNL A   1      40.705  31.027  34.330  1.00  0.00     0.167 HD
ATOM     55  C   UNL A   1      39.167  33.353  34.884  1.00  0.00     0.074 A 
ATOM     56  C   UNL A   1      38.166  34.393  34.771  1.00  0.00     0.031 C 
ATOM     57  C   UNL A   1      40.033  33.238  35.920  1.00  0.00     0.037 A 
BRANCH  44  58
ATOM     58  C   UNL A   1      43.873  28.420  35.524  1.00  0.00     0.058 A 
ATOM     59  C   UNL A   1      43.635  27.444  36.504  1.00  0.00     0.135 A 
ATOM     60  C   UNL A   1      45.209  28.722  35.214  1.00  0.00     0.135 A 
ATOM     61  F   UNL A   1      42.377  27.108  36.834  1.00  0.00    -0.206 F 
ATOM     62  C   UNL A   1      44.679  26.818  37.177  1.00  0.00     0.059 A 
ATOM     63  C   UNL A   1      46.269  28.089  35.855  1.00  0.00     0.059 A 
ATOM     64  F   UNL A   1      45.494  29.630  34.267  1.00  0.00    -0.206 F 
ATOM     65  C   UNL A   1      45.994  27.153  36.850  1.00  0.00     0.060 A 
BRANCH  65  66
ATOM     66  S   UNL A   1      47.337  26.337  37.739  1.00  0.00     0.124 S 
ATOM     67  O   UNL A   1      48.453  27.243  37.495  1.00  0.00    -0.237 OA
ATOM     68  O   UNL A   1      46.825  26.309  39.105  1.00  0.00    -0.237 OA
ATOM     69  O   UNL A   1      47.432  25.034  37.087  1.00  0.00    -0.744 OA
ENDBRANCH  65  66
ENDBRANCH  44  58
BRANCH  45  70
ATOM     70  C   UNL A   1      36.393  33.365  31.075  1.00  0.00     0.058 A 
ATOM     71  C   UNL A   1      35.078  33.308  31.562  1.00  0.00     0.135 A 
ATOM     72  C   UNL A   1      36.632  34.157  29.940  1.00  0.00     0.135 A 
ATOM     73  F   UNL A   1      34.788  32.558  32.637  1.00  0.00    -0.206 F 
ATOM     74  C   UNL A   1      34.039  33.993  30.940  1.00  0.00     0.059 A 
ATOM     75  C   UNL A   1      35.616  34.876  29.319  1.00  0.00     0.059 A 
ATOM     76  F   UNL A   1      37.875  34.254  29.443  1.00  0.00    -0.206 F 
ATOM     77  C   UNL A   1      34.318  34.777  29.819  1.00  0.00     0.060 A 
BRANCH  77  78
ATOM     78  S   UNL A   1      32.958  35.675  29.040  1.00  0.00     0.124 S 
ATOM     79  O   UNL A   1      32.399  34.651  28.164  1.00  0.00    -0.237 OA
ATOM     80  O   UNL A   1      32.140  36.043  30.191  1.00  0.00    -0.237 OA
ATOM     81  O   UNL A   1      33.627  36.783  28.367  1.00  0.00    -0.744 OA
ENDBRANCH  77  78
ENDBRANCH  45  70
BRANCH  57  82
ATOM     82  C   UNL A   1      39.974  34.278  37.005  1.00  0.00     0.058 A 
ATOM     83  C   UNL A   1      39.201  34.055  38.157  1.00  0.00     0.135 A 
ATOM     84  C   UNL A   1      40.599  35.526  36.865  1.00  0.00     0.135 A 
ATOM     85  F   UNL A   1      38.575  32.882  38.338  1.00  0.00    -0.206 F 
ATOM     86  C   UNL A   1      39.030  35.043  39.120  1.00  0.00     0.059 A 
ATOM     87  C   UNL A   1      40.468  36.518  37.832  1.00  0.00     0.059 A 
ATOM     88  F   UNL A   1      41.357  35.783  35.787  1.00  0.00    -0.206 F 
ATOM     89  C   UNL A   1      39.665  36.273  38.946  1.00  0.00     0.060 A 
BRANCH  89  90
ATOM     90  S   UNL A   1      39.433  37.545  40.207  1.00  0.00     0.124 S 
ATOM     91  O   UNL A   1      38.511  38.460  39.543  1.00  0.00    -0.237 OA
ATOM     92  O   UNL A   1      38.876  36.778  41.317  1.00  0.00    -0.237 OA
ATOM     93  O   UNL A   1      40.782  38.059  40.422  1.00  0.00    -0.744 OA
ENDBRANCH  89  90
ENDBRANCH  57  82
ENDBRANCH  31  32
ENDBRANCH  23  26
ENDBRANCH  21  22
ENDBRANCH   1  21
TORSDOF 16
ENDMDL
MODEL 3
REMARK VINA RESULT:     -10.8      4.902     10.547
REMARK SMILES C[C@H]1C[C@H]1CN(C)c1cccc(F)c1C(=O)NCCCNC(=O)c1ccc(-c2c3nc(c(-c4c(F)cc(S(=O)(=O)[O-])cc4F)c4ccc([nH]4)c(-c4c(F)cc(S(=O)(=O)[O-])cc4F)c4nc(c(-c5c(F)cc(S(=O)(=O)[O-])cc5F)c5ccc2[nH]5)C=C4)C=C3)cc1
REMARK SMILES IDX 19 1 18 2 17 3 15 4 16 5 14 7 8 8 9 9 10 10 12 11 11 12
REMARK SMILES IDX 13 13 6 14 7 15 5 16 4 17 1 18 2 19 3 20 20 21 21 22 22 23
REMARK SMILES IDX 23 25 24 26 25 27 89 28 26 29 88 30 27 31 28 32 29 33 82 34
REMARK SMILES IDX 30 35 87 36 81 37 83 38 31 39 86 40 80 41 79 42 32 44 66 45
REMARK SMILES IDX 45 46 65 47 46 48 49 49 64 50 84 51 47 52 48 53 63 55 85 56
REMARK SMILES IDX 50 57 33 58 34 59 43 60 35 61 36 62 42 63 44 64 37 65 38 66
REMARK SMILES IDX 39 67 40 68 41 69 67 70 68 71 77 72 69 73 70 74 76 75 78 76
REMARK SMILES IDX 71 77 72 78 73 79 74 80 75 81 51 82 52 83 61 84 53 85 54 86
REMARK SMILES IDX 60 87 62 88 55 89 56 90 57 91 58 92 59 93
REMARK H PARENT 17 6 21 24 83 43 49 54
REMARK Flexibility Score: inf
ROOT
ATOM      1  C   UNL A   1      37.758  23.772  25.842  1.00  0.00     0.042 C 
ENDROOT
BRANCH   1   2
ATOM      2  C   UNL A   1      37.038  22.529  25.343  1.00  0.00     0.118 C 
BRANCH   2   3
ATOM      3  N   UNL A   1      36.464  22.617  24.003  1.00  0.00    -0.352 N 
ATOM      4  C   UNL A   1      35.225  23.070  23.573  1.00  0.00     0.256 C 
ATOM      5  O   UNL A   1      35.078  23.283  22.369  1.00  0.00    -0.269 OA
ATOM      6  H   UNL A   1      37.057  22.300  23.283  1.00  0.00     0.163 HD
BRANCH   4   7
ATOM      7  C   UNL A   1      34.089  23.224  24.521  1.00  0.00     0.098 A 
ATOM      8  C   UNL A   1      33.250  22.145  24.883  1.00  0.00     0.052 A 
ATOM      9  C   UNL A   1      32.403  22.321  25.995  1.00  0.00     0.027 A 
ATOM     10  C   UNL A   1      32.279  23.547  26.646  1.00  0.00     0.005 A 
ATOM     11  C   UNL A   1      33.835  24.480  25.081  1.00  0.00     0.138 A 
ATOM     12  C   UNL A   1      32.960  24.645  26.151  1.00  0.00     0.040 A 
ATOM     13  F   UNL A   1      34.431  25.582  24.596  1.00  0.00    -0.206 F 
BRANCH   8  14
ATOM     14  N   UNL A   1      33.094  20.969  24.160  1.00  0.00    -0.374 N 
ATOM     15  C   UNL A   1      32.213  20.906  23.011  1.00  0.00     0.143 C 
BRANCH  14  16
ATOM     16  C   UNL A   1      33.685  19.749  24.715  1.00  0.00     0.120 C 
BRANCH  16  17
ATOM     17  C   UNL A   1      32.685  18.621  24.688  1.00  0.00     0.011 C 
ATOM     18  C   UNL A   1      34.139  16.901  23.243  1.00  0.00     0.008 C 
ATOM     19  C   UNL A   1      32.897  17.292  23.971  1.00  0.00    -0.009 C 
ATOM     20  C   UNL A   1      32.930  17.352  25.475  1.00  0.00     0.009 C 
ENDBRANCH  16  17
ENDBRANCH  14  16
ENDBRANCH   8  14
ENDBRANCH   4   7
ENDBRANCH   2   3
ENDBRANCH   1   2
BRANCH   1  21
ATOM     21  C   UNL A   1      38.873  23.541  26.846  1.00  0.00     0.118 C 
BRANCH  21  22
ATOM     22  N   UNL A   1      40.210  23.717  26.293  1.00  0.00    -0.352 N 
ATOM     23  C   UNL A   1      41.154  24.702  26.480  1.00  0.00     0.251 C 
ATOM     24  H   UNL A   1      40.489  23.004  25.674  1.00  0.00     0.163 HD
ATOM     25  O   UNL A   1      42.166  24.697  25.786  1.00  0.00    -0.269 OA
BRANCH  23  26
ATOM     26  C   UNL A   1      40.954  25.782  27.477  1.00  0.00     0.039 A 
ATOM     27  C   UNL A   1      39.950  25.638  28.441  1.00  0.00     0.014 A 
ATOM     28  C   UNL A   1      41.724  26.945  27.459  1.00  0.00     0.014 A 
ATOM     29  C   UNL A   1      39.784  26.613  29.430  1.00  0.00     0.010 A 
ATOM     30  C   UNL A   1      41.631  27.861  28.504  1.00  0.00     0.010 A 
ATOM     31  C   UNL A   1      40.657  27.710  29.501  1.00  0.00    -0.014 A 
BRANCH  31  32
ATOM     32  C   UNL A   1      40.565  28.717  30.592  1.00  0.00     0.031 A 
ATOM     33  C   UNL A   1      41.479  28.621  31.786  1.00  0.00     0.074 A 
ATOM     34  C   UNL A   1      39.620  29.679  30.541  1.00  0.00     0.049 A 
ATOM     35  N   UNL A   1      41.485  29.337  32.882  1.00  0.00    -0.248 NA
ATOM     36  C   UNL A   1      42.505  27.564  31.761  1.00  0.00     0.031 C 
ATOM     37  C   UNL A   1      38.650  29.857  29.457  1.00  0.00     0.029 A 
ATOM     38  N   UNL A   1      39.313  30.688  31.421  1.00  0.00    -0.354 N 
ATOM     39  C   UNL A   1      42.501  28.813  33.673  1.00  0.00     0.074 A 
ATOM     40  C   UNL A   1      43.049  27.678  32.964  1.00  0.00     0.031 C 
ATOM     41  C   UNL A   1      37.884  30.928  29.719  1.00  0.00     0.029 A 
ATOM     42  C   UNL A   1      38.270  31.487  31.010  1.00  0.00     0.049 A 
ATOM     43  H   UNL A   1      39.794  30.827  32.269  1.00  0.00     0.167 HD
ATOM     44  C   UNL A   1      42.961  29.258  34.865  1.00  0.00     0.037 A 
ATOM     45  C   UNL A   1      37.686  32.545  31.607  1.00  0.00     0.037 A 
ATOM     46  C   UNL A   1      42.438  30.412  35.549  1.00  0.00     0.049 A 
ATOM     47  C   UNL A   1      38.201  33.003  32.947  1.00  0.00     0.074 A 
ATOM     48  C   UNL A   1      42.864  30.967  36.742  1.00  0.00     0.029 A 
ATOM     49  N   UNL A   1      41.385  31.193  35.096  1.00  0.00    -0.354 N 
ATOM     50  N   UNL A   1      39.187  32.516  33.661  1.00  0.00    -0.248 NA
ATOM     51  C   UNL A   1      37.524  34.152  33.564  1.00  0.00     0.031 C 
ATOM     52  C   UNL A   1      42.040  32.057  37.035  1.00  0.00     0.029 A 
ATOM     53  C   UNL A   1      41.137  32.215  35.996  1.00  0.00     0.049 A 
ATOM     54  H   UNL A   1      40.888  31.043  34.260  1.00  0.00     0.167 HD
ATOM     55  C   UNL A   1      39.271  33.319  34.793  1.00  0.00     0.074 A 
ATOM     56  C   UNL A   1      38.242  34.329  34.666  1.00  0.00     0.031 C 
ATOM     57  C   UNL A   1      40.121  33.226  35.844  1.00  0.00     0.037 A 
BRANCH  44  58
ATOM     58  C   UNL A   1      44.111  28.527  35.503  1.00  0.00     0.058 A 
ATOM     59  C   UNL A   1      45.438  28.869  35.197  1.00  0.00     0.135 A 
ATOM     60  C   UNL A   1      43.898  27.425  36.347  1.00  0.00     0.135 A 
ATOM     61  F   UNL A   1      45.701  29.919  34.403  1.00  0.00    -0.206 F 
ATOM     62  C   UNL A   1      46.511  28.126  35.678  1.00  0.00     0.059 A 
ATOM     63  C   UNL A   1      44.957  26.684  36.862  1.00  0.00     0.059 A 
ATOM     64  F   UNL A   1      42.650  27.069  36.691  1.00  0.00    -0.206 F 
ATOM     65  C   UNL A   1      46.259  27.029  36.505  1.00  0.00     0.060 A 
BRANCH  65  66
ATOM     66  S   UNL A   1      47.662  26.071  37.114  1.00  0.00     0.124 S 
ATOM     67  O   UNL A   1      47.456  26.119  38.557  1.00  0.00    -0.237 OA
ATOM     68  O   UNL A   1      47.442  24.774  36.482  1.00  0.00    -0.237 OA
ATOM     69  O   UNL A   1      48.818  26.812  36.619  1.00  0.00    -0.744 OA
ENDBRANCH  65  66
ENDBRANCH  44  58
BRANCH  45  70
ATOM     70  C   UNL A   1      36.569  33.264  30.934  1.00  0.00     0.058 A 
ATOM     71  C   UNL A   1      35.237  33.106  31.349  1.00  0.00     0.135 A 
ATOM     72  C   UNL A   1      36.814  34.126  29.853  1.00  0.00     0.135 A 
ATOM     73  F   UNL A   1      34.941  32.286  32.370  1.00  0.00    -0.206 F 
ATOM     74  C   UNL A   1      34.191  33.763  30.710  1.00  0.00     0.059 A 
ATOM     75  C   UNL A   1      35.788  34.818  29.217  1.00  0.00     0.059 A 
ATOM     76  F   UNL A   1      38.072  34.320  29.425  1.00  0.00    -0.206 F 
ATOM     77  C   UNL A   1      34.476  34.619  29.645  1.00  0.00     0.060 A 
BRANCH  77  78
ATOM     78  S   UNL A   1      33.104  35.477  28.843  1.00  0.00     0.124 S 
ATOM     79  O   UNL A   1      32.379  36.005  29.993  1.00  0.00    -0.237 OA
ATOM     80  O   UNL A   1      33.801  36.464  28.024  1.00  0.00    -0.237 OA
ATOM     81  O   UNL A   1      32.427  34.417  28.104  1.00  0.00    -0.744 OA
ENDBRANCH  77  78
ENDBRANCH  45  70
BRANCH  57  82
ATOM     82  C   UNL A   1      40.011  34.259  36.932  1.00  0.00     0.058 A 
ATOM     83  C   UNL A   1      39.087  34.091  37.977  1.00  0.00     0.135 A 
ATOM     84  C   UNL A   1      40.744  35.454  36.891  1.00  0.00     0.135 A 
ATOM     85  F   UNL A   1      38.353  32.970  38.060  1.00  0.00    -0.206 F 
ATOM     86  C   UNL A   1      38.877  35.082  38.928  1.00  0.00     0.059 A 
ATOM     87  C   UNL A   1      40.574  36.446  37.851  1.00  0.00     0.059 A 
ATOM     88  F   UNL A   1      41.647  35.658  35.918  1.00  0.00    -0.206 F 
ATOM     89  C   UNL A   1      39.623  36.259  38.855  1.00  0.00     0.060 A 
BRANCH  89  90
ATOM     90  S   UNL A   1      39.338  37.536  40.099  1.00  0.00     0.124 S 
ATOM     91  O   UNL A   1      39.062  36.738  41.289  1.00  0.00    -0.237 OA
ATOM     92  O   UNL A   1      40.609  38.254  40.098  1.00  0.00    -0.237 OA
ATOM     93  O   UNL A   1      38.203  38.282  39.565  1.00  0.00    -0.744 OA
ENDBRANCH  89  90
ENDBRANCH  57  82
ENDBRANCH  31  32
ENDBRANCH  23  26
ENDBRANCH  21  22
ENDBRANCH   1  21
TORSDOF 16
ENDMDL
