MODEL 1
REMARK VINA RESULT:     -11.2      0.000      0.000
REMARK SMILES Cc1ccc(-c2nn(-c3ccccc3)cc2[C@@H]2[NH2+][C@H](C(=O)NCCCNC(=O)c3ccc(-c4c5nc(c(-c6c(F)cc(S(=O)(=O)[O-])cc6F)c6ccc([nH]6)c(-c6c(F)cc(S(=O)(=O)[O-])cc6F)c6nc(c(-c7c(F)cc(S(=O)(=O)[O-])cc7F)c7ccc4[nH]7)C=C6)C=C5)cc3)CS2)cc1
REMARK SMILES IDX 24 1 23 2 22 3 20 4 21 5 19 7 17 8 18 9 96 10 95 13 16 14
REMARK SMILES IDX 6 15 7 16 8 17 15 18 5 19 1 20 2 21 3 22 98 23 4 24 97 25
REMARK SMILES IDX 9 26 10 27 14 28 11 29 13 30 12 31 25 32 26 33 27 34 28 36
REMARK SMILES IDX 29 37 30 38 94 39 31 40 93 41 32 42 33 43 34 44 87 45 35 46
REMARK SMILES IDX 92 47 86 48 88 49 36 50 91 51 85 52 84 53 37 55 71 56 50 57
REMARK SMILES IDX 70 58 51 59 54 60 69 61 89 62 52 63 53 64 68 66 90 67 55 68
REMARK SMILES IDX 38 69 39 70 48 71 40 72 41 73 47 74 49 75 42 76 43 77 44 78
REMARK SMILES IDX 45 79 46 80 72 81 73 82 82 83 74 84 75 85 81 86 83 87 76 88
REMARK SMILES IDX 77 89 78 90 79 91 80 92 56 93 57 94 66 95 58 96 59 97 65 98
REMARK SMILES IDX 67 99 60 100 61 101 62 102 63 103 64 104
REMARK H PARENT 22 6 18 11 18 12 26 35 88 54 54 65
REMARK Flexibility Score: inf
ROOT
ATOM      1  C   UNL A   1      38.745  30.634  35.780  1.00  0.00     0.042 C 
ENDROOT
BRANCH   1   2
ATOM      2  C   UNL A   1      37.932  31.449  34.769  1.00  0.00     0.118 C 
BRANCH   2   3
ATOM      3  N   UNL A   1      38.089  32.891  34.830  1.00  0.00    -0.351 N 
ATOM      4  C   UNL A   1      38.727  33.731  33.962  1.00  0.00     0.279 C 
ATOM      5  O   UNL A   1      38.358  34.915  33.976  1.00  0.00    -0.268 OA
ATOM      6  H   UNL A   1      37.677  33.327  35.610  1.00  0.00     0.163 HD
BRANCH   4   7
ATOM      7  C   UNL A   1      39.844  33.322  32.973  1.00  0.00     0.283 C 
ATOM      8  C   UNL A   1      39.898  32.219  30.798  1.00  0.00     0.278 C 
ATOM      9  N   UNL A   1      39.617  32.048  32.243  1.00  0.00    -0.320 N 
ATOM     10  S   UNL A   1      40.991  33.633  30.633  1.00  0.00    -0.087 SA
ATOM     11  H   UNL A   1      40.234  31.330  32.622  1.00  0.00     0.348 HD
ATOM     12  H   UNL A   1      38.641  31.773  32.357  1.00  0.00     0.348 HD
ATOM     13  C   UNL A   1      40.221  34.464  32.037  1.00  0.00     0.151 C 
BRANCH   8  14
ATOM     14  C   UNL A   1      38.572  32.352  30.098  1.00  0.00     0.067 A 
ATOM     15  C   UNL A   1      37.862  31.264  29.499  1.00  0.00     0.103 A 
ATOM     16  N   UNL A   1      36.551  31.583  29.435  1.00  0.00    -0.167 NA
ATOM     17  N   UNL A   1      36.414  32.921  29.752  1.00  0.00    -0.240 N 
ATOM     18  C   UNL A   1      37.688  33.441  29.987  1.00  0.00     0.126 A 
BRANCH  15  19
ATOM     19  C   UNL A   1      38.358  29.885  29.154  1.00  0.00     0.003 A 
ATOM     20  C   UNL A   1      39.902  25.923  28.085  1.00  0.00     0.044 C 
ATOM     21  C   UNL A   1      39.373  27.284  28.442  1.00  0.00    -0.051 A 
ATOM     22  C   UNL A   1      38.535  27.449  29.544  1.00  0.00     0.004 A 
ATOM     23  C   UNL A   1      39.680  28.420  27.684  1.00  0.00     0.004 A 
ATOM     24  C   UNL A   1      38.061  28.728  29.905  1.00  0.00     0.011 A 
ATOM     25  C   UNL A   1      39.170  29.694  28.028  1.00  0.00     0.011 A 
ENDBRANCH  15  19
BRANCH  17  26
ATOM     26  C   UNL A   1      35.073  33.604  29.933  1.00  0.00     0.065 A 
ATOM     27  C   UNL A   1      34.464  34.541  28.544  1.00  0.00     0.028 A 
ATOM     28  C   UNL A   1      34.541  34.078  31.566  1.00  0.00     0.028 A 
ATOM     29  C   UNL A   1      33.485  36.042  28.753  1.00  0.00     0.002 A 
ATOM     30  C   UNL A   1      33.376  35.482  31.831  1.00  0.00     0.002 A 
ATOM     31  C   UNL A   1      32.839  36.480  30.425  1.00  0.00     0.000 A 
ENDBRANCH  17  26
ENDBRANCH   8  14
ENDBRANCH   4   7
ENDBRANCH   2   3
ENDBRANCH   1   2
BRANCH   1  32
ATOM     32  C   UNL A   1      40.214  30.394  35.394  1.00  0.00     0.118 C 
BRANCH  32  33
ATOM     33  N   UNL A   1      40.940  29.101  35.482  1.00  0.00    -0.352 N 
ATOM     34  C   UNL A   1      41.735  28.445  34.509  1.00  0.00     0.251 C 
ATOM     35  H   UNL A   1      40.857  28.630  36.343  1.00  0.00     0.163 HD
ATOM     36  O   UNL A   1      42.340  27.402  34.720  1.00  0.00    -0.269 OA
BRANCH  34  37
ATOM     37  C   UNL A   1      41.962  29.141  33.214  1.00  0.00     0.039 A 
ATOM     38  C   UNL A   1      41.041  28.985  32.156  1.00  0.00     0.014 A 
ATOM     39  C   UNL A   1      43.286  29.376  32.952  1.00  0.00     0.014 A 
ATOM     40  C   UNL A   1      41.528  28.694  30.885  1.00  0.00     0.010 A 
ATOM     41  C   UNL A   1      43.766  28.780  31.819  1.00  0.00     0.010 A 
ATOM     42  C   UNL A   1      42.884  28.423  30.785  1.00  0.00    -0.014 A 
BRANCH  42  43
ATOM     43  C   UNL A   1      43.641  28.321  29.556  1.00  0.00     0.031 A 
ATOM     44  C   UNL A   1      44.116  26.908  29.420  1.00  0.00     0.074 A 
ATOM     45  C   UNL A   1      43.392  29.268  28.609  1.00  0.00     0.049 A 
ATOM     46  N   UNL A   1      44.853  26.465  28.484  1.00  0.00    -0.248 NA
ATOM     47  C   UNL A   1      43.779  25.821  30.373  1.00  0.00     0.031 C 
ATOM     48  C   UNL A   1      43.415  29.198  27.152  1.00  0.00     0.029 A 
ATOM     49  N   UNL A   1      43.211  30.638  28.826  1.00  0.00    -0.354 N 
ATOM     50  C   UNL A   1      44.638  25.095  28.427  1.00  0.00     0.074 A 
ATOM     51  C   UNL A   1      44.142  24.722  29.714  1.00  0.00     0.031 C 
ATOM     52  C   UNL A   1      43.627  30.428  26.636  1.00  0.00     0.029 A 
ATOM     53  C   UNL A   1      43.818  31.339  27.746  1.00  0.00     0.049 A 
ATOM     54  H   UNL A   1      42.745  31.045  29.592  1.00  0.00     0.167 HD
ATOM     55  C   UNL A   1      44.717  24.511  27.201  1.00  0.00     0.037 A 
ATOM     56  C   UNL A   1      44.963  32.058  27.994  1.00  0.00     0.037 A 
ATOM     57  C   UNL A   1      45.101  25.552  26.236  1.00  0.00     0.049 A 
ATOM     58  C   UNL A   1      46.213  31.196  27.606  1.00  0.00     0.074 A 
ATOM     59  C   UNL A   1      44.420  26.340  25.328  1.00  0.00     0.029 A 
ATOM     60  N   UNL A   1      46.287  26.215  26.476  1.00  0.00    -0.354 N 
ATOM     61  N   UNL A   1      46.125  29.983  27.107  1.00  0.00    -0.248 NA
ATOM     62  C   UNL A   1      47.620  31.595  27.735  1.00  0.00     0.031 C 
ATOM     63  C   UNL A   1      45.218  27.512  25.081  1.00  0.00     0.029 A 
ATOM     64  C   UNL A   1      46.363  27.442  25.858  1.00  0.00     0.049 A 
ATOM     65  H   UNL A   1      47.009  25.845  27.035  1.00  0.00     0.167 HD
ATOM     66  C   UNL A   1      47.354  29.465  26.808  1.00  0.00     0.074 A 
ATOM     67  C   UNL A   1      48.266  30.494  27.294  1.00  0.00     0.031 C 
ATOM     68  C   UNL A   1      47.534  28.263  26.159  1.00  0.00     0.037 A 
BRANCH  55  69
ATOM     69  C   UNL A   1      44.285  23.117  26.793  1.00  0.00     0.058 A 
ATOM     70  C   UNL A   1      45.183  22.347  26.020  1.00  0.00     0.135 A 
ATOM     71  C   UNL A   1      43.062  22.468  27.080  1.00  0.00     0.135 A 
ATOM     72  F   UNL A   1      46.396  22.809  25.690  1.00  0.00    -0.206 F 
ATOM     73  C   UNL A   1      44.891  21.070  25.550  1.00  0.00     0.059 A 
ATOM     74  C   UNL A   1      42.747  21.179  26.617  1.00  0.00     0.059 A 
ATOM     75  F   UNL A   1      42.111  23.029  27.830  1.00  0.00    -0.206 F 
ATOM     76  C   UNL A   1      43.671  20.489  25.849  1.00  0.00     0.060 A 
BRANCH  76  77
ATOM     77  S   UNL A   1      43.349  18.829  25.233  1.00  0.00     0.124 S 
ATOM     78  O   UNL A   1      44.152  18.012  26.136  1.00  0.00    -0.237 OA
ATOM     79  O   UNL A   1      41.903  18.721  25.393  1.00  0.00    -0.237 OA
ATOM     80  O   UNL A   1      43.822  18.878  23.852  1.00  0.00    -0.744 OA
ENDBRANCH  76  77
ENDBRANCH  55  69
BRANCH  56  81
ATOM     81  C   UNL A   1      44.717  32.829  29.286  1.00  0.00     0.058 A 
ATOM     82  C   UNL A   1      45.473  32.546  30.458  1.00  0.00     0.135 A 
ATOM     83  C   UNL A   1      44.443  34.153  29.121  1.00  0.00     0.135 A 
ATOM     84  F   UNL A   1      45.740  31.254  30.731  1.00  0.00    -0.206 F 
ATOM     85  C   UNL A   1      46.073  33.542  31.373  1.00  0.00     0.059 A 
ATOM     86  C   UNL A   1      45.156  35.116  29.886  1.00  0.00     0.059 A 
ATOM     87  F   UNL A   1      43.750  34.582  28.053  1.00  0.00    -0.206 F 
ATOM     88  C   UNL A   1      46.003  35.070  31.263  1.00  0.00     0.060 A 
BRANCH  88  89
ATOM     89  S   UNL A   1      46.266  36.967  32.960  1.00  0.00     0.124 S 
ATOM     90  O   UNL A   1      46.936  38.189  32.404  1.00  0.00    -0.237 OA
ATOM     91  O   UNL A   1      44.975  37.438  33.528  1.00  0.00    -0.237 OA
ATOM     92  O   UNL A   1      47.099  36.593  34.155  1.00  0.00    -0.744 OA
ENDBRANCH  88  89
ENDBRANCH  56  81
BRANCH  68  93
ATOM     93  C   UNL A   1      48.890  27.718  25.750  1.00  0.00     0.058 A 
ATOM     94  C   UNL A   1      49.227  27.520  24.405  1.00  0.00     0.135 A 
ATOM     95  C   UNL A   1      49.866  27.266  26.682  1.00  0.00     0.135 A 
ATOM     96  F   UNL A   1      48.322  27.701  23.432  1.00  0.00    -0.206 F 
ATOM     97  C   UNL A   1      50.490  27.084  24.013  1.00  0.00     0.059 A 
ATOM     98  C   UNL A   1      51.101  26.760  26.315  1.00  0.00     0.059 A 
ATOM     99  F   UNL A   1      49.696  27.296  28.007  1.00  0.00    -0.206 F 
ATOM    100  C   UNL A   1      51.425  26.722  24.977  1.00  0.00     0.060 A 
BRANCH 100 101
ATOM    101  S   UNL A   1      53.048  26.159  24.470  1.00  0.00     0.124 S 
ATOM    102  O   UNL A   1      53.169  24.895  25.189  1.00  0.00    -0.237 OA
ATOM    103  O   UNL A   1      52.880  26.058  23.025  1.00  0.00    -0.237 OA
ATOM    104  O   UNL A   1      53.939  27.223  24.926  1.00  0.00    -0.744 OA
ENDBRANCH 100 101
ENDBRANCH  68  93
ENDBRANCH  42  43
ENDBRANCH  34  37
ENDBRANCH  32  33
ENDBRANCH   1  32
TORSDOF 16
ENDMDL
MODEL 2
REMARK VINA RESULT:     -10.7      4.209      6.268
REMARK SMILES Cc1ccc(-c2nn(-c3ccccc3)cc2[C@@H]2[NH2+][C@H](C(=O)NCCCNC(=O)c3ccc(-c4c5nc(c(-c6c(F)cc(S(=O)(=O)[O-])cc6F)c6ccc([nH]6)c(-c6c(F)cc(S(=O)(=O)[O-])cc6F)c6nc(c(-c7c(F)cc(S(=O)(=O)[O-])cc7F)c7ccc4[nH]7)C=C6)C=C5)cc3)CS2)cc1
REMARK SMILES IDX 24 1 23 2 22 3 20 4 21 5 19 7 17 8 18 9 96 10 95 13 16 14
REMARK SMILES IDX 6 15 7 16 8 17 15 18 5 19 1 20 2 21 3 22 98 23 4 24 97 25
REMARK SMILES IDX 9 26 10 27 14 28 11 29 13 30 12 31 25 32 26 33 27 34 28 36
REMARK SMILES IDX 29 37 30 38 94 39 31 40 93 41 32 42 33 43 34 44 87 45 35 46
REMARK SMILES IDX 92 47 86 48 88 49 36 50 91 51 85 52 84 53 37 55 71 56 50 57
REMARK SMILES IDX 70 58 51 59 54 60 69 61 89 62 52 63 53 64 68 66 90 67 55 68
REMARK SMILES IDX 38 69 39 70 48 71 40 72 41 73 47 74 49 75 42 76 43 77 44 78
REMARK SMILES IDX 45 79 46 80 72 81 73 82 82 83 74 84 75 85 81 86 83 87 76 88
REMARK SMILES IDX 77 89 78 90 79 91 80 92 56 93 57 94 66 95 58 96 59 97 65 98
REMARK SMILES IDX 67 99 60 100 61 101 62 102 63 103 64 104
REMARK H PARENT 22 6 18 11 18 12 26 35 88 54 54 65
REMARK Flexibility Score: inf
ROOT
ATOM      1  C   UNL A   1      40.970  30.126  33.071  1.00  0.00     0.042 C 
ENDROOT
BRANCH   1   2
ATOM      2  C   UNL A   1      39.652  29.349  33.146  1.00  0.00     0.118 C 
BRANCH   2   3
ATOM      3  N   UNL A   1      38.445  30.100  32.856  1.00  0.00    -0.351 N 
ATOM      4  C   UNL A   1      37.576  29.975  31.810  1.00  0.00     0.279 C 
ATOM      5  O   UNL A   1      36.425  30.394  32.001  1.00  0.00    -0.268 OA
ATOM      6  H   UNL A   1      38.219  30.803  33.507  1.00  0.00     0.163 HD
BRANCH   4   7
ATOM      7  C   UNL A   1      37.910  29.348  30.435  1.00  0.00     0.283 C 
ATOM      8  C   UNL A   1      36.948  29.490  28.198  1.00  0.00     0.278 C 
ATOM      9  N   UNL A   1      36.740  29.010  29.584  1.00  0.00    -0.320 N 
ATOM     10  S   UNL A   1      38.717  29.676  27.959  1.00  0.00    -0.087 SA
ATOM     11  H   UNL A   1      36.617  27.997  29.573  1.00  0.00     0.348 HD
ATOM     12  H   UNL A   1      35.912  29.463  29.969  1.00  0.00     0.348 HD
ATOM     13  C   UNL A   1      38.957  30.160  29.680  1.00  0.00     0.151 C 
BRANCH   8  14
ATOM     14  C   UNL A   1      36.147  30.755  28.040  1.00  0.00     0.067 A 
ATOM     15  C   UNL A   1      34.761  30.795  27.686  1.00  0.00     0.103 A 
ATOM     16  N   UNL A   1      34.234  31.959  28.124  1.00  0.00    -0.167 NA
ATOM     17  N   UNL A   1      35.268  32.775  28.539  1.00  0.00    -0.240 N 
ATOM     18  C   UNL A   1      36.468  32.097  28.318  1.00  0.00     0.126 A 
BRANCH  15  19
ATOM     19  C   UNL A   1      33.899  29.703  27.112  1.00  0.00     0.003 A 
ATOM     20  C   UNL A   1      31.285  26.606  25.436  1.00  0.00     0.044 C 
ATOM     21  C   UNL A   1      32.174  27.670  26.018  1.00  0.00    -0.051 A 
ATOM     22  C   UNL A   1      33.560  27.572  25.903  1.00  0.00     0.004 A 
ATOM     23  C   UNL A   1      31.656  28.775  26.703  1.00  0.00     0.004 A 
ATOM     24  C   UNL A   1      34.401  28.582  26.417  1.00  0.00     0.011 A 
ATOM     25  C   UNL A   1      32.505  29.765  27.251  1.00  0.00     0.011 A 
ENDBRANCH  15  19
BRANCH  17  26
ATOM     26  C   UNL A   1      35.056  34.106  29.234  1.00  0.00     0.065 A 
ATOM     27  C   UNL A   1      34.978  34.070  31.015  1.00  0.00     0.028 A 
ATOM     28  C   UNL A   1      34.204  35.417  28.380  1.00  0.00     0.028 A 
ATOM     29  C   UNL A   1      33.929  35.198  31.952  1.00  0.00     0.002 A 
ATOM     30  C   UNL A   1      33.279  36.723  29.297  1.00  0.00     0.002 A 
ATOM     31  C   UNL A   1      33.131  36.623  31.094  1.00  0.00     0.000 A 
ENDBRANCH  17  26
ENDBRANCH   8  14
ENDBRANCH   4   7
ENDBRANCH   2   3
ENDBRANCH   1   2
BRANCH   1  32
ATOM     32  C   UNL A   1      40.825  31.657  33.049  1.00  0.00     0.118 C 
BRANCH  32  33
ATOM     33  N   UNL A   1      40.278  32.499  34.144  1.00  0.00    -0.352 N 
ATOM     34  C   UNL A   1      40.042  33.896  34.175  1.00  0.00     0.251 C 
ATOM     35  H   UNL A   1      40.046  32.015  34.969  1.00  0.00     0.163 HD
ATOM     36  O   UNL A   1      39.525  34.475  35.122  1.00  0.00    -0.269 OA
BRANCH  34  37
ATOM     37  C   UNL A   1      40.303  34.672  32.933  1.00  0.00     0.039 A 
ATOM     38  C   UNL A   1      39.608  34.360  31.745  1.00  0.00     0.014 A 
ATOM     39  C   UNL A   1      41.566  35.200  32.881  1.00  0.00     0.014 A 
ATOM     40  C   UNL A   1      40.333  34.231  30.563  1.00  0.00     0.010 A 
ATOM     41  C   UNL A   1      42.331  34.765  31.834  1.00  0.00     0.010 A 
ATOM     42  C   UNL A   1      41.715  34.264  30.674  1.00  0.00    -0.014 A 
BRANCH  42  43
ATOM     43  C   UNL A   1      42.652  34.376  29.577  1.00  0.00     0.031 A 
ATOM     44  C   UNL A   1      43.408  33.088  29.480  1.00  0.00     0.074 A 
ATOM     45  C   UNL A   1      42.367  35.310  28.628  1.00  0.00     0.049 A 
ATOM     46  N   UNL A   1      44.348  32.844  28.660  1.00  0.00    -0.248 NA
ATOM     47  C   UNL A   1      43.151  31.905  30.340  1.00  0.00     0.031 C 
ATOM     48  C   UNL A   1      42.620  35.328  27.191  1.00  0.00     0.029 A 
ATOM     49  N   UNL A   1      41.892  36.607  28.850  1.00  0.00    -0.354 N 
ATOM     50  C   UNL A   1      44.416  31.464  28.535  1.00  0.00     0.074 A 
ATOM     51  C   UNL A   1      43.815  30.933  29.717  1.00  0.00     0.031 C 
ATOM     52  C   UNL A   1      42.663  36.603  26.747  1.00  0.00     0.029 A 
ATOM     53  C   UNL A   1      42.505  37.470  27.897  1.00  0.00     0.049 A 
ATOM     54  H   UNL A   1      41.247  36.876  29.542  1.00  0.00     0.167 HD
ATOM     55  C   UNL A   1      44.788  30.974  27.321  1.00  0.00     0.037 A 
ATOM     56  C   UNL A   1      43.438  38.377  28.340  1.00  0.00     0.037 A 
ATOM     57  C   UNL A   1      45.102  32.122  26.456  1.00  0.00     0.049 A 
ATOM     58  C   UNL A   1      44.876  37.789  28.131  1.00  0.00     0.074 A 
ATOM     59  C   UNL A   1      44.423  32.817  25.473  1.00  0.00     0.029 A 
ATOM     60  N   UNL A   1      46.087  32.982  26.897  1.00  0.00    -0.354 N 
ATOM     61  N   UNL A   1      45.101  36.611  27.593  1.00  0.00    -0.248 NA
ATOM     62  C   UNL A   1      46.143  38.438  28.490  1.00  0.00     0.031 C 
ATOM     63  C   UNL A   1      45.006  34.130  25.386  1.00  0.00     0.029 A 
ATOM     64  C   UNL A   1      46.013  34.234  26.331  1.00  0.00     0.049 A 
ATOM     65  H   UNL A   1      46.775  32.724  27.553  1.00  0.00     0.167 HD
ATOM     66  C   UNL A   1      46.439  36.351  27.478  1.00  0.00     0.074 A 
ATOM     67  C   UNL A   1      47.050  37.505  28.127  1.00  0.00     0.031 C 
ATOM     68  C   UNL A   1      46.943  35.243  26.833  1.00  0.00     0.037 A 
BRANCH  55  69
ATOM     69  C   UNL A   1      44.703  29.550  26.814  1.00  0.00     0.058 A 
ATOM     70  C   UNL A   1      43.423  28.960  26.713  1.00  0.00     0.135 A 
ATOM     71  C   UNL A   1      45.766  28.700  26.427  1.00  0.00     0.135 A 
ATOM     72  F   UNL A   1      42.312  29.644  27.014  1.00  0.00    -0.206 F 
ATOM     73  C   UNL A   1      43.213  27.648  26.299  1.00  0.00     0.059 A 
ATOM     74  C   UNL A   1      45.577  27.374  26.004  1.00  0.00     0.059 A 
ATOM     75  F   UNL A   1      47.039  29.102  26.421  1.00  0.00    -0.206 F 
ATOM     76  C   UNL A   1      44.293  26.856  25.947  1.00  0.00     0.060 A 
BRANCH  76  77
ATOM     77  S   UNL A   1      43.967  25.173  25.401  1.00  0.00     0.124 S 
ATOM     78  O   UNL A   1      43.829  24.466  26.670  1.00  0.00    -0.237 OA
ATOM     79  O   UNL A   1      42.740  25.337  24.628  1.00  0.00    -0.237 OA
ATOM     80  O   UNL A   1      45.153  24.828  24.622  1.00  0.00    -0.744 OA
ENDBRANCH  76  77
ENDBRANCH  55  69
BRANCH  56  81
ATOM     81  C   UNL A   1      42.856  39.014  29.597  1.00  0.00     0.058 A 
ATOM     82  C   UNL A   1      43.527  38.901  30.847  1.00  0.00     0.135 A 
ATOM     83  C   UNL A   1      42.264  40.225  29.404  1.00  0.00     0.135 A 
ATOM     84  F   UNL A   1      44.092  37.714  31.146  1.00  0.00    -0.206 F 
ATOM     85  C   UNL A   1      43.739  39.988  31.828  1.00  0.00     0.059 A 
ATOM     86  C   UNL A   1      42.609  41.315  30.249  1.00  0.00     0.059 A 
ATOM     87  F   UNL A   1      41.604  40.492  28.265  1.00  0.00    -0.206 F 
ATOM     88  C   UNL A   1      43.281  41.448  31.714  1.00  0.00     0.060 A 
BRANCH  88  89
ATOM     89  S   UNL A   1      42.846  43.291  33.435  1.00  0.00     0.124 S 
ATOM     90  O   UNL A   1      44.080  43.754  34.152  1.00  0.00    -0.237 OA
ATOM     91  O   UNL A   1      42.236  44.515  32.851  1.00  0.00    -0.237 OA
ATOM     92  O   UNL A   1      41.905  42.878  34.534  1.00  0.00    -0.744 OA
ENDBRANCH  88  89
ENDBRANCH  56  81
BRANCH  68  93
ATOM     93  C   UNL A   1      48.426  34.987  26.628  1.00  0.00     0.058 A 
ATOM     94  C   UNL A   1      49.033  35.152  25.378  1.00  0.00     0.135 A 
ATOM     95  C   UNL A   1      49.276  34.460  27.639  1.00  0.00     0.135 A 
ATOM     96  F   UNL A   1      48.306  35.437  24.287  1.00  0.00    -0.206 F 
ATOM     97  C   UNL A   1      50.403  34.986  25.190  1.00  0.00     0.059 A 
ATOM     98  C   UNL A   1      50.626  34.216  27.457  1.00  0.00     0.059 A 
ATOM     99  F   UNL A   1      48.862  34.158  28.874  1.00  0.00    -0.206 F 
ATOM    100  C   UNL A   1      51.193  34.533  26.242  1.00  0.00     0.060 A 
BRANCH 100 101
ATOM    101  S   UNL A   1      52.955  34.316  25.998  1.00  0.00     0.124 S 
ATOM    102  O   UNL A   1      53.486  34.652  27.315  1.00  0.00    -0.237 OA
ATOM    103  O   UNL A   1      53.022  32.908  25.623  1.00  0.00    -0.237 OA
ATOM    104  O   UNL A   1      53.274  35.266  24.937  1.00  0.00    -0.744 OA
ENDBRANCH 100 101
ENDBRANCH  68  93
ENDBRANCH  42  43
ENDBRANCH  34  37
ENDBRANCH  32  33
ENDBRANCH   1  32
TORSDOF 16
ENDMDL
MODEL 3
REMARK VINA RESULT:     -10.4      7.549     14.629
REMARK SMILES Cc1ccc(-c2nn(-c3ccccc3)cc2[C@@H]2[NH2+][C@H](C(=O)NCCCNC(=O)c3ccc(-c4c5nc(c(-c6c(F)cc(S(=O)(=O)[O-])cc6F)c6ccc([nH]6)c(-c6c(F)cc(S(=O)(=O)[O-])cc6F)c6nc(c(-c7c(F)cc(S(=O)(=O)[O-])cc7F)c7ccc4[nH]7)C=C6)C=C5)cc3)CS2)cc1
REMARK SMILES IDX 24 1 23 2 22 3 20 4 21 5 19 7 17 8 18 9 96 10 95 13 16 14
REMARK SMILES IDX 6 15 7 16 8 17 15 18 5 19 1 20 2 21 3 22 98 23 4 24 97 25
REMARK SMILES IDX 9 26 10 27 14 28 11 29 13 30 12 31 25 32 26 33 27 34 28 36
REMARK SMILES IDX 29 37 30 38 94 39 31 40 93 41 32 42 33 43 34 44 87 45 35 46
REMARK SMILES IDX 92 47 86 48 88 49 36 50 91 51 85 52 84 53 37 55 71 56 50 57
REMARK SMILES IDX 70 58 51 59 54 60 69 61 89 62 52 63 53 64 68 66 90 67 55 68
REMARK SMILES IDX 38 69 39 70 48 71 40 72 41 73 47 74 49 75 42 76 43 77 44 78
REMARK SMILES IDX 45 79 46 80 72 81 73 82 82 83 74 84 75 85 81 86 83 87 76 88
REMARK SMILES IDX 77 89 78 90 79 91 80 92 56 93 57 94 66 95 58 96 59 97 65 98
REMARK SMILES IDX 67 99 60 100 61 101 62 102 63 103 64 104
REMARK H PARENT 22 6 18 11 18 12 26 35 88 54 54 65
REMARK Flexibility Score: inf
ROOT
ATOM      1  C   UNL A   1      43.893  25.106  37.547  1.00  0.00     0.042 C 
ENDROOT
BRANCH   1   2
ATOM      2  C   UNL A   1      45.114  24.592  38.318  1.00  0.00     0.118 C 
BRANCH   2   3
ATOM      3  N   UNL A   1      44.886  23.474  39.214  1.00  0.00    -0.351 N 
ATOM      4  C   UNL A   1      45.671  22.383  39.458  1.00  0.00     0.279 C 
ATOM      5  O   UNL A   1      45.498  21.818  40.548  1.00  0.00    -0.268 OA
ATOM      6  H   UNL A   1      44.042  23.504  39.719  1.00  0.00     0.163 HD
BRANCH   4   7
ATOM      7  C   UNL A   1      46.750  21.822  38.502  1.00  0.00     0.283 C 
ATOM      8  C   UNL A   1      48.151  19.824  38.468  1.00  0.00     0.278 C 
ATOM      9  N   UNL A   1      47.877  21.108  39.157  1.00  0.00    -0.320 N 
ATOM     10  S   UNL A   1      47.493  19.963  36.805  1.00  0.00    -0.087 SA
ATOM     11  H   UNL A   1      48.712  21.694  39.118  1.00  0.00     0.348 HD
ATOM     12  H   UNL A   1      47.625  20.914  40.126  1.00  0.00     0.348 HD
ATOM     13  C   UNL A   1      46.137  21.012  37.366  1.00  0.00     0.151 C 
BRANCH   8  14
ATOM     14  C   UNL A   1      47.542  18.731  39.306  1.00  0.00     0.067 A 
ATOM     15  C   UNL A   1      48.144  18.187  40.484  1.00  0.00     0.103 A 
ATOM     16  N   UNL A   1      47.176  17.648  41.257  1.00  0.00    -0.167 NA
ATOM     17  N   UNL A   1      46.006  17.611  40.524  1.00  0.00    -0.240 N 
ATOM     18  C   UNL A   1      46.277  18.117  39.252  1.00  0.00     0.126 A 
BRANCH  15  19
ATOM     19  C   UNL A   1      49.562  18.320  40.971  1.00  0.00     0.003 A 
ATOM     20  C   UNL A   1      53.647  18.719  42.514  1.00  0.00     0.044 C 
ATOM     21  C   UNL A   1      52.244  18.590  41.990  1.00  0.00    -0.051 A 
ATOM     22  C   UNL A   1      52.004  17.986  40.757  1.00  0.00     0.004 A 
ATOM     23  C   UNL A   1      51.142  19.081  42.699  1.00  0.00     0.004 A 
ATOM     24  C   UNL A   1      50.687  17.831  40.273  1.00  0.00     0.011 A 
ATOM     25  C   UNL A   1      49.826  18.959  42.191  1.00  0.00     0.011 A 
ENDBRANCH  15  19
BRANCH  17  26
ATOM     26  C   UNL A   1      44.665  17.209  41.109  1.00  0.00     0.065 A 
ATOM     27  C   UNL A   1      44.645  16.800  42.844  1.00  0.00     0.028 A 
ATOM     28  C   UNL A   1      43.433  16.472  40.055  1.00  0.00     0.028 A 
ATOM     29  C   UNL A   1      43.544  15.542  43.520  1.00  0.00     0.002 A 
ATOM     30  C   UNL A   1      42.149  15.331  40.725  1.00  0.00     0.002 A 
ATOM     31  C   UNL A   1      42.195  14.853  42.466  1.00  0.00     0.000 A 
ENDBRANCH  17  26
ENDBRANCH   8  14
ENDBRANCH   4   7
ENDBRANCH   2   3
ENDBRANCH   1   2
BRANCH   1  32
ATOM     32  C   UNL A   1      43.679  24.468  36.164  1.00  0.00     0.118 C 
BRANCH  32  33
ATOM     33  N   UNL A   1      44.299  23.209  35.677  1.00  0.00    -0.352 N 
ATOM     34  C   UNL A   1      45.044  22.969  34.496  1.00  0.00     0.251 C 
ATOM     35  H   UNL A   1      44.174  22.426  36.261  1.00  0.00     0.163 HD
ATOM     36  O   UNL A   1      45.562  21.892  34.229  1.00  0.00    -0.269 OA
BRANCH  34  37
ATOM     37  C   UNL A   1      45.333  24.128  33.609  1.00  0.00     0.039 A 
ATOM     38  C   UNL A   1      45.978  25.271  34.126  1.00  0.00     0.014 A 
ATOM     39  C   UNL A   1      44.454  24.240  32.564  1.00  0.00     0.014 A 
ATOM     40  C   UNL A   1      45.446  26.525  33.837  1.00  0.00     0.010 A 
ATOM     41  C   UNL A   1      43.733  25.401  32.536  1.00  0.00     0.010 A 
ATOM     42  C   UNL A   1      44.221  26.547  33.187  1.00  0.00    -0.014 A 
BRANCH  42  43
ATOM     43  C   UNL A   1      43.596  27.708  32.593  1.00  0.00     0.031 A 
ATOM     44  C   UNL A   1      42.553  28.210  33.542  1.00  0.00     0.074 A 
ATOM     45  C   UNL A   1      44.314  28.363  31.639  1.00  0.00     0.049 A 
ATOM     46  N   UNL A   1      41.771  29.189  33.329  1.00  0.00    -0.248 NA
ATOM     47  C   UNL A   1      42.295  27.623  34.881  1.00  0.00     0.031 C 
ATOM     48  C   UNL A   1      44.375  29.777  31.284  1.00  0.00     0.029 A 
ATOM     49  N   UNL A   1      45.070  27.780  30.617  1.00  0.00    -0.354 N 
ATOM     50  C   UNL A   1      41.356  29.642  34.574  1.00  0.00     0.074 A 
ATOM     51  C   UNL A   1      41.532  28.543  35.469  1.00  0.00     0.031 C 
ATOM     52  C   UNL A   1      44.775  29.912  30.001  1.00  0.00     0.029 A 
ATOM     53  C   UNL A   1      44.925  28.582  29.449  1.00  0.00     0.049 A 
ATOM     54  H   UNL A   1      45.608  26.959  30.691  1.00  0.00     0.167 HD
ATOM     55  C   UNL A   1      41.120  30.976  34.695  1.00  0.00     0.037 A 
ATOM     56  C   UNL A   1      44.206  28.075  28.393  1.00  0.00     0.037 A 
ATOM     57  C   UNL A   1      41.317  31.585  33.370  1.00  0.00     0.049 A 
ATOM     58  C   UNL A   1      42.737  28.618  28.456  1.00  0.00     0.074 A 
ATOM     59  C   UNL A   1      42.346  32.271  32.755  1.00  0.00     0.029 A 
ATOM     60  N   UNL A   1      40.536  31.100  32.341  1.00  0.00    -0.354 N 
ATOM     61  N   UNL A   1      42.313  29.443  29.388  1.00  0.00    -0.248 NA
ATOM     62  C   UNL A   1      41.650  28.301  27.521  1.00  0.00     0.031 C 
ATOM     63  C   UNL A   1      42.176  32.131  31.333  1.00  0.00     0.029 A 
ATOM     64  C   UNL A   1      41.064  31.341  31.094  1.00  0.00     0.049 A 
ATOM     65  H   UNL A   1      39.684  30.627  32.486  1.00  0.00     0.167 HD
ATOM     66  C   UNL A   1      41.009  29.804  29.193  1.00  0.00     0.074 A 
ATOM     67  C   UNL A   1      40.617  28.996  28.044  1.00  0.00     0.031 C 
ATOM     68  C   UNL A   1      40.363  30.754  29.953  1.00  0.00     0.037 A 
BRANCH  55  69
ATOM     69  C   UNL A   1      40.915  31.785  35.959  1.00  0.00     0.058 A 
ATOM     70  C   UNL A   1      39.596  32.164  36.294  1.00  0.00     0.135 A 
ATOM     71  C   UNL A   1      41.898  32.235  36.872  1.00  0.00     0.135 A 
ATOM     72  F   UNL A   1      38.549  31.790  35.547  1.00  0.00    -0.206 F 
ATOM     73  C   UNL A   1      39.279  32.939  37.406  1.00  0.00     0.059 A 
ATOM     74  C   UNL A   1      41.600  33.016  38.001  1.00  0.00     0.059 A 
ATOM     75  F   UNL A   1      43.192  31.938  36.735  1.00  0.00    -0.206 F 
ATOM     76  C   UNL A   1      40.284  33.365  38.257  1.00  0.00     0.060 A 
BRANCH  76  77
ATOM     77  S   UNL A   1      39.820  34.349  39.690  1.00  0.00     0.124 S 
ATOM     78  O   UNL A   1      39.569  33.320  40.694  1.00  0.00    -0.237 OA
ATOM     79  O   UNL A   1      41.013  35.163  39.899  1.00  0.00    -0.237 OA
ATOM     80  O   UNL A   1      38.639  35.079  39.238  1.00  0.00    -0.744 OA
ENDBRANCH  76  77
ENDBRANCH  55  69
BRANCH  56  81
ATOM     81  C   UNL A   1      44.669  26.635  28.206  1.00  0.00     0.058 A 
ATOM     82  C   UNL A   1      43.767  25.550  28.393  1.00  0.00     0.135 A 
ATOM     83  C   UNL A   1      45.547  26.443  27.182  1.00  0.00     0.135 A 
ATOM     84  F   UNL A   1      42.900  25.631  29.423  1.00  0.00    -0.206 F 
ATOM     85  C   UNL A   1      43.627  24.367  27.516  1.00  0.00     0.059 A 
ATOM     86  C   UNL A   1      45.306  25.407  26.239  1.00  0.00     0.059 A 
ATOM     87  F   UNL A   1      46.453  27.384  26.871  1.00  0.00    -0.206 F 
ATOM     88  C   UNL A   1      44.417  24.056  26.238  1.00  0.00     0.060 A 
BRANCH  88  89
ATOM     89  S   UNL A   1      44.928  21.891  24.973  1.00  0.00     0.124 S 
ATOM     90  O   UNL A   1      46.379  21.511  24.985  1.00  0.00    -0.237 OA
ATOM     91  O   UNL A   1      44.197  20.709  25.502  1.00  0.00    -0.237 OA
ATOM     92  O   UNL A   1      44.565  21.948  23.514  1.00  0.00    -0.744 OA
ENDBRANCH  88  89
ENDBRANCH  56  81
BRANCH  68  93
ATOM     93  C   UNL A   1      38.942  31.221  29.694  1.00  0.00     0.058 A 
ATOM     94  C   UNL A   1      38.641  32.571  29.476  1.00  0.00     0.135 A 
ATOM     95  C   UNL A   1      37.811  30.362  29.763  1.00  0.00     0.135 A 
ATOM     96  F   UNL A   1      39.583  33.518  29.599  1.00  0.00    -0.206 F 
ATOM     97  C   UNL A   1      37.353  33.005  29.171  1.00  0.00     0.059 A 
ATOM     98  C   UNL A   1      36.512  30.783  29.536  1.00  0.00     0.059 A 
ATOM     99  F   UNL A   1      37.886  29.056  30.041  1.00  0.00    -0.206 F 
ATOM    100  C   UNL A   1      36.298  32.098  29.188  1.00  0.00     0.060 A 
BRANCH 100 101
ATOM    101  S   UNL A   1      34.642  32.658  28.798  1.00  0.00     0.124 S 
ATOM    102  O   UNL A   1      34.897  33.683  27.792  1.00  0.00    -0.237 OA
ATOM    103  O   UNL A   1      34.029  31.427  28.313  1.00  0.00    -0.237 OA
ATOM    104  O   UNL A   1      34.136  33.152  30.076  1.00  0.00    -0.744 OA
ENDBRANCH 100 101
ENDBRANCH  68  93
ENDBRANCH  42  43
ENDBRANCH  34  37
ENDBRANCH  32  33
ENDBRANCH   1  32
TORSDOF 16
ENDMDL
