MODEL 1
REMARK VINA RESULT:     -11.8      0.000      0.000
REMARK SMILES Cc1cc(Cl)c2c(c1)C=C(C(=O)NCCCNC(=O)c1ccc(-c3c4nc(c(-c5c(F)cc(S(=O)(=O)[O-])cc5F)c5ccc([nH]5)c(-c5c(F)cc(S(=O)(=O)[O-])cc5F)c5nc(c(-c6c(F)cc(S(=O)(=O)[O-])cc6F)c6ccc3[nH]6)C=C5)C=C4)cc1)[C@@H](C(F)(F)F)O2
REMARK SMILES IDX 16 1 15 2 14 3 13 4 11 5 12 6 10 8 1 9 2 10 3 11 8 12 4 13
REMARK SMILES IDX 7 14 5 15 6 16 9 17 91 18 86 19 87 20 88 21 89 22 90 23
REMARK SMILES IDX 17 24 18 25 19 27 20 28 21 29 85 30 22 31 84 32 23 33 24 34
REMARK SMILES IDX 25 35 78 36 26 37 83 38 77 39 79 40 27 41 82 42 76 43 75 44
REMARK SMILES IDX 28 46 62 47 41 48 61 49 42 50 45 51 60 52 80 53 43 54 44 55
REMARK SMILES IDX 59 57 81 58 46 59 29 60 30 61 39 62 31 63 32 64 38 65 40 66
REMARK SMILES IDX 33 67 34 68 35 69 36 70 37 71 63 72 64 73 73 74 65 75 66 76
REMARK SMILES IDX 72 77 74 78 67 79 68 80 69 81 70 82 71 83 47 84 48 85 57 86
REMARK SMILES IDX 49 87 50 88 56 89 58 90 51 91 52 92 53 93 54 94 55 95
REMARK H PARENT 13 7 17 26 79 45 45 56
REMARK Flexibility Score: inf
ROOT
ATOM      1  C   UNL A   1      33.677  28.213  27.075  1.00  0.00     0.118 C 
ENDROOT
BRANCH   1   2
ATOM      2  C   UNL A   1      34.077  28.011  25.619  1.00  0.00     0.042 C 
BRANCH   2   3
ATOM      3  C   UNL A   1      32.934  27.459  24.782  1.00  0.00     0.118 C 
BRANCH   3   4
ATOM      4  N   UNL A   1      31.935  26.785  25.596  1.00  0.00    -0.352 N 
ATOM      5  C   UNL A   1      31.703  25.527  26.039  1.00  0.00     0.251 C 
ATOM      6  O   UNL A   1      30.704  25.396  26.755  1.00  0.00    -0.270 OA
ATOM      7  H   UNL A   1      31.242  27.410  25.909  1.00  0.00     0.163 HD
BRANCH   5   8
ATOM      8  C   UNL A   1      32.551  24.339  25.732  1.00  0.00     0.067 C 
ATOM      9  C   UNL A   1      38.453  22.486  25.902  1.00  0.00     0.044 C 
ATOM     10  C   UNL A   1      36.968  22.345  25.741  1.00  0.00    -0.049 A 
ATOM     11  C   UNL A   1      36.419  21.134  25.301  1.00  0.00     0.028 A 
ATOM     12  C   UNL A   1      36.119  23.435  25.980  1.00  0.00     0.015 A 
ATOM     13  C   UNL A   1      35.040  21.008  25.131  1.00  0.00     0.084 A 
ATOM     14  C   UNL A   1      34.736  23.313  25.805  1.00  0.00     0.019 A 
ATOM     15  Cl  UNL A   1      34.413  19.492  24.593  1.00  0.00    -0.080 Cl
ATOM     16  C   UNL A   1      34.200  22.095  25.378  1.00  0.00     0.146 A 
ATOM     17  C   UNL A   1      33.843  24.429  26.096  1.00  0.00     0.025 C 
ATOM     18  O   UNL A   1      32.851  21.917  25.235  1.00  0.00    -0.474 OA
ATOM     19  C   UNL A   1      32.053  23.109  25.028  1.00  0.00     0.314 C 
BRANCH  19  20
ATOM     20  C   UNL A   1      31.857  23.336  23.516  1.00  0.00     0.429 C 
ATOM     21  F   UNL A   1      30.574  23.682  23.246  1.00  0.00    -0.167 F 
ATOM     22  F   UNL A   1      32.633  24.335  23.031  1.00  0.00    -0.167 F 
ATOM     23  F   UNL A   1      32.144  22.235  22.784  1.00  0.00    -0.167 F 
ENDBRANCH  19  20
ENDBRANCH   5   8
ENDBRANCH   3   4
ENDBRANCH   2   3
ENDBRANCH   1   2
BRANCH   1  24
ATOM     24  N   UNL A   1      33.563  29.629  27.415  1.00  0.00    -0.352 N 
ATOM     25  C   UNL A   1      34.427  30.446  28.095  1.00  0.00     0.251 C 
ATOM     26  H   UNL A   1      32.734  30.064  27.107  1.00  0.00     0.163 HD
ATOM     27  O   UNL A   1      34.027  31.524  28.535  1.00  0.00    -0.269 OA
BRANCH  25  28
ATOM     28  C   UNL A   1      35.829  30.035  28.297  1.00  0.00     0.039 A 
ATOM     29  C   UNL A   1      36.729  30.104  27.230  1.00  0.00     0.014 A 
ATOM     30  C   UNL A   1      36.246  29.555  29.540  1.00  0.00     0.014 A 
ATOM     31  C   UNL A   1      38.063  29.750  27.434  1.00  0.00     0.010 A 
ATOM     32  C   UNL A   1      37.591  29.303  29.768  1.00  0.00     0.010 A 
ATOM     33  C   UNL A   1      38.510  29.379  28.713  1.00  0.00    -0.014 A 
BRANCH  33  34
ATOM     34  C   UNL A   1      39.927  29.027  28.969  1.00  0.00     0.031 A 
ATOM     35  C   UNL A   1      40.850  30.053  29.570  1.00  0.00     0.074 A 
ATOM     36  C   UNL A   1      40.388  27.815  28.609  1.00  0.00     0.049 A 
ATOM     37  N   UNL A   1      42.133  29.971  29.801  1.00  0.00    -0.248 NA
ATOM     38  C   UNL A   1      40.258  31.354  29.928  1.00  0.00     0.031 C 
ATOM     39  C   UNL A   1      39.593  26.757  27.981  1.00  0.00     0.029 A 
ATOM     40  N   UNL A   1      41.641  27.265  28.718  1.00  0.00    -0.354 N 
ATOM     41  C   UNL A   1      42.500  31.206  30.325  1.00  0.00     0.074 A 
ATOM     42  C   UNL A   1      41.322  32.043  30.309  1.00  0.00     0.031 C 
ATOM     43  C   UNL A   1      40.364  25.675  27.797  1.00  0.00     0.029 A 
ATOM     44  C   UNL A   1      41.718  25.973  28.252  1.00  0.00     0.049 A 
ATOM     45  H   UNL A   1      42.410  27.749  29.094  1.00  0.00     0.167 HD
ATOM     46  C   UNL A   1      43.702  31.594  30.810  1.00  0.00     0.037 A 
ATOM     47  C   UNL A   1      42.767  25.128  28.199  1.00  0.00     0.037 A 
ATOM     48  C   UNL A   1      44.860  30.742  30.847  1.00  0.00     0.049 A 
ATOM     49  C   UNL A   1      44.098  25.590  28.723  1.00  0.00     0.074 A 
ATOM     50  C   UNL A   1      46.115  31.019  31.355  1.00  0.00     0.029 A 
ATOM     51  N   UNL A   1      44.902  29.442  30.363  1.00  0.00    -0.354 N 
ATOM     52  N   UNL A   1      44.418  26.745  29.256  1.00  0.00    -0.248 NA
ATOM     53  C   UNL A   1      45.213  24.636  28.640  1.00  0.00     0.031 C 
ATOM     54  C   UNL A   1      46.930  29.904  31.138  1.00  0.00     0.029 A 
ATOM     55  C   UNL A   1      46.168  28.911  30.541  1.00  0.00     0.049 A 
ATOM     56  H   UNL A   1      44.142  28.967  29.953  1.00  0.00     0.167 HD
ATOM     57  C   UNL A   1      45.764  26.650  29.593  1.00  0.00     0.074 A 
ATOM     58  C   UNL A   1      46.194  25.319  29.215  1.00  0.00     0.031 C 
ATOM     59  C   UNL A   1      46.572  27.581  30.159  1.00  0.00     0.037 A 
BRANCH  46  60
ATOM     60  C   UNL A   1      43.819  32.990  31.357  1.00  0.00     0.058 A 
ATOM     61  C   UNL A   1      44.214  34.065  30.545  1.00  0.00     0.135 A 
ATOM     62  C   UNL A   1      43.493  33.267  32.695  1.00  0.00     0.135 A 
ATOM     63  F   UNL A   1      44.557  33.853  29.264  1.00  0.00    -0.206 F 
ATOM     64  C   UNL A   1      44.305  35.360  31.043  1.00  0.00     0.059 A 
ATOM     65  C   UNL A   1      43.547  34.560  33.207  1.00  0.00     0.059 A 
ATOM     66  F   UNL A   1      43.115  32.275  33.517  1.00  0.00    -0.206 F 
ATOM     67  C   UNL A   1      43.964  35.598  32.375  1.00  0.00     0.060 A 
BRANCH  67  68
ATOM     68  S   UNL A   1      44.069  37.289  32.996  1.00  0.00     0.124 S 
ATOM     69  O   UNL A   1      45.425  37.318  33.536  1.00  0.00    -0.237 OA
ATOM     70  O   UNL A   1      43.852  38.077  31.786  1.00  0.00    -0.237 OA
ATOM     71  O   UNL A   1      42.999  37.357  33.986  1.00  0.00    -0.744 OA
ENDBRANCH  67  68
ENDBRANCH  46  60
BRANCH  47  72
ATOM     72  C   UNL A   1      42.582  23.751  27.668  1.00  0.00     0.058 A 
ATOM     73  C   UNL A   1      42.422  22.663  28.538  1.00  0.00     0.135 A 
ATOM     74  C   UNL A   1      42.528  23.498  26.289  1.00  0.00     0.135 A 
ATOM     75  F   UNL A   1      42.472  22.853  29.866  1.00  0.00    -0.206 F 
ATOM     76  C   UNL A   1      42.224  21.371  28.061  1.00  0.00     0.059 A 
ATOM     77  C   UNL A   1      42.305  22.218  25.788  1.00  0.00     0.059 A 
ATOM     78  F   UNL A   1      42.657  24.506  25.413  1.00  0.00    -0.206 F 
ATOM     79  C   UNL A   1      42.161  21.160  26.683  1.00  0.00     0.060 A 
BRANCH  79  80
ATOM     80  S   UNL A   1      41.846  19.486  26.082  1.00  0.00     0.124 S 
ATOM     81  O   UNL A   1      42.261  18.679  27.224  1.00  0.00    -0.237 OA
ATOM     82  O   UNL A   1      40.412  19.524  25.814  1.00  0.00    -0.237 OA
ATOM     83  O   UNL A   1      42.696  19.389  24.899  1.00  0.00    -0.744 OA
ENDBRANCH  79  80
ENDBRANCH  47  72
BRANCH  59  84
ATOM     84  C   UNL A   1      48.000  27.193  30.424  1.00  0.00     0.058 A 
ATOM     85  C   UNL A   1      49.016  27.468  29.496  1.00  0.00     0.135 A 
ATOM     86  C   UNL A   1      48.367  26.619  31.652  1.00  0.00     0.135 A 
ATOM     87  F   UNL A   1      48.717  28.011  28.306  1.00  0.00    -0.206 F 
ATOM     88  C   UNL A   1      50.347  27.175  29.773  1.00  0.00     0.059 A 
ATOM     89  C   UNL A   1      49.694  26.345  31.960  1.00  0.00     0.059 A 
ATOM     90  F   UNL A   1      47.433  26.348  32.577  1.00  0.00    -0.206 F 
ATOM     91  C   UNL A   1      50.677  26.620  31.011  1.00  0.00     0.060 A 
BRANCH  91  92
ATOM     92  S   UNL A   1      52.415  26.293  31.371  1.00  0.00     0.124 S 
ATOM     93  O   UNL A   1      53.000  26.302  30.034  1.00  0.00    -0.237 OA
ATOM     94  O   UNL A   1      52.770  27.421  32.227  1.00  0.00    -0.237 OA
ATOM     95  O   UNL A   1      52.387  24.994  32.035  1.00  0.00    -0.744 OA
ENDBRANCH  91  92
ENDBRANCH  59  84
ENDBRANCH  33  34
ENDBRANCH  25  28
ENDBRANCH   1  24
TORSDOF 14
ENDMDL
MODEL 2
REMARK VINA RESULT:     -11.8      2.996      3.963
REMARK SMILES Cc1cc(Cl)c2c(c1)C=C(C(=O)NCCCNC(=O)c1ccc(-c3c4nc(c(-c5c(F)cc(S(=O)(=O)[O-])cc5F)c5ccc([nH]5)c(-c5c(F)cc(S(=O)(=O)[O-])cc5F)c5nc(c(-c6c(F)cc(S(=O)(=O)[O-])cc6F)c6ccc3[nH]6)C=C5)C=C4)cc1)[C@@H](C(F)(F)F)O2
REMARK SMILES IDX 16 1 15 2 14 3 13 4 11 5 12 6 10 8 1 9 2 10 3 11 8 12 4 13
REMARK SMILES IDX 7 14 5 15 6 16 9 17 91 18 86 19 87 20 88 21 89 22 90 23
REMARK SMILES IDX 17 24 18 25 19 27 20 28 21 29 85 30 22 31 84 32 23 33 24 34
REMARK SMILES IDX 25 35 78 36 26 37 83 38 77 39 79 40 27 41 82 42 76 43 75 44
REMARK SMILES IDX 28 46 62 47 41 48 61 49 42 50 45 51 60 52 80 53 43 54 44 55
REMARK SMILES IDX 59 57 81 58 46 59 29 60 30 61 39 62 31 63 32 64 38 65 40 66
REMARK SMILES IDX 33 67 34 68 35 69 36 70 37 71 63 72 64 73 73 74 65 75 66 76
REMARK SMILES IDX 72 77 74 78 67 79 68 80 69 81 70 82 71 83 47 84 48 85 57 86
REMARK SMILES IDX 49 87 50 88 56 89 58 90 51 91 52 92 53 93 54 94 55 95
REMARK H PARENT 13 7 17 26 79 45 45 56
REMARK Flexibility Score: inf
ROOT
ATOM      1  C   UNL A   1      35.631  31.482  28.326  1.00  0.00     0.118 C 
ENDROOT
BRANCH   1   2
ATOM      2  C   UNL A   1      34.422  30.922  27.588  1.00  0.00     0.042 C 
BRANCH   2   3
ATOM      3  C   UNL A   1      34.414  29.402  27.573  1.00  0.00     0.118 C 
BRANCH   3   4
ATOM      4  N   UNL A   1      33.083  28.860  27.803  1.00  0.00    -0.352 N 
ATOM      5  C   UNL A   1      32.270  27.949  27.219  1.00  0.00     0.251 C 
ATOM      6  O   UNL A   1      31.183  27.775  27.781  1.00  0.00    -0.270 OA
ATOM      7  H   UNL A   1      32.661  29.264  28.595  1.00  0.00     0.163 HD
BRANCH   5   8
ATOM      8  C   UNL A   1      32.599  27.169  25.990  1.00  0.00     0.067 C 
ATOM      9  C   UNL A   1      35.887  22.255  24.164  1.00  0.00     0.044 C 
ATOM     10  C   UNL A   1      34.904  23.380  24.035  1.00  0.00    -0.049 A 
ATOM     11  C   UNL A   1      34.336  23.681  22.791  1.00  0.00     0.028 A 
ATOM     12  C   UNL A   1      34.580  24.174  25.145  1.00  0.00     0.015 A 
ATOM     13  C   UNL A   1      33.437  24.740  22.666  1.00  0.00     0.084 A 
ATOM     14  C   UNL A   1      33.682  25.240  25.022  1.00  0.00     0.019 A 
ATOM     15  Cl  UNL A   1      32.759  25.065  21.111  1.00  0.00    -0.080 Cl
ATOM     16  C   UNL A   1      33.112  25.521  23.777  1.00  0.00     0.146 A 
ATOM     17  C   UNL A   1      33.305  26.041  26.182  1.00  0.00     0.025 C 
ATOM     18  O   UNL A   1      32.198  26.526  23.617  1.00  0.00    -0.474 OA
ATOM     19  C   UNL A   1      32.221  27.592  24.599  1.00  0.00     0.314 C 
BRANCH  19  20
ATOM     20  C   UNL A   1      33.098  28.747  24.077  1.00  0.00     0.429 C 
ATOM     21  F   UNL A   1      32.772  29.911  24.690  1.00  0.00    -0.167 F 
ATOM     22  F   UNL A   1      34.418  28.548  24.310  1.00  0.00    -0.167 F 
ATOM     23  F   UNL A   1      32.966  28.938  22.744  1.00  0.00    -0.167 F 
ENDBRANCH  19  20
ENDBRANCH   5   8
ENDBRANCH   3   4
ENDBRANCH   2   3
ENDBRANCH   1   2
BRANCH   1  24
ATOM     24  N   UNL A   1      35.542  31.249  29.766  1.00  0.00    -0.352 N 
ATOM     25  C   UNL A   1      36.330  30.484  30.587  1.00  0.00     0.251 C 
ATOM     26  H   UNL A   1      34.799  31.713  30.216  1.00  0.00     0.163 HD
ATOM     27  O   UNL A   1      35.924  30.180  31.708  1.00  0.00    -0.269 OA
BRANCH  25  28
ATOM     28  C   UNL A   1      37.656  30.032  30.126  1.00  0.00     0.039 A 
ATOM     29  C   UNL A   1      37.956  30.052  28.762  1.00  0.00     0.014 A 
ATOM     30  C   UNL A   1      38.595  29.563  31.047  1.00  0.00     0.014 A 
ATOM     31  C   UNL A   1      39.225  29.660  28.332  1.00  0.00     0.010 A 
ATOM     32  C   UNL A   1      39.886  29.273  30.631  1.00  0.00     0.010 A 
ATOM     33  C   UNL A   1      40.208  29.299  29.268  1.00  0.00    -0.014 A 
BRANCH  33  34
ATOM     34  C   UNL A   1      41.575  28.907  28.846  1.00  0.00     0.031 A 
ATOM     35  C   UNL A   1      42.669  29.939  28.823  1.00  0.00     0.074 A 
ATOM     36  C   UNL A   1      41.809  27.647  28.434  1.00  0.00     0.049 A 
ATOM     37  N   UNL A   1      43.905  29.820  28.417  1.00  0.00    -0.248 NA
ATOM     38  C   UNL A   1      42.319  31.293  29.287  1.00  0.00     0.031 C 
ATOM     39  C   UNL A   1      40.813  26.575  28.377  1.00  0.00     0.029 A 
ATOM     40  N   UNL A   1      42.960  27.053  27.983  1.00  0.00    -0.354 N 
ATOM     41  C   UNL A   1      44.475  31.079  28.571  1.00  0.00     0.074 A 
ATOM     42  C   UNL A   1      43.433  31.964  29.038  1.00  0.00     0.031 C 
ATOM     43  C   UNL A   1      41.404  25.446  27.955  1.00  0.00     0.029 A 
ATOM     44  C   UNL A   1      42.808  25.722  27.671  1.00  0.00     0.049 A 
ATOM     45  H   UNL A   1      43.814  27.533  27.892  1.00  0.00     0.167 HD
ATOM     46  C   UNL A   1      45.761  31.453  28.377  1.00  0.00     0.037 A 
ATOM     47  C   UNL A   1      43.704  24.828  27.208  1.00  0.00     0.037 A 
ATOM     48  C   UNL A   1      46.796  30.556  27.941  1.00  0.00     0.049 A 
ATOM     49  C   UNL A   1      45.122  25.274  26.978  1.00  0.00     0.074 A 
ATOM     50  C   UNL A   1      48.140  30.820  27.752  1.00  0.00     0.029 A 
ATOM     51  N   UNL A   1      46.603  29.217  27.631  1.00  0.00    -0.354 N 
ATOM     52  N   UNL A   1      45.655  26.456  27.172  1.00  0.00    -0.248 NA
ATOM     53  C   UNL A   1      46.061  24.266  26.467  1.00  0.00     0.031 C 
ATOM     54  C   UNL A   1      48.752  29.653  27.286  1.00  0.00     0.029 A 
ATOM     55  C   UNL A   1      47.800  28.647  27.232  1.00  0.00     0.049 A 
ATOM     56  H   UNL A   1      45.742  28.743  27.686  1.00  0.00     0.167 HD
ATOM     57  C   UNL A   1      46.997  26.330  26.828  1.00  0.00     0.074 A 
ATOM     58  C   UNL A   1      47.196  24.952  26.428  1.00  0.00     0.031 C 
ATOM     59  C   UNL A   1      47.974  27.270  26.840  1.00  0.00     0.037 A 
BRANCH  46  60
ATOM     60  C   UNL A   1      46.122  32.886  28.657  1.00  0.00     0.058 A 
ATOM     61  C   UNL A   1      46.546  33.300  29.930  1.00  0.00     0.135 A 
ATOM     62  C   UNL A   1      46.086  33.849  27.635  1.00  0.00     0.135 A 
ATOM     63  F   UNL A   1      46.580  32.425  30.948  1.00  0.00    -0.206 F 
ATOM     64  C   UNL A   1      46.900  34.620  30.187  1.00  0.00     0.059 A 
ATOM     65  C   UNL A   1      46.464  35.169  27.862  1.00  0.00     0.059 A 
ATOM     66  F   UNL A   1      45.683  33.509  26.400  1.00  0.00    -0.206 F 
ATOM     67  C   UNL A   1      46.860  35.547  29.144  1.00  0.00     0.060 A 
BRANCH  67  68
ATOM     68  S   UNL A   1      47.342  37.250  29.495  1.00  0.00     0.124 S 
ATOM     69  O   UNL A   1      47.916  37.122  30.831  1.00  0.00    -0.237 OA
ATOM     70  O   UNL A   1      48.292  37.530  28.422  1.00  0.00    -0.237 OA
ATOM     71  O   UNL A   1      46.082  37.984  29.422  1.00  0.00    -0.744 OA
ENDBRANCH  67  68
ENDBRANCH  46  60
BRANCH  47  72
ATOM     72  C   UNL A   1      43.290  23.419  26.973  1.00  0.00     0.058 A 
ATOM     73  C   UNL A   1      43.141  22.922  25.670  1.00  0.00     0.135 A 
ATOM     74  C   UNL A   1      43.068  22.532  28.039  1.00  0.00     0.135 A 
ATOM     75  F   UNL A   1      43.337  23.733  24.618  1.00  0.00    -0.206 F 
ATOM     76  C   UNL A   1      42.778  21.601  25.430  1.00  0.00     0.059 A 
ATOM     77  C   UNL A   1      42.729  21.199  27.823  1.00  0.00     0.059 A 
ATOM     78  F   UNL A   1      43.214  22.951  29.305  1.00  0.00    -0.206 F 
ATOM     79  C   UNL A   1      42.581  20.745  26.514  1.00  0.00     0.060 A 
BRANCH  79  80
ATOM     80  S   UNL A   1      42.165  19.018  26.183  1.00  0.00     0.124 S 
ATOM     81  O   UNL A   1      42.445  18.396  27.472  1.00  0.00    -0.237 OA
ATOM     82  O   UNL A   1      40.756  19.112  25.811  1.00  0.00    -0.237 OA
ATOM     83  O   UNL A   1      43.071  18.657  25.098  1.00  0.00    -0.744 OA
ENDBRANCH  79  80
ENDBRANCH  47  72
BRANCH  59  84
ATOM     84  C   UNL A   1      49.354  26.843  26.424  1.00  0.00     0.058 A 
ATOM     85  C   UNL A   1      50.218  26.190  27.316  1.00  0.00     0.135 A 
ATOM     86  C   UNL A   1      49.783  27.014  25.097  1.00  0.00     0.135 A 
ATOM     87  F   UNL A   1      49.857  26.007  28.595  1.00  0.00    -0.206 F 
ATOM     88  C   UNL A   1      51.466  25.731  26.909  1.00  0.00     0.059 A 
ATOM     89  C   UNL A   1      51.015  26.537  24.663  1.00  0.00     0.059 A 
ATOM     90  F   UNL A   1      48.989  27.623  24.203  1.00  0.00    -0.206 F 
ATOM     91  C   UNL A   1      51.852  25.903  25.578  1.00  0.00     0.060 A 
BRANCH  91  92
ATOM     92  S   UNL A   1      53.455  25.255  25.057  1.00  0.00     0.124 S 
ATOM     93  O   UNL A   1      53.319  23.839  25.379  1.00  0.00    -0.237 OA
ATOM     94  O   UNL A   1      53.472  25.584  23.634  1.00  0.00    -0.237 OA
ATOM     95  O   UNL A   1      54.406  25.997  25.878  1.00  0.00    -0.744 OA
ENDBRANCH  91  92
ENDBRANCH  59  84
ENDBRANCH  33  34
ENDBRANCH  25  28
ENDBRANCH   1  24
TORSDOF 14
ENDMDL
MODEL 3
REMARK VINA RESULT:     -11.8      4.895     10.377
REMARK SMILES Cc1cc(Cl)c2c(c1)C=C(C(=O)NCCCNC(=O)c1ccc(-c3c4nc(c(-c5c(F)cc(S(=O)(=O)[O-])cc5F)c5ccc([nH]5)c(-c5c(F)cc(S(=O)(=O)[O-])cc5F)c5nc(c(-c6c(F)cc(S(=O)(=O)[O-])cc6F)c6ccc3[nH]6)C=C5)C=C4)cc1)[C@@H](C(F)(F)F)O2
REMARK SMILES IDX 16 1 15 2 14 3 13 4 11 5 12 6 10 8 1 9 2 10 3 11 8 12 4 13
REMARK SMILES IDX 7 14 5 15 6 16 9 17 91 18 86 19 87 20 88 21 89 22 90 23
REMARK SMILES IDX 17 24 18 25 19 27 20 28 21 29 85 30 22 31 84 32 23 33 24 34
REMARK SMILES IDX 25 35 78 36 26 37 83 38 77 39 79 40 27 41 82 42 76 43 75 44
REMARK SMILES IDX 28 46 62 47 41 48 61 49 42 50 45 51 60 52 80 53 43 54 44 55
REMARK SMILES IDX 59 57 81 58 46 59 29 60 30 61 39 62 31 63 32 64 38 65 40 66
REMARK SMILES IDX 33 67 34 68 35 69 36 70 37 71 63 72 64 73 73 74 65 75 66 76
REMARK SMILES IDX 72 77 74 78 67 79 68 80 69 81 70 82 71 83 47 84 48 85 57 86
REMARK SMILES IDX 49 87 50 88 56 89 58 90 51 91 52 92 53 93 54 94 55 95
REMARK H PARENT 13 7 17 26 79 45 45 56
REMARK Flexibility Score: inf
ROOT
ATOM      1  C   UNL A   1      40.356  23.344  27.134  1.00  0.00     0.118 C 
ENDROOT
BRANCH   1   2
ATOM      2  C   UNL A   1      39.164  22.646  26.494  1.00  0.00     0.042 C 
BRANCH   2   3
ATOM      3  C   UNL A   1      38.075  23.627  26.088  1.00  0.00     0.118 C 
BRANCH   3   4
ATOM      4  N   UNL A   1      37.592  23.381  24.738  1.00  0.00    -0.352 N 
ATOM      5  C   UNL A   1      36.399  23.381  24.098  1.00  0.00     0.251 C 
ATOM      6  O   UNL A   1      36.449  23.124  22.890  1.00  0.00    -0.270 OA
ATOM      7  H   UNL A   1      38.329  23.153  24.127  1.00  0.00     0.163 HD
BRANCH   5   8
ATOM      8  C   UNL A   1      35.082  23.667  24.737  1.00  0.00     0.067 C 
ATOM      9  C   UNL A   1      31.698  28.403  26.838  1.00  0.00     0.044 C 
ATOM     10  C   UNL A   1      31.988  26.986  26.439  1.00  0.00    -0.049 A 
ATOM     11  C   UNL A   1      31.046  25.979  26.681  1.00  0.00     0.028 A 
ATOM     12  C   UNL A   1      33.222  26.646  25.866  1.00  0.00     0.015 A 
ATOM     13  C   UNL A   1      31.322  24.658  26.329  1.00  0.00     0.084 A 
ATOM     14  C   UNL A   1      33.504  25.320  25.516  1.00  0.00     0.019 A 
ATOM     15  Cl  UNL A   1      30.125  23.454  26.643  1.00  0.00    -0.080 Cl
ATOM     16  C   UNL A   1      32.550  24.327  25.752  1.00  0.00     0.146 A 
ATOM     17  C   UNL A   1      34.767  24.967  24.878  1.00  0.00     0.025 C 
ATOM     18  O   UNL A   1      32.765  23.026  25.388  1.00  0.00    -0.474 OA
ATOM     19  C   UNL A   1      34.145  22.608  25.244  1.00  0.00     0.314 C 
BRANCH  19  20
ATOM     20  C   UNL A   1      34.628  21.979  26.566  1.00  0.00     0.429 C 
ATOM     21  F   UNL A   1      35.721  21.205  26.356  1.00  0.00    -0.167 F 
ATOM     22  F   UNL A   1      34.986  22.906  27.486  1.00  0.00    -0.167 F 
ATOM     23  F   UNL A   1      33.685  21.203  27.147  1.00  0.00    -0.167 F 
ENDBRANCH  19  20
ENDBRANCH   5   8
ENDBRANCH   3   4
ENDBRANCH   2   3
ENDBRANCH   1   2
BRANCH   1  24
ATOM     24  N   UNL A   1      41.176  24.035  26.142  1.00  0.00    -0.352 N 
ATOM     25  C   UNL A   1      41.535  25.356  26.059  1.00  0.00     0.251 C 
ATOM     26  H   UNL A   1      41.525  23.463  25.420  1.00  0.00     0.163 HD
ATOM     27  O   UNL A   1      41.980  25.799  25.000  1.00  0.00    -0.269 OA
BRANCH  25  28
ATOM     28  C   UNL A   1      41.388  26.237  27.232  1.00  0.00     0.039 A 
ATOM     29  C   UNL A   1      42.273  27.304  27.409  1.00  0.00     0.014 A 
ATOM     30  C   UNL A   1      40.386  25.989  28.172  1.00  0.00     0.014 A 
ATOM     31  C   UNL A   1      42.108  28.158  28.500  1.00  0.00     0.010 A 
ATOM     32  C   UNL A   1      40.159  26.898  29.196  1.00  0.00     0.010 A 
ATOM     33  C   UNL A   1      41.030  27.980  29.382  1.00  0.00    -0.014 A 
BRANCH  33  34
ATOM     34  C   UNL A   1      40.808  28.889  30.532  1.00  0.00     0.031 A 
ATOM     35  C   UNL A   1      41.660  28.748  31.765  1.00  0.00     0.074 A 
ATOM     36  C   UNL A   1      39.811  29.792  30.485  1.00  0.00     0.049 A 
ATOM     37  N   UNL A   1      41.578  29.389  32.900  1.00  0.00    -0.248 NA
ATOM     38  C   UNL A   1      42.724  27.730  31.727  1.00  0.00     0.031 C 
ATOM     39  C   UNL A   1      38.897  29.987  29.358  1.00  0.00     0.029 A 
ATOM     40  N   UNL A   1      39.396  30.716  31.411  1.00  0.00    -0.354 N 
ATOM     41  C   UNL A   1      42.572  28.850  33.709  1.00  0.00     0.074 A 
ATOM     42  C   UNL A   1      43.196  27.781  32.963  1.00  0.00     0.031 C 
ATOM     43  C   UNL A   1      38.056  30.994  29.641  1.00  0.00     0.029 A 
ATOM     44  C   UNL A   1      38.341  31.487  30.985  1.00  0.00     0.049 A 
ATOM     45  H   UNL A   1      39.815  30.817  32.295  1.00  0.00     0.167 HD
ATOM     46  C   UNL A   1      42.955  29.237  34.948  1.00  0.00     0.037 A 
ATOM     47  C   UNL A   1      37.679  32.480  31.611  1.00  0.00     0.037 A 
ATOM     48  C   UNL A   1      42.346  30.321  35.668  1.00  0.00     0.049 A 
ATOM     49  C   UNL A   1      38.108  32.877  32.997  1.00  0.00     0.074 A 
ATOM     50  C   UNL A   1      42.683  30.824  36.912  1.00  0.00     0.029 A 
ATOM     51  N   UNL A   1      41.277  31.077  35.207  1.00  0.00    -0.354 N 
ATOM     52  N   UNL A   1      39.078  32.387  33.730  1.00  0.00    -0.248 NA
ATOM     53  C   UNL A   1      37.353  33.961  33.642  1.00  0.00     0.031 C 
ATOM     54  C   UNL A   1      41.790  31.854  37.222  1.00  0.00     0.029 A 
ATOM     55  C   UNL A   1      40.928  32.028  36.150  1.00  0.00     0.049 A 
ATOM     56  H   UNL A   1      40.833  30.953  34.337  1.00  0.00     0.167 HD
ATOM     57  C   UNL A   1      39.067  33.117  34.914  1.00  0.00     0.074 A 
ATOM     58  C   UNL A   1      38.001  34.090  34.792  1.00  0.00     0.031 C 
ATOM     59  C   UNL A   1      39.864  32.990  36.005  1.00  0.00     0.037 A 
BRANCH  46  60
ATOM     60  C   UNL A   1      44.096  28.497  35.590  1.00  0.00     0.058 A 
ATOM     61  C   UNL A   1      43.874  27.394  36.430  1.00  0.00     0.135 A 
ATOM     62  C   UNL A   1      45.427  28.866  35.333  1.00  0.00     0.135 A 
ATOM     63  F   UNL A   1      42.621  27.011  36.727  1.00  0.00    -0.206 F 
ATOM     64  C   UNL A   1      44.928  26.697  37.011  1.00  0.00     0.059 A 
ATOM     65  C   UNL A   1      46.497  28.163  35.880  1.00  0.00     0.059 A 
ATOM     66  F   UNL A   1      45.696  29.916  34.542  1.00  0.00    -0.206 F 
ATOM     67  C   UNL A   1      46.237  27.087  36.726  1.00  0.00     0.060 A 
BRANCH  67  68
ATOM     68  S   UNL A   1      47.590  26.155  37.473  1.00  0.00     0.124 S 
ATOM     69  O   UNL A   1      47.248  24.788  37.092  1.00  0.00    -0.237 OA
ATOM     70  O   UNL A   1      48.760  26.724  36.811  1.00  0.00    -0.237 OA
ATOM     71  O   UNL A   1      47.467  26.457  38.896  1.00  0.00    -0.744 OA
ENDBRANCH  67  68
ENDBRANCH  46  60
BRANCH  47  72
ATOM     72  C   UNL A   1      36.573  33.189  30.912  1.00  0.00     0.058 A 
ATOM     73  C   UNL A   1      35.241  33.006  31.308  1.00  0.00     0.135 A 
ATOM     74  C   UNL A   1      36.825  34.084  29.861  1.00  0.00     0.135 A 
ATOM     75  F   UNL A   1      34.949  32.155  32.305  1.00  0.00    -0.206 F 
ATOM     76  C   UNL A   1      34.195  33.678  30.684  1.00  0.00     0.059 A 
ATOM     77  C   UNL A   1      35.798  34.788  29.237  1.00  0.00     0.059 A 
ATOM     78  F   UNL A   1      38.083  34.310  29.454  1.00  0.00    -0.206 F 
ATOM     79  C   UNL A   1      34.485  34.572  29.653  1.00  0.00     0.060 A 
BRANCH  79  80
ATOM     80  S   UNL A   1      33.121  35.479  28.890  1.00  0.00     0.124 S 
ATOM     81  O   UNL A   1      33.833  36.505  28.138  1.00  0.00    -0.237 OA
ATOM     82  O   UNL A   1      32.472  34.439  28.097  1.00  0.00    -0.237 OA
ATOM     83  O   UNL A   1      32.353  35.956  30.036  1.00  0.00    -0.744 OA
ENDBRANCH  79  80
ENDBRANCH  47  72
BRANCH  59  84
ATOM     84  C   UNL A   1      39.629  33.935  37.150  1.00  0.00     0.058 A 
ATOM     85  C   UNL A   1      38.871  33.555  38.268  1.00  0.00     0.135 A 
ATOM     86  C   UNL A   1      40.239  35.200  37.166  1.00  0.00     0.135 A 
ATOM     87  F   UNL A   1      38.264  32.359  38.299  1.00  0.00    -0.206 F 
ATOM     88  C   UNL A   1      38.716  34.404  39.359  1.00  0.00     0.059 A 
ATOM     89  C   UNL A   1      40.120  36.052  38.258  1.00  0.00     0.059 A 
ATOM     90  F   UNL A   1      40.984  35.605  36.125  1.00  0.00    -0.206 F 
ATOM     91  C   UNL A   1      39.350  35.647  39.348  1.00  0.00     0.060 A 
BRANCH  91  92
ATOM     92  S   UNL A   1      39.179  36.714  40.793  1.00  0.00     0.124 S 
ATOM     93  O   UNL A   1      38.330  35.902  41.659  1.00  0.00    -0.237 OA
ATOM     94  O   UNL A   1      40.564  36.871  41.228  1.00  0.00    -0.237 OA
ATOM     95  O   UNL A   1      38.556  37.920  40.256  1.00  0.00    -0.744 OA
ENDBRANCH  91  92
ENDBRANCH  59  84
ENDBRANCH  33  34
ENDBRANCH  25  28
ENDBRANCH   1  24
TORSDOF 14
ENDMDL
