MODEL 1
REMARK VINA RESULT:     -12.4      0.000      0.000
REMARK SMILES CC[C@@](C)(NC(=O)N[C@@H](C)c1cccc(Br)c1)C(=O)NCCCNC(=O)c1ccc(-c2c3nc(c(-c4c(F)cc(S(=O)(=O)[O-])cc4F)c4ccc([nH]4)c(-c4c(F)cc(S(=O)(=O)[O-])cc4F)c4nc(c(-c5c(F)cc(S(=O)(=O)[O-])cc5F)c5ccc2[nH]5)C=C4)C=C3)cc1
REMARK SMILES IDX 22 1 21 2 20 3 18 4 19 5 3 7 4 8 2 9 1 10 5 11 6 12 7 14
REMARK SMILES IDX 8 15 9 17 10 18 11 19 12 20 17 21 13 22 15 23 14 24 16 25
REMARK SMILES IDX 23 26 24 27 25 28 26 30 27 31 28 32 92 33 29 34 91 35 30 36
REMARK SMILES IDX 31 37 32 38 85 39 33 40 90 41 84 42 86 43 34 44 89 45 83 46
REMARK SMILES IDX 82 47 35 49 69 50 48 51 68 52 49 53 52 54 67 55 87 56 50 57
REMARK SMILES IDX 51 58 66 60 88 61 53 62 36 63 37 64 46 65 38 66 39 67 45 68
REMARK SMILES IDX 47 69 40 70 41 71 42 72 43 73 44 74 70 75 71 76 80 77 72 78
REMARK SMILES IDX 73 79 79 80 81 81 74 82 75 83 76 84 77 85 78 86 54 87 55 88
REMARK SMILES IDX 64 89 56 90 57 91 63 92 65 93 58 94 59 95 60 96 61 97 62 98
REMARK H PARENT 20 6 5 13 8 16 24 29 86 48 52 59
REMARK Flexibility Score: inf
ROOT
ATOM      1  C   UNL A   1      37.349  24.050  25.955  1.00  0.00     0.042 C 
ENDROOT
BRANCH   1   2
ATOM      2  C   UNL A   1      36.421  22.846  25.759  1.00  0.00     0.117 C 
BRANCH   2   3
ATOM      3  N   UNL A   1      35.597  22.360  26.858  1.00  0.00    -0.354 N 
ATOM      4  C   UNL A   1      34.241  22.215  27.013  1.00  0.00     0.245 C 
ATOM      5  O   UNL A   1      33.888  21.367  27.842  1.00  0.00    -0.272 OA
ATOM      6  H   UNL A   1      36.116  22.082  27.647  1.00  0.00     0.163 HD
BRANCH   4   7
ATOM      7  C   UNL A   1      33.195  22.972  26.138  1.00  0.00     0.117 C 
ATOM      8  C   UNL A   1      33.641  24.454  26.131  1.00  0.00     0.045 C 
BRANCH   7   9
ATOM      9  C   UNL A   1      33.057  22.534  24.646  1.00  0.00     0.035 C 
ATOM     10  C   UNL A   1      33.257  21.066  24.300  1.00  0.00     0.007 C 
ENDBRANCH   7   9
BRANCH   7  11
ATOM     11  N   UNL A   1      31.855  22.862  26.743  1.00  0.00    -0.324 N 
ATOM     12  C   UNL A   1      30.702  23.525  26.602  1.00  0.00     0.316 C 
ATOM     13  H   UNL A   1      31.797  22.134  27.403  1.00  0.00     0.166 HD
ATOM     14  O   UNL A   1      29.839  23.311  27.459  1.00  0.00    -0.249 OA
ATOM     15  N   UNL A   1      30.374  24.345  25.602  1.00  0.00    -0.332 N 
ATOM     16  H   UNL A   1      29.433  24.625  25.667  1.00  0.00     0.165 HD
BRANCH  15  17
ATOM     17  C   UNL A   1      31.024  24.945  24.435  1.00  0.00     0.111 C 
ATOM     18  C   UNL A   1      30.567  24.233  23.155  1.00  0.00     0.036 C 
BRANCH  17  19
ATOM     19  C   UNL A   1      30.798  26.451  24.350  1.00  0.00    -0.025 A 
ATOM     20  C   UNL A   1      29.915  26.974  23.385  1.00  0.00     0.006 A 
ATOM     21  C   UNL A   1      31.531  27.359  25.132  1.00  0.00     0.021 A 
ATOM     22  C   UNL A   1      29.749  28.349  23.224  1.00  0.00     0.002 A 
ATOM     23  C   UNL A   1      31.368  28.733  24.959  1.00  0.00     0.018 A 
ATOM     24  C   UNL A   1      30.479  29.232  24.010  1.00  0.00     0.016 A 
ATOM     25  Br  UNL A   1      32.390  29.933  26.003  1.00  0.00    -0.051 Br
ENDBRANCH  17  19
ENDBRANCH  15  17
ENDBRANCH   7  11
ENDBRANCH   4   7
ENDBRANCH   2   3
ENDBRANCH   1   2
BRANCH   1  26
ATOM     26  C   UNL A   1      38.688  23.911  26.676  1.00  0.00     0.118 C 
BRANCH  26  27
ATOM     27  N   UNL A   1      39.845  24.323  25.909  1.00  0.00    -0.352 N 
ATOM     28  C   UNL A   1      40.712  25.363  26.150  1.00  0.00     0.251 C 
ATOM     29  H   UNL A   1      40.038  23.785  25.107  1.00  0.00     0.163 HD
ATOM     30  O   UNL A   1      41.594  25.615  25.334  1.00  0.00    -0.269 OA
BRANCH  28  31
ATOM     31  C   UNL A   1      40.572  26.197  27.368  1.00  0.00     0.039 A 
ATOM     32  C   UNL A   1      41.386  27.326  27.497  1.00  0.00     0.014 A 
ATOM     33  C   UNL A   1      39.684  25.859  28.394  1.00  0.00     0.014 A 
ATOM     34  C   UNL A   1      41.280  28.137  28.630  1.00  0.00     0.010 A 
ATOM     35  C   UNL A   1      39.548  26.697  29.507  1.00  0.00     0.010 A 
ATOM     36  C   UNL A   1      40.345  27.846  29.639  1.00  0.00    -0.014 A 
BRANCH  36  37
ATOM     37  C   UNL A   1      40.199  28.759  30.807  1.00  0.00     0.031 A 
ATOM     38  C   UNL A   1      41.064  28.607  32.030  1.00  0.00     0.074 A 
ATOM     39  C   UNL A   1      39.273  29.741  30.764  1.00  0.00     0.049 A 
ATOM     40  N   UNL A   1      41.117  29.356  33.103  1.00  0.00    -0.248 NA
ATOM     41  C   UNL A   1      41.978  27.455  32.061  1.00  0.00     0.031 C 
ATOM     42  C   UNL A   1      38.333  29.963  29.664  1.00  0.00     0.029 A 
ATOM     43  N   UNL A   1      38.975  30.738  31.660  1.00  0.00    -0.354 N 
ATOM     44  C   UNL A   1      42.067  28.772  33.934  1.00  0.00     0.074 A 
ATOM     45  C   UNL A   1      42.525  27.573  33.263  1.00  0.00     0.031 C 
ATOM     46  C   UNL A   1      37.588  31.047  29.935  1.00  0.00     0.029 A 
ATOM     47  C   UNL A   1      37.975  31.582  31.236  1.00  0.00     0.049 A 
ATOM     48  H   UNL A   1      39.433  30.838  32.527  1.00  0.00     0.167 HD
ATOM     49  C   UNL A   1      42.532  29.205  35.132  1.00  0.00     0.037 A 
ATOM     50  C   UNL A   1      37.435  32.669  31.821  1.00  0.00     0.037 A 
ATOM     51  C   UNL A   1      42.076  30.402  35.795  1.00  0.00     0.049 A 
ATOM     52  C   UNL A   1      37.973  33.134  33.148  1.00  0.00     0.074 A 
ATOM     53  C   UNL A   1      42.522  30.950  36.986  1.00  0.00     0.029 A 
ATOM     54  N   UNL A   1      41.066  31.233  35.331  1.00  0.00    -0.354 N 
ATOM     55  N   UNL A   1      38.928  32.613  33.880  1.00  0.00    -0.248 NA
ATOM     56  C   UNL A   1      37.369  34.345  33.721  1.00  0.00     0.031 C 
ATOM     57  C   UNL A   1      41.750  32.084  37.266  1.00  0.00     0.029 A 
ATOM     58  C   UNL A   1      40.860  32.276  36.222  1.00  0.00     0.049 A 
ATOM     59  H   UNL A   1      40.569  31.102  34.491  1.00  0.00     0.167 HD
ATOM     60  C   UNL A   1      39.058  33.447  34.986  1.00  0.00     0.074 A 
ATOM     61  C   UNL A   1      38.096  34.517  34.816  1.00  0.00     0.031 C 
ATOM     62  C   UNL A   1      39.898  33.336  36.046  1.00  0.00     0.037 A 
BRANCH  49  63
ATOM     63  C   UNL A   1      43.596  28.380  35.810  1.00  0.00     0.058 A 
ATOM     64  C   UNL A   1      43.269  27.340  36.695  1.00  0.00     0.135 A 
ATOM     65  C   UNL A   1      44.957  28.600  35.538  1.00  0.00     0.135 A 
ATOM     66  F   UNL A   1      41.986  27.090  37.001  1.00  0.00    -0.206 F 
ATOM     67  C   UNL A   1      44.252  26.570  37.309  1.00  0.00     0.059 A 
ATOM     68  C   UNL A   1      45.955  27.823  36.118  1.00  0.00     0.059 A 
ATOM     69  F   UNL A   1      45.328  29.578  34.697  1.00  0.00    -0.206 F 
ATOM     70  C   UNL A   1      45.593  26.818  37.015  1.00  0.00     0.060 A 
BRANCH  70  71
ATOM     71  S   UNL A   1      46.854  25.807  37.819  1.00  0.00     0.124 S 
ATOM     72  O   UNL A   1      46.074  24.645  38.234  1.00  0.00    -0.237 OA
ATOM     73  O   UNL A   1      47.806  25.577  36.737  1.00  0.00    -0.237 OA
ATOM     74  O   UNL A   1      47.335  26.659  38.902  1.00  0.00    -0.744 OA
ENDBRANCH  70  71
ENDBRANCH  49  63
BRANCH  50  75
ATOM     75  C   UNL A   1      36.343  33.416  31.138  1.00  0.00     0.058 A 
ATOM     76  C   UNL A   1      35.025  33.377  31.619  1.00  0.00     0.135 A 
ATOM     77  C   UNL A   1      36.597  34.190  29.995  1.00  0.00     0.135 A 
ATOM     78  F   UNL A   1      34.730  32.645  32.705  1.00  0.00    -0.206 F 
ATOM     79  C   UNL A   1      33.995  34.061  30.982  1.00  0.00     0.059 A 
ATOM     80  C   UNL A   1      35.589  34.906  29.358  1.00  0.00     0.059 A 
ATOM     81  F   UNL A   1      37.843  34.274  29.503  1.00  0.00    -0.206 F 
ATOM     82  C   UNL A   1      34.288  34.827  29.853  1.00  0.00     0.060 A 
BRANCH  82  83
ATOM     83  S   UNL A   1      32.954  35.751  29.062  1.00  0.00     0.124 S 
ATOM     84  O   UNL A   1      32.368  34.737  28.193  1.00  0.00    -0.237 OA
ATOM     85  O   UNL A   1      32.144  36.159  30.206  1.00  0.00    -0.237 OA
ATOM     86  O   UNL A   1      33.654  36.837  28.382  1.00  0.00    -0.744 OA
ENDBRANCH  82  83
ENDBRANCH  50  75
BRANCH  62  87
ATOM     87  C   UNL A   1      39.836  34.420  37.090  1.00  0.00     0.058 A 
ATOM     88  C   UNL A   1      39.063  34.286  38.255  1.00  0.00     0.135 A 
ATOM     89  C   UNL A   1      40.574  35.605  36.929  1.00  0.00     0.135 A 
ATOM     90  F   UNL A   1      38.335  33.175  38.459  1.00  0.00    -0.206 F 
ATOM     91  C   UNL A   1      38.990  35.303  39.201  1.00  0.00     0.059 A 
ATOM     92  C   UNL A   1      40.539  36.622  37.879  1.00  0.00     0.059 A 
ATOM     93  F   UNL A   1      41.341  35.783  35.842  1.00  0.00    -0.206 F 
ATOM     94  C   UNL A   1      39.728  36.471  39.002  1.00  0.00     0.060 A 
BRANCH  94  95
ATOM     95  S   UNL A   1      39.624  37.784  40.235  1.00  0.00     0.124 S 
ATOM     96  O   UNL A   1      41.009  38.239  40.299  1.00  0.00    -0.237 OA
ATOM     97  O   UNL A   1      38.680  38.715  39.624  1.00  0.00    -0.237 OA
ATOM     98  O   UNL A   1      39.134  37.095  41.426  1.00  0.00    -0.744 OA
ENDBRANCH  94  95
ENDBRANCH  62  87
ENDBRANCH  36  37
ENDBRANCH  28  31
ENDBRANCH  26  27
ENDBRANCH   1  26
TORSDOF 17
ENDMDL
MODEL 2
REMARK VINA RESULT:     -11.9      5.469     10.189
REMARK SMILES CC[C@@](C)(NC(=O)N[C@@H](C)c1cccc(Br)c1)C(=O)NCCCNC(=O)c1ccc(-c2c3nc(c(-c4c(F)cc(S(=O)(=O)[O-])cc4F)c4ccc([nH]4)c(-c4c(F)cc(S(=O)(=O)[O-])cc4F)c4nc(c(-c5c(F)cc(S(=O)(=O)[O-])cc5F)c5ccc2[nH]5)C=C4)C=C3)cc1
REMARK SMILES IDX 22 1 21 2 20 3 18 4 19 5 3 7 4 8 2 9 1 10 5 11 6 12 7 14
REMARK SMILES IDX 8 15 9 17 10 18 11 19 12 20 17 21 13 22 15 23 14 24 16 25
REMARK SMILES IDX 23 26 24 27 25 28 26 30 27 31 28 32 92 33 29 34 91 35 30 36
REMARK SMILES IDX 31 37 32 38 85 39 33 40 90 41 84 42 86 43 34 44 89 45 83 46
REMARK SMILES IDX 82 47 35 49 69 50 48 51 68 52 49 53 52 54 67 55 87 56 50 57
REMARK SMILES IDX 51 58 66 60 88 61 53 62 36 63 37 64 46 65 38 66 39 67 45 68
REMARK SMILES IDX 47 69 40 70 41 71 42 72 43 73 44 74 70 75 71 76 80 77 72 78
REMARK SMILES IDX 73 79 79 80 81 81 74 82 75 83 76 84 77 85 78 86 54 87 55 88
REMARK SMILES IDX 64 89 56 90 57 91 63 92 65 93 58 94 59 95 60 96 61 97 62 98
REMARK H PARENT 20 6 5 13 8 16 24 29 86 48 52 59
REMARK Flexibility Score: inf
ROOT
ATOM      1  C   UNL A   1      33.164  27.997  25.790  1.00  0.00     0.042 C 
ENDROOT
BRANCH   1   2
ATOM      2  C   UNL A   1      31.679  27.663  25.974  1.00  0.00     0.117 C 
BRANCH   2   3
ATOM      3  N   UNL A   1      30.858  27.289  24.831  1.00  0.00    -0.354 N 
ATOM      4  C   UNL A   1      30.408  26.080  24.362  1.00  0.00     0.245 C 
ATOM      5  O   UNL A   1      29.380  26.124  23.674  1.00  0.00    -0.272 OA
ATOM      6  H   UNL A   1      30.568  28.055  24.286  1.00  0.00     0.163 HD
BRANCH   4   7
ATOM      7  C   UNL A   1      31.062  24.717  24.747  1.00  0.00     0.117 C 
ATOM      8  C   UNL A   1      30.766  23.756  23.569  1.00  0.00     0.045 C 
BRANCH   7   9
ATOM      9  C   UNL A   1      32.607  24.699  24.967  1.00  0.00     0.035 C 
ATOM     10  C   UNL A   1      33.513  24.916  23.763  1.00  0.00     0.007 C 
ENDBRANCH   7   9
BRANCH   7  11
ATOM     11  N   UNL A   1      30.447  24.191  25.979  1.00  0.00    -0.324 N 
ATOM     12  C   UNL A   1      30.605  23.082  26.711  1.00  0.00     0.316 C 
ATOM     13  H   UNL A   1      29.762  24.794  26.347  1.00  0.00     0.166 HD
ATOM     14  O   UNL A   1      29.738  22.858  27.560  1.00  0.00    -0.249 OA
ATOM     15  N   UNL A   1      31.632  22.232  26.653  1.00  0.00    -0.332 N 
ATOM     16  H   UNL A   1      31.572  21.555  27.364  1.00  0.00     0.165 HD
BRANCH  15  17
ATOM     17  C   UNL A   1      32.822  22.024  25.825  1.00  0.00     0.111 C 
ATOM     18  C   UNL A   1      34.080  22.033  26.703  1.00  0.00     0.036 C 
BRANCH  17  19
ATOM     19  C   UNL A   1      32.735  20.756  24.982  1.00  0.00    -0.025 A 
ATOM     20  C   UNL A   1      32.426  20.846  23.611  1.00  0.00     0.006 A 
ATOM     21  C   UNL A   1      32.841  19.476  25.551  1.00  0.00     0.021 A 
ATOM     22  C   UNL A   1      32.254  19.704  22.830  1.00  0.00     0.002 A 
ATOM     23  C   UNL A   1      32.658  18.337  24.767  1.00  0.00     0.018 A 
ATOM     24  C   UNL A   1      32.368  18.445  23.409  1.00  0.00     0.016 A 
ATOM     25  Br  UNL A   1      32.776  16.627  25.563  1.00  0.00    -0.051 Br
ENDBRANCH  17  19
ENDBRANCH  15  17
ENDBRANCH   7  11
ENDBRANCH   4   7
ENDBRANCH   2   3
ENDBRANCH   1   2
BRANCH   1  26
ATOM     26  C   UNL A   1      34.041  28.393  26.975  1.00  0.00     0.118 C 
BRANCH  26  27
ATOM     27  N   UNL A   1      33.792  29.715  27.511  1.00  0.00    -0.352 N 
ATOM     28  C   UNL A   1      34.641  30.531  28.220  1.00  0.00     0.251 C 
ATOM     29  H   UNL A   1      32.892  30.079  27.344  1.00  0.00     0.163 HD
ATOM     30  O   UNL A   1      34.222  31.593  28.671  1.00  0.00    -0.269 OA
BRANCH  28  31
ATOM     31  C   UNL A   1      36.046  30.127  28.467  1.00  0.00     0.039 A 
ATOM     32  C   UNL A   1      36.954  30.197  27.407  1.00  0.00     0.014 A 
ATOM     33  C   UNL A   1      36.466  29.647  29.712  1.00  0.00     0.014 A 
ATOM     34  C   UNL A   1      38.287  29.826  27.604  1.00  0.00     0.010 A 
ATOM     35  C   UNL A   1      37.811  29.318  29.918  1.00  0.00     0.010 A 
ATOM     36  C   UNL A   1      38.737  29.403  28.866  1.00  0.00    -0.014 A 
BRANCH  36  37
ATOM     37  C   UNL A   1      40.176  29.077  29.075  1.00  0.00     0.031 A 
ATOM     38  C   UNL A   1      40.731  27.725  28.709  1.00  0.00     0.074 A 
ATOM     39  C   UNL A   1      40.995  30.013  29.599  1.00  0.00     0.049 A 
ATOM     40  N   UNL A   1      41.969  27.300  28.759  1.00  0.00    -0.248 NA
ATOM     41  C   UNL A   1      39.770  26.714  28.244  1.00  0.00     0.031 C 
ATOM     42  C   UNL A   1      40.575  31.342  30.048  1.00  0.00     0.029 A 
ATOM     43  N   UNL A   1      42.347  29.996  29.837  1.00  0.00    -0.354 N 
ATOM     44  C   UNL A   1      41.938  25.977  28.330  1.00  0.00     0.074 A 
ATOM     45  C   UNL A   1      40.550  25.654  28.077  1.00  0.00     0.031 C 
ATOM     46  C   UNL A   1      41.651  32.023  30.474  1.00  0.00     0.029 A 
ATOM     47  C   UNL A   1      42.833  31.175  30.355  1.00  0.00     0.049 A 
ATOM     48  H   UNL A   1      42.917  29.213  29.655  1.00  0.00     0.167 HD
ATOM     49  C   UNL A   1      42.971  25.119  28.141  1.00  0.00     0.037 A 
ATOM     50  C   UNL A   1      44.087  31.538  30.690  1.00  0.00     0.037 A 
ATOM     51  C   UNL A   1      44.354  25.446  28.389  1.00  0.00     0.049 A 
ATOM     52  C   UNL A   1      45.217  30.570  30.464  1.00  0.00     0.074 A 
ATOM     53  C   UNL A   1      45.476  24.661  28.181  1.00  0.00     0.029 A 
ATOM     54  N   UNL A   1      44.805  26.651  28.909  1.00  0.00    -0.354 N 
ATOM     55  N   UNL A   1      45.178  29.352  29.981  1.00  0.00    -0.248 NA
ATOM     56  C   UNL A   1      46.567  31.034  30.815  1.00  0.00     0.031 C 
ATOM     57  C   UNL A   1      46.599  25.373  28.618  1.00  0.00     0.029 A 
ATOM     58  C   UNL A   1      46.185  26.624  29.047  1.00  0.00     0.049 A 
ATOM     59  H   UNL A   1      44.230  27.415  29.144  1.00  0.00     0.167 HD
ATOM     60  C   UNL A   1      46.497  28.913  29.946  1.00  0.00     0.074 A 
ATOM     61  C   UNL A   1      47.312  30.005  30.438  1.00  0.00     0.031 C 
ATOM     62  C   UNL A   1      46.989  27.714  29.541  1.00  0.00     0.037 A 
BRANCH  49  63
ATOM     63  C   UNL A   1      42.649  23.736  27.636  1.00  0.00     0.058 A 
ATOM     64  C   UNL A   1      42.548  23.459  26.263  1.00  0.00     0.135 A 
ATOM     65  C   UNL A   1      42.487  22.664  28.530  1.00  0.00     0.135 A 
ATOM     66  F   UNL A   1      42.684  24.444  25.361  1.00  0.00    -0.206 F 
ATOM     67  C   UNL A   1      42.266  22.178  25.796  1.00  0.00     0.059 A 
ATOM     68  C   UNL A   1      42.233  21.370  28.085  1.00  0.00     0.059 A 
ATOM     69  F   UNL A   1      42.577  22.869  29.854  1.00  0.00    -0.206 F 
ATOM     70  C   UNL A   1      42.109  21.139  26.715  1.00  0.00     0.060 A 
BRANCH  70  71
ATOM     71  S   UNL A   1      41.747  19.484  26.092  1.00  0.00     0.124 S 
ATOM     72  O   UNL A   1      40.323  19.593  25.787  1.00  0.00    -0.237 OA
ATOM     73  O   UNL A   1      42.635  19.384  24.938  1.00  0.00    -0.237 OA
ATOM     74  O   UNL A   1      42.083  18.616  27.215  1.00  0.00    -0.744 OA
ENDBRANCH  70  71
ENDBRANCH  49  63
BRANCH  50  75
ATOM     75  C   UNL A   1      44.345  32.896  31.242  1.00  0.00     0.058 A 
ATOM     76  C   UNL A   1      44.608  33.985  30.397  1.00  0.00     0.135 A 
ATOM     77  C   UNL A   1      44.326  33.134  32.625  1.00  0.00     0.135 A 
ATOM     78  F   UNL A   1      44.644  33.809  29.067  1.00  0.00    -0.206 F 
ATOM     79  C   UNL A   1      44.862  35.256  30.902  1.00  0.00     0.059 A 
ATOM     80  C   UNL A   1      44.548  34.401  33.153  1.00  0.00     0.059 A 
ATOM     81  F   UNL A   1      44.064  32.129  33.476  1.00  0.00    -0.206 F 
ATOM     82  C   UNL A   1      44.827  35.455  32.283  1.00  0.00     0.060 A 
BRANCH  82  83
ATOM     83  S   UNL A   1      45.109  37.118  32.928  1.00  0.00     0.124 S 
ATOM     84  O   UNL A   1      45.511  36.837  34.302  1.00  0.00    -0.237 OA
ATOM     85  O   UNL A   1      46.159  37.614  32.044  1.00  0.00    -0.237 OA
ATOM     86  O   UNL A   1      43.810  37.765  32.769  1.00  0.00    -0.744 OA
ENDBRANCH  82  83
ENDBRANCH  50  75
BRANCH  62  87
ATOM     87  C   UNL A   1      48.484  27.533  29.584  1.00  0.00     0.058 A 
ATOM     88  C   UNL A   1      49.134  26.991  30.704  1.00  0.00     0.135 A 
ATOM     89  C   UNL A   1      49.275  27.894  28.480  1.00  0.00     0.135 A 
ATOM     90  F   UNL A   1      48.428  26.632  31.788  1.00  0.00    -0.206 F 
ATOM     91  C   UNL A   1      50.518  26.853  30.746  1.00  0.00     0.059 A 
ATOM     92  C   UNL A   1      50.658  27.734  28.489  1.00  0.00     0.059 A 
ATOM     93  F   UNL A   1      48.706  28.405  27.377  1.00  0.00    -0.206 F 
ATOM     94  C   UNL A   1      51.273  27.232  29.634  1.00  0.00     0.060 A 
BRANCH  94  95
ATOM     95  S   UNL A   1      53.067  27.050  29.700  1.00  0.00     0.124 S 
ATOM     96  O   UNL A   1      53.235  26.225  30.892  1.00  0.00    -0.237 OA
ATOM     97  O   UNL A   1      53.363  26.395  28.430  1.00  0.00    -0.237 OA
ATOM     98  O   UNL A   1      53.545  28.425  29.816  1.00  0.00    -0.744 OA
ENDBRANCH  94  95
ENDBRANCH  62  87
ENDBRANCH  36  37
ENDBRANCH  28  31
ENDBRANCH  26  27
ENDBRANCH   1  26
TORSDOF 17
ENDMDL
MODEL 3
REMARK VINA RESULT:     -11.9      6.318      8.285
REMARK SMILES CC[C@@](C)(NC(=O)N[C@@H](C)c1cccc(Br)c1)C(=O)NCCCNC(=O)c1ccc(-c2c3nc(c(-c4c(F)cc(S(=O)(=O)[O-])cc4F)c4ccc([nH]4)c(-c4c(F)cc(S(=O)(=O)[O-])cc4F)c4nc(c(-c5c(F)cc(S(=O)(=O)[O-])cc5F)c5ccc2[nH]5)C=C4)C=C3)cc1
REMARK SMILES IDX 22 1 21 2 20 3 18 4 19 5 3 7 4 8 2 9 1 10 5 11 6 12 7 14
REMARK SMILES IDX 8 15 9 17 10 18 11 19 12 20 17 21 13 22 15 23 14 24 16 25
REMARK SMILES IDX 23 26 24 27 25 28 26 30 27 31 28 32 92 33 29 34 91 35 30 36
REMARK SMILES IDX 31 37 32 38 85 39 33 40 90 41 84 42 86 43 34 44 89 45 83 46
REMARK SMILES IDX 82 47 35 49 69 50 48 51 68 52 49 53 52 54 67 55 87 56 50 57
REMARK SMILES IDX 51 58 66 60 88 61 53 62 36 63 37 64 46 65 38 66 39 67 45 68
REMARK SMILES IDX 47 69 40 70 41 71 42 72 43 73 44 74 70 75 71 76 80 77 72 78
REMARK SMILES IDX 73 79 79 80 81 81 74 82 75 83 76 84 77 85 78 86 54 87 55 88
REMARK SMILES IDX 64 89 56 90 57 91 63 92 65 93 58 94 59 95 60 96 61 97 62 98
REMARK H PARENT 20 6 5 13 8 16 24 29 86 48 52 59
REMARK Flexibility Score: inf
ROOT
ATOM      1  C   UNL A   1      37.557  20.709  24.992  1.00  0.00     0.042 C 
ENDROOT
BRANCH   1   2
ATOM      2  C   UNL A   1      36.274  21.516  25.216  1.00  0.00     0.117 C 
BRANCH   2   3
ATOM      3  N   UNL A   1      35.612  21.509  26.514  1.00  0.00    -0.354 N 
ATOM      4  C   UNL A   1      34.313  21.726  26.899  1.00  0.00     0.245 C 
ATOM      5  O   UNL A   1      33.980  21.205  27.970  1.00  0.00    -0.272 OA
ATOM      6  H   UNL A   1      36.217  21.310  27.264  1.00  0.00     0.163 HD
BRANCH   4   7
ATOM      7  C   UNL A   1      33.274  22.480  26.012  1.00  0.00     0.117 C 
ATOM      8  C   UNL A   1      33.788  23.937  25.902  1.00  0.00     0.045 C 
BRANCH   7   9
ATOM      9  C   UNL A   1      33.065  21.963  24.554  1.00  0.00     0.035 C 
ATOM     10  C   UNL A   1      32.660  20.510  24.352  1.00  0.00     0.007 C 
ENDBRANCH   7   9
BRANCH   7  11
ATOM     11  N   UNL A   1      31.952  22.473  26.664  1.00  0.00    -0.324 N 
ATOM     12  C   UNL A   1      30.864  23.248  26.596  1.00  0.00     0.316 C 
ATOM     13  H   UNL A   1      31.846  21.725  27.296  1.00  0.00     0.166 HD
ATOM     14  O   UNL A   1      30.015  23.079  27.476  1.00  0.00    -0.249 OA
ATOM     15  N   UNL A   1      30.582  24.139  25.644  1.00  0.00    -0.332 N 
ATOM     16  H   UNL A   1      29.676  24.505  25.758  1.00  0.00     0.165 HD
BRANCH  15  17
ATOM     17  C   UNL A   1      31.246  24.727  24.478  1.00  0.00     0.111 C 
ATOM     18  C   UNL A   1      30.620  24.183  23.188  1.00  0.00     0.036 C 
BRANCH  17  19
ATOM     19  C   UNL A   1      31.238  26.252  24.507  1.00  0.00    -0.025 A 
ATOM     20  C   UNL A   1      31.897  26.936  25.547  1.00  0.00     0.006 A 
ATOM     21  C   UNL A   1      30.494  27.009  23.588  1.00  0.00     0.021 A 
ATOM     22  C   UNL A   1      31.839  28.325  25.653  1.00  0.00     0.002 A 
ATOM     23  C   UNL A   1      30.432  28.398  23.704  1.00  0.00     0.018 A 
ATOM     24  C   UNL A   1      31.102  29.059  24.730  1.00  0.00     0.016 A 
ATOM     25  Br  UNL A   1      29.399  29.392  22.472  1.00  0.00    -0.051 Br
ENDBRANCH  17  19
ENDBRANCH  15  17
ENDBRANCH   7  11
ENDBRANCH   4   7
ENDBRANCH   2   3
ENDBRANCH   1   2
BRANCH   1  26
ATOM     26  C   UNL A   1      38.835  21.015  25.770  1.00  0.00     0.118 C 
BRANCH  26  27
ATOM     27  N   UNL A   1      39.796  19.934  25.825  1.00  0.00    -0.352 N 
ATOM     28  C   UNL A   1      41.139  19.989  26.113  1.00  0.00     0.251 C 
ATOM     29  H   UNL A   1      39.439  19.037  25.631  1.00  0.00     0.163 HD
ATOM     30  O   UNL A   1      41.818  18.971  26.026  1.00  0.00    -0.269 OA
BRANCH  28  31
ATOM     31  C   UNL A   1      41.777  21.272  26.497  1.00  0.00     0.039 A 
ATOM     32  C   UNL A   1      42.092  22.185  25.487  1.00  0.00     0.014 A 
ATOM     33  C   UNL A   1      42.103  21.564  27.826  1.00  0.00     0.014 A 
ATOM     34  C   UNL A   1      42.692  23.405  25.812  1.00  0.00     0.010 A 
ATOM     35  C   UNL A   1      42.663  22.804  28.152  1.00  0.00     0.010 A 
ATOM     36  C   UNL A   1      42.965  23.739  27.150  1.00  0.00    -0.014 A 
BRANCH  36  37
ATOM     37  C   UNL A   1      43.542  25.072  27.483  1.00  0.00     0.031 A 
ATOM     38  C   UNL A   1      44.996  25.377  27.234  1.00  0.00     0.074 A 
ATOM     39  C   UNL A   1      42.744  26.021  28.016  1.00  0.00     0.049 A 
ATOM     40  N   UNL A   1      45.643  26.504  27.400  1.00  0.00    -0.248 NA
ATOM     41  C   UNL A   1      45.837  24.271  26.753  1.00  0.00     0.031 C 
ATOM     42  C   UNL A   1      41.333  25.838  28.359  1.00  0.00     0.029 A 
ATOM     43  N   UNL A   1      43.000  27.327  28.356  1.00  0.00    -0.354 N 
ATOM     44  C   UNL A   1      46.962  26.246  27.042  1.00  0.00     0.074 A 
ATOM     45  C   UNL A   1      47.034  24.840  26.703  1.00  0.00     0.031 C 
ATOM     46  C   UNL A   1      40.840  26.996  28.827  1.00  0.00     0.029 A 
ATOM     47  C   UNL A   1      41.902  27.997  28.844  1.00  0.00     0.049 A 
ATOM     48  H   UNL A   1      43.887  27.745  28.260  1.00  0.00     0.167 HD
ATOM     49  C   UNL A   1      48.011  27.103  26.978  1.00  0.00     0.037 A 
ATOM     50  C   UNL A   1      41.761  29.273  29.252  1.00  0.00     0.037 A 
ATOM     51  C   UNL A   1      47.935  28.505  27.312  1.00  0.00     0.049 A 
ATOM     52  C   UNL A   1      42.938  30.208  29.165  1.00  0.00     0.074 A 
ATOM     53  C   UNL A   1      48.929  29.465  27.231  1.00  0.00     0.029 A 
ATOM     54  N   UNL A   1      46.804  29.147  27.798  1.00  0.00    -0.354 N 
ATOM     55  N   UNL A   1      44.156  29.964  28.747  1.00  0.00    -0.248 NA
ATOM     56  C   UNL A   1      42.714  31.597  29.591  1.00  0.00     0.031 C 
ATOM     57  C   UNL A   1      48.415  30.674  27.713  1.00  0.00     0.029 A 
ATOM     58  C   UNL A   1      47.082  30.483  28.041  1.00  0.00     0.049 A 
ATOM     59  H   UNL A   1      45.931  28.716  27.947  1.00  0.00     0.167 HD
ATOM     60  C   UNL A   1      44.838  31.174  28.835  1.00  0.00     0.074 A 
ATOM     61  C   UNL A   1      43.889  32.151  29.327  1.00  0.00     0.031 C 
ATOM     62  C   UNL A   1      46.133  31.450  28.534  1.00  0.00     0.037 A 
BRANCH  49  63
ATOM     63  C   UNL A   1      49.339  26.553  26.526  1.00  0.00     0.058 A 
ATOM     64  C   UNL A   1      49.761  26.652  25.190  1.00  0.00     0.135 A 
ATOM     65  C   UNL A   1      50.222  25.962  27.445  1.00  0.00     0.135 A 
ATOM     66  F   UNL A   1      48.955  27.199  24.265  1.00  0.00    -0.206 F 
ATOM     67  C   UNL A   1      50.994  26.158  24.776  1.00  0.00     0.059 A 
ATOM     68  C   UNL A   1      51.473  25.487  27.059  1.00  0.00     0.059 A 
ATOM     69  F   UNL A   1      49.874  25.844  28.736  1.00  0.00    -0.206 F 
ATOM     70  C   UNL A   1      51.844  25.576  25.718  1.00  0.00     0.060 A 
BRANCH  70  71
ATOM     71  S   UNL A   1      53.441  24.943  25.163  1.00  0.00     0.124 S 
ATOM     72  O   UNL A   1      53.533  25.519  23.824  1.00  0.00    -0.237 OA
ATOM     73  O   UNL A   1      54.357  25.496  26.155  1.00  0.00    -0.237 OA
ATOM     74  O   UNL A   1      53.269  23.495  25.212  1.00  0.00    -0.744 OA
ENDBRANCH  70  71
ENDBRANCH  49  63
BRANCH  50  75
ATOM     75  C   UNL A   1      40.442  29.753  29.748  1.00  0.00     0.058 A 
ATOM     76  C   UNL A   1      40.218  29.978  31.115  1.00  0.00     0.135 A 
ATOM     77  C   UNL A   1      39.381  30.005  28.864  1.00  0.00     0.135 A 
ATOM     78  F   UNL A   1      41.199  29.746  32.002  1.00  0.00    -0.206 F 
ATOM     79  C   UNL A   1      38.986  30.415  31.591  1.00  0.00     0.059 A 
ATOM     80  C   UNL A   1      38.149  30.470  29.313  1.00  0.00     0.059 A 
ATOM     81  F   UNL A   1      39.547  29.822  27.545  1.00  0.00    -0.206 F 
ATOM     82  C   UNL A   1      37.958  30.662  30.680  1.00  0.00     0.060 A 
BRANCH  82  83
ATOM     83  S   UNL A   1      36.378  31.277  31.302  1.00  0.00     0.124 S 
ATOM     84  O   UNL A   1      35.987  30.211  32.218  1.00  0.00    -0.237 OA
ATOM     85  O   UNL A   1      36.764  32.541  31.921  1.00  0.00    -0.237 OA
ATOM     86  O   UNL A   1      35.567  31.403  30.094  1.00  0.00    -0.744 OA
ENDBRANCH  82  83
ENDBRANCH  50  75
BRANCH  62  87
ATOM     87  C   UNL A   1      46.589  32.876  28.699  1.00  0.00     0.058 A 
ATOM     88  C   UNL A   1      47.140  33.344  29.903  1.00  0.00     0.135 A 
ATOM     89  C   UNL A   1      46.488  33.782  27.630  1.00  0.00     0.135 A 
ATOM     90  F   UNL A   1      47.257  32.522  30.958  1.00  0.00    -0.206 F 
ATOM     91  C   UNL A   1      47.534  34.670  30.055  1.00  0.00     0.059 A 
ATOM     92  C   UNL A   1      46.905  35.105  27.751  1.00  0.00     0.059 A 
ATOM     93  F   UNL A   1      45.982  33.386  26.451  1.00  0.00    -0.206 F 
ATOM     94  C   UNL A   1      47.408  35.545  28.974  1.00  0.00     0.060 A 
BRANCH  94  95
ATOM     95  S   UNL A   1      47.921  37.262  29.184  1.00  0.00     0.124 S 
ATOM     96  O   UNL A   1      49.325  37.200  28.793  1.00  0.00    -0.237 OA
ATOM     97  O   UNL A   1      47.038  37.969  28.262  1.00  0.00    -0.237 OA
ATOM     98  O   UNL A   1      47.674  37.521  30.600  1.00  0.00    -0.744 OA
ENDBRANCH  94  95
ENDBRANCH  62  87
ENDBRANCH  36  37
ENDBRANCH  28  31
ENDBRANCH  26  27
ENDBRANCH   1  26
TORSDOF 17
ENDMDL
