MODEL 1
REMARK VINA RESULT:     -10.4      0.000      0.000
REMARK SMILES C#CC[N@H+](CC(=O)NCCCNC(=O)c1ccc(-c2c3nc(c(-c4c(F)cc(S(=O)(=O)[O-])cc4F)c4ccc([nH]4)c(-c4c(F)cc(S(=O)(=O)[O-])cc4F)c4nc(c(-c5c(F)cc(S(=O)(=O)[O-])cc5F)c5ccc2[nH]5)C=C4)C=C3)cc1)[C@H]1CCO[C@@H](C(C)C)C1
REMARK SMILES IDX 10 1 9 2 8 3 6 4 7 5 5 7 4 8 3 10 2 11 1 12 81 13 82 14
REMARK SMILES IDX 89 15 83 16 85 17 84 18 86 19 87 20 88 21 11 22 12 23 13 24
REMARK SMILES IDX 14 26 15 27 16 28 80 29 17 30 79 31 18 32 19 33 20 34 73 35
REMARK SMILES IDX 21 36 78 37 72 38 74 39 22 40 77 41 71 42 70 43 23 45 57 46
REMARK SMILES IDX 36 47 56 48 37 49 40 50 55 51 75 52 38 53 39 54 54 56 76 57
REMARK SMILES IDX 41 58 24 59 25 60 34 61 26 62 27 63 33 64 35 65 28 66 29 67
REMARK SMILES IDX 30 68 31 69 32 70 58 71 59 72 68 73 60 74 61 75 67 76 69 77
REMARK SMILES IDX 62 78 63 79 64 80 65 81 66 82 42 83 43 84 52 85 44 86 45 87
REMARK SMILES IDX 51 88 53 89 46 90 47 91 48 92 49 93 50 94
REMARK H PARENT 8 6 4 9 12 25 74 44 40 55
REMARK Flexibility Score: inf
ROOT
ATOM      1  C   UNL A   1      31.447  32.209  26.921  1.00  0.00     0.042 C 
ENDROOT
BRANCH   1   2
ATOM      2  C   UNL A   1      31.666  30.873  26.229  1.00  0.00     0.118 C 
BRANCH   2   3
ATOM      3  N   UNL A   1      31.879  29.837  27.232  1.00  0.00    -0.351 N 
ATOM      4  C   UNL A   1      31.645  28.487  27.116  1.00  0.00     0.275 C 
ATOM      5  O   UNL A   1      31.416  27.831  28.128  1.00  0.00    -0.269 OA
ATOM      6  H   UNL A   1      32.233  30.141  28.099  1.00  0.00     0.163 HD
BRANCH   4   7
ATOM      7  C   UNL A   1      31.925  27.867  25.769  1.00  0.00     0.364 C 
BRANCH   7   8
ATOM      8  N   UNL A   1      30.910  27.647  24.739  1.00  0.00    -0.314 N 
ATOM      9  H   UNL A   1      30.083  28.229  24.872  1.00  0.00     0.349 HD
BRANCH   8  10
ATOM     10  C   UNL A   1      31.431  28.060  23.435  1.00  0.00     0.354 C 
BRANCH  10  11
ATOM     11  C   UNL A   1      32.842  28.447  23.335  1.00  0.00    -0.047 C 
ATOM     12  C   UNL A   1      34.022  28.530  23.152  1.00  0.00     0.010 C 
ENDBRANCH  10  11
ENDBRANCH   8  10
BRANCH   8  13
ATOM     13  C   UNL A   1      30.417  26.224  24.847  1.00  0.00     0.190 C 
ATOM     14  C   UNL A   1      29.903  25.510  23.579  1.00  0.00     0.093 C 
ATOM     15  C   UNL A   1      31.381  25.204  25.573  1.00  0.00     0.097 C 
ATOM     16  C   UNL A   1      31.004  24.841  22.771  1.00  0.00     0.166 C 
ATOM     17  C   UNL A   1      32.380  24.368  24.702  1.00  0.00     0.126 C 
ATOM     18  O   UNL A   1      31.709  23.871  23.538  1.00  0.00    -0.377 OA
BRANCH  17  19
ATOM     19  C   UNL A   1      33.816  24.900  24.349  1.00  0.00     0.012 C 
ATOM     20  C   UNL A   1      34.696  25.176  25.574  1.00  0.00     0.010 C 
ATOM     21  C   UNL A   1      34.587  24.001  23.372  1.00  0.00     0.010 C 
ENDBRANCH  17  19
ENDBRANCH   8  13
ENDBRANCH   7   8
ENDBRANCH   4   7
ENDBRANCH   2   3
ENDBRANCH   1   2
BRANCH   1  22
ATOM     22  C   UNL A   1      32.758  32.837  27.343  1.00  0.00     0.118 C 
BRANCH  22  23
ATOM     23  N   UNL A   1      32.583  34.247  27.628  1.00  0.00    -0.352 N 
ATOM     24  C   UNL A   1      33.100  34.957  28.682  1.00  0.00     0.251 C 
ATOM     25  H   UNL A   1      32.030  34.755  26.991  1.00  0.00     0.163 HD
ATOM     26  O   UNL A   1      32.619  36.046  28.977  1.00  0.00    -0.269 OA
BRANCH  24  27
ATOM     27  C   UNL A   1      34.216  34.382  29.466  1.00  0.00     0.039 A 
ATOM     28  C   UNL A   1      33.926  33.631  30.604  1.00  0.00     0.014 A 
ATOM     29  C   UNL A   1      35.545  34.569  29.066  1.00  0.00     0.014 A 
ATOM     30  C   UNL A   1      34.967  33.039  31.317  1.00  0.00     0.010 A 
ATOM     31  C   UNL A   1      36.566  33.878  29.708  1.00  0.00     0.010 A 
ATOM     32  C   UNL A   1      36.293  33.128  30.859  1.00  0.00    -0.014 A 
BRANCH  32  33
ATOM     33  C   UNL A   1      37.403  32.465  31.589  1.00  0.00     0.031 A 
ATOM     34  C   UNL A   1      37.835  32.986  32.936  1.00  0.00     0.074 A 
ATOM     35  C   UNL A   1      38.042  31.421  31.024  1.00  0.00     0.049 A 
ATOM     36  N   UNL A   1      38.796  32.559  33.712  1.00  0.00    -0.248 NA
ATOM     37  C   UNL A   1      37.111  34.152  33.474  1.00  0.00     0.031 C 
ATOM     38  C   UNL A   1      37.747  30.864  29.701  1.00  0.00     0.029 A 
ATOM     39  N   UNL A   1      39.075  30.643  31.485  1.00  0.00    -0.354 N 
ATOM     40  C   UNL A   1      38.805  33.410  34.811  1.00  0.00     0.074 A 
ATOM     41  C   UNL A   1      37.786  34.407  34.586  1.00  0.00     0.031 C 
ATOM     42  C   UNL A   1      38.561  29.822  29.468  1.00  0.00     0.029 A 
ATOM     43  C   UNL A   1      39.472  29.668  30.599  1.00  0.00     0.049 A 
ATOM     44  H   UNL A   1      39.493  30.772  32.366  1.00  0.00     0.167 HD
ATOM     45  C   UNL A   1      39.583  33.352  35.917  1.00  0.00     0.037 A 
ATOM     46  C   UNL A   1      40.470  28.767  30.676  1.00  0.00     0.037 A 
ATOM     47  C   UNL A   1      40.574  32.334  36.146  1.00  0.00     0.049 A 
ATOM     48  C   UNL A   1      41.319  28.728  31.920  1.00  0.00     0.074 A 
ATOM     49  C   UNL A   1      41.355  32.139  37.272  1.00  0.00     0.029 A 
ATOM     50  N   UNL A   1      40.935  31.355  35.234  1.00  0.00    -0.354 N 
ATOM     51  N   UNL A   1      41.246  29.481  32.992  1.00  0.00    -0.248 NA
ATOM     52  C   UNL A   1      42.382  27.715  31.971  1.00  0.00     0.031 C 
ATOM     53  C   UNL A   1      42.243  31.093  37.010  1.00  0.00     0.029 A 
ATOM     54  C   UNL A   1      41.958  30.580  35.755  1.00  0.00     0.049 A 
ATOM     55  H   UNL A   1      40.524  31.228  34.348  1.00  0.00     0.167 HD
ATOM     56  C   UNL A   1      42.232  29.013  33.854  1.00  0.00     0.074 A 
ATOM     57  C   UNL A   1      42.872  27.898  33.188  1.00  0.00     0.031 C 
ATOM     58  C   UNL A   1      42.578  29.465  35.084  1.00  0.00     0.037 A 
BRANCH  45  59
ATOM     59  C   UNL A   1      39.414  34.414  36.970  1.00  0.00     0.058 A 
ATOM     60  C   UNL A   1      38.633  34.210  38.119  1.00  0.00     0.135 A 
ATOM     61  C   UNL A   1      40.131  35.619  36.871  1.00  0.00     0.135 A 
ATOM     62  F   UNL A   1      37.911  33.087  38.256  1.00  0.00    -0.206 F 
ATOM     63  C   UNL A   1      38.569  35.162  39.131  1.00  0.00     0.059 A 
ATOM     64  C   UNL A   1      40.106  36.571  37.886  1.00  0.00     0.059 A 
ATOM     65  F   UNL A   1      40.886  35.870  35.791  1.00  0.00    -0.206 F 
ATOM     66  C   UNL A   1      39.320  36.333  39.012  1.00  0.00     0.060 A 
BRANCH  66  67
ATOM     67  S   UNL A   1      39.276  37.525  40.366  1.00  0.00     0.124 S 
ATOM     68  O   UNL A   1      38.922  36.673  41.496  1.00  0.00    -0.237 OA
ATOM     69  O   UNL A   1      40.640  38.044  40.365  1.00  0.00    -0.237 OA
ATOM     70  O   UNL A   1      38.246  38.474  39.953  1.00  0.00    -0.744 OA
ENDBRANCH  66  67
ENDBRANCH  45  59
BRANCH  46  71
ATOM     71  C   UNL A   1      40.742  27.843  29.538  1.00  0.00     0.058 A 
ATOM     72  C   UNL A   1      39.949  26.709  29.306  1.00  0.00     0.135 A 
ATOM     73  C   UNL A   1      41.829  28.063  28.676  1.00  0.00     0.135 A 
ATOM     74  F   UNL A   1      38.899  26.450  30.101  1.00  0.00    -0.206 F 
ATOM     75  C   UNL A   1      40.246  25.806  28.290  1.00  0.00     0.059 A 
ATOM     76  C   UNL A   1      42.123  27.196  27.629  1.00  0.00     0.059 A 
ATOM     77  F   UNL A   1      42.610  29.142  28.838  1.00  0.00    -0.206 F 
ATOM     78  C   UNL A   1      41.337  26.058  27.457  1.00  0.00     0.060 A 
BRANCH  78  79
ATOM     79  S   UNL A   1      41.710  24.886  26.136  1.00  0.00     0.124 S 
ATOM     80  O   UNL A   1      40.680  23.874  26.342  1.00  0.00    -0.237 OA
ATOM     81  O   UNL A   1      41.565  25.715  24.944  1.00  0.00    -0.237 OA
ATOM     82  O   UNL A   1      43.077  24.466  26.437  1.00  0.00    -0.744 OA
ENDBRANCH  78  79
ENDBRANCH  46  71
BRANCH  58  83
ATOM     83  C   UNL A   1      43.668  28.729  35.817  1.00  0.00     0.058 A 
ATOM     84  C   UNL A   1      43.402  27.607  36.618  1.00  0.00     0.135 A 
ATOM     85  C   UNL A   1      45.009  29.123  35.667  1.00  0.00     0.135 A 
ATOM     86  F   UNL A   1      42.138  27.189  36.799  1.00  0.00    -0.206 F 
ATOM     87  C   UNL A   1      44.422  26.921  37.267  1.00  0.00     0.059 A 
ATOM     88  C   UNL A   1      46.047  28.427  36.276  1.00  0.00     0.059 A 
ATOM     89  F   UNL A   1      45.322  30.182  34.905  1.00  0.00    -0.206 F 
ATOM     90  C   UNL A   1      45.743  27.334  37.085  1.00  0.00     0.060 A 
BRANCH  90  91
ATOM     91  S   UNL A   1      47.058  26.412  37.907  1.00  0.00     0.124 S 
ATOM     92  O   UNL A   1      47.646  25.678  36.790  1.00  0.00    -0.237 OA
ATOM     93  O   UNL A   1      47.880  27.479  38.469  1.00  0.00    -0.237 OA
ATOM     94  O   UNL A   1      46.343  25.597  38.885  1.00  0.00    -0.744 OA
ENDBRANCH  90  91
ENDBRANCH  58  83
ENDBRANCH  32  33
ENDBRANCH  24  27
ENDBRANCH  22  23
ENDBRANCH   1  22
TORSDOF 18
ENDMDL
MODEL 2
REMARK VINA RESULT:     -10.4      4.674     10.039
REMARK SMILES C#CC[N@H+](CC(=O)NCCCNC(=O)c1ccc(-c2c3nc(c(-c4c(F)cc(S(=O)(=O)[O-])cc4F)c4ccc([nH]4)c(-c4c(F)cc(S(=O)(=O)[O-])cc4F)c4nc(c(-c5c(F)cc(S(=O)(=O)[O-])cc5F)c5ccc2[nH]5)C=C4)C=C3)cc1)[C@H]1CCO[C@@H](C(C)C)C1
REMARK SMILES IDX 10 1 9 2 8 3 6 4 7 5 5 7 4 8 3 10 2 11 1 12 81 13 82 14
REMARK SMILES IDX 89 15 83 16 85 17 84 18 86 19 87 20 88 21 11 22 12 23 13 24
REMARK SMILES IDX 14 26 15 27 16 28 80 29 17 30 79 31 18 32 19 33 20 34 73 35
REMARK SMILES IDX 21 36 78 37 72 38 74 39 22 40 77 41 71 42 70 43 23 45 57 46
REMARK SMILES IDX 36 47 56 48 37 49 40 50 55 51 75 52 38 53 39 54 54 56 76 57
REMARK SMILES IDX 41 58 24 59 25 60 34 61 26 62 27 63 33 64 35 65 28 66 29 67
REMARK SMILES IDX 30 68 31 69 32 70 58 71 59 72 68 73 60 74 61 75 67 76 69 77
REMARK SMILES IDX 62 78 63 79 64 80 65 81 66 82 42 83 43 84 52 85 44 86 45 87
REMARK SMILES IDX 51 88 53 89 46 90 47 91 48 92 49 93 50 94
REMARK H PARENT 8 6 4 9 12 25 74 44 40 55
REMARK Flexibility Score: inf
ROOT
ATOM      1  C   UNL A   1      34.077  28.343  24.822  1.00  0.00     0.042 C 
ENDROOT
BRANCH   1   2
ATOM      2  C   UNL A   1      32.743  27.914  24.232  1.00  0.00     0.118 C 
BRANCH   2   3
ATOM      3  N   UNL A   1      32.953  27.390  22.889  1.00  0.00    -0.351 N 
ATOM      4  C   UNL A   1      32.959  26.076  22.485  1.00  0.00     0.275 C 
ATOM      5  O   UNL A   1      33.593  25.762  21.481  1.00  0.00    -0.269 OA
ATOM      6  H   UNL A   1      33.109  28.059  22.183  1.00  0.00     0.163 HD
BRANCH   4   7
ATOM      7  C   UNL A   1      31.985  25.153  23.176  1.00  0.00     0.364 C 
BRANCH   7   8
ATOM      8  N   UNL A   1      32.379  24.005  23.992  1.00  0.00    -0.314 N 
ATOM      9  H   UNL A   1      31.579  23.503  24.376  1.00  0.00     0.349 HD
BRANCH   8  10
ATOM     10  C   UNL A   1      33.054  23.012  23.154  1.00  0.00     0.354 C 
BRANCH  10  11
ATOM     11  C   UNL A   1      32.788  21.591  23.402  1.00  0.00    -0.047 C 
ATOM     12  C   UNL A   1      32.412  20.520  23.783  1.00  0.00     0.010 C 
ENDBRANCH  10  11
ENDBRANCH   8  10
BRANCH   8  13
ATOM     13  C   UNL A   1      33.148  24.509  25.190  1.00  0.00     0.190 C 
ATOM     14  C   UNL A   1      32.953  23.812  26.553  1.00  0.00     0.093 C 
ATOM     15  C   UNL A   1      34.707  24.682  24.996  1.00  0.00     0.097 C 
ATOM     16  C   UNL A   1      33.855  22.604  26.752  1.00  0.00     0.166 C 
ATOM     17  C   UNL A   1      35.648  23.495  25.395  1.00  0.00     0.126 C 
ATOM     18  O   UNL A   1      35.232  22.949  26.654  1.00  0.00    -0.377 OA
BRANCH  17  19
ATOM     19  C   UNL A   1      36.023  22.359  24.377  1.00  0.00     0.012 C 
ATOM     20  C   UNL A   1      36.671  22.869  23.085  1.00  0.00     0.010 C 
ATOM     21  C   UNL A   1      36.908  21.257  24.978  1.00  0.00     0.010 C 
ENDBRANCH  17  19
ENDBRANCH   8  13
ENDBRANCH   7   8
ENDBRANCH   4   7
ENDBRANCH   2   3
ENDBRANCH   1   2
BRANCH   1  22
ATOM     22  C   UNL A   1      34.048  28.322  26.335  1.00  0.00     0.118 C 
BRANCH  22  23
ATOM     23  N   UNL A   1      33.773  29.643  26.862  1.00  0.00    -0.352 N 
ATOM     24  C   UNL A   1      34.518  30.354  27.769  1.00  0.00     0.251 C 
ATOM     25  H   UNL A   1      32.957  30.084  26.530  1.00  0.00     0.163 HD
ATOM     26  O   UNL A   1      34.014  31.301  28.362  1.00  0.00    -0.269 OA
BRANCH  24  27
ATOM     27  C   UNL A   1      35.915  29.945  28.037  1.00  0.00     0.039 A 
ATOM     28  C   UNL A   1      36.871  30.111  27.036  1.00  0.00     0.014 A 
ATOM     29  C   UNL A   1      36.283  29.416  29.280  1.00  0.00     0.014 A 
ATOM     30  C   UNL A   1      38.201  29.781  27.297  1.00  0.00     0.010 A 
ATOM     31  C   UNL A   1      37.624  29.203  29.575  1.00  0.00     0.010 A 
ATOM     32  C   UNL A   1      38.596  29.356  28.578  1.00  0.00    -0.014 A 
BRANCH  32  33
ATOM     33  C   UNL A   1      40.016  29.042  28.876  1.00  0.00     0.031 A 
ATOM     34  C   UNL A   1      40.583  27.693  28.509  1.00  0.00     0.074 A 
ATOM     35  C   UNL A   1      40.782  29.954  29.508  1.00  0.00     0.049 A 
ATOM     36  N   UNL A   1      41.787  27.227  28.710  1.00  0.00    -0.248 NA
ATOM     37  C   UNL A   1      39.677  26.736  27.850  1.00  0.00     0.031 C 
ATOM     38  C   UNL A   1      40.327  31.272  29.962  1.00  0.00     0.029 A 
ATOM     39  N   UNL A   1      42.100  29.915  29.886  1.00  0.00    -0.354 N 
ATOM     40  C   UNL A   1      41.776  25.924  28.226  1.00  0.00     0.074 A 
ATOM     41  C   UNL A   1      40.436  25.654  27.761  1.00  0.00     0.031 C 
ATOM     42  C   UNL A   1      41.353  31.922  30.532  1.00  0.00     0.029 A 
ATOM     43  C   UNL A   1      42.525  31.052  30.535  1.00  0.00     0.049 A 
ATOM     44  H   UNL A   1      42.688  29.145  29.710  1.00  0.00     0.167 HD
ATOM     45  C   UNL A   1      42.798  25.040  28.159  1.00  0.00     0.037 A 
ATOM     46  C   UNL A   1      43.715  31.352  31.091  1.00  0.00     0.037 A 
ATOM     47  C   UNL A   1      44.138  25.330  28.596  1.00  0.00     0.049 A 
ATOM     48  C   UNL A   1      44.833  30.347  31.001  1.00  0.00     0.074 A 
ATOM     49  C   UNL A   1      45.264  24.532  28.493  1.00  0.00     0.029 A 
ATOM     50  N   UNL A   1      44.533  26.498  29.232  1.00  0.00    -0.354 N 
ATOM     51  N   UNL A   1      44.828  29.156  30.449  1.00  0.00    -0.248 NA
ATOM     52  C   UNL A   1      46.120  30.724  31.601  1.00  0.00     0.031 C 
ATOM     53  C   UNL A   1      46.319  25.181  29.138  1.00  0.00     0.029 A 
ATOM     54  C   UNL A   1      45.874  26.422  29.566  1.00  0.00     0.049 A 
ATOM     55  H   UNL A   1      43.946  27.267  29.417  1.00  0.00     0.167 HD
ATOM     56  C   UNL A   1      46.116  28.657  30.611  1.00  0.00     0.074 A 
ATOM     57  C   UNL A   1      46.878  29.683  31.290  1.00  0.00     0.031 C 
ATOM     58  C   UNL A   1      46.623  27.457  30.233  1.00  0.00     0.037 A 
BRANCH  45  59
ATOM     59  C   UNL A   1      42.526  23.667  27.605  1.00  0.00     0.058 A 
ATOM     60  C   UNL A   1      42.560  23.397  26.228  1.00  0.00     0.135 A 
ATOM     61  C   UNL A   1      42.326  22.585  28.479  1.00  0.00     0.135 A 
ATOM     62  F   UNL A   1      42.727  24.395  25.346  1.00  0.00    -0.206 F 
ATOM     63  C   UNL A   1      42.407  22.104  25.738  1.00  0.00     0.059 A 
ATOM     64  C   UNL A   1      42.202  21.280  28.013  1.00  0.00     0.059 A 
ATOM     65  F   UNL A   1      42.275  22.788  29.805  1.00  0.00    -0.206 F 
ATOM     66  C   UNL A   1      42.243  21.050  26.639  1.00  0.00     0.060 A 
BRANCH  66  67
ATOM     67  S   UNL A   1      42.112  19.373  25.987  1.00  0.00     0.124 S 
ATOM     68  O   UNL A   1      40.678  19.266  25.739  1.00  0.00    -0.237 OA
ATOM     69  O   UNL A   1      42.958  19.436  24.799  1.00  0.00    -0.237 OA
ATOM     70  O   UNL A   1      42.622  18.542  27.073  1.00  0.00    -0.744 OA
ENDBRANCH  66  67
ENDBRANCH  45  59
BRANCH  46  71
ATOM     71  C   UNL A   1      43.910  32.647  31.803  1.00  0.00     0.058 A 
ATOM     72  C   UNL A   1      44.411  33.780  31.144  1.00  0.00     0.135 A 
ATOM     73  C   UNL A   1      43.627  32.765  33.174  1.00  0.00     0.135 A 
ATOM     74  F   UNL A   1      44.700  33.722  29.835  1.00  0.00    -0.206 F 
ATOM     75  C   UNL A   1      44.663  34.967  31.824  1.00  0.00     0.059 A 
ATOM     76  C   UNL A   1      43.834  33.953  33.867  1.00  0.00     0.059 A 
ATOM     77  F   UNL A   1      43.127  31.719  33.851  1.00  0.00    -0.206 F 
ATOM     78  C   UNL A   1      44.372  35.043  33.187  1.00  0.00     0.060 A 
BRANCH  78  79
ATOM     79  S   UNL A   1      44.695  36.590  34.060  1.00  0.00     0.124 S 
ATOM     80  O   UNL A   1      43.376  37.212  34.053  1.00  0.00    -0.237 OA
ATOM     81  O   UNL A   1      45.173  36.115  35.354  1.00  0.00    -0.237 OA
ATOM     82  O   UNL A   1      45.704  37.240  33.227  1.00  0.00    -0.744 OA
ENDBRANCH  78  79
ENDBRANCH  46  71
BRANCH  58  83
ATOM     83  C   UNL A   1      48.082  27.200  30.500  1.00  0.00     0.058 A 
ATOM     84  C   UNL A   1      49.085  27.585  29.596  1.00  0.00     0.135 A 
ATOM     85  C   UNL A   1      48.484  26.609  31.711  1.00  0.00     0.135 A 
ATOM     86  F   UNL A   1      48.757  28.151  28.423  1.00  0.00    -0.206 F 
ATOM     87  C   UNL A   1      50.431  27.366  29.869  1.00  0.00     0.059 A 
ATOM     88  C   UNL A   1      49.826  26.417  32.020  1.00  0.00     0.059 A 
ATOM     89  F   UNL A   1      47.569  26.231  32.616  1.00  0.00    -0.206 F 
ATOM     90  C   UNL A   1      50.792  26.787  31.087  1.00  0.00     0.060 A 
BRANCH  90  91
ATOM     91  S   UNL A   1      52.544  26.541  31.440  1.00  0.00     0.124 S 
ATOM     92  O   UNL A   1      53.136  26.688  30.113  1.00  0.00    -0.237 OA
ATOM     93  O   UNL A   1      52.825  27.620  32.382  1.00  0.00    -0.237 OA
ATOM     94  O   UNL A   1      52.594  25.195  32.002  1.00  0.00    -0.744 OA
ENDBRANCH  90  91
ENDBRANCH  58  83
ENDBRANCH  32  33
ENDBRANCH  24  27
ENDBRANCH  22  23
ENDBRANCH   1  22
TORSDOF 18
ENDMDL
MODEL 3
REMARK VINA RESULT:     -10.4      4.629     11.182
REMARK SMILES C#CC[N@H+](CC(=O)NCCCNC(=O)c1ccc(-c2c3nc(c(-c4c(F)cc(S(=O)(=O)[O-])cc4F)c4ccc([nH]4)c(-c4c(F)cc(S(=O)(=O)[O-])cc4F)c4nc(c(-c5c(F)cc(S(=O)(=O)[O-])cc5F)c5ccc2[nH]5)C=C4)C=C3)cc1)[C@H]1CCO[C@@H](C(C)C)C1
REMARK SMILES IDX 10 1 9 2 8 3 6 4 7 5 5 7 4 8 3 10 2 11 1 12 81 13 82 14
REMARK SMILES IDX 89 15 83 16 85 17 84 18 86 19 87 20 88 21 11 22 12 23 13 24
REMARK SMILES IDX 14 26 15 27 16 28 80 29 17 30 79 31 18 32 19 33 20 34 73 35
REMARK SMILES IDX 21 36 78 37 72 38 74 39 22 40 77 41 71 42 70 43 23 45 57 46
REMARK SMILES IDX 36 47 56 48 37 49 40 50 55 51 75 52 38 53 39 54 54 56 76 57
REMARK SMILES IDX 41 58 24 59 25 60 34 61 26 62 27 63 33 64 35 65 28 66 29 67
REMARK SMILES IDX 30 68 31 69 32 70 58 71 59 72 68 73 60 74 61 75 67 76 69 77
REMARK SMILES IDX 62 78 63 79 64 80 65 81 66 82 42 83 43 84 52 85 44 86 45 87
REMARK SMILES IDX 51 88 53 89 46 90 47 91 48 92 49 93 50 94
REMARK H PARENT 8 6 4 9 12 25 74 44 40 55
REMARK Flexibility Score: inf
ROOT
ATOM      1  C   UNL A   1      34.945  33.226  28.167  1.00  0.00     0.042 C 
ENDROOT
BRANCH   1   2
ATOM      2  C   UNL A   1      35.596  34.380  28.913  1.00  0.00     0.118 C 
BRANCH   2   3
ATOM      3  N   UNL A   1      37.043  34.209  28.904  1.00  0.00    -0.351 N 
ATOM      4  C   UNL A   1      37.875  33.989  29.976  1.00  0.00     0.275 C 
ATOM      5  O   UNL A   1      39.053  34.330  29.899  1.00  0.00    -0.269 OA
ATOM      6  H   UNL A   1      37.479  34.256  28.022  1.00  0.00     0.163 HD
BRANCH   4   7
ATOM      7  C   UNL A   1      37.331  33.125  31.088  1.00  0.00     0.364 C 
BRANCH   7   8
ATOM      8  N   UNL A   1      37.598  33.349  32.507  1.00  0.00    -0.314 N 
ATOM      9  H   UNL A   1      38.590  33.282  32.736  1.00  0.00     0.349 HD
BRANCH   8  10
ATOM     10  C   UNL A   1      37.242  34.722  32.868  1.00  0.00     0.354 C 
BRANCH  10  11
ATOM     11  C   UNL A   1      35.822  35.082  32.936  1.00  0.00    -0.047 C 
ATOM     12  C   UNL A   1      34.738  35.523  33.188  1.00  0.00     0.010 C 
ENDBRANCH  10  11
ENDBRANCH   8  10
BRANCH   8  13
ATOM     13  C   UNL A   1      36.931  32.251  33.301  1.00  0.00     0.190 C 
ATOM     14  C   UNL A   1      36.653  30.895  32.619  1.00  0.00     0.093 C 
ATOM     15  C   UNL A   1      37.569  31.920  34.708  1.00  0.00     0.097 C 
ATOM     16  C   UNL A   1      37.828  29.932  32.682  1.00  0.00     0.166 C 
ATOM     17  C   UNL A   1      38.641  30.780  34.795  1.00  0.00     0.126 C 
ATOM     18  O   UNL A   1      38.212  29.652  34.024  1.00  0.00    -0.377 OA
BRANCH  17  19
ATOM     19  C   UNL A   1      40.171  31.067  34.585  1.00  0.00     0.012 C 
ATOM     20  C   UNL A   1      40.917  31.445  35.870  1.00  0.00     0.010 C 
ATOM     21  C   UNL A   1      40.925  29.925  33.888  1.00  0.00     0.010 C 
ENDBRANCH  17  19
ENDBRANCH   8  13
ENDBRANCH   7   8
ENDBRANCH   4   7
ENDBRANCH   2   3
ENDBRANCH   1   2
BRANCH   1  22
ATOM     22  C   UNL A   1      34.522  32.122  29.112  1.00  0.00     0.118 C 
BRANCH  22  23
ATOM     23  N   UNL A   1      33.968  31.003  28.378  1.00  0.00    -0.352 N 
ATOM     24  C   UNL A   1      34.652  29.996  27.745  1.00  0.00     0.251 C 
ATOM     25  H   UNL A   1      32.985  30.958  28.328  1.00  0.00     0.163 HD
ATOM     26  O   UNL A   1      34.084  29.308  26.905  1.00  0.00    -0.269 OA
BRANCH  24  27
ATOM     27  C   UNL A   1      36.080  29.777  28.068  1.00  0.00     0.039 A 
ATOM     28  C   UNL A   1      36.414  29.195  29.290  1.00  0.00     0.014 A 
ATOM     29  C   UNL A   1      37.085  30.128  27.159  1.00  0.00     0.014 A 
ATOM     30  C   UNL A   1      37.752  28.934  29.581  1.00  0.00     0.010 A 
ATOM     31  C   UNL A   1      38.402  29.756  27.401  1.00  0.00     0.010 A 
ATOM     32  C   UNL A   1      38.755  29.180  28.628  1.00  0.00    -0.014 A 
BRANCH  32  33
ATOM     33  C   UNL A   1      40.178  28.866  28.913  1.00  0.00     0.031 A 
ATOM     34  C   UNL A   1      40.748  27.527  28.517  1.00  0.00     0.074 A 
ATOM     35  C   UNL A   1      40.943  29.769  29.560  1.00  0.00     0.049 A 
ATOM     36  N   UNL A   1      41.955  27.061  28.703  1.00  0.00    -0.248 NA
ATOM     37  C   UNL A   1      39.842  26.580  27.844  1.00  0.00     0.031 C 
ATOM     38  C   UNL A   1      40.485  31.075  30.041  1.00  0.00     0.029 A 
ATOM     39  N   UNL A   1      42.264  29.727  29.930  1.00  0.00    -0.354 N 
ATOM     40  C   UNL A   1      41.946  25.768  28.193  1.00  0.00     0.074 A 
ATOM     41  C   UNL A   1      40.605  25.502  27.729  1.00  0.00     0.031 C 
ATOM     42  C   UNL A   1      41.511  31.719  30.619  1.00  0.00     0.029 A 
ATOM     43  C   UNL A   1      42.687  30.853  30.599  1.00  0.00     0.049 A 
ATOM     44  H   UNL A   1      42.853  28.963  29.736  1.00  0.00     0.167 HD
ATOM     45  C   UNL A   1      42.972  24.890  28.104  1.00  0.00     0.037 A 
ATOM     46  C   UNL A   1      43.878  31.147  31.155  1.00  0.00     0.037 A 
ATOM     47  C   UNL A   1      44.313  25.177  28.540  1.00  0.00     0.049 A 
ATOM     48  C   UNL A   1      45.000  30.148  31.040  1.00  0.00     0.074 A 
ATOM     49  C   UNL A   1      45.441  24.385  28.416  1.00  0.00     0.029 A 
ATOM     50  N   UNL A   1      44.706  26.333  29.197  1.00  0.00    -0.354 N 
ATOM     51  N   UNL A   1      44.997  28.968  30.465  1.00  0.00    -0.248 NA
ATOM     52  C   UNL A   1      46.288  30.518  31.641  1.00  0.00     0.031 C 
ATOM     53  C   UNL A   1      46.496  25.026  29.068  1.00  0.00     0.029 A 
ATOM     54  C   UNL A   1      46.049  26.256  29.523  1.00  0.00     0.049 A 
ATOM     55  H   UNL A   1      44.117  27.097  29.400  1.00  0.00     0.167 HD
ATOM     56  C   UNL A   1      46.288  28.471  30.610  1.00  0.00     0.074 A 
ATOM     57  C   UNL A   1      47.049  29.486  31.306  1.00  0.00     0.031 C 
ATOM     58  C   UNL A   1      46.797  27.281  30.206  1.00  0.00     0.037 A 
BRANCH  45  59
ATOM     59  C   UNL A   1      42.702  23.528  27.524  1.00  0.00     0.058 A 
ATOM     60  C   UNL A   1      42.880  23.247  26.161  1.00  0.00     0.135 A 
ATOM     61  C   UNL A   1      42.355  22.461  28.372  1.00  0.00     0.135 A 
ATOM     62  F   UNL A   1      43.191  24.231  25.302  1.00  0.00    -0.206 F 
ATOM     63  C   UNL A   1      42.724  21.959  25.658  1.00  0.00     0.059 A 
ATOM     64  C   UNL A   1      42.225  21.160  27.896  1.00  0.00     0.059 A 
ATOM     65  F   UNL A   1      42.163  22.674  29.683  1.00  0.00    -0.206 F 
ATOM     66  C   UNL A   1      42.411  20.920  26.536  1.00  0.00     0.060 A 
BRANCH  66  67
ATOM     67  S   UNL A   1      42.279  19.246  25.875  1.00  0.00     0.124 S 
ATOM     68  O   UNL A   1      42.778  18.449  26.992  1.00  0.00    -0.237 OA
ATOM     69  O   UNL A   1      40.849  19.133  25.604  1.00  0.00    -0.237 OA
ATOM     70  O   UNL A   1      43.138  19.274  24.695  1.00  0.00    -0.744 OA
ENDBRANCH  66  67
ENDBRANCH  45  59
BRANCH  46  71
ATOM     71  C   UNL A   1      44.072  32.428  31.892  1.00  0.00     0.058 A 
ATOM     72  C   UNL A   1      43.941  32.500  33.287  1.00  0.00     0.135 A 
ATOM     73  C   UNL A   1      44.361  33.618  31.204  1.00  0.00     0.135 A 
ATOM     74  F   UNL A   1      43.664  31.394  33.994  1.00  0.00    -0.206 F 
ATOM     75  C   UNL A   1      44.049  33.709  33.968  1.00  0.00     0.059 A 
ATOM     76  C   UNL A   1      44.511  34.831  31.866  1.00  0.00     0.059 A 
ATOM     77  F   UNL A   1      44.516  33.605  29.871  1.00  0.00    -0.206 F 
ATOM     78  C   UNL A   1      44.332  34.870  33.247  1.00  0.00     0.060 A 
BRANCH  78  79
ATOM     79  S   UNL A   1      44.478  36.433  34.140  1.00  0.00     0.124 S 
ATOM     80  O   UNL A   1      43.226  36.461  34.888  1.00  0.00    -0.237 OA
ATOM     81  O   UNL A   1      45.689  36.222  34.926  1.00  0.00    -0.237 OA
ATOM     82  O   UNL A   1      44.597  37.420  33.070  1.00  0.00    -0.744 OA
ENDBRANCH  78  79
ENDBRANCH  46  71
BRANCH  58  83
ATOM     83  C   UNL A   1      48.259  27.025  30.462  1.00  0.00     0.058 A 
ATOM     84  C   UNL A   1      49.256  27.436  29.564  1.00  0.00     0.135 A 
ATOM     85  C   UNL A   1      48.668  26.406  31.655  1.00  0.00     0.135 A 
ATOM     86  F   UNL A   1      48.921  28.029  28.406  1.00  0.00    -0.206 F 
ATOM     87  C   UNL A   1      50.604  27.217  29.825  1.00  0.00     0.059 A 
ATOM     88  C   UNL A   1      50.013  26.212  31.955  1.00  0.00     0.059 A 
ATOM     89  F   UNL A   1      47.759  26.001  32.555  1.00  0.00    -0.206 F 
ATOM     90  C   UNL A   1      50.973  26.610  31.027  1.00  0.00     0.060 A 
BRANCH  90  91
ATOM     91  S   UNL A   1      52.728  26.364  31.367  1.00  0.00     0.124 S 
ATOM     92  O   UNL A   1      53.296  26.398  30.023  1.00  0.00    -0.237 OA
ATOM     93  O   UNL A   1      53.042  27.507  32.218  1.00  0.00    -0.237 OA
ATOM     94  O   UNL A   1      52.768  25.064  32.031  1.00  0.00    -0.744 OA
ENDBRANCH  90  91
ENDBRANCH  58  83
ENDBRANCH  32  33
ENDBRANCH  24  27
ENDBRANCH  22  23
ENDBRANCH   1  22
TORSDOF 18
ENDMDL
