MODEL 1
REMARK VINA RESULT:     -13.3      0.000      0.000
REMARK SMILES O=C(CN1CC2(CCC1=O)CC[NH+](Cc1nc3ccccc3[nH]1)CC2)NCCCNC(=O)c1ccc(-c2c3nc(c(-c4c(F)cc(S(=O)(=O)[O-])cc4F)c4ccc([nH]4)c(-c4c(F)cc(S(=O)(=O)[O-])cc4F)c4nc(c(-c5c(F)cc(S(=O)(=O)[O-])cc5F)c5ccc2[nH]5)C=C4)C=C3)cc1
REMARK SMILES IDX 28 1 27 2 26 3 1 4 2 5 3 7 4 8 5 9 9 10 6 11 8 12 10 13 7 14
REMARK SMILES IDX 11 15 25 16 12 17 24 18 13 19 14 21 15 22 16 23 23 24 17 25
REMARK SMILES IDX 22 26 18 28 21 29 19 30 20 31 29 32 30 33 31 34 32 36 33 37
REMARK SMILES IDX 34 38 98 39 35 40 97 41 36 42 37 43 38 44 91 45 39 46 96 47
REMARK SMILES IDX 90 48 92 49 40 50 95 51 89 52 88 53 41 55 75 56 54 57 74 58
REMARK SMILES IDX 55 59 58 60 73 61 93 62 56 63 57 64 72 66 94 67 59 68 42 69
REMARK SMILES IDX 43 70 52 71 44 72 45 73 51 74 53 75 46 76 47 77 48 78 49 79
REMARK SMILES IDX 50 80 76 81 77 82 86 83 78 84 79 85 85 86 87 87 80 88 81 89
REMARK SMILES IDX 82 90 83 91 84 92 60 93 61 94 70 95 62 96 63 97 69 98 71 99
REMARK SMILES IDX 64 100 65 101 66 102 67 103 68 104
REMARK H PARENT 26 6 13 20 23 27 30 35 92 54 58 65
REMARK Flexibility Score: inf
ROOT
ATOM      1  C   UNL A   1      40.080  21.829  27.315  1.00  0.00     0.042 C 
ENDROOT
BRANCH   1   2
ATOM      2  C   UNL A   1      39.484  21.789  25.912  1.00  0.00     0.117 C 
BRANCH   2   3
ATOM      3  N   UNL A   1      38.052  21.960  25.931  1.00  0.00    -0.354 N 
ATOM      4  O   UNL A   1      38.084  24.238  25.634  1.00  0.00    -0.273 OA
ATOM      5  C   UNL A   1      37.459  23.191  25.779  1.00  0.00     0.239 C 
ATOM      6  H   UNL A   1      37.480  21.169  26.055  1.00  0.00     0.163 HD
BRANCH   5   7
ATOM      7  C   UNL A   1      35.954  23.178  25.984  1.00  0.00     0.219 C 
BRANCH   7   8
ATOM      8  N   UNL A   1      35.197  22.770  24.798  1.00  0.00    -0.333 N 
ATOM      9  C   UNL A   1      34.940  23.767  23.764  1.00  0.00     0.127 C 
ATOM     10  C   UNL A   1      34.713  21.480  24.704  1.00  0.00     0.223 C 
ATOM     11  C   UNL A   1      33.441  23.830  23.454  1.00  0.00    -0.001 C 
ATOM     12  C   UNL A   1      33.399  21.313  23.959  1.00  0.00     0.101 C 
ATOM     13  O   UNL A   1      35.217  20.544  25.321  1.00  0.00    -0.275 OA
ATOM     14  C   UNL A   1      33.065  22.411  22.961  1.00  0.00     0.019 C 
ATOM     15  C   UNL A   1      32.674  24.214  24.743  1.00  0.00     0.070 C 
ATOM     16  C   UNL A   1      33.137  24.827  22.311  1.00  0.00     0.070 C 
ATOM     17  C   UNL A   1      32.696  25.711  25.054  1.00  0.00     0.263 C 
ATOM     18  C   UNL A   1      33.093  26.297  22.734  1.00  0.00     0.263 C 
ATOM     19  N   UNL A   1      32.319  26.570  23.943  1.00  0.00    -0.329 N 
ATOM     20  H   UNL A   1      32.609  27.502  24.240  1.00  0.00     0.348 HD
BRANCH  19  21
ATOM     21  C   UNL A   1      30.882  26.827  23.752  1.00  0.00     0.338 C 
BRANCH  21  22
ATOM     22  C   UNL A   1      30.502  28.191  23.265  1.00  0.00     0.162 A 
ATOM     23  N   UNL A   1      30.079  28.525  22.059  1.00  0.00    -0.227 NA
ATOM     24  N   UNL A   1      30.507  29.295  24.086  1.00  0.00    -0.337 N 
ATOM     25  C   UNL A   1      29.529  29.777  22.206  1.00  0.00     0.089 A 
ATOM     26  C   UNL A   1      29.715  30.250  23.497  1.00  0.00     0.066 A 
ATOM     27  H   UNL A   1      30.991  29.384  24.939  1.00  0.00     0.168 HD
ATOM     28  C   UNL A   1      28.782  30.540  21.299  1.00  0.00     0.030 A 
ATOM     29  C   UNL A   1      29.125  31.418  23.984  1.00  0.00     0.028 A 
ATOM     30  C   UNL A   1      28.173  31.715  21.759  1.00  0.00     0.002 A 
ATOM     31  C   UNL A   1      28.325  32.132  23.085  1.00  0.00     0.002 A 
ENDBRANCH  21  22
ENDBRANCH  19  21
ENDBRANCH   7   8
ENDBRANCH   5   7
ENDBRANCH   2   3
ENDBRANCH   1   2
BRANCH   1  32
ATOM     32  C   UNL A   1      41.176  22.876  27.494  1.00  0.00     0.118 C 
BRANCH  32  33
ATOM     33  N   UNL A   1      41.355  23.715  26.316  1.00  0.00    -0.352 N 
ATOM     34  C   UNL A   1      41.324  25.084  26.188  1.00  0.00     0.251 C 
ATOM     35  H   UNL A   1      41.526  23.225  25.480  1.00  0.00     0.163 HD
ATOM     36  O   UNL A   1      41.337  25.587  25.072  1.00  0.00    -0.269 OA
BRANCH  34  37
ATOM     37  C   UNL A   1      41.250  25.943  27.390  1.00  0.00     0.039 A 
ATOM     38  C   UNL A   1      42.295  26.834  27.645  1.00  0.00     0.014 A 
ATOM     39  C   UNL A   1      40.166  25.868  28.267  1.00  0.00     0.014 A 
ATOM     40  C   UNL A   1      42.217  27.702  28.738  1.00  0.00     0.010 A 
ATOM     41  C   UNL A   1      40.052  26.786  29.309  1.00  0.00     0.010 A 
ATOM     42  C   UNL A   1      41.074  27.714  29.555  1.00  0.00    -0.014 A 
BRANCH  42  43
ATOM     43  C   UNL A   1      40.924  28.699  30.659  1.00  0.00     0.031 A 
ATOM     44  C   UNL A   1      41.784  28.597  31.890  1.00  0.00     0.074 A 
ATOM     45  C   UNL A   1      39.966  29.645  30.581  1.00  0.00     0.049 A 
ATOM     46  N   UNL A   1      41.747  29.314  32.984  1.00  0.00    -0.248 NA
ATOM     47  C   UNL A   1      42.802  27.533  31.904  1.00  0.00     0.031 C 
ATOM     48  C   UNL A   1      39.038  29.818  29.461  1.00  0.00     0.029 A 
ATOM     49  N   UNL A   1      39.603  30.630  31.465  1.00  0.00    -0.354 N 
ATOM     50  C   UNL A   1      42.721  28.782  33.820  1.00  0.00     0.074 A 
ATOM     51  C   UNL A   1      43.298  27.649  33.127  1.00  0.00     0.031 C 
ATOM     52  C   UNL A   1      38.228  30.858  29.717  1.00  0.00     0.029 A 
ATOM     53  C   UNL A   1      38.548  31.399  31.033  1.00  0.00     0.049 A 
ATOM     54  H   UNL A   1      40.056  30.773  32.327  1.00  0.00     0.167 HD
ATOM     55  C   UNL A   1      43.115  29.211  35.043  1.00  0.00     0.037 A 
ATOM     56  C   UNL A   1      37.901  32.419  31.633  1.00  0.00     0.037 A 
ATOM     57  C   UNL A   1      42.552  30.352  35.717  1.00  0.00     0.049 A 
ATOM     58  C   UNL A   1      38.353  32.873  32.995  1.00  0.00     0.074 A 
ATOM     59  C   UNL A   1      42.920  30.900  36.934  1.00  0.00     0.029 A 
ATOM     60  N   UNL A   1      41.500  31.118  35.237  1.00  0.00    -0.354 N 
ATOM     61  N   UNL A   1      39.320  32.398  33.744  1.00  0.00    -0.248 NA
ATOM     62  C   UNL A   1      37.632  34.006  33.592  1.00  0.00     0.031 C 
ATOM     63  C   UNL A   1      42.061  31.967  37.211  1.00  0.00     0.029 A 
ATOM     64  C   UNL A   1      41.193  32.122  36.142  1.00  0.00     0.049 A 
ATOM     65  H   UNL A   1      41.039  30.971  34.379  1.00  0.00     0.167 HD
ATOM     66  C   UNL A   1      39.344  33.194  34.884  1.00  0.00     0.074 A 
ATOM     67  C   UNL A   1      38.300  34.185  34.724  1.00  0.00     0.031 C 
ATOM     68  C   UNL A   1      40.160  33.112  35.964  1.00  0.00     0.037 A 
BRANCH  55  69
ATOM     69  C   UNL A   1      44.211  28.444  35.734  1.00  0.00     0.058 A 
ATOM     70  C   UNL A   1      43.939  27.304  36.508  1.00  0.00     0.135 A 
ATOM     71  C   UNL A   1      45.554  28.828  35.587  1.00  0.00     0.135 A 
ATOM     72  F   UNL A   1      42.674  26.899  36.693  1.00  0.00    -0.206 F 
ATOM     73  C   UNL A   1      44.956  26.591  37.137  1.00  0.00     0.059 A 
ATOM     74  C   UNL A   1      46.590  28.112  36.183  1.00  0.00     0.059 A 
ATOM     75  F   UNL A   1      45.873  29.909  34.858  1.00  0.00    -0.206 F 
ATOM     76  C   UNL A   1      46.278  27.003  36.968  1.00  0.00     0.060 A 
BRANCH  76  77
ATOM     77  S   UNL A   1      47.584  26.063  37.786  1.00  0.00     0.124 S 
ATOM     78  O   UNL A   1      48.735  26.368  36.941  1.00  0.00    -0.237 OA
ATOM     79  O   UNL A   1      47.605  26.653  39.121  1.00  0.00    -0.237 OA
ATOM     80  O   UNL A   1      47.105  24.685  37.720  1.00  0.00    -0.744 OA
ENDBRANCH  76  77
ENDBRANCH  55  69
BRANCH  56  81
ATOM     81  C   UNL A   1      36.770  33.093  30.940  1.00  0.00     0.058 A 
ATOM     82  C   UNL A   1      35.441  32.817  31.292  1.00  0.00     0.135 A 
ATOM     83  C   UNL A   1      36.995  34.035  29.924  1.00  0.00     0.135 A 
ATOM     84  F   UNL A   1      35.173  31.919  32.252  1.00  0.00    -0.206 F 
ATOM     85  C   UNL A   1      34.372  33.435  30.649  1.00  0.00     0.059 A 
ATOM     86  C   UNL A   1      35.944  34.686  29.285  1.00  0.00     0.059 A 
ATOM     87  F   UNL A   1      38.248  34.347  29.561  1.00  0.00    -0.206 F 
ATOM     88  C   UNL A   1      34.635  34.371  29.648  1.00  0.00     0.060 A 
BRANCH  88  89
ATOM     89  S   UNL A   1      33.242  35.201  28.852  1.00  0.00     0.124 S 
ATOM     90  O   UNL A   1      32.483  35.671  30.004  1.00  0.00    -0.237 OA
ATOM     91  O   UNL A   1      33.909  36.231  28.062  1.00  0.00    -0.237 OA
ATOM     92  O   UNL A   1      32.616  34.133  28.075  1.00  0.00    -0.744 OA
ENDBRANCH  88  89
ENDBRANCH  56  81
BRANCH  68  93
ATOM     93  C   UNL A   1      39.996  34.148  37.042  1.00  0.00     0.058 A 
ATOM     94  C   UNL A   1      40.563  35.426  36.936  1.00  0.00     0.135 A 
ATOM     95  C   UNL A   1      39.201  33.874  38.169  1.00  0.00     0.135 A 
ATOM     96  F   UNL A   1      41.337  35.737  35.885  1.00  0.00    -0.206 F 
ATOM     97  C   UNL A   1      40.361  36.393  37.917  1.00  0.00     0.059 A 
ATOM     98  C   UNL A   1      38.963  34.835  39.146  1.00  0.00     0.059 A 
ATOM     99  F   UNL A   1      38.627  32.669  38.316  1.00  0.00    -0.206 F 
ATOM    100  C   UNL A   1      39.556  36.089  39.016  1.00  0.00     0.060 A 
BRANCH 100 101
ATOM    101  S   UNL A   1      39.264  37.369  40.256  1.00  0.00     0.124 S 
ATOM    102  O   UNL A   1      38.522  36.630  41.272  1.00  0.00    -0.237 OA
ATOM    103  O   UNL A   1      40.622  37.762  40.624  1.00  0.00    -0.237 OA
ATOM    104  O   UNL A   1      38.501  38.378  39.531  1.00  0.00    -0.744 OA
ENDBRANCH 100 101
ENDBRANCH  68  93
ENDBRANCH  42  43
ENDBRANCH  34  37
ENDBRANCH  32  33
ENDBRANCH   1  32
TORSDOF 16
ENDMDL
MODEL 2
REMARK VINA RESULT:     -13.0      2.957      4.088
REMARK SMILES O=C(CN1CC2(CCC1=O)CC[NH+](Cc1nc3ccccc3[nH]1)CC2)NCCCNC(=O)c1ccc(-c2c3nc(c(-c4c(F)cc(S(=O)(=O)[O-])cc4F)c4ccc([nH]4)c(-c4c(F)cc(S(=O)(=O)[O-])cc4F)c4nc(c(-c5c(F)cc(S(=O)(=O)[O-])cc5F)c5ccc2[nH]5)C=C4)C=C3)cc1
REMARK SMILES IDX 28 1 27 2 26 3 1 4 2 5 3 7 4 8 5 9 9 10 6 11 8 12 10 13 7 14
REMARK SMILES IDX 11 15 25 16 12 17 24 18 13 19 14 21 15 22 16 23 23 24 17 25
REMARK SMILES IDX 22 26 18 28 21 29 19 30 20 31 29 32 30 33 31 34 32 36 33 37
REMARK SMILES IDX 34 38 98 39 35 40 97 41 36 42 37 43 38 44 91 45 39 46 96 47
REMARK SMILES IDX 90 48 92 49 40 50 95 51 89 52 88 53 41 55 75 56 54 57 74 58
REMARK SMILES IDX 55 59 58 60 73 61 93 62 56 63 57 64 72 66 94 67 59 68 42 69
REMARK SMILES IDX 43 70 52 71 44 72 45 73 51 74 53 75 46 76 47 77 48 78 49 79
REMARK SMILES IDX 50 80 76 81 77 82 86 83 78 84 79 85 85 86 87 87 80 88 81 89
REMARK SMILES IDX 82 90 83 91 84 92 60 93 61 94 70 95 62 96 63 97 69 98 71 99
REMARK SMILES IDX 64 100 65 101 66 102 67 103 68 104
REMARK H PARENT 26 6 13 20 23 27 30 35 92 54 58 65
REMARK Flexibility Score: inf
ROOT
ATOM      1  C   UNL A   1      36.033  23.273  24.076  1.00  0.00     0.042 C 
ENDROOT
BRANCH   1   2
ATOM      2  C   UNL A   1      35.432  21.911  24.404  1.00  0.00     0.117 C 
BRANCH   2   3
ATOM      3  N   UNL A   1      33.992  21.924  24.319  1.00  0.00    -0.354 N 
ATOM      4  O   UNL A   1      33.642  22.772  26.425  1.00  0.00    -0.273 OA
ATOM      5  C   UNL A   1      33.202  22.369  25.352  1.00  0.00     0.239 C 
ATOM      6  H   UNL A   1      33.561  21.605  23.494  1.00  0.00     0.163 HD
BRANCH   5   7
ATOM      7  C   UNL A   1      31.715  22.157  25.125  1.00  0.00     0.219 C 
BRANCH   7   8
ATOM      8  N   UNL A   1      30.929  23.392  25.149  1.00  0.00    -0.333 N 
ATOM      9  C   UNL A   1      30.676  24.076  23.885  1.00  0.00     0.127 C 
ATOM     10  C   UNL A   1      30.485  23.900  26.354  1.00  0.00     0.223 C 
ATOM     11  C   UNL A   1      31.106  25.543  23.984  1.00  0.00    -0.001 C 
ATOM     12  C   UNL A   1      30.391  25.414  26.447  1.00  0.00     0.101 C 
ATOM     13  O   UNL A   1      30.332  23.192  27.347  1.00  0.00    -0.275 OA
ATOM     14  C   UNL A   1      30.246  26.146  25.121  1.00  0.00     0.019 C 
ATOM     15  C   UNL A   1      32.618  25.605  24.311  1.00  0.00     0.070 C 
ATOM     16  C   UNL A   1      30.788  26.319  22.685  1.00  0.00     0.070 C 
ATOM     17  C   UNL A   1      33.523  25.398  23.096  1.00  0.00     0.263 C 
ATOM     18  C   UNL A   1      31.798  26.119  21.552  1.00  0.00     0.263 C 
ATOM     19  N   UNL A   1      33.200  26.227  21.946  1.00  0.00    -0.329 N 
ATOM     20  H   UNL A   1      33.726  25.806  21.180  1.00  0.00     0.348 HD
BRANCH  19  21
ATOM     21  C   UNL A   1      33.784  27.579  21.909  1.00  0.00     0.338 C 
BRANCH  21  22
ATOM     22  C   UNL A   1      33.536  28.450  23.102  1.00  0.00     0.162 A 
ATOM     23  N   UNL A   1      32.433  29.114  23.397  1.00  0.00    -0.227 NA
ATOM     24  N   UNL A   1      34.471  28.621  24.096  1.00  0.00    -0.337 N 
ATOM     25  C   UNL A   1      32.563  29.454  24.722  1.00  0.00     0.089 A 
ATOM     26  C   UNL A   1      33.809  29.082  25.209  1.00  0.00     0.066 A 
ATOM     27  H   UNL A   1      35.437  28.447  24.025  1.00  0.00     0.168 HD
ATOM     28  C   UNL A   1      31.625  30.012  25.602  1.00  0.00     0.030 A 
ATOM     29  C   UNL A   1      34.164  29.151  26.557  1.00  0.00     0.028 A 
ATOM     30  C   UNL A   1      31.951  30.092  26.962  1.00  0.00     0.002 A 
ATOM     31  C   UNL A   1      33.190  29.648  27.432  1.00  0.00     0.002 A 
ENDBRANCH  21  22
ENDBRANCH  19  21
ENDBRANCH   7   8
ENDBRANCH   5   7
ENDBRANCH   2   3
ENDBRANCH   1   2
BRANCH   1  32
ATOM     32  C   UNL A   1      37.017  23.786  25.124  1.00  0.00     0.118 C 
BRANCH  32  33
ATOM     33  N   UNL A   1      38.074  22.828  25.424  1.00  0.00    -0.352 N 
ATOM     34  C   UNL A   1      39.257  22.996  26.105  1.00  0.00     0.251 C 
ATOM     35  H   UNL A   1      37.915  21.917  25.087  1.00  0.00     0.163 HD
ATOM     36  O   UNL A   1      40.086  22.095  26.105  1.00  0.00    -0.269 OA
BRANCH  34  37
ATOM     37  C   UNL A   1      39.537  24.266  26.810  1.00  0.00     0.039 A 
ATOM     38  C   UNL A   1      39.014  24.452  28.091  1.00  0.00     0.014 A 
ATOM     39  C   UNL A   1      40.300  25.272  26.213  1.00  0.00     0.014 A 
ATOM     40  C   UNL A   1      39.319  25.616  28.803  1.00  0.00     0.010 A 
ATOM     41  C   UNL A   1      40.668  26.394  26.952  1.00  0.00     0.010 A 
ATOM     42  C   UNL A   1      40.184  26.577  28.256  1.00  0.00    -0.014 A 
BRANCH  42  43
ATOM     43  C   UNL A   1      40.605  27.772  29.036  1.00  0.00     0.031 A 
ATOM     44  C   UNL A   1      41.927  27.783  29.754  1.00  0.00     0.074 A 
ATOM     45  C   UNL A   1      39.764  28.819  29.153  1.00  0.00     0.049 A 
ATOM     46  N   UNL A   1      42.431  28.698  30.541  1.00  0.00    -0.248 NA
ATOM     47  C   UNL A   1      42.786  26.599  29.584  1.00  0.00     0.031 C 
ATOM     48  C   UNL A   1      38.435  28.910  28.544  1.00  0.00     0.029 A 
ATOM     49  N   UNL A   1      39.895  30.004  29.835  1.00  0.00    -0.354 N 
ATOM     50  C   UNL A   1      43.654  28.198  30.973  1.00  0.00     0.074 A 
ATOM     51  C   UNL A   1      43.793  26.876  30.400  1.00  0.00     0.031 C 
ATOM     52  C   UNL A   1      37.884  30.091  28.862  1.00  0.00     0.029 A 
ATOM     53  C   UNL A   1      38.797  30.826  29.731  1.00  0.00     0.049 A 
ATOM     54  H   UNL A   1      40.699  30.242  30.350  1.00  0.00     0.167 HD
ATOM     55  C   UNL A   1      44.585  28.793  31.755  1.00  0.00     0.037 A 
ATOM     56  C   UNL A   1      38.548  32.031  30.282  1.00  0.00     0.037 A 
ATOM     57  C   UNL A   1      44.450  30.118  32.304  1.00  0.00     0.049 A 
ATOM     58  C   UNL A   1      39.595  32.670  31.153  1.00  0.00     0.074 A 
ATOM     59  C   UNL A   1      45.361  30.831  33.063  1.00  0.00     0.029 A 
ATOM     60  N   UNL A   1      43.332  30.927  32.157  1.00  0.00    -0.354 N 
ATOM     61  N   UNL A   1      40.774  32.208  31.498  1.00  0.00    -0.248 NA
ATOM     62  C   UNL A   1      39.284  33.996  31.706  1.00  0.00     0.031 C 
ATOM     63  C   UNL A   1      44.777  32.052  33.415  1.00  0.00     0.029 A 
ATOM     64  C   UNL A   1      43.524  32.125  32.829  1.00  0.00     0.049 A 
ATOM     65  H   UNL A   1      42.523  30.687  31.651  1.00  0.00     0.167 HD
ATOM     66  C   UNL A   1      41.357  33.199  32.280  1.00  0.00     0.074 A 
ATOM     67  C   UNL A   1      40.405  34.289  32.352  1.00  0.00     0.031 C 
ATOM     68  C   UNL A   1      42.573  33.208  32.881  1.00  0.00     0.037 A 
BRANCH  55  69
ATOM     69  C   UNL A   1      45.838  28.018  32.065  1.00  0.00     0.058 A 
ATOM     70  C   UNL A   1      45.935  27.195  33.199  1.00  0.00     0.135 A 
ATOM     71  C   UNL A   1      46.941  28.066  31.197  1.00  0.00     0.135 A 
ATOM     72  F   UNL A   1      44.917  27.121  34.070  1.00  0.00    -0.206 F 
ATOM     73  C   UNL A   1      47.090  26.472  33.477  1.00  0.00     0.059 A 
ATOM     74  C   UNL A   1      48.096  27.327  31.440  1.00  0.00     0.059 A 
ATOM     75  F   UNL A   1      46.905  28.835  30.098  1.00  0.00    -0.206 F 
ATOM     76  C   UNL A   1      48.166  26.544  32.592  1.00  0.00     0.060 A 
BRANCH  76  77
ATOM     77  S   UNL A   1      49.655  25.594  32.966  1.00  0.00     0.124 S 
ATOM     78  O   UNL A   1      49.093  24.430  33.646  1.00  0.00    -0.237 OA
ATOM     79  O   UNL A   1      50.208  25.346  31.639  1.00  0.00    -0.237 OA
ATOM     80  O   UNL A   1      50.433  26.497  33.809  1.00  0.00    -0.744 OA
ENDBRANCH  76  77
ENDBRANCH  55  69
BRANCH  56  81
ATOM     81  C   UNL A   1      37.258  32.721  30.007  1.00  0.00     0.058 A 
ATOM     82  C   UNL A   1      36.129  32.482  30.804  1.00  0.00     0.135 A 
ATOM     83  C   UNL A   1      37.133  33.642  28.956  1.00  0.00     0.135 A 
ATOM     84  F   UNL A   1      36.195  31.606  31.817  1.00  0.00    -0.206 F 
ATOM     85  C   UNL A   1      34.914  33.115  30.557  1.00  0.00     0.059 A 
ATOM     86  C   UNL A   1      35.938  34.309  28.705  1.00  0.00     0.059 A 
ATOM     87  F   UNL A   1      38.189  33.919  28.175  1.00  0.00    -0.206 F 
ATOM     88  C   UNL A   1      34.830  34.030  29.505  1.00  0.00     0.060 A 
BRANCH  88  89
ATOM     89  S   UNL A   1      33.261  34.881  29.222  1.00  0.00     0.124 S 
ATOM     90  O   UNL A   1      32.666  34.849  30.552  1.00  0.00    -0.237 OA
ATOM     91  O   UNL A   1      33.704  36.189  28.749  1.00  0.00    -0.237 OA
ATOM     92  O   UNL A   1      32.606  34.048  28.217  1.00  0.00    -0.744 OA
ENDBRANCH  88  89
ENDBRANCH  56  81
BRANCH  68  93
ATOM     93  C   UNL A   1      42.971  34.448  33.632  1.00  0.00     0.058 A 
ATOM     94  C   UNL A   1      42.685  34.614  34.995  1.00  0.00     0.135 A 
ATOM     95  C   UNL A   1      43.710  35.456  32.989  1.00  0.00     0.135 A 
ATOM     96  F   UNL A   1      41.976  33.685  35.655  1.00  0.00    -0.206 F 
ATOM     97  C   UNL A   1      43.103  35.744  35.692  1.00  0.00     0.059 A 
ATOM     98  C   UNL A   1      44.162  36.580  33.674  1.00  0.00     0.059 A 
ATOM     99  F   UNL A   1      44.019  35.344  31.688  1.00  0.00    -0.206 F 
ATOM    100  C   UNL A   1      43.845  36.719  35.023  1.00  0.00     0.060 A 
BRANCH 100 101
ATOM    101  S   UNL A   1      44.422  38.156  35.952  1.00  0.00     0.124 S 
ATOM    102  O   UNL A   1      43.737  37.977  37.227  1.00  0.00    -0.237 OA
ATOM    103  O   UNL A   1      45.868  37.953  35.976  1.00  0.00    -0.237 OA
ATOM    104  O   UNL A   1      43.968  39.286  35.148  1.00  0.00    -0.744 OA
ENDBRANCH 100 101
ENDBRANCH  68  93
ENDBRANCH  42  43
ENDBRANCH  34  37
ENDBRANCH  32  33
ENDBRANCH   1  32
TORSDOF 16
ENDMDL
MODEL 3
REMARK VINA RESULT:     -12.8      6.511     12.012
REMARK SMILES O=C(CN1CC2(CCC1=O)CC[NH+](Cc1nc3ccccc3[nH]1)CC2)NCCCNC(=O)c1ccc(-c2c3nc(c(-c4c(F)cc(S(=O)(=O)[O-])cc4F)c4ccc([nH]4)c(-c4c(F)cc(S(=O)(=O)[O-])cc4F)c4nc(c(-c5c(F)cc(S(=O)(=O)[O-])cc5F)c5ccc2[nH]5)C=C4)C=C3)cc1
REMARK SMILES IDX 28 1 27 2 26 3 1 4 2 5 3 7 4 8 5 9 9 10 6 11 8 12 10 13 7 14
REMARK SMILES IDX 11 15 25 16 12 17 24 18 13 19 14 21 15 22 16 23 23 24 17 25
REMARK SMILES IDX 22 26 18 28 21 29 19 30 20 31 29 32 30 33 31 34 32 36 33 37
REMARK SMILES IDX 34 38 98 39 35 40 97 41 36 42 37 43 38 44 91 45 39 46 96 47
REMARK SMILES IDX 90 48 92 49 40 50 95 51 89 52 88 53 41 55 75 56 54 57 74 58
REMARK SMILES IDX 55 59 58 60 73 61 93 62 56 63 57 64 72 66 94 67 59 68 42 69
REMARK SMILES IDX 43 70 52 71 44 72 45 73 51 74 53 75 46 76 47 77 48 78 49 79
REMARK SMILES IDX 50 80 76 81 77 82 86 83 78 84 79 85 85 86 87 87 80 88 81 89
REMARK SMILES IDX 82 90 83 91 84 92 60 93 61 94 70 95 62 96 63 97 69 98 71 99
REMARK SMILES IDX 64 100 65 101 66 102 67 103 68 104
REMARK H PARENT 26 6 13 20 23 27 30 35 92 54 58 65
REMARK Flexibility Score: inf
ROOT
ATOM      1  C   UNL A   1      35.401  31.979  27.769  1.00  0.00     0.042 C 
ENDROOT
BRANCH   1   2
ATOM      2  C   UNL A   1      34.205  31.050  27.939  1.00  0.00     0.117 C 
BRANCH   2   3
ATOM      3  N   UNL A   1      33.992  30.228  26.773  1.00  0.00    -0.354 N 
ATOM      4  O   UNL A   1      31.779  29.782  27.202  1.00  0.00    -0.273 OA
ATOM      5  C   UNL A   1      32.773  29.658  26.491  1.00  0.00     0.239 C 
ATOM      6  H   UNL A   1      34.744  30.071  26.158  1.00  0.00     0.163 HD
BRANCH   5   7
ATOM      7  C   UNL A   1      32.798  28.707  25.307  1.00  0.00     0.219 C 
BRANCH   7   8
ATOM      8  N   UNL A   1      31.531  28.009  25.081  1.00  0.00    -0.333 N 
ATOM      9  C   UNL A   1      31.298  26.752  25.785  1.00  0.00     0.127 C 
ATOM     10  C   UNL A   1      30.613  28.524  24.186  1.00  0.00     0.223 C 
ATOM     11  C   UNL A   1      30.918  25.652  24.788  1.00  0.00    -0.001 C 
ATOM     12  C   UNL A   1      29.773  27.507  23.431  1.00  0.00     0.101 C 
ATOM     13  O   UNL A   1      30.585  29.717  23.890  1.00  0.00    -0.275 OA
ATOM     14  C   UNL A   1      29.622  26.151  24.103  1.00  0.00     0.019 C 
ATOM     15  C   UNL A   1      32.072  25.468  23.773  1.00  0.00     0.070 C 
ATOM     16  C   UNL A   1      30.595  24.321  25.505  1.00  0.00     0.070 C 
ATOM     17  C   UNL A   1      33.231  24.622  24.299  1.00  0.00     0.263 C 
ATOM     18  C   UNL A   1      31.818  23.498  25.917  1.00  0.00     0.263 C 
ATOM     19  N   UNL A   1      32.841  23.350  24.885  1.00  0.00    -0.329 N 
ATOM     20  H   UNL A   1      33.676  23.037  25.380  1.00  0.00     0.348 HD
BRANCH  19  21
ATOM     21  C   UNL A   1      32.679  22.211  23.966  1.00  0.00     0.338 C 
BRANCH  21  22
ATOM     22  C   UNL A   1      32.987  20.853  24.518  1.00  0.00     0.162 A 
ATOM     23  N   UNL A   1      32.134  19.973  25.009  1.00  0.00    -0.227 NA
ATOM     24  N   UNL A   1      34.260  20.333  24.526  1.00  0.00    -0.337 N 
ATOM     25  C   UNL A   1      32.825  18.785  25.044  1.00  0.00     0.089 A 
ATOM     26  C   UNL A   1      34.147  18.971  24.666  1.00  0.00     0.066 A 
ATOM     27  H   UNL A   1      35.099  20.842  24.448  1.00  0.00     0.168 HD
ATOM     28  C   UNL A   1      32.366  17.488  25.311  1.00  0.00     0.030 A 
ATOM     29  C   UNL A   1      35.044  17.922  24.451  1.00  0.00     0.028 A 
ATOM     30  C   UNL A   1      33.241  16.414  25.100  1.00  0.00     0.002 A 
ATOM     31  C   UNL A   1      34.549  16.629  24.656  1.00  0.00     0.002 A 
ENDBRANCH  21  22
ENDBRANCH  19  21
ENDBRANCH   7   8
ENDBRANCH   5   7
ENDBRANCH   2   3
ENDBRANCH   1   2
BRANCH   1  32
ATOM     32  C   UNL A   1      36.133  32.294  29.071  1.00  0.00     0.118 C 
BRANCH  32  33
ATOM     33  N   UNL A   1      35.883  31.306  30.114  1.00  0.00    -0.352 N 
ATOM     34  C   UNL A   1      36.651  30.247  30.535  1.00  0.00     0.251 C 
ATOM     35  H   UNL A   1      35.030  31.416  30.592  1.00  0.00     0.163 HD
ATOM     36  O   UNL A   1      36.180  29.435  31.322  1.00  0.00    -0.269 OA
BRANCH  34  37
ATOM     37  C   UNL A   1      38.027  30.073  30.021  1.00  0.00     0.039 A 
ATOM     38  C   UNL A   1      39.094  30.146  30.920  1.00  0.00     0.014 A 
ATOM     39  C   UNL A   1      38.270  29.850  28.664  1.00  0.00     0.014 A 
ATOM     40  C   UNL A   1      40.397  29.919  30.470  1.00  0.00     0.010 A 
ATOM     41  C   UNL A   1      39.559  29.547  28.231  1.00  0.00     0.010 A 
ATOM     42  C   UNL A   1      40.637  29.576  29.129  1.00  0.00    -0.014 A 
BRANCH  42  43
ATOM     43  C   UNL A   1      42.002  29.230  28.652  1.00  0.00     0.031 A 
ATOM     44  C   UNL A   1      42.322  27.825  28.219  1.00  0.00     0.074 A 
ATOM     45  C   UNL A   1      42.971  30.167  28.673  1.00  0.00     0.049 A 
ATOM     46  N   UNL A   1      43.469  27.317  27.846  1.00  0.00    -0.248 NA
ATOM     47  C   UNL A   1      41.213  26.856  28.232  1.00  0.00     0.031 C 
ATOM     48  C   UNL A   1      42.799  31.553  29.114  1.00  0.00     0.029 A 
ATOM     49  N   UNL A   1      44.298  30.095  28.326  1.00  0.00    -0.354 N 
ATOM     50  C   UNL A   1      43.225  25.972  27.595  1.00  0.00     0.074 A 
ATOM     51  C   UNL A   1      41.833  25.731  27.907  1.00  0.00     0.031 C 
ATOM     52  C   UNL A   1      43.966  32.203  28.993  1.00  0.00     0.029 A 
ATOM     53  C   UNL A   1      44.981  31.275  28.507  1.00  0.00     0.049 A 
ATOM     54  H   UNL A   1      44.720  29.275  27.981  1.00  0.00     0.167 HD
ATOM     55  C   UNL A   1      44.077  25.029  27.125  1.00  0.00     0.037 A 
ATOM     56  C   UNL A   1      46.282  31.574  28.315  1.00  0.00     0.037 A 
ATOM     57  C   UNL A   1      45.457  25.281  26.796  1.00  0.00     0.049 A 
ATOM     58  C   UNL A   1      47.211  30.508  27.799  1.00  0.00     0.074 A 
ATOM     59  C   UNL A   1      46.387  24.407  26.262  1.00  0.00     0.029 A 
ATOM     60  N   UNL A   1      46.105  26.495  26.972  1.00  0.00    -0.354 N 
ATOM     61  N   UNL A   1      46.947  29.257  27.506  1.00  0.00    -0.248 NA
ATOM     62  C   UNL A   1      48.612  30.895  27.581  1.00  0.00     0.031 C 
ATOM     63  C   UNL A   1      47.609  25.077  26.159  1.00  0.00     0.029 A 
ATOM     64  C   UNL A   1      47.429  26.386  26.575  1.00  0.00     0.049 A 
ATOM     65  H   UNL A   1      45.688  27.313  27.326  1.00  0.00     0.167 HD
ATOM     66  C   UNL A   1      48.140  28.716  27.038  1.00  0.00     0.074 A 
ATOM     67  C   UNL A   1      49.125  29.778  27.081  1.00  0.00     0.031 C 
ATOM     68  C   UNL A   1      48.396  27.455  26.609  1.00  0.00     0.037 A 
BRANCH  55  69
ATOM     69  C   UNL A   1      43.543  23.634  26.937  1.00  0.00     0.058 A 
ATOM     70  C   UNL A   1      43.358  22.762  28.023  1.00  0.00     0.135 A 
ATOM     71  C   UNL A   1      43.173  23.177  25.662  1.00  0.00     0.135 A 
ATOM     72  F   UNL A   1      43.707  23.141  29.262  1.00  0.00    -0.206 F 
ATOM     73  C   UNL A   1      42.855  21.477  27.847  1.00  0.00     0.059 A 
ATOM     74  C   UNL A   1      42.638  21.906  25.467  1.00  0.00     0.059 A 
ATOM     75  F   UNL A   1      43.326  23.968  24.588  1.00  0.00    -0.206 F 
ATOM     76  C   UNL A   1      42.497  21.058  26.565  1.00  0.00     0.060 A 
BRANCH  76  77
ATOM     77  S   UNL A   1      41.840  19.390  26.357  1.00  0.00     0.124 S 
ATOM     78  O   UNL A   1      40.404  19.649  26.295  1.00  0.00    -0.237 OA
ATOM     79  O   UNL A   1      42.460  18.963  25.106  1.00  0.00    -0.237 OA
ATOM     80  O   UNL A   1      42.299  18.690  27.553  1.00  0.00    -0.744 OA
ENDBRANCH  76  77
ENDBRANCH  55  69
BRANCH  56  81
ATOM     81  C   UNL A   1      46.777  32.950  28.592  1.00  0.00     0.058 A 
ATOM     82  C   UNL A   1      46.736  33.944  27.604  1.00  0.00     0.135 A 
ATOM     83  C   UNL A   1      47.286  33.301  29.852  1.00  0.00     0.135 A 
ATOM     84  F   UNL A   1      46.264  33.656  26.382  1.00  0.00    -0.206 F 
ATOM     85  C   UNL A   1      47.200  35.233  27.847  1.00  0.00     0.059 A 
ATOM     86  C   UNL A   1      47.731  34.590  30.128  1.00  0.00     0.059 A 
ATOM     87  F   UNL A   1      47.331  32.391  30.837  1.00  0.00    -0.206 F 
ATOM     88  C   UNL A   1      47.694  35.547  29.114  1.00  0.00     0.060 A 
BRANCH  88  89
ATOM     89  S   UNL A   1      48.252  37.236  29.431  1.00  0.00     0.124 S 
ATOM     90  O   UNL A   1      47.109  38.014  28.970  1.00  0.00    -0.237 OA
ATOM     91  O   UNL A   1      48.474  37.219  30.874  1.00  0.00    -0.237 OA
ATOM     92  O   UNL A   1      49.461  37.347  28.620  1.00  0.00    -0.744 OA
ENDBRANCH  88  89
ENDBRANCH  56  81
BRANCH  68  93
ATOM     93  C   UNL A   1      49.781  27.158  26.105  1.00  0.00     0.058 A 
ATOM     94  C   UNL A   1      50.822  26.787  26.969  1.00  0.00     0.135 A 
ATOM     95  C   UNL A   1      50.050  27.180  24.725  1.00  0.00     0.135 A 
ATOM     96  F   UNL A   1      50.621  26.757  28.295  1.00  0.00    -0.206 F 
ATOM     97  C   UNL A   1      52.087  26.464  26.485  1.00  0.00     0.059 A 
ATOM     98  C   UNL A   1      51.299  26.834  24.218  1.00  0.00     0.059 A 
ATOM     99  F   UNL A   1      49.087  27.520  23.853  1.00  0.00    -0.206 F 
ATOM    100  C   UNL A   1      52.313  26.486  25.108  1.00  0.00     0.060 A 
BRANCH 100 101
ATOM    101  S   UNL A   1      53.945  26.019  24.491  1.00  0.00     0.124 S 
ATOM    102  O   UNL A   1      53.836  26.366  23.078  1.00  0.00    -0.237 OA
ATOM    103  O   UNL A   1      54.833  26.865  25.285  1.00  0.00    -0.237 OA
ATOM    104  O   UNL A   1      54.024  24.592  24.783  1.00  0.00    -0.744 OA
ENDBRANCH 100 101
ENDBRANCH  68  93
ENDBRANCH  42  43
ENDBRANCH  34  37
ENDBRANCH  32  33
ENDBRANCH   1  32
TORSDOF 16
ENDMDL
