MODEL 1
REMARK VINA RESULT:     -12.2      0.000      0.000
REMARK SMILES O=C(NCCCNC(=O)c1cc(-c2cccc(Cl)c2)oc1C(F)(F)F)c1ccc(-c2c3nc(c(-c4c(F)cc(S(=O)(=O)[O-])cc4F)c4ccc([nH]4)c(-c4c(F)cc(S(=O)(=O)[O-])cc4F)c4nc(c(-c5c(F)cc(S(=O)(=O)[O-])cc5F)c5ccc2[nH]5)C=C4)C=C3)cc1
REMARK SMILES IDX 4 1 3 2 1 3 2 4 26 6 27 7 91 8 28 9 90 10 29 11 30 12 31 13
REMARK SMILES IDX 84 14 32 15 89 16 83 17 85 18 33 19 88 20 82 21 81 22 34 24
REMARK SMILES IDX 68 25 47 26 67 27 48 28 51 29 66 30 86 31 49 32 50 33 65 35
REMARK SMILES IDX 87 36 52 37 35 38 36 39 45 40 37 41 38 42 44 43 46 44 39 45
REMARK SMILES IDX 40 46 41 47 42 48 43 49 69 50 70 51 79 52 71 53 72 54 78 55
REMARK SMILES IDX 80 56 73 57 74 58 75 59 76 60 77 61 53 62 54 63 63 64 55 65
REMARK SMILES IDX 56 66 62 67 64 68 57 69 58 70 59 71 60 72 61 73 5 74 6 75
REMARK SMILES IDX 7 76 8 77 9 79 10 80 11 81 21 82 12 83 20 84 22 85 23 86
REMARK SMILES IDX 24 87 25 88 13 89 14 90 19 91 15 92 17 93 16 94 18 95
REMARK H PARENT 3 5 85 23 51 34 7 78
REMARK Flexibility Score: inf
ROOT
ATOM      1  C   UNL A   1      38.142  24.162  26.454  1.00  0.00     0.118 C 
ENDROOT
BRANCH   1   2
ATOM      2  N   UNL A   1      39.546  24.020  26.101  1.00  0.00    -0.352 N 
ATOM      3  O   UNL A   1      41.709  24.577  25.898  1.00  0.00    -0.269 OA
ATOM      4  C   UNL A   1      40.645  24.746  26.490  1.00  0.00     0.251 C 
ATOM      5  H   UNL A   1      39.741  23.281  25.480  1.00  0.00     0.163 HD
BRANCH   4   6
ATOM      6  C   UNL A   1      40.559  25.728  27.593  1.00  0.00     0.039 A 
ATOM      7  C   UNL A   1      39.604  25.604  28.605  1.00  0.00     0.014 A 
ATOM      8  C   UNL A   1      41.495  26.766  27.644  1.00  0.00     0.014 A 
ATOM      9  C   UNL A   1      39.496  26.587  29.585  1.00  0.00     0.010 A 
ATOM     10  C   UNL A   1      41.436  27.710  28.675  1.00  0.00     0.010 A 
ATOM     11  C   UNL A   1      40.415  27.645  29.637  1.00  0.00    -0.014 A 
BRANCH  11  12
ATOM     12  C   UNL A   1      40.328  28.655  30.721  1.00  0.00     0.031 A 
ATOM     13  C   UNL A   1      41.226  28.570  31.924  1.00  0.00     0.074 A 
ATOM     14  C   UNL A   1      39.425  29.649  30.620  1.00  0.00     0.049 A 
ATOM     15  N   UNL A   1      41.252  29.330  32.988  1.00  0.00    -0.248 NA
ATOM     16  C   UNL A   1      42.217  27.483  31.937  1.00  0.00     0.031 C 
ATOM     17  C   UNL A   1      38.495  29.833  29.503  1.00  0.00     0.029 A 
ATOM     18  N   UNL A   1      39.139  30.691  31.464  1.00  0.00    -0.354 N 
ATOM     19  C   UNL A   1      42.241  28.804  33.809  1.00  0.00     0.074 A 
ATOM     20  C   UNL A   1      42.779  27.645  33.127  1.00  0.00     0.031 C 
ATOM     21  C   UNL A   1      37.756  30.930  29.722  1.00  0.00     0.029 A 
ATOM     22  C   UNL A   1      38.121  31.497  31.016  1.00  0.00     0.049 A 
ATOM     23  H   UNL A   1      39.617  30.846  32.312  1.00  0.00     0.167 HD
ATOM     24  C   UNL A   1      42.664  29.248  35.018  1.00  0.00     0.037 A 
ATOM     25  C   UNL A   1      37.527  32.561  31.590  1.00  0.00     0.037 A 
ATOM     26  C   UNL A   1      42.134  30.411  35.682  1.00  0.00     0.049 A 
ATOM     27  C   UNL A   1      38.003  33.030  32.934  1.00  0.00     0.074 A 
ATOM     28  C   UNL A   1      42.515  30.959  36.894  1.00  0.00     0.029 A 
ATOM     29  N   UNL A   1      41.105  31.204  35.192  1.00  0.00    -0.354 N 
ATOM     30  N   UNL A   1      38.954  32.532  33.686  1.00  0.00    -0.248 NA
ATOM     31  C   UNL A   1      37.329  34.203  33.507  1.00  0.00     0.031 C 
ATOM     32  C   UNL A   1      41.694  32.063  37.153  1.00  0.00     0.029 A 
ATOM     33  C   UNL A   1      40.829  32.227  36.083  1.00  0.00     0.049 A 
ATOM     34  H   UNL A   1      40.640  31.059  34.336  1.00  0.00     0.167 HD
ATOM     35  C   UNL A   1      39.008  33.340  34.816  1.00  0.00     0.074 A 
ATOM     36  C   UNL A   1      37.995  34.364  34.643  1.00  0.00     0.031 C 
ATOM     37  C   UNL A   1      39.822  33.243  35.894  1.00  0.00     0.037 A 
BRANCH  24  38
ATOM     38  C   UNL A   1      43.736  28.454  35.709  1.00  0.00     0.058 A 
ATOM     39  C   UNL A   1      43.429  27.429  36.618  1.00  0.00     0.135 A 
ATOM     40  C   UNL A   1      45.092  28.717  35.453  1.00  0.00     0.135 A 
ATOM     41  F   UNL A   1      42.150  27.145  36.910  1.00  0.00    -0.206 F 
ATOM     42  C   UNL A   1      44.428  26.719  37.278  1.00  0.00     0.059 A 
ATOM     43  C   UNL A   1      46.107  28.003  36.084  1.00  0.00     0.059 A 
ATOM     44  F   UNL A   1      45.442  29.684  34.590  1.00  0.00    -0.206 F 
ATOM     45  C   UNL A   1      45.764  27.021  37.012  1.00  0.00     0.060 A 
BRANCH  45  46
ATOM     46  S   UNL A   1      47.051  26.117  37.900  1.00  0.00     0.124 S 
ATOM     47  O   UNL A   1      46.548  26.172  39.269  1.00  0.00    -0.237 OA
ATOM     48  O   UNL A   1      47.012  24.804  37.263  1.00  0.00    -0.237 OA
ATOM     49  O   UNL A   1      48.255  26.901  37.641  1.00  0.00    -0.744 OA
ENDBRANCH  45  46
ENDBRANCH  24  38
BRANCH  25  50
ATOM     50  C   UNL A   1      36.416  33.241  30.878  1.00  0.00     0.058 A 
ATOM     51  C   UNL A   1      35.098  33.153  31.347  1.00  0.00     0.135 A 
ATOM     52  C   UNL A   1      36.663  34.051  29.758  1.00  0.00     0.135 A 
ATOM     53  F   UNL A   1      34.814  32.386  32.410  1.00  0.00    -0.206 F 
ATOM     54  C   UNL A   1      34.061  33.850  30.735  1.00  0.00     0.059 A 
ATOM     55  C   UNL A   1      35.647  34.775  29.144  1.00  0.00     0.059 A 
ATOM     56  F   UNL A   1      37.911  34.180  29.285  1.00  0.00    -0.206 F 
ATOM     57  C   UNL A   1      34.349  34.667  29.639  1.00  0.00     0.060 A 
BRANCH  57  58
ATOM     58  S   UNL A   1      33.014  35.643  28.910  1.00  0.00     0.124 S 
ATOM     59  O   UNL A   1      32.349  34.651  28.075  1.00  0.00    -0.237 OA
ATOM     60  O   UNL A   1      32.276  36.084  30.090  1.00  0.00    -0.237 OA
ATOM     61  O   UNL A   1      33.725  36.699  28.197  1.00  0.00    -0.744 OA
ENDBRANCH  57  58
ENDBRANCH  25  50
BRANCH  37  62
ATOM     62  C   UNL A   1      39.680  34.288  36.963  1.00  0.00     0.058 A 
ATOM     63  C   UNL A   1      38.998  34.029  38.160  1.00  0.00     0.135 A 
ATOM     64  C   UNL A   1      40.293  35.542  36.812  1.00  0.00     0.135 A 
ATOM     65  F   UNL A   1      38.388  32.847  38.348  1.00  0.00    -0.206 F 
ATOM     66  C   UNL A   1      38.918  34.981  39.170  1.00  0.00     0.059 A 
ATOM     67  C   UNL A   1      40.244  36.503  37.817  1.00  0.00     0.059 A 
ATOM     68  F   UNL A   1      40.963  35.836  35.686  1.00  0.00    -0.206 F 
ATOM     69  C   UNL A   1      39.548  36.215  38.990  1.00  0.00     0.060 A 
BRANCH  69  70
ATOM     70  S   UNL A   1      39.485  37.426  40.328  1.00  0.00     0.124 S 
ATOM     71  O   UNL A   1      38.643  36.742  41.304  1.00  0.00    -0.237 OA
ATOM     72  O   UNL A   1      40.891  37.566  40.693  1.00  0.00    -0.237 OA
ATOM     73  O   UNL A   1      38.889  38.599  39.696  1.00  0.00    -0.744 OA
ENDBRANCH  69  70
ENDBRANCH  37  62
ENDBRANCH  11  12
ENDBRANCH   4   6
ENDBRANCH   1   2
BRANCH   1  74
ATOM     74  C   UNL A   1      37.251  23.164  25.724  1.00  0.00     0.042 C 
BRANCH  74  75
ATOM     75  C   UNL A   1      36.302  23.798  24.713  1.00  0.00     0.118 C 
BRANCH  75  76
ATOM     76  N   UNL A   1      34.956  23.240  24.782  1.00  0.00    -0.352 N 
ATOM     77  C   UNL A   1      33.755  23.872  24.980  1.00  0.00     0.255 C 
ATOM     78  H   UNL A   1      34.901  22.264  24.668  1.00  0.00     0.163 HD
ATOM     79  O   UNL A   1      32.738  23.209  25.169  1.00  0.00    -0.269 OA
BRANCH  77  80
ATOM     80  C   UNL A   1      33.729  25.315  24.949  1.00  0.00     0.091 A 
ATOM     81  C   UNL A   1      34.049  26.227  25.991  1.00  0.00     0.065 A 
ATOM     82  C   UNL A   1      33.412  26.090  23.847  1.00  0.00     0.221 A 
ATOM     83  C   UNL A   1      33.762  27.485  25.517  1.00  0.00     0.135 A 
ATOM     84  O   UNL A   1      33.394  27.417  24.207  1.00  0.00    -0.451 OA
BRANCH  82  85
ATOM     85  C   UNL A   1      33.065  25.767  22.439  1.00  0.00     0.450 C 
ATOM     86  F   UNL A   1      33.316  26.810  21.603  1.00  0.00    -0.163 F 
ATOM     87  F   UNL A   1      33.786  24.714  21.972  1.00  0.00    -0.163 F 
ATOM     88  F   UNL A   1      31.756  25.457  22.273  1.00  0.00    -0.163 F 
ENDBRANCH  82  85
BRANCH  83  89
ATOM     89  C   UNL A   1      33.750  28.790  26.145  1.00  0.00     0.019 A 
ATOM     90  C   UNL A   1      34.770  29.148  27.038  1.00  0.00     0.012 A 
ATOM     91  C   UNL A   1      32.671  29.660  25.953  1.00  0.00     0.032 A 
ATOM     92  C   UNL A   1      34.711  30.354  27.737  1.00  0.00     0.002 A 
ATOM     93  C   UNL A   1      32.609  30.857  26.664  1.00  0.00     0.041 A 
ATOM     94  C   UNL A   1      33.622  31.207  27.556  1.00  0.00     0.020 A 
ATOM     95  Cl  UNL A   1      31.257  31.902  26.464  1.00  0.00    -0.084 Cl
ENDBRANCH  83  89
ENDBRANCH  77  80
ENDBRANCH  75  76
ENDBRANCH  74  75
ENDBRANCH   1  74
TORSDOF 15
ENDMDL
MODEL 2
REMARK VINA RESULT:     -12.1      1.020      1.890
REMARK SMILES O=C(NCCCNC(=O)c1cc(-c2cccc(Cl)c2)oc1C(F)(F)F)c1ccc(-c2c3nc(c(-c4c(F)cc(S(=O)(=O)[O-])cc4F)c4ccc([nH]4)c(-c4c(F)cc(S(=O)(=O)[O-])cc4F)c4nc(c(-c5c(F)cc(S(=O)(=O)[O-])cc5F)c5ccc2[nH]5)C=C4)C=C3)cc1
REMARK SMILES IDX 4 1 3 2 1 3 2 4 26 6 27 7 91 8 28 9 90 10 29 11 30 12 31 13
REMARK SMILES IDX 84 14 32 15 89 16 83 17 85 18 33 19 88 20 82 21 81 22 34 24
REMARK SMILES IDX 68 25 47 26 67 27 48 28 51 29 66 30 86 31 49 32 50 33 65 35
REMARK SMILES IDX 87 36 52 37 35 38 36 39 45 40 37 41 38 42 44 43 46 44 39 45
REMARK SMILES IDX 40 46 41 47 42 48 43 49 69 50 70 51 79 52 71 53 72 54 78 55
REMARK SMILES IDX 80 56 73 57 74 58 75 59 76 60 77 61 53 62 54 63 63 64 55 65
REMARK SMILES IDX 56 66 62 67 64 68 57 69 58 70 59 71 60 72 61 73 5 74 6 75
REMARK SMILES IDX 7 76 8 77 9 79 10 80 11 81 21 82 12 83 20 84 22 85 23 86
REMARK SMILES IDX 24 87 25 88 13 89 14 90 19 91 15 92 17 93 16 94 18 95
REMARK H PARENT 3 5 85 23 51 34 7 78
REMARK Flexibility Score: inf
ROOT
ATOM      1  C   UNL A   1      38.124  24.119  26.554  1.00  0.00     0.118 C 
ENDROOT
BRANCH   1   2
ATOM      2  N   UNL A   1      39.524  23.949  26.196  1.00  0.00    -0.352 N 
ATOM      3  O   UNL A   1      41.695  24.468  25.976  1.00  0.00    -0.269 OA
ATOM      4  C   UNL A   1      40.637  24.661  26.571  1.00  0.00     0.251 C 
ATOM      5  H   UNL A   1      39.703  23.201  25.583  1.00  0.00     0.163 HD
BRANCH   4   6
ATOM      6  C   UNL A   1      40.573  25.657  27.663  1.00  0.00     0.039 A 
ATOM      7  C   UNL A   1      39.604  25.577  28.666  1.00  0.00     0.014 A 
ATOM      8  C   UNL A   1      41.544  26.664  27.715  1.00  0.00     0.014 A 
ATOM      9  C   UNL A   1      39.519  26.573  29.635  1.00  0.00     0.010 A 
ATOM     10  C   UNL A   1      41.505  27.619  28.734  1.00  0.00     0.010 A 
ATOM     11  C   UNL A   1      40.473  27.600  29.686  1.00  0.00    -0.014 A 
BRANCH  11  12
ATOM     12  C   UNL A   1      40.409  28.623  30.759  1.00  0.00     0.031 A 
ATOM     13  C   UNL A   1      41.327  28.549  31.946  1.00  0.00     0.074 A 
ATOM     14  C   UNL A   1      39.508  29.620  30.661  1.00  0.00     0.049 A 
ATOM     15  N   UNL A   1      41.375  29.323  33.000  1.00  0.00    -0.248 NA
ATOM     16  C   UNL A   1      42.315  27.459  31.956  1.00  0.00     0.031 C 
ATOM     17  C   UNL A   1      38.559  29.793  29.559  1.00  0.00     0.029 A 
ATOM     18  N   UNL A   1      39.241  30.673  31.497  1.00  0.00    -0.354 N 
ATOM     19  C   UNL A   1      42.377  28.803  33.811  1.00  0.00     0.074 A 
ATOM     20  C   UNL A   1      42.898  27.633  33.134  1.00  0.00     0.031 C 
ATOM     21  C   UNL A   1      37.829  30.897  29.777  1.00  0.00     0.029 A 
ATOM     22  C   UNL A   1      38.218  31.478  31.057  1.00  0.00     0.049 A 
ATOM     23  H   UNL A   1      39.735  30.837  32.334  1.00  0.00     0.167 HD
ATOM     24  C   UNL A   1      42.822  29.260  35.006  1.00  0.00     0.037 A 
ATOM     25  C   UNL A   1      37.639  32.552  31.628  1.00  0.00     0.037 A 
ATOM     26  C   UNL A   1      42.308  30.433  35.665  1.00  0.00     0.049 A 
ATOM     27  C   UNL A   1      38.141  33.035  32.957  1.00  0.00     0.074 A 
ATOM     28  C   UNL A   1      42.714  30.995  36.863  1.00  0.00     0.029 A 
ATOM     29  N   UNL A   1      41.274  31.224  35.183  1.00  0.00    -0.354 N 
ATOM     30  N   UNL A   1      39.103  32.543  33.699  1.00  0.00    -0.248 NA
ATOM     31  C   UNL A   1      37.481  34.218  33.528  1.00  0.00     0.031 C 
ATOM     32  C   UNL A   1      41.902  32.105  37.123  1.00  0.00     0.029 A 
ATOM     33  C   UNL A   1      41.018  32.260  36.067  1.00  0.00     0.049 A 
ATOM     34  H   UNL A   1      40.794  31.071  34.338  1.00  0.00     0.167 HD
ATOM     35  C   UNL A   1      39.179  33.365  34.817  1.00  0.00     0.074 A 
ATOM     36  C   UNL A   1      38.168  34.390  34.649  1.00  0.00     0.031 C 
ATOM     37  C   UNL A   1      40.012  33.277  35.882  1.00  0.00     0.037 A 
BRANCH  24  38
ATOM     38  C   UNL A   1      43.904  28.470  35.688  1.00  0.00     0.058 A 
ATOM     39  C   UNL A   1      45.262  28.794  35.542  1.00  0.00     0.135 A 
ATOM     40  C   UNL A   1      43.576  27.377  36.507  1.00  0.00     0.135 A 
ATOM     41  F   UNL A   1      45.631  29.820  34.759  1.00  0.00    -0.206 F 
ATOM     42  C   UNL A   1      46.260  28.038  36.151  1.00  0.00     0.059 A 
ATOM     43  C   UNL A   1      44.556  26.621  37.145  1.00  0.00     0.059 A 
ATOM     44  F   UNL A   1      42.293  27.025  36.685  1.00  0.00    -0.206 F 
ATOM     45  C   UNL A   1      45.897  26.947  36.943  1.00  0.00     0.060 A 
BRANCH  45  46
ATOM     46  S   UNL A   1      47.200  25.953  37.701  1.00  0.00     0.124 S 
ATOM     47  O   UNL A   1      48.194  26.975  38.015  1.00  0.00    -0.237 OA
ATOM     48  O   UNL A   1      46.518  25.360  38.847  1.00  0.00    -0.237 OA
ATOM     49  O   UNL A   1      47.571  25.019  36.643  1.00  0.00    -0.744 OA
ENDBRANCH  45  46
ENDBRANCH  24  38
BRANCH  25  50
ATOM     50  C   UNL A   1      36.518  33.227  30.927  1.00  0.00     0.058 A 
ATOM     51  C   UNL A   1      35.206  33.136  31.411  1.00  0.00     0.135 A 
ATOM     52  C   UNL A   1      36.751  34.036  29.803  1.00  0.00     0.135 A 
ATOM     53  F   UNL A   1      34.936  32.371  32.479  1.00  0.00    -0.206 F 
ATOM     54  C   UNL A   1      34.161  33.830  30.809  1.00  0.00     0.059 A 
ATOM     55  C   UNL A   1      35.726  34.756  29.199  1.00  0.00     0.059 A 
ATOM     56  F   UNL A   1      37.993  34.167  29.316  1.00  0.00    -0.206 F 
ATOM     57  C   UNL A   1      34.433  34.645  29.709  1.00  0.00     0.060 A 
BRANCH  57  58
ATOM     58  S   UNL A   1      33.088  35.616  28.993  1.00  0.00     0.124 S 
ATOM     59  O   UNL A   1      33.818  36.709  28.363  1.00  0.00    -0.237 OA
ATOM     60  O   UNL A   1      32.466  34.656  28.085  1.00  0.00    -0.237 OA
ATOM     61  O   UNL A   1      32.283  35.978  30.155  1.00  0.00    -0.744 OA
ENDBRANCH  57  58
ENDBRANCH  25  50
BRANCH  37  62
ATOM     62  C   UNL A   1      39.893  34.336  36.940  1.00  0.00     0.058 A 
ATOM     63  C   UNL A   1      40.648  35.517  36.887  1.00  0.00     0.135 A 
ATOM     64  C   UNL A   1      38.964  34.194  37.984  1.00  0.00     0.135 A 
ATOM     65  F   UNL A   1      41.556  35.695  35.913  1.00  0.00    -0.206 F 
ATOM     66  C   UNL A   1      40.493  36.520  37.838  1.00  0.00     0.059 A 
ATOM     67  C   UNL A   1      38.778  35.193  38.934  1.00  0.00     0.059 A 
ATOM     68  F   UNL A   1      38.214  33.085  38.074  1.00  0.00    -0.206 F 
ATOM     69  C   UNL A   1      39.553  36.349  38.857  1.00  0.00     0.060 A 
BRANCH  69  70
ATOM     70  S   UNL A   1      39.320  37.678  40.056  1.00  0.00     0.124 S 
ATOM     71  O   UNL A   1      40.593  38.387  39.959  1.00  0.00    -0.237 OA
ATOM     72  O   UNL A   1      38.160  38.385  39.523  1.00  0.00    -0.237 OA
ATOM     73  O   UNL A   1      39.091  36.967  41.311  1.00  0.00    -0.744 OA
ENDBRANCH  69  70
ENDBRANCH  37  62
ENDBRANCH  11  12
ENDBRANCH   4   6
ENDBRANCH   1   2
BRANCH   1  74
ATOM     74  C   UNL A   1      37.207  23.167  25.796  1.00  0.00     0.042 C 
BRANCH  74  75
ATOM     75  C   UNL A   1      35.726  23.515  25.897  1.00  0.00     0.118 C 
BRANCH  75  76
ATOM     76  N   UNL A   1      35.035  23.401  24.617  1.00  0.00    -0.352 N 
ATOM     77  C   UNL A   1      33.961  24.105  24.135  1.00  0.00     0.255 C 
ATOM     78  H   UNL A   1      35.393  22.716  24.008  1.00  0.00     0.163 HD
ATOM     79  O   UNL A   1      33.415  23.753  23.093  1.00  0.00    -0.269 OA
BRANCH  77  80
ATOM     80  C   UNL A   1      33.512  25.259  24.878  1.00  0.00     0.091 A 
ATOM     81  C   UNL A   1      34.021  26.586  24.845  1.00  0.00     0.065 A 
ATOM     82  C   UNL A   1      32.443  25.282  25.758  1.00  0.00     0.221 A 
ATOM     83  C   UNL A   1      33.343  27.294  25.808  1.00  0.00     0.135 A 
ATOM     84  O   UNL A   1      32.366  26.519  26.355  1.00  0.00    -0.451 OA
BRANCH  82  85
ATOM     85  C   UNL A   1      31.448  24.263  26.182  1.00  0.00     0.450 C 
ATOM     86  F   UNL A   1      31.868  23.568  27.272  1.00  0.00    -0.163 F 
ATOM     87  F   UNL A   1      30.259  24.828  26.516  1.00  0.00    -0.163 F 
ATOM     88  F   UNL A   1      31.194  23.340  25.221  1.00  0.00    -0.163 F 
ENDBRANCH  82  85
BRANCH  83  89
ATOM     89  C   UNL A   1      33.503  28.634  26.334  1.00  0.00     0.019 A 
ATOM     90  C   UNL A   1      34.653  28.968  27.063  1.00  0.00     0.012 A 
ATOM     91  C   UNL A   1      32.470  29.570  26.215  1.00  0.00     0.032 A 
ATOM     92  C   UNL A   1      34.769  30.218  27.672  1.00  0.00     0.002 A 
ATOM     93  C   UNL A   1      32.584  30.812  26.839  1.00  0.00     0.041 A 
ATOM     94  C   UNL A   1      33.727  31.139  27.568  1.00  0.00     0.020 A 
ATOM     95  Cl  UNL A   1      31.292  31.943  26.734  1.00  0.00    -0.084 Cl
ENDBRANCH  83  89
ENDBRANCH  77  80
ENDBRANCH  75  76
ENDBRANCH  74  75
ENDBRANCH   1  74
TORSDOF 15
ENDMDL
MODEL 3
REMARK VINA RESULT:     -12.0      5.102     10.553
REMARK SMILES O=C(NCCCNC(=O)c1cc(-c2cccc(Cl)c2)oc1C(F)(F)F)c1ccc(-c2c3nc(c(-c4c(F)cc(S(=O)(=O)[O-])cc4F)c4ccc([nH]4)c(-c4c(F)cc(S(=O)(=O)[O-])cc4F)c4nc(c(-c5c(F)cc(S(=O)(=O)[O-])cc5F)c5ccc2[nH]5)C=C4)C=C3)cc1
REMARK SMILES IDX 4 1 3 2 1 3 2 4 26 6 27 7 91 8 28 9 90 10 29 11 30 12 31 13
REMARK SMILES IDX 84 14 32 15 89 16 83 17 85 18 33 19 88 20 82 21 81 22 34 24
REMARK SMILES IDX 68 25 47 26 67 27 48 28 51 29 66 30 86 31 49 32 50 33 65 35
REMARK SMILES IDX 87 36 52 37 35 38 36 39 45 40 37 41 38 42 44 43 46 44 39 45
REMARK SMILES IDX 40 46 41 47 42 48 43 49 69 50 70 51 79 52 71 53 72 54 78 55
REMARK SMILES IDX 80 56 73 57 74 58 75 59 76 60 77 61 53 62 54 63 63 64 55 65
REMARK SMILES IDX 56 66 62 67 64 68 57 69 58 70 59 71 60 72 61 73 5 74 6 75
REMARK SMILES IDX 7 76 8 77 9 79 10 80 11 81 21 82 12 83 20 84 22 85 23 86
REMARK SMILES IDX 24 87 25 88 13 89 14 90 19 91 15 92 17 93 16 94 18 95
REMARK H PARENT 3 5 85 23 51 34 7 78
REMARK Flexibility Score: inf
ROOT
ATOM      1  C   UNL A   1      33.766  28.182  26.798  1.00  0.00     0.118 C 
ENDROOT
BRANCH   1   2
ATOM      2  N   UNL A   1      33.578  29.560  27.227  1.00  0.00    -0.352 N 
ATOM      3  O   UNL A   1      33.939  31.449  28.380  1.00  0.00    -0.269 OA
ATOM      4  C   UNL A   1      34.395  30.390  27.954  1.00  0.00     0.251 C 
ATOM      5  H   UNL A   1      32.724  29.963  26.951  1.00  0.00     0.163 HD
BRANCH   4   6
ATOM      6  C   UNL A   1      35.800  30.022  28.238  1.00  0.00     0.039 A 
ATOM      7  C   UNL A   1      36.187  29.545  29.493  1.00  0.00     0.014 A 
ATOM      8  C   UNL A   1      36.739  30.103  27.205  1.00  0.00     0.014 A 
ATOM      9  C   UNL A   1      37.529  29.281  29.755  1.00  0.00     0.010 A 
ATOM     10  C   UNL A   1      38.074  29.763  27.447  1.00  0.00     0.010 A 
ATOM     11  C   UNL A   1      38.486  29.379  28.733  1.00  0.00    -0.014 A 
BRANCH  11  12
ATOM     12  C   UNL A   1      39.904  29.039  29.007  1.00  0.00     0.031 A 
ATOM     13  C   UNL A   1      40.835  30.054  29.610  1.00  0.00     0.074 A 
ATOM     14  C   UNL A   1      40.354  27.807  28.700  1.00  0.00     0.049 A 
ATOM     15  N   UNL A   1      42.113  29.949  29.867  1.00  0.00    -0.248 NA
ATOM     16  C   UNL A   1      40.256  31.360  29.960  1.00  0.00     0.031 C 
ATOM     17  C   UNL A   1      39.547  26.738  28.106  1.00  0.00     0.029 A 
ATOM     18  N   UNL A   1      41.596  27.243  28.844  1.00  0.00    -0.354 N 
ATOM     19  C   UNL A   1      42.501  31.179  30.386  1.00  0.00     0.074 A 
ATOM     20  C   UNL A   1      41.323  32.022  30.387  1.00  0.00     0.031 C 
ATOM     21  C   UNL A   1      40.308  25.645  27.954  1.00  0.00     0.029 A 
ATOM     22  C   UNL A   1      41.667  25.949  28.388  1.00  0.00     0.049 A 
ATOM     23  H   UNL A   1      42.364  27.721  29.235  1.00  0.00     0.167 HD
ATOM     24  C   UNL A   1      43.723  31.567  30.823  1.00  0.00     0.037 A 
ATOM     25  C   UNL A   1      42.714  25.105  28.305  1.00  0.00     0.037 A 
ATOM     26  C   UNL A   1      44.886  30.716  30.831  1.00  0.00     0.049 A 
ATOM     27  C   UNL A   1      44.061  25.558  28.785  1.00  0.00     0.074 A 
ATOM     28  C   UNL A   1      46.162  31.007  31.281  1.00  0.00     0.029 A 
ATOM     29  N   UNL A   1      44.915  29.409  30.365  1.00  0.00    -0.354 N 
ATOM     30  N   UNL A   1      44.404  26.717  29.292  1.00  0.00    -0.248 NA
ATOM     31  C   UNL A   1      45.164  24.593  28.684  1.00  0.00     0.031 C 
ATOM     32  C   UNL A   1      46.971  29.887  31.056  1.00  0.00     0.029 A 
ATOM     33  C   UNL A   1      46.190  28.885  30.503  1.00  0.00     0.049 A 
ATOM     34  H   UNL A   1      44.143  28.926  29.992  1.00  0.00     0.167 HD
ATOM     35  C   UNL A   1      45.758  26.618  29.588  1.00  0.00     0.074 A 
ATOM     36  C   UNL A   1      46.169  25.280  29.208  1.00  0.00     0.031 C 
ATOM     37  C   UNL A   1      46.582  27.549  30.126  1.00  0.00     0.037 A 
BRANCH  24  38
ATOM     38  C   UNL A   1      43.867  32.984  31.302  1.00  0.00     0.058 A 
ATOM     39  C   UNL A   1      43.554  33.355  32.620  1.00  0.00     0.135 A 
ATOM     40  C   UNL A   1      44.333  33.985  30.433  1.00  0.00     0.135 A 
ATOM     41  F   UNL A   1      43.092  32.441  33.487  1.00  0.00    -0.206 F 
ATOM     42  C   UNL A   1      43.660  34.675  33.048  1.00  0.00     0.059 A 
ATOM     43  C   UNL A   1      44.469  35.307  30.847  1.00  0.00     0.059 A 
ATOM     44  F   UNL A   1      44.649  33.684  29.164  1.00  0.00    -0.206 F 
ATOM     45  C   UNL A   1      44.109  35.646  32.151  1.00  0.00     0.060 A 
BRANCH  45  46
ATOM     46  S   UNL A   1      44.210  37.361  32.707  1.00  0.00     0.124 S 
ATOM     47  O   UNL A   1      43.326  37.338  33.869  1.00  0.00    -0.237 OA
ATOM     48  O   UNL A   1      45.632  37.516  32.996  1.00  0.00    -0.237 OA
ATOM     49  O   UNL A   1      43.720  38.118  31.559  1.00  0.00    -0.744 OA
ENDBRANCH  45  46
ENDBRANCH  24  38
BRANCH  25  50
ATOM     50  C   UNL A   1      42.505  23.748  27.740  1.00  0.00     0.058 A 
ATOM     51  C   UNL A   1      42.556  23.528  26.357  1.00  0.00     0.135 A 
ATOM     52  C   UNL A   1      42.325  22.635  28.577  1.00  0.00     0.135 A 
ATOM     53  F   UNL A   1      42.720  24.561  25.518  1.00  0.00    -0.206 F 
ATOM     54  C   UNL A   1      42.442  22.249  25.820  1.00  0.00     0.059 A 
ATOM     55  C   UNL A   1      42.232  21.345  28.066  1.00  0.00     0.059 A 
ATOM     56  F   UNL A   1      42.288  22.795  29.909  1.00  0.00    -0.206 F 
ATOM     57  C   UNL A   1      42.290  21.163  26.685  1.00  0.00     0.060 A 
BRANCH  57  58
ATOM     58  S   UNL A   1      42.239  19.498  25.986  1.00  0.00     0.124 S 
ATOM     59  O   UNL A   1      40.817  19.341  25.706  1.00  0.00    -0.237 OA
ATOM     60  O   UNL A   1      43.109  19.626  24.821  1.00  0.00    -0.237 OA
ATOM     61  O   UNL A   1      42.768  18.667  27.063  1.00  0.00    -0.744 OA
ENDBRANCH  57  58
ENDBRANCH  25  50
BRANCH  37  62
ATOM     62  C   UNL A   1      48.009  27.149  30.371  1.00  0.00     0.058 A 
ATOM     63  C   UNL A   1      49.012  27.381  29.419  1.00  0.00     0.135 A 
ATOM     64  C   UNL A   1      48.385  26.587  31.602  1.00  0.00     0.135 A 
ATOM     65  F   UNL A   1      48.700  27.908  28.224  1.00  0.00    -0.206 F 
ATOM     66  C   UNL A   1      50.341  27.060  29.674  1.00  0.00     0.059 A 
ATOM     67  C   UNL A   1      49.711  26.277  31.886  1.00  0.00     0.059 A 
ATOM     68  F   UNL A   1      47.462  26.351  32.548  1.00  0.00    -0.206 F 
ATOM     69  C   UNL A   1      50.681  26.511  30.912  1.00  0.00     0.060 A 
BRANCH  69  70
ATOM     70  S   UNL A   1      52.416  26.148  31.255  1.00  0.00     0.124 S 
ATOM     71  O   UNL A   1      52.987  26.154  29.912  1.00  0.00    -0.237 OA
ATOM     72  O   UNL A   1      52.807  27.260  32.115  1.00  0.00    -0.237 OA
ATOM     73  O   UNL A   1      52.366  24.845  31.911  1.00  0.00    -0.744 OA
ENDBRANCH  69  70
ENDBRANCH  37  62
ENDBRANCH  11  12
ENDBRANCH   4   6
ENDBRANCH   1   2
BRANCH   1  74
ATOM     74  C   UNL A   1      33.857  28.049  25.282  1.00  0.00     0.042 C 
BRANCH  74  75
ATOM     75  C   UNL A   1      32.580  27.539  24.624  1.00  0.00     0.118 C 
BRANCH  75  76
ATOM     76  N   UNL A   1      31.657  26.938  25.581  1.00  0.00    -0.352 N 
ATOM     77  C   UNL A   1      31.554  25.637  26.002  1.00  0.00     0.255 C 
ATOM     78  H   UNL A   1      31.010  27.561  25.985  1.00  0.00     0.163 HD
ATOM     79  O   UNL A   1      30.602  25.291  26.697  1.00  0.00    -0.269 OA
BRANCH  77  80
ATOM     80  C   UNL A   1      32.591  24.711  25.615  1.00  0.00     0.091 A 
ATOM     81  C   UNL A   1      33.756  24.334  26.337  1.00  0.00     0.065 A 
ATOM     82  C   UNL A   1      32.613  23.971  24.443  1.00  0.00     0.221 A 
ATOM     83  C   UNL A   1      34.488  23.517  25.509  1.00  0.00     0.135 A 
ATOM     84  O   UNL A   1      33.794  23.271  24.363  1.00  0.00    -0.451 OA
BRANCH  82  85
ATOM     85  C   UNL A   1      31.668  23.837  23.305  1.00  0.00     0.450 C 
ATOM     86  F   UNL A   1      30.381  24.053  23.687  1.00  0.00    -0.163 F 
ATOM     87  F   UNL A   1      31.936  24.733  22.320  1.00  0.00    -0.163 F 
ATOM     88  F   UNL A   1      31.691  22.605  22.739  1.00  0.00    -0.163 F 
ENDBRANCH  82  85
BRANCH  83  89
ATOM     89  C   UNL A   1      35.810  22.936  25.624  1.00  0.00     0.019 A 
ATOM     90  C   UNL A   1      36.905  23.744  25.961  1.00  0.00     0.012 A 
ATOM     91  C   UNL A   1      36.025  21.593  25.296  1.00  0.00     0.032 A 
ATOM     92  C   UNL A   1      38.199  23.222  25.964  1.00  0.00     0.002 A 
ATOM     93  C   UNL A   1      37.320  21.079  25.285  1.00  0.00     0.041 A 
ATOM     94  C   UNL A   1      38.407  21.888  25.615  1.00  0.00     0.020 A 
ATOM     95  Cl  UNL A   1      37.587  19.441  24.833  1.00  0.00    -0.084 Cl
ENDBRANCH  83  89
ENDBRANCH  77  80
ENDBRANCH  75  76
ENDBRANCH  74  75
ENDBRANCH   1  74
TORSDOF 15
ENDMDL
