MODEL 1
REMARK VINA RESULT:     -10.7      0.000      0.000
REMARK SMILES CC[C@H](C)[C@H](C(=O)NCCCNC(=O)c1ccc(-c2c3nc(c(-c4c(F)cc(S(=O)(=O)[O-])cc4F)c4ccc([nH]4)c(-c4c(F)cc(S(=O)(=O)[O-])cc4F)c4nc(c(-c5c(F)cc(S(=O)(=O)[O-])cc5F)c5ccc2[nH]5)C=C4)C=C3)cc1)[NH+]1CC2(CC2)C1
REMARK SMILES IDX 10 1 9 2 8 3 6 4 7 5 5 7 3 8 4 9 2 10 1 11 81 12 82 13 86 14
REMARK SMILES IDX 83 16 84 17 85 18 11 19 12 20 13 21 14 23 15 24 16 25 80 26
REMARK SMILES IDX 17 27 79 28 18 29 19 30 20 31 73 32 21 33 78 34 72 35 74 36
REMARK SMILES IDX 22 37 77 38 71 39 70 40 23 42 57 43 36 44 56 45 37 46 40 47
REMARK SMILES IDX 55 48 75 49 38 50 39 51 54 53 76 54 41 55 24 56 25 57 34 58
REMARK SMILES IDX 26 59 27 60 33 61 35 62 28 63 29 64 30 65 31 66 32 67 58 68
REMARK SMILES IDX 59 69 68 70 60 71 61 72 67 73 69 74 62 75 63 76 64 77 65 78
REMARK SMILES IDX 66 79 42 80 43 81 52 82 44 83 45 84 51 85 53 86 46 87 47 88
REMARK SMILES IDX 48 89 49 90 50 91
REMARK H PARENT 8 6 81 15 12 22 74 41 40 52
REMARK Flexibility Score: inf
ROOT
ATOM      1  C   UNL A   1      33.660  28.287  25.969  1.00  0.00     0.042 C 
ENDROOT
BRANCH   1   2
ATOM      2  C   UNL A   1      33.533  26.823  25.588  1.00  0.00     0.118 C 
BRANCH   2   3
ATOM      3  N   UNL A   1      33.936  26.507  24.229  1.00  0.00    -0.351 N 
ATOM      4  C   UNL A   1      33.532  25.466  23.428  1.00  0.00     0.278 C 
ATOM      5  O   UNL A   1      33.757  25.577  22.221  1.00  0.00    -0.268 OA
ATOM      6  H   UNL A   1      34.588  27.124  23.825  1.00  0.00     0.163 HD
BRANCH   4   7
ATOM      7  C   UNL A   1      32.895  24.201  24.077  1.00  0.00     0.277 C 
BRANCH   7   8
ATOM      8  C   UNL A   1      31.332  24.273  24.214  1.00  0.00     0.054 C 
ATOM      9  C   UNL A   1      30.796  24.243  25.651  1.00  0.00     0.014 C 
BRANCH   8  10
ATOM     10  C   UNL A   1      30.631  25.416  23.441  1.00  0.00     0.006 C 
ATOM     11  C   UNL A   1      29.997  26.500  24.295  1.00  0.00     0.004 C 
ENDBRANCH   8  10
ENDBRANCH   7   8
BRANCH   7  12
ATOM     12  N   UNL A   1      33.263  22.962  23.330  1.00  0.00    -0.323 N 
ATOM     13  C   UNL A   1      33.968  21.959  24.135  1.00  0.00     0.275 C 
ATOM     14  C   UNL A   1      32.102  22.079  23.144  1.00  0.00     0.275 C 
ATOM     15  H   UNL A   1      33.747  23.359  22.524  1.00  0.00     0.348 HD
ATOM     16  C   UNL A   1      32.806  21.069  23.954  1.00  0.00     0.068 C 
ATOM     17  C   UNL A   1      32.230  20.165  24.998  1.00  0.00     0.020 C 
ATOM     18  C   UNL A   1      32.812  19.589  23.734  1.00  0.00     0.020 C 
ENDBRANCH   7  12
ENDBRANCH   4   7
ENDBRANCH   2   3
ENDBRANCH   1   2
BRANCH   1  19
ATOM     19  C   UNL A   1      33.338  28.598  27.425  1.00  0.00     0.118 C 
BRANCH  19  20
ATOM     20  N   UNL A   1      33.468  30.008  27.777  1.00  0.00    -0.352 N 
ATOM     21  C   UNL A   1      34.547  30.731  28.247  1.00  0.00     0.251 C 
ATOM     22  H   UNL A   1      32.644  30.534  27.660  1.00  0.00     0.163 HD
ATOM     23  O   UNL A   1      34.399  31.895  28.575  1.00  0.00    -0.269 OA
BRANCH  21  24
ATOM     24  C   UNL A   1      35.867  30.076  28.396  1.00  0.00     0.039 A 
ATOM     25  C   UNL A   1      36.736  30.039  27.302  1.00  0.00     0.014 A 
ATOM     26  C   UNL A   1      36.264  29.537  29.618  1.00  0.00     0.014 A 
ATOM     27  C   UNL A   1      38.044  29.576  27.473  1.00  0.00     0.010 A 
ATOM     28  C   UNL A   1      37.594  29.190  29.815  1.00  0.00     0.010 A 
ATOM     29  C   UNL A   1      38.506  29.215  28.748  1.00  0.00    -0.014 A 
BRANCH  29  30
ATOM     30  C   UNL A   1      39.928  28.867  29.014  1.00  0.00     0.031 A 
ATOM     31  C   UNL A   1      40.868  29.920  29.538  1.00  0.00     0.074 A 
ATOM     32  C   UNL A   1      40.400  27.650  28.671  1.00  0.00     0.049 A 
ATOM     33  N   UNL A   1      42.172  29.892  29.636  1.00  0.00    -0.248 NA
ATOM     34  C   UNL A   1      40.262  31.194  29.961  1.00  0.00     0.031 C 
ATOM     35  C   UNL A   1      39.608  26.556  28.102  1.00  0.00     0.029 A 
ATOM     36  N   UNL A   1      41.673  27.136  28.731  1.00  0.00    -0.354 N 
ATOM     37  C   UNL A   1      42.543  31.153  30.089  1.00  0.00     0.074 A 
ATOM     38  C   UNL A   1      41.332  31.937  30.197  1.00  0.00     0.031 C 
ATOM     39  C   UNL A   1      40.406  25.496  27.890  1.00  0.00     0.029 A 
ATOM     40  C   UNL A   1      41.773  25.846  28.259  1.00  0.00     0.049 A 
ATOM     41  H   UNL A   1      42.441  27.642  29.079  1.00  0.00     0.167 HD
ATOM     42  C   UNL A   1      43.776  31.609  30.409  1.00  0.00     0.037 A 
ATOM     43  C   UNL A   1      42.846  25.044  28.125  1.00  0.00     0.037 A 
ATOM     44  C   UNL A   1      44.968  30.805  30.362  1.00  0.00     0.049 A 
ATOM     45  C   UNL A   1      44.201  25.557  28.529  1.00  0.00     0.074 A 
ATOM     46  C   UNL A   1      46.256  31.152  30.726  1.00  0.00     0.029 A 
ATOM     47  N   UNL A   1      45.013  29.484  29.940  1.00  0.00    -0.354 N 
ATOM     48  N   UNL A   1      44.528  26.743  28.985  1.00  0.00    -0.248 NA
ATOM     49  C   UNL A   1      45.332  24.627  28.401  1.00  0.00     0.031 C 
ATOM     50  C   UNL A   1      47.086  30.047  30.506  1.00  0.00     0.029 A 
ATOM     51  C   UNL A   1      46.306  29.002  30.035  1.00  0.00     0.049 A 
ATOM     52  H   UNL A   1      44.239  28.968  29.619  1.00  0.00     0.167 HD
ATOM     53  C   UNL A   1      45.896  26.692  29.226  1.00  0.00     0.074 A 
ATOM     54  C   UNL A   1      46.335  25.358  28.871  1.00  0.00     0.031 C 
ATOM     55  C   UNL A   1      46.716  27.662  29.700  1.00  0.00     0.037 A 
BRANCH  42  56
ATOM     56  C   UNL A   1      43.892  33.039  30.859  1.00  0.00     0.058 A 
ATOM     57  C   UNL A   1      43.870  33.385  32.220  1.00  0.00     0.135 A 
ATOM     58  C   UNL A   1      44.036  34.075  29.923  1.00  0.00     0.135 A 
ATOM     59  F   UNL A   1      43.717  32.435  33.156  1.00  0.00    -0.206 F 
ATOM     60  C   UNL A   1      43.948  34.709  32.635  1.00  0.00     0.059 A 
ATOM     61  C   UNL A   1      44.145  35.406  30.317  1.00  0.00     0.059 A 
ATOM     62  F   UNL A   1      44.063  33.802  28.609  1.00  0.00    -0.206 F 
ATOM     63  C   UNL A   1      44.081  35.714  31.676  1.00  0.00     0.060 A 
BRANCH  63  64
ATOM     64  S   UNL A   1      44.173  37.429  32.229  1.00  0.00     0.124 S 
ATOM     65  O   UNL A   1      43.771  38.144  31.021  1.00  0.00    -0.237 OA
ATOM     66  O   UNL A   1      43.215  37.456  33.330  1.00  0.00    -0.237 OA
ATOM     67  O   UNL A   1      45.572  37.587  32.616  1.00  0.00    -0.744 OA
ENDBRANCH  63  64
ENDBRANCH  42  56
BRANCH  43  68
ATOM     68  C   UNL A   1      42.682  23.657  27.611  1.00  0.00     0.058 A 
ATOM     69  C   UNL A   1      42.731  23.395  26.235  1.00  0.00     0.135 A 
ATOM     70  C   UNL A   1      42.484  22.571  28.477  1.00  0.00     0.135 A 
ATOM     71  F   UNL A   1      42.914  24.402  25.367  1.00  0.00    -0.206 F 
ATOM     72  C   UNL A   1      42.571  22.109  25.730  1.00  0.00     0.059 A 
ATOM     73  C   UNL A   1      42.344  21.272  27.999  1.00  0.00     0.059 A 
ATOM     74  F   UNL A   1      42.449  22.767  29.804  1.00  0.00    -0.206 F 
ATOM     75  C   UNL A   1      42.379  21.051  26.622  1.00  0.00     0.060 A 
BRANCH  75  76
ATOM     76  S   UNL A   1      42.218  19.378  25.962  1.00  0.00     0.124 S 
ATOM     77  O   UNL A   1      40.782  19.295  25.721  1.00  0.00    -0.237 OA
ATOM     78  O   UNL A   1      43.064  19.432  24.773  1.00  0.00    -0.237 OA
ATOM     79  O   UNL A   1      42.728  18.542  27.045  1.00  0.00    -0.744 OA
ENDBRANCH  75  76
ENDBRANCH  43  68
BRANCH  55  80
ATOM     80  C   UNL A   1      48.160  27.309  29.908  1.00  0.00     0.058 A 
ATOM     81  C   UNL A   1      49.149  27.677  28.984  1.00  0.00     0.135 A 
ATOM     82  C   UNL A   1      48.566  26.662  31.087  1.00  0.00     0.135 A 
ATOM     83  F   UNL A   1      48.808  28.290  27.839  1.00  0.00    -0.206 F 
ATOM     84  C   UNL A   1      50.493  27.407  29.217  1.00  0.00     0.059 A 
ATOM     85  C   UNL A   1      49.906  26.402  31.349  1.00  0.00     0.059 A 
ATOM     86  F   UNL A   1      47.657  26.298  32.005  1.00  0.00    -0.206 F 
ATOM     87  C   UNL A   1      50.862  26.772  30.405  1.00  0.00     0.060 A 
BRANCH  87  88
ATOM     88  S   UNL A   1      52.616  26.480  30.722  1.00  0.00     0.124 S 
ATOM     89  O   UNL A   1      53.081  26.039  29.411  1.00  0.00    -0.237 OA
ATOM     90  O   UNL A   1      53.081  27.796  31.150  1.00  0.00    -0.237 OA
ATOM     91  O   UNL A   1      52.605  25.457  31.762  1.00  0.00    -0.744 OA
ENDBRANCH  87  88
ENDBRANCH  55  80
ENDBRANCH  29  30
ENDBRANCH  21  24
ENDBRANCH  19  20
ENDBRANCH   1  19
TORSDOF 16
ENDMDL
MODEL 2
REMARK VINA RESULT:     -10.4      2.473      3.375
REMARK SMILES CC[C@H](C)[C@H](C(=O)NCCCNC(=O)c1ccc(-c2c3nc(c(-c4c(F)cc(S(=O)(=O)[O-])cc4F)c4ccc([nH]4)c(-c4c(F)cc(S(=O)(=O)[O-])cc4F)c4nc(c(-c5c(F)cc(S(=O)(=O)[O-])cc5F)c5ccc2[nH]5)C=C4)C=C3)cc1)[NH+]1CC2(CC2)C1
REMARK SMILES IDX 10 1 9 2 8 3 6 4 7 5 5 7 3 8 4 9 2 10 1 11 81 12 82 13 86 14
REMARK SMILES IDX 83 16 84 17 85 18 11 19 12 20 13 21 14 23 15 24 16 25 80 26
REMARK SMILES IDX 17 27 79 28 18 29 19 30 20 31 73 32 21 33 78 34 72 35 74 36
REMARK SMILES IDX 22 37 77 38 71 39 70 40 23 42 57 43 36 44 56 45 37 46 40 47
REMARK SMILES IDX 55 48 75 49 38 50 39 51 54 53 76 54 41 55 24 56 25 57 34 58
REMARK SMILES IDX 26 59 27 60 33 61 35 62 28 63 29 64 30 65 31 66 32 67 58 68
REMARK SMILES IDX 59 69 68 70 60 71 61 72 67 73 69 74 62 75 63 76 64 77 65 78
REMARK SMILES IDX 66 79 42 80 43 81 52 82 44 83 45 84 51 85 53 86 46 87 47 88
REMARK SMILES IDX 48 89 49 90 50 91
REMARK H PARENT 8 6 81 15 12 22 74 41 40 52
REMARK Flexibility Score: inf
ROOT
ATOM      1  C   UNL A   1      34.319  29.108  27.413  1.00  0.00     0.042 C 
ENDROOT
BRANCH   1   2
ATOM      2  C   UNL A   1      33.231  29.301  26.373  1.00  0.00     0.118 C 
BRANCH   2   3
ATOM      3  N   UNL A   1      33.708  29.457  25.009  1.00  0.00    -0.351 N 
ATOM      4  C   UNL A   1      33.445  28.678  23.908  1.00  0.00     0.278 C 
ATOM      5  O   UNL A   1      33.695  29.175  22.808  1.00  0.00    -0.268 OA
ATOM      6  H   UNL A   1      34.301  30.227  24.853  1.00  0.00     0.163 HD
BRANCH   4   7
ATOM      7  C   UNL A   1      32.930  27.221  24.103  1.00  0.00     0.277 C 
BRANCH   7   8
ATOM      8  C   UNL A   1      31.366  27.099  24.154  1.00  0.00     0.054 C 
ATOM      9  C   UNL A   1      30.799  26.418  25.406  1.00  0.00     0.014 C 
BRANCH   8  10
ATOM     10  C   UNL A   1      30.571  28.400  23.888  1.00  0.00     0.006 C 
ATOM     11  C   UNL A   1      29.770  28.435  22.598  1.00  0.00     0.004 C 
ENDBRANCH   8  10
ENDBRANCH   7   8
BRANCH   7  12
ATOM     12  N   UNL A   1      33.457  26.311  23.044  1.00  0.00    -0.323 N 
ATOM     13  C   UNL A   1      34.044  25.067  23.554  1.00  0.00     0.275 C 
ATOM     14  C   UNL A   1      32.371  25.586  22.367  1.00  0.00     0.275 C 
ATOM     15  H   UNL A   1      34.059  26.948  22.523  1.00  0.00     0.348 HD
ATOM     16  C   UNL A   1      32.957  24.334  22.878  1.00  0.00     0.068 C 
ATOM     17  C   UNL A   1      32.239  23.141  23.426  1.00  0.00     0.020 C 
ATOM     18  C   UNL A   1      33.045  23.026  22.159  1.00  0.00     0.020 C 
ENDBRANCH   7  12
ENDBRANCH   4   7
ENDBRANCH   2   3
ENDBRANCH   1   2
BRANCH   1  19
ATOM     19  C   UNL A   1      35.168  30.343  27.685  1.00  0.00     0.118 C 
BRANCH  19  20
ATOM     20  N   UNL A   1      35.260  30.706  29.095  1.00  0.00    -0.352 N 
ATOM     21  C   UNL A   1      36.253  30.480  30.028  1.00  0.00     0.251 C 
ATOM     22  H   UNL A   1      34.480  31.198  29.440  1.00  0.00     0.163 HD
ATOM     23  O   UNL A   1      36.071  30.790  31.193  1.00  0.00    -0.269 OA
BRANCH  21  24
ATOM     24  C   UNL A   1      37.513  29.816  29.621  1.00  0.00     0.039 A 
ATOM     25  C   UNL A   1      37.979  29.984  28.314  1.00  0.00     0.014 A 
ATOM     26  C   UNL A   1      38.254  29.067  30.532  1.00  0.00     0.014 A 
ATOM     27  C   UNL A   1      39.245  29.506  27.964  1.00  0.00     0.010 A 
ATOM     28  C   UNL A   1      39.555  28.697  30.220  1.00  0.00     0.010 A 
ATOM     29  C   UNL A   1      40.073  28.921  28.935  1.00  0.00    -0.014 A 
BRANCH  29  30
ATOM     30  C   UNL A   1      41.484  28.538  28.656  1.00  0.00     0.031 A 
ATOM     31  C   UNL A   1      42.557  29.595  28.658  1.00  0.00     0.074 A 
ATOM     32  C   UNL A   1      41.780  27.276  28.282  1.00  0.00     0.049 A 
ATOM     33  N   UNL A   1      43.794  29.520  28.239  1.00  0.00    -0.248 NA
ATOM     34  C   UNL A   1      42.171  30.927  29.151  1.00  0.00     0.031 C 
ATOM     35  C   UNL A   1      40.825  26.169  28.186  1.00  0.00     0.029 A 
ATOM     36  N   UNL A   1      42.972  26.715  27.891  1.00  0.00    -0.354 N 
ATOM     37  C   UNL A   1      44.317  30.801  28.377  1.00  0.00     0.074 A 
ATOM     38  C   UNL A   1      43.249  31.642  28.870  1.00  0.00     0.031 C 
ATOM     39  C   UNL A   1      41.471  25.060  27.789  1.00  0.00     0.029 A 
ATOM     40  C   UNL A   1      42.874  25.384  27.553  1.00  0.00     0.049 A 
ATOM     41  H   UNL A   1      43.816  27.218  27.855  1.00  0.00     0.167 HD
ATOM     42  C   UNL A   1      45.578  31.231  28.139  1.00  0.00     0.037 A 
ATOM     43  C   UNL A   1      43.804  24.527  27.092  1.00  0.00     0.037 A 
ATOM     44  C   UNL A   1      46.652  30.376  27.711  1.00  0.00     0.049 A 
ATOM     45  C   UNL A   1      45.210  25.017  26.877  1.00  0.00     0.074 A 
ATOM     46  C   UNL A   1      47.981  30.700  27.503  1.00  0.00     0.029 A 
ATOM     47  N   UNL A   1      46.524  29.021  27.444  1.00  0.00    -0.354 N 
ATOM     48  N   UNL A   1      45.694  26.225  27.043  1.00  0.00    -0.248 NA
ATOM     49  C   UNL A   1      46.196  24.032  26.412  1.00  0.00     0.031 C 
ATOM     50  C   UNL A   1      48.653  29.544  27.091  1.00  0.00     0.029 A 
ATOM     51  C   UNL A   1      47.749  28.494  27.074  1.00  0.00     0.049 A 
ATOM     52  H   UNL A   1      45.684  28.510  27.508  1.00  0.00     0.167 HD
ATOM     53  C   UNL A   1      47.046  26.138  26.732  1.00  0.00     0.074 A 
ATOM     54  C   UNL A   1      47.306  24.760  26.373  1.00  0.00     0.031 C 
ATOM     55  C   UNL A   1      47.989  27.113  26.744  1.00  0.00     0.037 A 
BRANCH  42  56
ATOM     56  C   UNL A   1      45.865  32.691  28.358  1.00  0.00     0.058 A 
ATOM     57  C   UNL A   1      46.276  33.179  29.609  1.00  0.00     0.135 A 
ATOM     58  C   UNL A   1      45.740  33.611  27.305  1.00  0.00     0.135 A 
ATOM     59  F   UNL A   1      46.395  32.345  30.654  1.00  0.00    -0.206 F 
ATOM     60  C   UNL A   1      46.514  34.532  29.819  1.00  0.00     0.059 A 
ATOM     61  C   UNL A   1      46.002  34.966  27.486  1.00  0.00     0.059 A 
ATOM     62  F   UNL A   1      45.351  33.200  26.089  1.00  0.00    -0.206 F 
ATOM     63  C   UNL A   1      46.370  35.420  28.752  1.00  0.00     0.060 A 
BRANCH  63  64
ATOM     64  S   UNL A   1      46.675  37.175  29.042  1.00  0.00     0.124 S 
ATOM     65  O   UNL A   1      45.862  37.417  30.230  1.00  0.00    -0.237 OA
ATOM     66  O   UNL A   1      48.120  37.214  29.244  1.00  0.00    -0.237 OA
ATOM     67  O   UNL A   1      46.199  37.809  27.816  1.00  0.00    -0.744 OA
ENDBRANCH  63  64
ENDBRANCH  42  56
BRANCH  43  68
ATOM     68  C   UNL A   1      43.447  23.107  26.829  1.00  0.00     0.058 A 
ATOM     69  C   UNL A   1      43.160  22.235  27.889  1.00  0.00     0.135 A 
ATOM     70  C   UNL A   1      43.376  22.597  25.524  1.00  0.00     0.135 A 
ATOM     71  F   UNL A   1      43.219  22.676  29.155  1.00  0.00    -0.206 F 
ATOM     72  C   UNL A   1      42.832  20.901  27.668  1.00  0.00     0.059 A 
ATOM     73  C   UNL A   1      43.029  21.273  25.276  1.00  0.00     0.059 A 
ATOM     74  F   UNL A   1      43.623  23.396  24.475  1.00  0.00    -0.206 F 
ATOM     75  C   UNL A   1      42.768  20.428  26.356  1.00  0.00     0.060 A 
BRANCH  75  76
ATOM     76  S   UNL A   1      42.298  18.708  26.076  1.00  0.00     0.124 S 
ATOM     77  O   UNL A   1      42.567  18.114  27.381  1.00  0.00    -0.237 OA
ATOM     78  O   UNL A   1      40.891  18.828  25.706  1.00  0.00    -0.237 OA
ATOM     79  O   UNL A   1      43.187  18.291  24.995  1.00  0.00    -0.744 OA
ENDBRANCH  75  76
ENDBRANCH  43  68
BRANCH  55  80
ATOM     80  C   UNL A   1      49.397  26.719  26.405  1.00  0.00     0.058 A 
ATOM     81  C   UNL A   1      50.224  26.070  27.332  1.00  0.00     0.135 A 
ATOM     82  C   UNL A   1      49.895  26.927  25.108  1.00  0.00     0.135 A 
ATOM     83  F   UNL A   1      49.794  25.855  28.586  1.00  0.00    -0.206 F 
ATOM     84  C   UNL A   1      51.504  25.647  26.990  1.00  0.00     0.059 A 
ATOM     85  C   UNL A   1      51.164  26.493  24.738  1.00  0.00     0.059 A 
ATOM     86  F   UNL A   1      49.139  27.537  24.183  1.00  0.00    -0.206 F 
ATOM     87  C   UNL A   1      51.963  25.860  25.688  1.00  0.00     0.060 A 
BRANCH  87  88
ATOM     88  S   UNL A   1      53.604  25.253  25.238  1.00  0.00     0.124 S 
ATOM     89  O   UNL A   1      53.451  23.816  25.444  1.00  0.00    -0.237 OA
ATOM     90  O   UNL A   1      53.728  25.684  23.849  1.00  0.00    -0.237 OA
ATOM     91  O   UNL A   1      54.485  25.934  26.181  1.00  0.00    -0.744 OA
ENDBRANCH  87  88
ENDBRANCH  55  80
ENDBRANCH  29  30
ENDBRANCH  21  24
ENDBRANCH  19  20
ENDBRANCH   1  19
TORSDOF 16
ENDMDL
MODEL 3
REMARK VINA RESULT:     -10.2      4.176     10.602
REMARK SMILES CC[C@H](C)[C@H](C(=O)NCCCNC(=O)c1ccc(-c2c3nc(c(-c4c(F)cc(S(=O)(=O)[O-])cc4F)c4ccc([nH]4)c(-c4c(F)cc(S(=O)(=O)[O-])cc4F)c4nc(c(-c5c(F)cc(S(=O)(=O)[O-])cc5F)c5ccc2[nH]5)C=C4)C=C3)cc1)[NH+]1CC2(CC2)C1
REMARK SMILES IDX 10 1 9 2 8 3 6 4 7 5 5 7 3 8 4 9 2 10 1 11 81 12 82 13 86 14
REMARK SMILES IDX 83 16 84 17 85 18 11 19 12 20 13 21 14 23 15 24 16 25 80 26
REMARK SMILES IDX 17 27 79 28 18 29 19 30 20 31 73 32 21 33 78 34 72 35 74 36
REMARK SMILES IDX 22 37 77 38 71 39 70 40 23 42 57 43 36 44 56 45 37 46 40 47
REMARK SMILES IDX 55 48 75 49 38 50 39 51 54 53 76 54 41 55 24 56 25 57 34 58
REMARK SMILES IDX 26 59 27 60 33 61 35 62 28 63 29 64 30 65 31 66 32 67 58 68
REMARK SMILES IDX 59 69 68 70 60 71 61 72 67 73 69 74 62 75 63 76 64 77 65 78
REMARK SMILES IDX 66 79 42 80 43 81 52 82 44 83 45 84 51 85 53 86 46 87 47 88
REMARK SMILES IDX 48 89 49 90 50 91
REMARK H PARENT 8 6 81 15 12 22 74 41 40 52
REMARK Flexibility Score: inf
ROOT
ATOM      1  C   UNL A   1      41.713  20.261  27.572  1.00  0.00     0.042 C 
ENDROOT
BRANCH   1   2
ATOM      2  C   UNL A   1      42.496  20.082  26.284  1.00  0.00     0.118 C 
BRANCH   2   3
ATOM      3  N   UNL A   1      42.458  21.220  25.382  1.00  0.00    -0.351 N 
ATOM      4  C   UNL A   1      43.461  22.106  25.067  1.00  0.00     0.278 C 
ATOM      5  O   UNL A   1      43.298  22.787  24.053  1.00  0.00    -0.268 OA
ATOM      6  H   UNL A   1      41.597  21.378  24.934  1.00  0.00     0.163 HD
BRANCH   4   7
ATOM      7  C   UNL A   1      44.683  22.253  26.022  1.00  0.00     0.277 C 
BRANCH   7   8
ATOM      8  C   UNL A   1      46.073  22.160  25.299  1.00  0.00     0.054 C 
ATOM      9  C   UNL A   1      46.379  20.813  24.634  1.00  0.00     0.014 C 
BRANCH   8  10
ATOM     10  C   UNL A   1      46.401  23.297  24.301  1.00  0.00     0.006 C 
ATOM     11  C   UNL A   1      47.127  24.498  24.882  1.00  0.00     0.004 C 
ENDBRANCH   8  10
ENDBRANCH   7   8
BRANCH   7  12
ATOM     12  N   UNL A   1      44.619  23.529  26.794  1.00  0.00    -0.323 N 
ATOM     13  C   UNL A   1      43.379  23.713  27.556  1.00  0.00     0.275 C 
ATOM     14  C   UNL A   1      45.428  23.460  28.020  1.00  0.00     0.275 C 
ATOM     15  H   UNL A   1      44.839  24.208  26.064  1.00  0.00     0.348 HD
ATOM     16  C   UNL A   1      44.185  23.642  28.789  1.00  0.00     0.068 C 
ATOM     17  C   UNL A   1      43.781  22.956  30.057  1.00  0.00     0.020 C 
ATOM     18  C   UNL A   1      44.015  24.444  30.041  1.00  0.00     0.020 C 
ENDBRANCH   7  12
ENDBRANCH   4   7
ENDBRANCH   2   3
ENDBRANCH   1   2
BRANCH   1  19
ATOM     19  C   UNL A   1      40.886  21.538  27.643  1.00  0.00     0.118 C 
BRANCH  19  20
ATOM     20  N   UNL A   1      39.689  21.524  26.809  1.00  0.00    -0.352 N 
ATOM     21  C   UNL A   1      38.875  22.550  26.372  1.00  0.00     0.251 C 
ATOM     22  H   UNL A   1      39.416  20.628  26.505  1.00  0.00     0.163 HD
ATOM     23  O   UNL A   1      37.855  22.293  25.756  1.00  0.00    -0.269 OA
BRANCH  21  24
ATOM     24  C   UNL A   1      39.216  23.954  26.696  1.00  0.00     0.039 A 
ATOM     25  C   UNL A   1      38.922  24.449  27.970  1.00  0.00     0.014 A 
ATOM     26  C   UNL A   1      39.859  24.767  25.766  1.00  0.00     0.014 A 
ATOM     27  C   UNL A   1      39.386  25.714  28.345  1.00  0.00     0.010 A 
ATOM     28  C   UNL A   1      40.420  25.969  26.176  1.00  0.00     0.010 A 
ATOM     29  C   UNL A   1      40.201  26.454  27.475  1.00  0.00    -0.014 A 
BRANCH  29  30
ATOM     30  C   UNL A   1      40.850  27.731  27.880  1.00  0.00     0.031 A 
ATOM     31  C   UNL A   1      42.346  27.870  27.781  1.00  0.00     0.074 A 
ATOM     32  C   UNL A   1      40.117  28.711  28.448  1.00  0.00     0.049 A 
ATOM     33  N   UNL A   1      43.126  28.800  28.271  1.00  0.00    -0.248 NA
ATOM     34  C   UNL A   1      43.065  26.793  27.080  1.00  0.00     0.031 C 
ATOM     35  C   UNL A   1      38.666  28.680  28.655  1.00  0.00     0.029 A 
ATOM     36  N   UNL A   1      40.497  29.919  28.979  1.00  0.00    -0.354 N 
ATOM     37  C   UNL A   1      44.424  28.397  27.976  1.00  0.00     0.074 A 
ATOM     38  C   UNL A   1      44.328  27.117  27.311  1.00  0.00     0.031 C 
ATOM     39  C   UNL A   1      38.278  29.825  29.242  1.00  0.00     0.029 A 
ATOM     40  C   UNL A   1      39.454  30.649  29.501  1.00  0.00     0.049 A 
ATOM     41  H   UNL A   1      41.430  30.234  28.986  1.00  0.00     0.167 HD
ATOM     42  C   UNL A   1      45.587  29.046  28.215  1.00  0.00     0.037 A 
ATOM     43  C   UNL A   1      39.446  31.840  30.130  1.00  0.00     0.037 A 
ATOM     44  C   UNL A   1      45.672  30.349  28.819  1.00  0.00     0.049 A 
ATOM     45  C   UNL A   1      40.747  32.564  30.345  1.00  0.00     0.074 A 
ATOM     46  C   UNL A   1      46.796  31.121  29.047  1.00  0.00     0.029 A 
ATOM     47  N   UNL A   1      44.584  31.081  29.273  1.00  0.00    -0.354 N 
ATOM     48  N   UNL A   1      41.962  32.182  30.031  1.00  0.00    -0.248 NA
ATOM     49  C   UNL A   1      40.679  33.878  31.000  1.00  0.00     0.031 C 
ATOM     50  C   UNL A   1      46.391  32.313  29.658  1.00  0.00     0.029 A 
ATOM     51  C   UNL A   1      45.010  32.296  29.780  1.00  0.00     0.049 A 
ATOM     52  H   UNL A   1      43.647  30.779  29.240  1.00  0.00     0.167 HD
ATOM     53  C   UNL A   1      42.799  33.221  30.422  1.00  0.00     0.074 A 
ATOM     54  C   UNL A   1      41.953  34.249  30.991  1.00  0.00     0.031 C 
ATOM     55  C   UNL A   1      44.147  33.315  30.319  1.00  0.00     0.037 A 
BRANCH  42  56
ATOM     56  C   UNL A   1      46.860  28.362  27.801  1.00  0.00     0.058 A 
ATOM     57  C   UNL A   1      47.427  28.568  26.533  1.00  0.00     0.135 A 
ATOM     58  C   UNL A   1      47.529  27.499  28.685  1.00  0.00     0.135 A 
ATOM     59  F   UNL A   1      46.819  29.369  25.643  1.00  0.00    -0.206 F 
ATOM     60  C   UNL A   1      48.589  27.914  26.140  1.00  0.00     0.059 A 
ATOM     61  C   UNL A   1      48.710  26.856  28.323  1.00  0.00     0.059 A 
ATOM     62  F   UNL A   1      47.033  27.266  29.909  1.00  0.00    -0.206 F 
ATOM     63  C   UNL A   1      49.221  27.055  27.041  1.00  0.00     0.060 A 
BRANCH  63  64
ATOM     64  S   UNL A   1      50.724  26.207  26.514  1.00  0.00     0.124 S 
ATOM     65  O   UNL A   1      51.754  27.139  26.961  1.00  0.00    -0.237 OA
ATOM     66  O   UNL A   1      50.648  24.948  27.249  1.00  0.00    -0.237 OA
ATOM     67  O   UNL A   1      50.563  26.095  25.068  1.00  0.00    -0.744 OA
ENDBRANCH  63  64
ENDBRANCH  42  56
BRANCH  43  68
ATOM     68  C   UNL A   1      38.160  32.440  30.578  1.00  0.00     0.058 A 
ATOM     69  C   UNL A   1      37.701  32.251  31.888  1.00  0.00     0.135 A 
ATOM     70  C   UNL A   1      37.374  33.219  29.715  1.00  0.00     0.135 A 
ATOM     71  F   UNL A   1      38.417  31.510  32.749  1.00  0.00    -0.206 F 
ATOM     72  C   UNL A   1      36.498  32.795  32.326  1.00  0.00     0.059 A 
ATOM     73  C   UNL A   1      36.178  33.792  30.135  1.00  0.00     0.059 A 
ATOM     74  F   UNL A   1      37.779  33.446  28.456  1.00  0.00    -0.206 F 
ATOM     75  C   UNL A   1      35.742  33.566  31.441  1.00  0.00     0.060 A 
BRANCH  75  76
ATOM     76  S   UNL A   1      34.204  34.306  32.031  1.00  0.00     0.124 S 
ATOM     77  O   UNL A   1      33.663  33.236  32.861  1.00  0.00    -0.237 OA
ATOM     78  O   UNL A   1      34.683  35.487  32.743  1.00  0.00    -0.237 OA
ATOM     79  O   UNL A   1      33.473  34.583  30.798  1.00  0.00    -0.744 OA
ENDBRANCH  75  76
ENDBRANCH  43  68
BRANCH  55  80
ATOM     80  C   UNL A   1      44.791  34.588  30.785  1.00  0.00     0.058 A 
ATOM     81  C   UNL A   1      44.948  35.690  29.932  1.00  0.00     0.135 A 
ATOM     82  C   UNL A   1      45.185  34.730  32.126  1.00  0.00     0.135 A 
ATOM     83  F   UNL A   1      44.593  35.599  28.640  1.00  0.00    -0.206 F 
ATOM     84  C   UNL A   1      45.483  36.889  30.389  1.00  0.00     0.059 A 
ATOM     85  C   UNL A   1      45.702  35.927  32.609  1.00  0.00     0.059 A 
ATOM     86  F   UNL A   1      45.047  33.707  32.983  1.00  0.00    -0.206 F 
ATOM     87  C   UNL A   1      45.853  36.999  31.732  1.00  0.00     0.060 A 
BRANCH  87  88
ATOM     88  S   UNL A   1      46.491  38.580  32.328  1.00  0.00     0.124 S 
ATOM     89  O   UNL A   1      45.534  38.904  33.380  1.00  0.00    -0.237 OA
ATOM     90  O   UNL A   1      47.834  38.228  32.779  1.00  0.00    -0.237 OA
ATOM     91  O   UNL A   1      46.438  39.433  31.145  1.00  0.00    -0.744 OA
ENDBRANCH  87  88
ENDBRANCH  55  80
ENDBRANCH  29  30
ENDBRANCH  21  24
ENDBRANCH  19  20
ENDBRANCH   1  19
TORSDOF 16
ENDMDL
