MODEL 1
REMARK VINA RESULT:     -12.1      0.000      0.000
REMARK SMILES O=C(NCCCNC(=O)[C@H]1CS[C@]2(c3ccccc3)CCC(=O)N12)c1ccc(-c2c3nc(c(-c4c(F)cc(S(=O)(=O)[O-])cc4F)c4ccc([nH]4)c(-c4c(F)cc(S(=O)(=O)[O-])cc4F)c4nc(c(-c5c(F)cc(S(=O)(=O)[O-])cc5F)c5ccc2[nH]5)C=C4)C=C3)cc1
REMARK SMILES IDX 4 1 3 2 1 3 2 4 25 6 26 7 90 8 27 9 89 10 28 11 29 12 30 13
REMARK SMILES IDX 83 14 31 15 88 16 82 17 84 18 32 19 87 20 81 21 80 22 33 24
REMARK SMILES IDX 67 25 46 26 66 27 47 28 50 29 65 30 85 31 48 32 49 33 64 35
REMARK SMILES IDX 86 36 51 37 34 38 35 39 44 40 36 41 37 42 43 43 45 44 38 45
REMARK SMILES IDX 39 46 40 47 41 48 42 49 68 50 69 51 78 52 70 53 71 54 77 55
REMARK SMILES IDX 79 56 72 57 73 58 74 59 75 60 76 61 52 62 53 63 62 64 54 65
REMARK SMILES IDX 55 66 61 67 63 68 56 69 57 70 58 71 59 72 60 73 5 74 6 75
REMARK SMILES IDX 7 76 8 77 9 79 10 80 11 81 24 82 12 83 13 84 22 85 20 86
REMARK SMILES IDX 21 87 23 88 14 89 15 90 19 91 16 92 18 93 17 94
REMARK H PARENT 3 5 84 23 50 34 7 78
REMARK Flexibility Score: inf
ROOT
ATOM      1  C   UNL A   1      33.989  27.845  26.503  1.00  0.00     0.118 C 
ENDROOT
BRANCH   1   2
ATOM      2  N   UNL A   1      33.649  29.223  26.864  1.00  0.00    -0.352 N 
ATOM      3  O   UNL A   1      33.766  31.204  27.930  1.00  0.00    -0.269 OA
ATOM      4  C   UNL A   1      34.334  30.168  27.596  1.00  0.00     0.251 C 
ATOM      5  H   UNL A   1      32.777  29.528  26.522  1.00  0.00     0.163 HD
BRANCH   4   6
ATOM      6  C   UNL A   1      35.732  29.921  28.013  1.00  0.00     0.039 A 
ATOM      7  C   UNL A   1      36.776  30.155  27.129  1.00  0.00     0.014 A 
ATOM      8  C   UNL A   1      36.014  29.440  29.297  1.00  0.00     0.014 A 
ATOM      9  C   UNL A   1      38.036  29.663  27.409  1.00  0.00     0.010 A 
ATOM     10  C   UNL A   1      37.332  29.116  29.650  1.00  0.00     0.010 A 
ATOM     11  C   UNL A   1      38.351  29.183  28.690  1.00  0.00    -0.014 A 
BRANCH  11  12
ATOM     12  C   UNL A   1      39.777  28.864  28.971  1.00  0.00     0.031 A 
ATOM     13  C   UNL A   1      40.395  27.552  28.574  1.00  0.00     0.074 A 
ATOM     14  C   UNL A   1      40.541  29.846  29.497  1.00  0.00     0.049 A 
ATOM     15  N   UNL A   1      41.647  27.180  28.661  1.00  0.00    -0.248 NA
ATOM     16  C   UNL A   1      39.504  26.518  28.023  1.00  0.00     0.031 C 
ATOM     17  C   UNL A   1      40.038  31.151  29.946  1.00  0.00     0.029 A 
ATOM     18  N   UNL A   1      41.895  29.938  29.685  1.00  0.00    -0.354 N 
ATOM     19  C   UNL A   1      41.695  25.871  28.195  1.00  0.00     0.074 A 
ATOM     20  C   UNL A   1      40.340  25.500  27.850  1.00  0.00     0.031 C 
ATOM     21  C   UNL A   1      41.072  31.945  30.250  1.00  0.00     0.029 A 
ATOM     22  C   UNL A   1      42.302  31.177  30.126  1.00  0.00     0.049 A 
ATOM     23  H   UNL A   1      42.515  29.192  29.522  1.00  0.00     0.167 HD
ATOM     24  C   UNL A   1      42.774  25.062  28.064  1.00  0.00     0.037 A 
ATOM     25  C   UNL A   1      43.527  31.645  30.423  1.00  0.00     0.037 A 
ATOM     26  C   UNL A   1      44.122  25.454  28.399  1.00  0.00     0.049 A 
ATOM     27  C   UNL A   1      44.700  30.727  30.260  1.00  0.00     0.074 A 
ATOM     28  C   UNL A   1      45.284  24.708  28.303  1.00  0.00     0.029 A 
ATOM     29  N   UNL A   1      44.491  26.700  28.885  1.00  0.00    -0.354 N 
ATOM     30  N   UNL A   1      44.719  29.491  29.822  1.00  0.00    -0.248 NA
ATOM     31  C   UNL A   1      46.012  31.256  30.644  1.00  0.00     0.031 C 
ATOM     32  C   UNL A   1      46.349  25.489  28.766  1.00  0.00     0.029 A 
ATOM     33  C   UNL A   1      45.859  26.739  29.106  1.00  0.00     0.049 A 
ATOM     34  H   UNL A   1      43.871  27.447  29.050  1.00  0.00     0.167 HD
ATOM     35  C   UNL A   1      46.046  29.090  29.885  1.00  0.00     0.074 A 
ATOM     36  C   UNL A   1      46.803  30.232  30.359  1.00  0.00     0.031 C 
ATOM     37  C   UNL A   1      46.589  27.884  29.592  1.00  0.00     0.037 A 
BRANCH  24  38
ATOM     38  C   UNL A   1      42.554  23.666  27.545  1.00  0.00     0.058 A 
ATOM     39  C   UNL A   1      42.577  23.377  26.172  1.00  0.00     0.135 A 
ATOM     40  C   UNL A   1      42.394  22.590  28.435  1.00  0.00     0.135 A 
ATOM     41  F   UNL A   1      42.708  24.367  25.276  1.00  0.00    -0.206 F 
ATOM     42  C   UNL A   1      42.444  22.074  25.699  1.00  0.00     0.059 A 
ATOM     43  C   UNL A   1      42.282  21.277  27.986  1.00  0.00     0.059 A 
ATOM     44  F   UNL A   1      42.363  22.809  29.760  1.00  0.00    -0.206 F 
ATOM     45  C   UNL A   1      42.302  21.030  26.614  1.00  0.00     0.060 A 
BRANCH  45  46
ATOM     46  S   UNL A   1      42.164  19.343  25.984  1.00  0.00     0.124 S 
ATOM     47  O   UNL A   1      40.728  19.240  25.742  1.00  0.00    -0.237 OA
ATOM     48  O   UNL A   1      43.005  19.387  24.792  1.00  0.00    -0.237 OA
ATOM     49  O   UNL A   1      42.675  18.526  27.079  1.00  0.00    -0.744 OA
ENDBRANCH  45  46
ENDBRANCH  24  38
BRANCH  25  50
ATOM     50  C   UNL A   1      43.688  33.028  30.947  1.00  0.00     0.058 A 
ATOM     51  C   UNL A   1      43.652  33.302  32.320  1.00  0.00     0.135 A 
ATOM     52  C   UNL A   1      43.896  34.106  30.070  1.00  0.00     0.135 A 
ATOM     53  F   UNL A   1      43.456  32.306  33.199  1.00  0.00    -0.206 F 
ATOM     54  C   UNL A   1      43.791  34.598  32.808  1.00  0.00     0.059 A 
ATOM     55  C   UNL A   1      44.074  35.403  30.534  1.00  0.00     0.059 A 
ATOM     56  F   UNL A   1      43.962  33.896  28.746  1.00  0.00    -0.206 F 
ATOM     57  C   UNL A   1      44.000  35.642  31.905  1.00  0.00     0.060 A 
BRANCH  57  58
ATOM     58  S   UNL A   1      44.207  37.319  32.540  1.00  0.00     0.124 S 
ATOM     59  O   UNL A   1      43.933  38.116  31.350  1.00  0.00    -0.237 OA
ATOM     60  O   UNL A   1      43.200  37.377  33.596  1.00  0.00    -0.237 OA
ATOM     61  O   UNL A   1      45.592  37.331  33.006  1.00  0.00    -0.744 OA
ENDBRANCH  57  58
ENDBRANCH  25  50
BRANCH  37  62
ATOM     62  C   UNL A   1      48.074  27.754  29.776  1.00  0.00     0.058 A 
ATOM     63  C   UNL A   1      48.968  28.026  28.728  1.00  0.00     0.135 A 
ATOM     64  C   UNL A   1      48.607  27.345  31.007  1.00  0.00     0.135 A 
ATOM     65  F   UNL A   1      48.506  28.410  27.528  1.00  0.00    -0.206 F 
ATOM     66  C   UNL A   1      50.339  27.855  28.883  1.00  0.00     0.059 A 
ATOM     67  C   UNL A   1      49.977  27.196  31.194  1.00  0.00     0.059 A 
ATOM     68  F   UNL A   1      47.794  27.082  32.043  1.00  0.00    -0.206 F 
ATOM     69  C   UNL A   1      50.833  27.433  30.118  1.00  0.00     0.060 A 
BRANCH  69  70
ATOM     70  S   UNL A   1      52.613  27.208  30.307  1.00  0.00     0.124 S 
ATOM     71  O   UNL A   1      53.036  27.051  28.920  1.00  0.00    -0.237 OA
ATOM     72  O   UNL A   1      53.020  28.450  30.956  1.00  0.00    -0.237 OA
ATOM     73  O   UNL A   1      52.718  26.011  31.135  1.00  0.00    -0.744 OA
ENDBRANCH  69  70
ENDBRANCH  37  62
ENDBRANCH  11  12
ENDBRANCH   4   6
ENDBRANCH   1   2
BRANCH   1  74
ATOM     74  C   UNL A   1      33.105  27.304  25.400  1.00  0.00     0.042 C 
BRANCH  74  75
ATOM     75  C   UNL A   1      33.890  26.460  24.420  1.00  0.00     0.117 C 
BRANCH  75  76
ATOM     76  N   UNL A   1      33.095  25.456  23.764  1.00  0.00    -0.354 N 
ATOM     77  C   UNL A   1      33.205  24.104  23.902  1.00  0.00     0.243 C 
ATOM     78  H   UNL A   1      32.398  25.781  23.150  1.00  0.00     0.163 HD
ATOM     79  O   UNL A   1      32.474  23.402  23.198  1.00  0.00    -0.273 OA
BRANCH  77  80
ATOM     80  C   UNL A   1      34.292  23.470  24.798  1.00  0.00     0.186 C 
ATOM     81  C   UNL A   1      33.825  23.235  26.232  1.00  0.00     0.107 C 
ATOM     82  N   UNL A   1      35.002  22.282  24.289  1.00  0.00    -0.311 N 
ATOM     83  S   UNL A   1      34.614  21.702  26.809  1.00  0.00    -0.126 SA
ATOM     84  C   UNL A   1      35.087  21.099  25.141  1.00  0.00     0.115 C 
ATOM     85  C   UNL A   1      36.237  22.582  23.703  1.00  0.00     0.224 C 
ATOM     86  C   UNL A   1      36.590  20.734  25.162  1.00  0.00     0.055 C 
ATOM     87  C   UNL A   1      37.300  21.917  24.535  1.00  0.00     0.104 C 
ATOM     88  O   UNL A   1      36.448  23.428  22.861  1.00  0.00    -0.275 OA
BRANCH  84  89
ATOM     89  C   UNL A   1      34.252  19.909  24.596  1.00  0.00    -0.012 A 
ATOM     90  C   UNL A   1      32.939  20.037  24.097  1.00  0.00     0.007 A 
ATOM     91  C   UNL A   1      34.800  18.603  24.559  1.00  0.00     0.007 A 
ATOM     92  C   UNL A   1      32.239  18.950  23.554  1.00  0.00     0.000 A 
ATOM     93  C   UNL A   1      34.072  17.502  24.084  1.00  0.00     0.000 A 
ATOM     94  C   UNL A   1      32.798  17.679  23.561  1.00  0.00     0.000 A 
ENDBRANCH  84  89
ENDBRANCH  77  80
ENDBRANCH  75  76
ENDBRANCH  74  75
ENDBRANCH   1  74
TORSDOF 14
ENDMDL
MODEL 2
REMARK VINA RESULT:     -11.9      4.470     10.933
REMARK SMILES O=C(NCCCNC(=O)[C@H]1CS[C@]2(c3ccccc3)CCC(=O)N12)c1ccc(-c2c3nc(c(-c4c(F)cc(S(=O)(=O)[O-])cc4F)c4ccc([nH]4)c(-c4c(F)cc(S(=O)(=O)[O-])cc4F)c4nc(c(-c5c(F)cc(S(=O)(=O)[O-])cc5F)c5ccc2[nH]5)C=C4)C=C3)cc1
REMARK SMILES IDX 4 1 3 2 1 3 2 4 25 6 26 7 90 8 27 9 89 10 28 11 29 12 30 13
REMARK SMILES IDX 83 14 31 15 88 16 82 17 84 18 32 19 87 20 81 21 80 22 33 24
REMARK SMILES IDX 67 25 46 26 66 27 47 28 50 29 65 30 85 31 48 32 49 33 64 35
REMARK SMILES IDX 86 36 51 37 34 38 35 39 44 40 36 41 37 42 43 43 45 44 38 45
REMARK SMILES IDX 39 46 40 47 41 48 42 49 68 50 69 51 78 52 70 53 71 54 77 55
REMARK SMILES IDX 79 56 72 57 73 58 74 59 75 60 76 61 52 62 53 63 62 64 54 65
REMARK SMILES IDX 55 66 61 67 63 68 56 69 57 70 58 71 59 72 60 73 5 74 6 75
REMARK SMILES IDX 7 76 8 77 9 79 10 80 11 81 24 82 12 83 13 84 22 85 20 86
REMARK SMILES IDX 21 87 23 88 14 89 15 90 19 91 16 92 18 93 17 94
REMARK H PARENT 3 5 84 23 50 34 7 78
REMARK Flexibility Score: inf
ROOT
ATOM      1  C   UNL A   1      40.953  22.085  26.781  1.00  0.00     0.118 C 
ENDROOT
BRANCH   1   2
ATOM      2  N   UNL A   1      39.704  22.481  26.129  1.00  0.00    -0.352 N 
ATOM      3  O   UNL A   1      37.809  23.639  25.746  1.00  0.00    -0.269 OA
ATOM      4  C   UNL A   1      38.923  23.607  26.265  1.00  0.00     0.251 C 
ATOM      5  H   UNL A   1      39.362  21.827  25.476  1.00  0.00     0.163 HD
BRANCH   4   6
ATOM      6  C   UNL A   1      39.402  24.758  27.063  1.00  0.00     0.039 A 
ATOM      7  C   UNL A   1      39.144  24.816  28.426  1.00  0.00     0.014 A 
ATOM      8  C   UNL A   1      40.108  25.800  26.452  1.00  0.00     0.014 A 
ATOM      9  C   UNL A   1      39.333  26.002  29.110  1.00  0.00     0.010 A 
ATOM     10  C   UNL A   1      40.470  26.931  27.197  1.00  0.00     0.010 A 
ATOM     11  C   UNL A   1      40.045  27.061  28.526  1.00  0.00    -0.014 A 
BRANCH  11  12
ATOM     12  C   UNL A   1      40.385  28.220  29.395  1.00  0.00     0.031 A 
ATOM     13  C   UNL A   1      39.437  29.371  29.598  1.00  0.00     0.074 A 
ATOM     14  C   UNL A   1      41.536  28.153  30.098  1.00  0.00     0.049 A 
ATOM     15  N   UNL A   1      39.557  30.393  30.406  1.00  0.00    -0.248 NA
ATOM     16  C   UNL A   1      38.209  29.393  28.788  1.00  0.00     0.031 C 
ATOM     17  C   UNL A   1      42.545  27.095  29.958  1.00  0.00     0.029 A 
ATOM     18  N   UNL A   1      42.029  28.939  31.106  1.00  0.00    -0.354 N 
ATOM     19  C   UNL A   1      38.435  31.186  30.195  1.00  0.00     0.074 A 
ATOM     20  C   UNL A   1      37.656  30.541  29.160  1.00  0.00     0.031 C 
ATOM     21  C   UNL A   1      43.471  27.234  30.914  1.00  0.00     0.029 A 
ATOM     22  C   UNL A   1      43.188  28.448  31.664  1.00  0.00     0.049 A 
ATOM     23  H   UNL A   1      41.597  29.772  31.403  1.00  0.00     0.167 HD
ATOM     24  C   UNL A   1      38.090  32.342  30.814  1.00  0.00     0.037 A 
ATOM     25  C   UNL A   1      43.958  28.930  32.655  1.00  0.00     0.037 A 
ATOM     26  C   UNL A   1      38.872  32.964  31.855  1.00  0.00     0.049 A 
ATOM     27  C   UNL A   1      43.545  30.206  33.324  1.00  0.00     0.074 A 
ATOM     28  C   UNL A   1      38.609  34.134  32.546  1.00  0.00     0.029 A 
ATOM     29  N   UNL A   1      40.063  32.463  32.362  1.00  0.00    -0.354 N 
ATOM     30  N   UNL A   1      42.481  30.940  33.103  1.00  0.00    -0.248 NA
ATOM     31  C   UNL A   1      44.438  30.727  34.364  1.00  0.00     0.031 C 
ATOM     32  C   UNL A   1      39.659  34.361  33.443  1.00  0.00     0.029 A 
ATOM     33  C   UNL A   1      40.552  33.308  33.347  1.00  0.00     0.049 A 
ATOM     34  H   UNL A   1      40.497  31.630  32.066  1.00  0.00     0.167 HD
ATOM     35  C   UNL A   1      42.581  32.018  33.972  1.00  0.00     0.074 A 
ATOM     36  C   UNL A   1      43.785  31.812  34.754  1.00  0.00     0.031 C 
ATOM     37  C   UNL A   1      41.761  33.088  34.103  1.00  0.00     0.037 A 
BRANCH  24  38
ATOM     38  C   UNL A   1      36.818  33.023  30.385  1.00  0.00     0.058 A 
ATOM     39  C   UNL A   1      35.643  32.938  31.147  1.00  0.00     0.135 A 
ATOM     40  C   UNL A   1      36.794  33.833  29.237  1.00  0.00     0.135 A 
ATOM     41  F   UNL A   1      35.602  32.164  32.243  1.00  0.00    -0.206 F 
ATOM     42  C   UNL A   1      34.488  33.627  30.785  1.00  0.00     0.059 A 
ATOM     43  C   UNL A   1      35.658  34.550  28.868  1.00  0.00     0.059 A 
ATOM     44  F   UNL A   1      37.889  33.949  28.469  1.00  0.00    -0.206 F 
ATOM     45  C   UNL A   1      34.507  34.435  29.647  1.00  0.00     0.060 A 
BRANCH  45  46
ATOM     46  S   UNL A   1      33.011  35.347  29.211  1.00  0.00     0.124 S 
ATOM     47  O   UNL A   1      32.312  35.390  30.492  1.00  0.00    -0.237 OA
ATOM     48  O   UNL A   1      33.548  36.619  28.739  1.00  0.00    -0.237 OA
ATOM     49  O   UNL A   1      32.389  34.513  28.186  1.00  0.00    -0.744 OA
ENDBRANCH  45  46
ENDBRANCH  24  38
BRANCH  25  50
ATOM     50  C   UNL A   1      45.214  28.226  33.031  1.00  0.00     0.058 A 
ATOM     51  C   UNL A   1      45.219  27.176  33.958  1.00  0.00     0.135 A 
ATOM     52  C   UNL A   1      46.441  28.591  32.450  1.00  0.00     0.135 A 
ATOM     53  F   UNL A   1      44.073  26.790  34.541  1.00  0.00    -0.206 F 
ATOM     54  C   UNL A   1      46.396  26.527  34.317  1.00  0.00     0.059 A 
ATOM     55  C   UNL A   1      47.623  27.934  32.764  1.00  0.00     0.059 A 
ATOM     56  F   UNL A   1      46.489  29.576  31.539  1.00  0.00    -0.206 F 
ATOM     57  C   UNL A   1      47.594  26.916  33.714  1.00  0.00     0.060 A 
BRANCH  57  58
ATOM     58  S   UNL A   1      49.117  26.054  34.160  1.00  0.00     0.124 S 
ATOM     59  O   UNL A   1      50.120  26.873  33.488  1.00  0.00    -0.237 OA
ATOM     60  O   UNL A   1      49.100  26.130  35.617  1.00  0.00    -0.237 OA
ATOM     61  O   UNL A   1      48.918  24.717  33.608  1.00  0.00    -0.744 OA
ENDBRANCH  57  58
ENDBRANCH  25  50
BRANCH  37  62
ATOM     62  C   UNL A   1      42.148  34.108  35.136  1.00  0.00     0.058 A 
ATOM     63  C   UNL A   1      42.969  35.201  34.814  1.00  0.00     0.135 A 
ATOM     64  C   UNL A   1      41.701  33.986  36.460  1.00  0.00     0.135 A 
ATOM     65  F   UNL A   1      43.429  35.355  33.563  1.00  0.00    -0.206 F 
ATOM     66  C   UNL A   1      43.370  36.115  35.781  1.00  0.00     0.059 A 
ATOM     67  C   UNL A   1      42.067  34.906  37.438  1.00  0.00     0.059 A 
ATOM     68  F   UNL A   1      40.907  32.964  36.816  1.00  0.00    -0.206 F 
ATOM     69  C   UNL A   1      42.918  35.954  37.092  1.00  0.00     0.060 A 
BRANCH  69  70
ATOM     70  S   UNL A   1      43.450  37.143  38.342  1.00  0.00     0.124 S 
ATOM     71  O   UNL A   1      42.216  37.351  39.091  1.00  0.00    -0.237 OA
ATOM     72  O   UNL A   1      44.501  36.412  39.042  1.00  0.00    -0.237 OA
ATOM     73  O   UNL A   1      43.907  38.282  37.553  1.00  0.00    -0.744 OA
ENDBRANCH  69  70
ENDBRANCH  37  62
ENDBRANCH  11  12
ENDBRANCH   4   6
ENDBRANCH   1   2
BRANCH   1  74
ATOM     74  C   UNL A   1      41.967  21.536  25.800  1.00  0.00     0.042 C 
BRANCH  74  75
ATOM     75  C   UNL A   1      43.116  22.496  25.589  1.00  0.00     0.117 C 
BRANCH  75  76
ATOM     76  N   UNL A   1      42.707  23.771  25.062  1.00  0.00    -0.354 N 
ATOM     77  C   UNL A   1      43.381  24.953  25.158  1.00  0.00     0.243 C 
ATOM     78  H   UNL A   1      41.848  23.792  24.582  1.00  0.00     0.163 HD
ATOM     79  O   UNL A   1      42.829  25.957  24.699  1.00  0.00    -0.273 OA
BRANCH  77  80
ATOM     80  C   UNL A   1      44.716  25.060  25.928  1.00  0.00     0.186 C 
ATOM     81  C   UNL A   1      45.852  25.629  25.083  1.00  0.00     0.107 C 
ATOM     82  N   UNL A   1      44.697  25.697  27.258  1.00  0.00    -0.311 N 
ATOM     83  S   UNL A   1      46.892  26.632  26.186  1.00  0.00    -0.126 SA
ATOM     84  C   UNL A   1      45.654  26.765  27.535  1.00  0.00     0.115 C 
ATOM     85  C   UNL A   1      44.632  24.780  28.313  1.00  0.00     0.224 C 
ATOM     86  C   UNL A   1      46.332  26.353  28.862  1.00  0.00     0.055 C 
ATOM     87  C   UNL A   1      45.903  24.920  29.106  1.00  0.00     0.104 C 
ATOM     88  O   UNL A   1      43.848  23.862  28.421  1.00  0.00    -0.275 OA
BRANCH  84  89
ATOM     89  C   UNL A   1      44.974  28.153  27.687  1.00  0.00    -0.012 A 
ATOM     90  C   UNL A   1      45.401  29.137  28.602  1.00  0.00     0.007 A 
ATOM     91  C   UNL A   1      43.870  28.506  26.873  1.00  0.00     0.007 A 
ATOM     92  C   UNL A   1      44.802  30.405  28.667  1.00  0.00     0.000 A 
ATOM     93  C   UNL A   1      43.224  29.746  26.989  1.00  0.00     0.000 A 
ATOM     94  C   UNL A   1      43.704  30.704  27.872  1.00  0.00     0.000 A 
ENDBRANCH  84  89
ENDBRANCH  77  80
ENDBRANCH  75  76
ENDBRANCH  74  75
ENDBRANCH   1  74
TORSDOF 14
ENDMDL
MODEL 3
REMARK VINA RESULT:     -11.7      4.912     10.113
REMARK SMILES O=C(NCCCNC(=O)[C@H]1CS[C@]2(c3ccccc3)CCC(=O)N12)c1ccc(-c2c3nc(c(-c4c(F)cc(S(=O)(=O)[O-])cc4F)c4ccc([nH]4)c(-c4c(F)cc(S(=O)(=O)[O-])cc4F)c4nc(c(-c5c(F)cc(S(=O)(=O)[O-])cc5F)c5ccc2[nH]5)C=C4)C=C3)cc1
REMARK SMILES IDX 4 1 3 2 1 3 2 4 25 6 26 7 90 8 27 9 89 10 28 11 29 12 30 13
REMARK SMILES IDX 83 14 31 15 88 16 82 17 84 18 32 19 87 20 81 21 80 22 33 24
REMARK SMILES IDX 67 25 46 26 66 27 47 28 50 29 65 30 85 31 48 32 49 33 64 35
REMARK SMILES IDX 86 36 51 37 34 38 35 39 44 40 36 41 37 42 43 43 45 44 38 45
REMARK SMILES IDX 39 46 40 47 41 48 42 49 68 50 69 51 78 52 70 53 71 54 77 55
REMARK SMILES IDX 79 56 72 57 73 58 74 59 75 60 76 61 52 62 53 63 62 64 54 65
REMARK SMILES IDX 55 66 61 67 63 68 56 69 57 70 58 71 59 72 60 73 5 74 6 75
REMARK SMILES IDX 7 76 8 77 9 79 10 80 11 81 24 82 12 83 13 84 22 85 20 86
REMARK SMILES IDX 21 87 23 88 14 89 15 90 19 91 16 92 18 93 17 94
REMARK H PARENT 3 5 84 23 50 34 7 78
REMARK Flexibility Score: inf
ROOT
ATOM      1  C   UNL A   1      32.699  32.401  27.215  1.00  0.00     0.118 C 
ENDROOT
BRANCH   1   2
ATOM      2  N   UNL A   1      32.549  33.785  27.667  1.00  0.00    -0.352 N 
ATOM      3  O   UNL A   1      32.816  35.614  28.955  1.00  0.00    -0.269 OA
ATOM      4  C   UNL A   1      33.242  34.516  28.606  1.00  0.00     0.251 C 
ATOM      5  H   UNL A   1      31.825  34.282  27.220  1.00  0.00     0.163 HD
BRANCH   4   6
ATOM      6  C   UNL A   1      34.471  33.968  29.223  1.00  0.00     0.039 A 
ATOM      7  C   UNL A   1      34.381  33.038  30.250  1.00  0.00     0.014 A 
ATOM      8  C   UNL A   1      35.732  34.388  28.785  1.00  0.00     0.014 A 
ATOM      9  C   UNL A   1      35.497  32.745  31.010  1.00  0.00     0.010 A 
ATOM     10  C   UNL A   1      36.887  33.938  29.441  1.00  0.00     0.010 A 
ATOM     11  C   UNL A   1      36.775  33.145  30.591  1.00  0.00    -0.014 A 
BRANCH  11  12
ATOM     12  C   UNL A   1      37.942  32.617  31.350  1.00  0.00     0.031 A 
ATOM     13  C   UNL A   1      38.304  33.131  32.716  1.00  0.00     0.074 A 
ATOM     14  C   UNL A   1      38.605  31.568  30.818  1.00  0.00     0.049 A 
ATOM     15  N   UNL A   1      39.226  32.692  33.534  1.00  0.00    -0.248 NA
ATOM     16  C   UNL A   1      37.554  34.288  33.230  1.00  0.00     0.031 C 
ATOM     17  C   UNL A   1      38.355  31.006  29.484  1.00  0.00     0.029 A 
ATOM     18  N   UNL A   1      39.570  30.747  31.340  1.00  0.00    -0.354 N 
ATOM     19  C   UNL A   1      39.182  33.523  34.648  1.00  0.00     0.074 A 
ATOM     20  C   UNL A   1      38.158  34.512  34.392  1.00  0.00     0.031 C 
ATOM     21  C   UNL A   1      39.060  29.877  29.338  1.00  0.00     0.029 A 
ATOM     22  C   UNL A   1      39.893  29.692  30.517  1.00  0.00     0.049 A 
ATOM     23  H   UNL A   1      39.990  30.896  32.217  1.00  0.00     0.167 HD
ATOM     24  C   UNL A   1      39.926  33.457  35.779  1.00  0.00     0.037 A 
ATOM     25  C   UNL A   1      40.780  28.693  30.676  1.00  0.00     0.037 A 
ATOM     26  C   UNL A   1      40.934  32.453  36.025  1.00  0.00     0.049 A 
ATOM     27  C   UNL A   1      41.581  28.645  31.941  1.00  0.00     0.074 A 
ATOM     28  C   UNL A   1      41.742  32.300  37.139  1.00  0.00     0.029 A 
ATOM     29  N   UNL A   1      41.266  31.428  35.151  1.00  0.00    -0.354 N 
ATOM     30  N   UNL A   1      41.523  29.446  32.978  1.00  0.00    -0.248 NA
ATOM     31  C   UNL A   1      42.574  27.572  32.054  1.00  0.00     0.031 C 
ATOM     32  C   UNL A   1      42.587  31.206  36.922  1.00  0.00     0.029 A 
ATOM     33  C   UNL A   1      42.275  30.648  35.694  1.00  0.00     0.049 A 
ATOM     34  H   UNL A   1      40.847  31.278  34.272  1.00  0.00     0.167 HD
ATOM     35  C   UNL A   1      42.481  28.977  33.867  1.00  0.00     0.074 A 
ATOM     36  C   UNL A   1      43.067  27.797  33.264  1.00  0.00     0.031 C 
ATOM     37  C   UNL A   1      42.853  29.485  35.068  1.00  0.00     0.037 A 
BRANCH  24  38
ATOM     38  C   UNL A   1      39.693  34.497  36.842  1.00  0.00     0.058 A 
ATOM     39  C   UNL A   1      38.872  34.247  37.952  1.00  0.00     0.135 A 
ATOM     40  C   UNL A   1      40.360  35.733  36.789  1.00  0.00     0.135 A 
ATOM     41  F   UNL A   1      38.195  33.092  38.046  1.00  0.00    -0.206 F 
ATOM     42  C   UNL A   1      38.714  35.186  38.968  1.00  0.00     0.059 A 
ATOM     43  C   UNL A   1      40.237  36.677  37.805  1.00  0.00     0.059 A 
ATOM     44  F   UNL A   1      41.157  36.027  35.749  1.00  0.00    -0.206 F 
ATOM     45  C   UNL A   1      39.406  36.396  38.889  1.00  0.00     0.060 A 
BRANCH  45  46
ATOM     46  S   UNL A   1      39.216  37.588  40.232  1.00  0.00     0.124 S 
ATOM     47  O   UNL A   1      38.739  36.732  41.315  1.00  0.00    -0.237 OA
ATOM     48  O   UNL A   1      40.573  38.104  40.384  1.00  0.00    -0.237 OA
ATOM     49  O   UNL A   1      38.240  38.540  39.710  1.00  0.00    -0.744 OA
ENDBRANCH  45  46
ENDBRANCH  24  38
BRANCH  25  50
ATOM     50  C   UNL A   1      40.983  27.699  29.588  1.00  0.00     0.058 A 
ATOM     51  C   UNL A   1      40.076  26.653  29.370  1.00  0.00     0.135 A 
ATOM     52  C   UNL A   1      42.093  27.790  28.732  1.00  0.00     0.135 A 
ATOM     53  F   UNL A   1      38.998  26.523  30.161  1.00  0.00    -0.206 F 
ATOM     54  C   UNL A   1      40.273  25.717  28.360  1.00  0.00     0.059 A 
ATOM     55  C   UNL A   1      42.293  26.889  27.694  1.00  0.00     0.059 A 
ATOM     56  F   UNL A   1      42.981  28.785  28.883  1.00  0.00    -0.206 F 
ATOM     57  C   UNL A   1      41.387  25.844  27.528  1.00  0.00     0.060 A 
BRANCH  57  58
ATOM     58  S   UNL A   1      41.628  24.644  26.201  1.00  0.00     0.124 S 
ATOM     59  O   UNL A   1      40.355  23.934  26.216  1.00  0.00    -0.237 OA
ATOM     60  O   UNL A   1      41.868  25.504  25.046  1.00  0.00    -0.237 OA
ATOM     61  O   UNL A   1      42.787  23.877  26.651  1.00  0.00    -0.744 OA
ENDBRANCH  57  58
ENDBRANCH  25  50
BRANCH  37  62
ATOM     62  C   UNL A   1      43.942  28.752  35.797  1.00  0.00     0.058 A 
ATOM     63  C   UNL A   1      43.652  27.701  36.682  1.00  0.00     0.135 A 
ATOM     64  C   UNL A   1      45.286  29.110  35.616  1.00  0.00     0.135 A 
ATOM     65  F   UNL A   1      42.381  27.329  36.896  1.00  0.00    -0.206 F 
ATOM     66  C   UNL A   1      44.657  27.058  37.397  1.00  0.00     0.059 A 
ATOM     67  C   UNL A   1      46.310  28.460  36.299  1.00  0.00     0.059 A 
ATOM     68  F   UNL A   1      45.616  30.102  34.774  1.00  0.00    -0.206 F 
ATOM     69  C   UNL A   1      45.982  27.450  37.202  1.00  0.00     0.060 A 
BRANCH  69  70
ATOM     70  S   UNL A   1      47.277  26.614  38.140  1.00  0.00     0.124 S 
ATOM     71  O   UNL A   1      47.252  25.281  37.548  1.00  0.00    -0.237 OA
ATOM     72  O   UNL A   1      48.455  27.420  37.836  1.00  0.00    -0.237 OA
ATOM     73  O   UNL A   1      46.806  26.699  39.519  1.00  0.00    -0.744 OA
ENDBRANCH  69  70
ENDBRANCH  37  62
ENDBRANCH  11  12
ENDBRANCH   4   6
ENDBRANCH   1   2
BRANCH   1  74
ATOM     74  C   UNL A   1      31.419  31.846  26.626  1.00  0.00     0.042 C 
BRANCH  74  75
ATOM     75  C   UNL A   1      31.654  30.524  25.928  1.00  0.00     0.117 C 
BRANCH  75  76
ATOM     76  N   UNL A   1      32.873  29.875  26.329  1.00  0.00    -0.354 N 
ATOM     77  C   UNL A   1      33.376  28.703  25.845  1.00  0.00     0.243 C 
ATOM     78  H   UNL A   1      33.400  30.324  27.029  1.00  0.00     0.163 HD
ATOM     79  O   UNL A   1      34.406  28.270  26.369  1.00  0.00    -0.273 OA
BRANCH  77  80
ATOM     80  C   UNL A   1      32.618  27.878  24.781  1.00  0.00     0.186 C 
ATOM     81  C   UNL A   1      33.070  28.181  23.354  1.00  0.00     0.107 C 
ATOM     82  N   UNL A   1      32.505  26.422  24.986  1.00  0.00    -0.311 N 
ATOM     83  S   UNL A   1      32.978  26.623  22.421  1.00  0.00    -0.126 SA
ATOM     84  C   UNL A   1      32.889  25.531  23.894  1.00  0.00     0.115 C 
ATOM     85  C   UNL A   1      31.290  26.035  25.561  1.00  0.00     0.224 C 
ATOM     86  C   UNL A   1      31.684  24.577  23.721  1.00  0.00     0.055 C 
ATOM     87  C   UNL A   1      30.571  25.179  24.554  1.00  0.00     0.104 C 
ATOM     88  O   UNL A   1      30.782  26.506  26.556  1.00  0.00    -0.275 OA
BRANCH  84  89
ATOM     89  C   UNL A   1      34.175  24.721  24.208  1.00  0.00    -0.012 A 
ATOM     90  C   UNL A   1      34.888  24.823  25.421  1.00  0.00     0.007 A 
ATOM     91  C   UNL A   1      34.695  23.801  23.264  1.00  0.00     0.007 A 
ATOM     92  C   UNL A   1      36.011  24.027  25.694  1.00  0.00     0.000 A 
ATOM     93  C   UNL A   1      35.861  23.060  23.508  1.00  0.00     0.000 A 
ATOM     94  C   UNL A   1      36.507  23.157  24.733  1.00  0.00     0.000 A 
ENDBRANCH  84  89
ENDBRANCH  77  80
ENDBRANCH  75  76
ENDBRANCH  74  75
ENDBRANCH   1  74
TORSDOF 14
ENDMDL
