MODEL 1
REMARK VINA RESULT:     -12.2      0.000      0.000
REMARK SMILES COc1ccccc1C[C@@H](C(=O)NCCCNC(=O)c1ccc(-c2c3nc(c(-c4c(F)cc(S(=O)(=O)[O-])cc4F)c4ccc([nH]4)c(-c4c(F)cc(S(=O)(=O)[O-])cc4F)c4nc(c(-c5c(F)cc(S(=O)(=O)[O-])cc5F)c5ccc2[nH]5)C=C4)C=C3)cc1)[C@@H]1C[C@H](C)C[C@H](C)C1
REMARK SMILES IDX 15 1 14 2 13 3 11 4 12 5 10 7 9 8 8 9 3 10 4 11 5 12 7 13
REMARK SMILES IDX 6 14 2 15 1 16 86 17 93 18 87 19 91 20 88 21 92 22 90 23
REMARK SMILES IDX 89 24 16 25 17 26 18 27 19 29 20 30 21 31 85 32 22 33 84 34
REMARK SMILES IDX 23 35 24 36 25 37 78 38 26 39 83 40 77 41 79 42 27 43 82 44
REMARK SMILES IDX 76 45 75 46 28 48 62 49 41 50 61 51 42 52 45 53 60 54 80 55
REMARK SMILES IDX 43 56 44 57 59 59 81 60 46 61 29 62 30 63 39 64 31 65 32 66
REMARK SMILES IDX 38 67 40 68 33 69 34 70 35 71 36 72 37 73 63 74 64 75 73 76
REMARK SMILES IDX 65 77 66 78 72 79 74 80 67 81 68 82 69 83 70 84 71 85 47 86
REMARK SMILES IDX 48 87 57 88 49 89 50 90 56 91 58 92 51 93 52 94 53 95 54 96
REMARK SMILES IDX 55 97
REMARK H PARENT 13 6 17 28 79 47 45 58
REMARK Flexibility Score: inf
ROOT
ATOM      1  C   UNL A   1      34.402  30.734  27.246  1.00  0.00     0.042 C 
ENDROOT
BRANCH   1   2
ATOM      2  C   UNL A   1      34.366  29.211  27.345  1.00  0.00     0.117 C 
BRANCH   2   3
ATOM      3  N   UNL A   1      33.031  28.760  27.665  1.00  0.00    -0.356 N 
ATOM      4  C   UNL A   1      32.201  27.828  27.159  1.00  0.00     0.223 C 
ATOM      5  O   UNL A   1      31.166  27.719  27.836  1.00  0.00    -0.275 OA
ATOM      6  H   UNL A   1      32.639  29.243  28.429  1.00  0.00     0.163 HD
BRANCH   4   7
ATOM      7  C   UNL A   1      32.509  26.843  25.996  1.00  0.00     0.086 C 
BRANCH   7   8
ATOM      8  C   UNL A   1      33.673  25.845  26.019  1.00  0.00     0.053 C 
BRANCH   8   9
ATOM      9  C   UNL A   1      33.660  24.353  25.853  1.00  0.00    -0.005 A 
ATOM     10  C   UNL A   1      32.723  23.522  26.480  1.00  0.00     0.122 A 
ATOM     11  C   UNL A   1      32.716  22.142  26.263  1.00  0.00     0.047 A 
ATOM     12  C   UNL A   1      33.597  21.581  25.340  1.00  0.00     0.004 A 
ATOM     13  C   UNL A   1      34.482  23.777  24.870  1.00  0.00     0.007 A 
ATOM     14  C   UNL A   1      34.462  22.403  24.623  1.00  0.00     0.001 A 
BRANCH  10  15
ATOM     15  O   UNL A   1      31.746  24.072  27.271  1.00  0.00    -0.496 OA
ATOM     16  C   UNL A   1      30.459  23.708  26.748  1.00  0.00     0.278 C 
ENDBRANCH  10  15
ENDBRANCH   8   9
ENDBRANCH   7   8
BRANCH   7  17
ATOM     17  C   UNL A   1      32.647  27.712  24.643  1.00  0.00     0.002 C 
ATOM     18  C   UNL A   1      33.190  27.000  23.377  1.00  0.00     0.007 C 
ATOM     19  C   UNL A   1      31.446  28.621  24.283  1.00  0.00     0.007 C 
ATOM     20  C   UNL A   1      32.207  26.417  22.359  1.00  0.00    -0.014 C 
ATOM     21  C   UNL A   1      30.462  28.176  23.175  1.00  0.00    -0.014 C 
ATOM     22  C   UNL A   1      31.730  24.996  22.669  1.00  0.00     0.007 C 
ATOM     23  C   UNL A   1      31.087  27.394  22.011  1.00  0.00     0.006 C 
ATOM     24  C   UNL A   1      29.178  27.516  23.681  1.00  0.00     0.007 C 
ENDBRANCH   7  17
ENDBRANCH   4   7
ENDBRANCH   2   3
ENDBRANCH   1   2
BRANCH   1  25
ATOM     25  C   UNL A   1      35.444  31.425  28.114  1.00  0.00     0.118 C 
BRANCH  25  26
ATOM     26  N   UNL A   1      35.430  30.948  29.482  1.00  0.00    -0.352 N 
ATOM     27  C   UNL A   1      36.359  30.299  30.256  1.00  0.00     0.251 C 
ATOM     28  H   UNL A   1      34.583  31.127  29.952  1.00  0.00     0.163 HD
ATOM     29  O   UNL A   1      35.954  29.831  31.323  1.00  0.00    -0.269 OA
BRANCH  27  30
ATOM     30  C   UNL A   1      37.797  30.119  29.896  1.00  0.00     0.039 A 
ATOM     31  C   UNL A   1      38.096  29.953  28.533  1.00  0.00     0.014 A 
ATOM     32  C   UNL A   1      38.836  29.960  30.815  1.00  0.00     0.014 A 
ATOM     33  C   UNL A   1      39.389  29.617  28.108  1.00  0.00     0.010 A 
ATOM     34  C   UNL A   1      40.150  29.712  30.385  1.00  0.00     0.010 A 
ATOM     35  C   UNL A   1      40.438  29.492  29.030  1.00  0.00    -0.014 A 
BRANCH  35  36
ATOM     36  C   UNL A   1      41.797  29.054  28.593  1.00  0.00     0.031 A 
ATOM     37  C   UNL A   1      42.946  30.037  28.552  1.00  0.00     0.074 A 
ATOM     38  C   UNL A   1      42.015  27.775  28.222  1.00  0.00     0.049 A 
ATOM     39  N   UNL A   1      44.189  29.846  28.184  1.00  0.00    -0.248 NA
ATOM     40  C   UNL A   1      42.653  31.422  28.955  1.00  0.00     0.031 C 
ATOM     41  C   UNL A   1      40.998  26.724  28.173  1.00  0.00     0.029 A 
ATOM     42  N   UNL A   1      43.165  27.142  27.815  1.00  0.00    -0.354 N 
ATOM     43  C   UNL A   1      44.815  31.085  28.284  1.00  0.00     0.074 A 
ATOM     44  C   UNL A   1      43.803  32.031  28.704  1.00  0.00     0.031 C 
ATOM     45  C   UNL A   1      41.572  25.574  27.785  1.00  0.00     0.029 A 
ATOM     46  C   UNL A   1      42.991  25.808  27.527  1.00  0.00     0.049 A 
ATOM     47  H   UNL A   1      44.034  27.600  27.738  1.00  0.00     0.167 HD
ATOM     48  C   UNL A   1      46.114  31.409  28.071  1.00  0.00     0.037 A 
ATOM     49  C   UNL A   1      43.867  24.876  27.103  1.00  0.00     0.037 A 
ATOM     50  C   UNL A   1      47.138  30.464  27.703  1.00  0.00     0.049 A 
ATOM     51  C   UNL A   1      45.313  25.246  26.909  1.00  0.00     0.074 A 
ATOM     52  C   UNL A   1      48.495  30.687  27.535  1.00  0.00     0.029 A 
ATOM     53  N   UNL A   1      46.921  29.119  27.449  1.00  0.00    -0.354 N 
ATOM     54  N   UNL A   1      45.893  26.412  27.064  1.00  0.00    -0.248 NA
ATOM     55  C   UNL A   1      46.225  24.172  26.492  1.00  0.00     0.031 C 
ATOM     56  C   UNL A   1      49.093  29.483  27.145  1.00  0.00     0.029 A 
ATOM     57  C   UNL A   1      48.115  28.502  27.112  1.00  0.00     0.049 A 
ATOM     58  H   UNL A   1      46.047  28.667  27.502  1.00  0.00     0.167 HD
ATOM     59  C   UNL A   1      47.240  26.207  26.785  1.00  0.00     0.074 A 
ATOM     60  C   UNL A   1      47.391  24.803  26.466  1.00  0.00     0.031 C 
ATOM     61  C   UNL A   1      48.259  27.102  26.797  1.00  0.00     0.037 A 
BRANCH  48  62
ATOM     62  C   UNL A   1      46.508  32.854  28.233  1.00  0.00     0.058 A 
ATOM     63  C   UNL A   1      46.387  33.777  27.183  1.00  0.00     0.135 A 
ATOM     64  C   UNL A   1      46.990  33.327  29.465  1.00  0.00     0.135 A 
ATOM     65  F   UNL A   1      45.943  33.378  25.981  1.00  0.00    -0.206 F 
ATOM     66  C   UNL A   1      46.769  35.107  27.334  1.00  0.00     0.059 A 
ATOM     67  C   UNL A   1      47.351  34.660  29.648  1.00  0.00     0.059 A 
ATOM     68  F   UNL A   1      47.120  32.490  30.507  1.00  0.00    -0.206 F 
ATOM     69  C   UNL A   1      47.255  35.538  28.570  1.00  0.00     0.060 A 
BRANCH  69  70
ATOM     70  S   UNL A   1      47.757  37.263  28.745  1.00  0.00     0.124 S 
ATOM     71  O   UNL A   1      47.261  37.573  30.085  1.00  0.00    -0.237 OA
ATOM     72  O   UNL A   1      49.202  37.190  28.605  1.00  0.00    -0.237 OA
ATOM     73  O   UNL A   1      47.054  37.931  27.649  1.00  0.00    -0.744 OA
ENDBRANCH  69  70
ENDBRANCH  48  62
BRANCH  49  74
ATOM     74  C   UNL A   1      43.400  23.485  26.862  1.00  0.00     0.058 A 
ATOM     75  C   UNL A   1      43.230  22.996  25.558  1.00  0.00     0.135 A 
ATOM     76  C   UNL A   1      43.145  22.610  27.927  1.00  0.00     0.135 A 
ATOM     77  F   UNL A   1      43.454  23.798  24.506  1.00  0.00    -0.206 F 
ATOM     78  C   UNL A   1      42.818  21.689  25.319  1.00  0.00     0.059 A 
ATOM     79  C   UNL A   1      42.755  21.292  27.714  1.00  0.00     0.059 A 
ATOM     80  F   UNL A   1      43.307  23.026  29.194  1.00  0.00    -0.206 F 
ATOM     81  C   UNL A   1      42.589  20.842  26.404  1.00  0.00     0.060 A 
BRANCH  81  82
ATOM     82  S   UNL A   1      42.127  19.125  26.083  1.00  0.00     0.124 S 
ATOM     83  O   UNL A   1      42.998  18.792  24.962  1.00  0.00    -0.237 OA
ATOM     84  O   UNL A   1      42.444  18.478  27.353  1.00  0.00    -0.237 OA
ATOM     85  O   UNL A   1      40.704  19.215  25.774  1.00  0.00    -0.744 OA
ENDBRANCH  81  82
ENDBRANCH  49  74
BRANCH  61  86
ATOM     86  C   UNL A   1      49.636  26.589  26.479  1.00  0.00     0.058 A 
ATOM     87  C   UNL A   1      50.460  26.024  27.465  1.00  0.00     0.135 A 
ATOM     88  C   UNL A   1      50.123  26.629  25.162  1.00  0.00     0.135 A 
ATOM     89  F   UNL A   1      50.044  25.967  28.740  1.00  0.00    -0.206 F 
ATOM     90  C   UNL A   1      51.728  25.539  27.162  1.00  0.00     0.059 A 
ATOM     91  C   UNL A   1      51.379  26.127  24.832  1.00  0.00     0.059 A 
ATOM     92  F   UNL A   1      49.373  27.148  24.178  1.00  0.00    -0.206 F 
ATOM     93  C   UNL A   1      52.181  25.597  25.843  1.00  0.00     0.060 A 
BRANCH  93  94
ATOM     94  S   UNL A   1      53.820  24.945  25.457  1.00  0.00     0.124 S 
ATOM     95  O   UNL A   1      54.200  25.768  24.314  1.00  0.00    -0.237 OA
ATOM     96  O   UNL A   1      54.557  25.194  26.691  1.00  0.00    -0.237 OA
ATOM     97  O   UNL A   1      53.564  23.539  25.160  1.00  0.00    -0.744 OA
ENDBRANCH  93  94
ENDBRANCH  61  86
ENDBRANCH  35  36
ENDBRANCH  27  30
ENDBRANCH  25  26
ENDBRANCH   1  25
TORSDOF 17
ENDMDL
MODEL 2
REMARK VINA RESULT:     -12.0      6.615     12.103
REMARK SMILES COc1ccccc1C[C@@H](C(=O)NCCCNC(=O)c1ccc(-c2c3nc(c(-c4c(F)cc(S(=O)(=O)[O-])cc4F)c4ccc([nH]4)c(-c4c(F)cc(S(=O)(=O)[O-])cc4F)c4nc(c(-c5c(F)cc(S(=O)(=O)[O-])cc5F)c5ccc2[nH]5)C=C4)C=C3)cc1)[C@@H]1C[C@H](C)C[C@H](C)C1
REMARK SMILES IDX 15 1 14 2 13 3 11 4 12 5 10 7 9 8 8 9 3 10 4 11 5 12 7 13
REMARK SMILES IDX 6 14 2 15 1 16 86 17 93 18 87 19 91 20 88 21 92 22 90 23
REMARK SMILES IDX 89 24 16 25 17 26 18 27 19 29 20 30 21 31 85 32 22 33 84 34
REMARK SMILES IDX 23 35 24 36 25 37 78 38 26 39 83 40 77 41 79 42 27 43 82 44
REMARK SMILES IDX 76 45 75 46 28 48 62 49 41 50 61 51 42 52 45 53 60 54 80 55
REMARK SMILES IDX 43 56 44 57 59 59 81 60 46 61 29 62 30 63 39 64 31 65 32 66
REMARK SMILES IDX 38 67 40 68 33 69 34 70 35 71 36 72 37 73 63 74 64 75 73 76
REMARK SMILES IDX 65 77 66 78 72 79 74 80 67 81 68 82 69 83 70 84 71 85 47 86
REMARK SMILES IDX 48 87 57 88 49 89 50 90 56 91 58 92 51 93 52 94 53 95 54 96
REMARK SMILES IDX 55 97
REMARK H PARENT 13 6 17 28 79 47 45 58
REMARK Flexibility Score: inf
ROOT
ATOM      1  C   UNL A   1      38.846  22.463  26.181  1.00  0.00     0.042 C 
ENDROOT
BRANCH   1   2
ATOM      2  C   UNL A   1      37.837  23.532  25.766  1.00  0.00     0.117 C 
BRANCH   2   3
ATOM      3  N   UNL A   1      37.356  23.276  24.427  1.00  0.00    -0.356 N 
ATOM      4  C   UNL A   1      36.159  23.378  23.817  1.00  0.00     0.223 C 
ATOM      5  O   UNL A   1      36.242  23.140  22.602  1.00  0.00    -0.275 OA
ATOM      6  H   UNL A   1      38.064  22.955  23.823  1.00  0.00     0.163 HD
BRANCH   4   7
ATOM      7  C   UNL A   1      34.838  23.904  24.445  1.00  0.00     0.086 C 
BRANCH   7   8
ATOM      8  C   UNL A   1      34.728  25.243  25.185  1.00  0.00     0.053 C 
BRANCH   8   9
ATOM      9  C   UNL A   1      33.665  26.299  25.100  1.00  0.00    -0.005 A 
ATOM     10  C   UNL A   1      33.235  26.856  23.888  1.00  0.00     0.122 A 
ATOM     11  C   UNL A   1      32.210  27.805  23.848  1.00  0.00     0.047 A 
ATOM     12  C   UNL A   1      31.537  28.147  25.020  1.00  0.00     0.004 A 
ATOM     13  C   UNL A   1      32.920  26.600  26.252  1.00  0.00     0.007 A 
ATOM     14  C   UNL A   1      31.874  27.525  26.218  1.00  0.00     0.001 A 
BRANCH  10  15
ATOM     15  O   UNL A   1      33.775  26.417  22.706  1.00  0.00    -0.496 OA
ATOM     16  C   UNL A   1      32.771  25.708  21.965  1.00  0.00     0.278 C 
ENDBRANCH  10  15
ENDBRANCH   8   9
ENDBRANCH   7   8
BRANCH   7  17
ATOM     17  C   UNL A   1      34.279  22.759  25.436  1.00  0.00     0.002 C 
ATOM     18  C   UNL A   1      33.066  23.111  26.338  1.00  0.00     0.007 C 
ATOM     19  C   UNL A   1      34.112  21.344  24.831  1.00  0.00     0.007 C 
ATOM     20  C   UNL A   1      31.652  22.758  25.874  1.00  0.00    -0.014 C 
ATOM     21  C   UNL A   1      32.700  20.845  24.443  1.00  0.00    -0.014 C 
ATOM     22  C   UNL A   1      30.992  23.807  24.975  1.00  0.00     0.007 C 
ATOM     23  C   UNL A   1      31.557  21.329  25.346  1.00  0.00     0.006 C 
ATOM     24  C   UNL A   1      32.354  20.983  22.959  1.00  0.00     0.007 C 
ENDBRANCH   7  17
ENDBRANCH   4   7
ENDBRANCH   2   3
ENDBRANCH   1   2
BRANCH   1  25
ATOM     25  C   UNL A   1      40.039  22.961  26.985  1.00  0.00     0.118 C 
BRANCH  25  26
ATOM     26  N   UNL A   1      40.954  23.751  26.187  1.00  0.00    -0.352 N 
ATOM     27  C   UNL A   1      41.283  25.084  26.186  1.00  0.00     0.251 C 
ATOM     28  H   UNL A   1      41.439  23.226  25.510  1.00  0.00     0.163 HD
ATOM     29  O   UNL A   1      41.944  25.484  25.224  1.00  0.00    -0.269 OA
BRANCH  27  30
ATOM     30  C   UNL A   1      40.898  26.061  27.246  1.00  0.00     0.039 A 
ATOM     31  C   UNL A   1      41.633  27.258  27.307  1.00  0.00     0.014 A 
ATOM     32  C   UNL A   1      39.969  25.814  28.260  1.00  0.00     0.014 A 
ATOM     33  C   UNL A   1      41.457  28.165  28.361  1.00  0.00     0.010 A 
ATOM     34  C   UNL A   1      39.730  26.763  29.268  1.00  0.00     0.010 A 
ATOM     35  C   UNL A   1      40.501  27.931  29.359  1.00  0.00    -0.014 A 
BRANCH  35  36
ATOM     36  C   UNL A   1      40.368  28.851  30.527  1.00  0.00     0.031 A 
ATOM     37  C   UNL A   1      41.262  28.694  31.737  1.00  0.00     0.074 A 
ATOM     38  C   UNL A   1      39.442  29.833  30.520  1.00  0.00     0.049 A 
ATOM     39  N   UNL A   1      41.282  29.385  32.850  1.00  0.00    -0.248 NA
ATOM     40  C   UNL A   1      42.247  27.602  31.700  1.00  0.00     0.031 C 
ATOM     41  C   UNL A   1      38.485  30.083  29.441  1.00  0.00     0.029 A 
ATOM     42  N   UNL A   1      39.154  30.803  31.450  1.00  0.00    -0.354 N 
ATOM     43  C   UNL A   1      42.255  28.796  33.652  1.00  0.00     0.074 A 
ATOM     44  C   UNL A   1      42.772  27.663  32.916  1.00  0.00     0.031 C 
ATOM     45  C   UNL A   1      37.734  31.150  29.759  1.00  0.00     0.029 A 
ATOM     46  C   UNL A   1      38.132  31.644  31.075  1.00  0.00     0.049 A 
ATOM     47  H   UNL A   1      39.635  30.889  32.305  1.00  0.00     0.167 HD
ATOM     48  C   UNL A   1      42.698  29.171  34.877  1.00  0.00     0.037 A 
ATOM     49  C   UNL A   1      37.575  32.693  31.713  1.00  0.00     0.037 A 
ATOM     50  C   UNL A   1      42.225  30.328  35.594  1.00  0.00     0.049 A 
ATOM     51  C   UNL A   1      38.107  33.117  33.055  1.00  0.00     0.074 A 
ATOM     52  C   UNL A   1      42.665  30.827  36.809  1.00  0.00     0.029 A 
ATOM     53  N   UNL A   1      41.209  31.167  35.165  1.00  0.00    -0.354 N 
ATOM     54  N   UNL A   1      39.067  32.579  33.769  1.00  0.00    -0.248 NA
ATOM     55  C   UNL A   1      37.487  34.298  33.674  1.00  0.00     0.031 C 
ATOM     56  C   UNL A   1      41.891  31.949  37.130  1.00  0.00     0.029 A 
ATOM     57  C   UNL A   1      40.998  32.172  36.095  1.00  0.00     0.049 A 
ATOM     58  H   UNL A   1      40.711  31.065  34.321  1.00  0.00     0.167 HD
ATOM     59  C   UNL A   1      39.180  33.367  34.909  1.00  0.00     0.074 A 
ATOM     60  C   UNL A   1      38.201  34.427  34.784  1.00  0.00     0.031 C 
ATOM     61  C   UNL A   1      40.022  33.225  35.963  1.00  0.00     0.037 A 
BRANCH  48  62
ATOM     62  C   UNL A   1      43.758  28.320  35.526  1.00  0.00     0.058 A 
ATOM     63  C   UNL A   1      43.434  27.276  36.406  1.00  0.00     0.135 A 
ATOM     64  C   UNL A   1      45.118  28.535  35.242  1.00  0.00     0.135 A 
ATOM     65  F   UNL A   1      42.152  27.032  36.721  1.00  0.00    -0.206 F 
ATOM     66  C   UNL A   1      44.419  26.503  37.015  1.00  0.00     0.059 A 
ATOM     67  C   UNL A   1      46.118  27.756  35.818  1.00  0.00     0.059 A 
ATOM     68  F   UNL A   1      45.486  29.516  34.402  1.00  0.00    -0.206 F 
ATOM     69  C   UNL A   1      45.760  26.756  36.718  1.00  0.00     0.060 A 
BRANCH  69  70
ATOM     70  S   UNL A   1      47.024  25.753  37.527  1.00  0.00     0.124 S 
ATOM     71  O   UNL A   1      48.097  26.729  37.703  1.00  0.00    -0.237 OA
ATOM     72  O   UNL A   1      46.357  25.318  38.743  1.00  0.00    -0.237 OA
ATOM     73  O   UNL A   1      47.294  24.698  36.548  1.00  0.00    -0.744 OA
ENDBRANCH  69  70
ENDBRANCH  48  62
BRANCH  49  74
ATOM     74  C   UNL A   1      36.461  33.437  31.068  1.00  0.00     0.058 A 
ATOM     75  C   UNL A   1      36.686  34.246  29.944  1.00  0.00     0.135 A 
ATOM     76  C   UNL A   1      35.145  33.329  31.543  1.00  0.00     0.135 A 
ATOM     77  F   UNL A   1      37.929  34.388  29.459  1.00  0.00    -0.206 F 
ATOM     78  C   UNL A   1      35.648  34.927  29.317  1.00  0.00     0.059 A 
ATOM     79  C   UNL A   1      34.087  33.981  30.918  1.00  0.00     0.059 A 
ATOM     80  F   UNL A   1      34.876  32.555  32.606  1.00  0.00    -0.206 F 
ATOM     81  C   UNL A   1      34.349  34.782  29.808  1.00  0.00     0.060 A 
BRANCH  81  82
ATOM     82  S   UNL A   1      32.996  35.609  28.942  1.00  0.00     0.124 S 
ATOM     83  O   UNL A   1      33.719  36.581  28.130  1.00  0.00    -0.237 OA
ATOM     84  O   UNL A   1      32.375  34.505  28.217  1.00  0.00    -0.237 OA
ATOM     85  O   UNL A   1      32.195  36.163  30.028  1.00  0.00    -0.744 OA
ENDBRANCH  81  82
ENDBRANCH  49  74
BRANCH  61  86
ATOM     86  C   UNL A   1      39.944  34.254  37.057  1.00  0.00     0.058 A 
ATOM     87  C   UNL A   1      40.622  35.480  36.968  1.00  0.00     0.135 A 
ATOM     88  C   UNL A   1      39.149  34.026  38.192  1.00  0.00     0.135 A 
ATOM     89  F   UNL A   1      41.399  35.745  35.906  1.00  0.00    -0.206 F 
ATOM     90  C   UNL A   1      40.535  36.433  37.977  1.00  0.00     0.059 A 
ATOM     91  C   UNL A   1      39.028  34.976  39.202  1.00  0.00     0.059 A 
ATOM     92  F   UNL A   1      38.470  32.876  38.323  1.00  0.00    -0.206 F 
ATOM     93  C   UNL A   1      39.737  36.172  39.092  1.00  0.00     0.060 A 
BRANCH  93  94
ATOM     94  S   UNL A   1      39.614  37.425  40.386  1.00  0.00     0.124 S 
ATOM     95  O   UNL A   1      38.295  37.990  40.121  1.00  0.00    -0.237 OA
ATOM     96  O   UNL A   1      39.730  36.632  41.605  1.00  0.00    -0.237 OA
ATOM     97  O   UNL A   1      40.743  38.309  40.110  1.00  0.00    -0.744 OA
ENDBRANCH  93  94
ENDBRANCH  61  86
ENDBRANCH  35  36
ENDBRANCH  27  30
ENDBRANCH  25  26
ENDBRANCH   1  25
TORSDOF 17
ENDMDL
MODEL 3
REMARK VINA RESULT:     -11.9      1.147      2.132
REMARK SMILES COc1ccccc1C[C@@H](C(=O)NCCCNC(=O)c1ccc(-c2c3nc(c(-c4c(F)cc(S(=O)(=O)[O-])cc4F)c4ccc([nH]4)c(-c4c(F)cc(S(=O)(=O)[O-])cc4F)c4nc(c(-c5c(F)cc(S(=O)(=O)[O-])cc5F)c5ccc2[nH]5)C=C4)C=C3)cc1)[C@@H]1C[C@H](C)C[C@H](C)C1
REMARK SMILES IDX 15 1 14 2 13 3 11 4 12 5 10 7 9 8 8 9 3 10 4 11 5 12 7 13
REMARK SMILES IDX 6 14 2 15 1 16 86 17 93 18 87 19 91 20 88 21 92 22 90 23
REMARK SMILES IDX 89 24 16 25 17 26 18 27 19 29 20 30 21 31 85 32 22 33 84 34
REMARK SMILES IDX 23 35 24 36 25 37 78 38 26 39 83 40 77 41 79 42 27 43 82 44
REMARK SMILES IDX 76 45 75 46 28 48 62 49 41 50 61 51 42 52 45 53 60 54 80 55
REMARK SMILES IDX 43 56 44 57 59 59 81 60 46 61 29 62 30 63 39 64 31 65 32 66
REMARK SMILES IDX 38 67 40 68 33 69 34 70 35 71 36 72 37 73 63 74 64 75 73 76
REMARK SMILES IDX 65 77 66 78 72 79 74 80 67 81 68 82 69 83 70 84 71 85 47 86
REMARK SMILES IDX 48 87 57 88 49 89 50 90 56 91 58 92 51 93 52 94 53 95 54 96
REMARK SMILES IDX 55 97
REMARK H PARENT 13 6 17 28 79 47 45 58
REMARK Flexibility Score: inf
ROOT
ATOM      1  C   UNL A   1      34.235  30.997  27.645  1.00  0.00     0.042 C 
ENDROOT
BRANCH   1   2
ATOM      2  C   UNL A   1      34.486  29.549  27.232  1.00  0.00     0.117 C 
BRANCH   2   3
ATOM      3  N   UNL A   1      34.388  29.412  25.796  1.00  0.00    -0.356 N 
ATOM      4  C   UNL A   1      34.003  28.425  24.964  1.00  0.00     0.223 C 
ATOM      5  O   UNL A   1      33.988  28.801  23.782  1.00  0.00    -0.275 OA
ATOM      6  H   UNL A   1      34.665  30.226  25.317  1.00  0.00     0.163 HD
BRANCH   4   7
ATOM      7  C   UNL A   1      33.451  27.030  25.372  1.00  0.00     0.086 C 
BRANCH   7   8
ATOM      8  C   UNL A   1      33.539  25.790  24.474  1.00  0.00     0.053 C 
BRANCH   8   9
ATOM      9  C   UNL A   1      34.184  24.460  24.738  1.00  0.00    -0.005 A 
ATOM     10  C   UNL A   1      34.554  23.574  23.717  1.00  0.00     0.122 A 
ATOM     11  C   UNL A   1      35.193  22.364  24.002  1.00  0.00     0.047 A 
ATOM     12  C   UNL A   1      35.552  22.063  25.315  1.00  0.00     0.004 A 
ATOM     13  C   UNL A   1      34.626  24.171  26.039  1.00  0.00     0.007 A 
ATOM     14  C   UNL A   1      35.292  22.979  26.330  1.00  0.00     0.001 A 
BRANCH  10  15
ATOM     15  O   UNL A   1      34.353  23.922  22.406  1.00  0.00    -0.496 OA
ATOM     16  C   UNL A   1      33.252  23.164  21.882  1.00  0.00     0.278 C 
ENDBRANCH  10  15
ENDBRANCH   8   9
ENDBRANCH   7   8
BRANCH   7  17
ATOM     17  C   UNL A   1      31.901  27.217  25.782  1.00  0.00     0.002 C 
ATOM     18  C   UNL A   1      31.033  28.170  24.917  1.00  0.00     0.007 C 
ATOM     19  C   UNL A   1      31.117  25.926  26.122  1.00  0.00     0.007 C 
ATOM     20  C   UNL A   1      30.188  27.595  23.779  1.00  0.00    -0.014 C 
ATOM     21  C   UNL A   1      30.139  25.334  25.080  1.00  0.00    -0.014 C 
ATOM     22  C   UNL A   1      30.927  27.438  22.448  1.00  0.00     0.007 C 
ATOM     23  C   UNL A   1      29.401  26.361  24.209  1.00  0.00     0.006 C 
ATOM     24  C   UNL A   1      30.706  24.182  24.247  1.00  0.00     0.007 C 
ENDBRANCH   7  17
ENDBRANCH   4   7
ENDBRANCH   2   3
ENDBRANCH   1   2
BRANCH   1  25
ATOM     25  C   UNL A   1      35.391  31.688  28.355  1.00  0.00     0.118 C 
BRANCH  25  26
ATOM     26  N   UNL A   1      35.493  31.306  29.749  1.00  0.00    -0.352 N 
ATOM     27  C   UNL A   1      36.346  30.476  30.433  1.00  0.00     0.251 C 
ATOM     28  H   UNL A   1      34.813  31.729  30.323  1.00  0.00     0.163 HD
ATOM     29  O   UNL A   1      36.025  30.192  31.589  1.00  0.00    -0.269 OA
BRANCH  27  30
ATOM     30  C   UNL A   1      37.607  29.901  29.877  1.00  0.00     0.039 A 
ATOM     31  C   UNL A   1      38.566  29.457  30.803  1.00  0.00     0.014 A 
ATOM     32  C   UNL A   1      37.958  29.906  28.526  1.00  0.00     0.014 A 
ATOM     33  C   UNL A   1      39.843  29.053  30.389  1.00  0.00     0.010 A 
ATOM     34  C   UNL A   1      39.206  29.417  28.102  1.00  0.00     0.010 A 
ATOM     35  C   UNL A   1      40.182  29.026  29.029  1.00  0.00    -0.014 A 
BRANCH  35  36
ATOM     36  C   UNL A   1      41.565  28.676  28.589  1.00  0.00     0.031 A 
ATOM     37  C   UNL A   1      42.652  29.727  28.556  1.00  0.00     0.074 A 
ATOM     38  C   UNL A   1      41.861  27.415  28.208  1.00  0.00     0.049 A 
ATOM     39  N   UNL A   1      43.904  29.615  28.186  1.00  0.00    -0.248 NA
ATOM     40  C   UNL A   1      42.276  31.088  28.969  1.00  0.00     0.031 C 
ATOM     41  C   UNL A   1      40.909  26.305  28.151  1.00  0.00     0.029 A 
ATOM     42  N   UNL A   1      43.047  26.856  27.797  1.00  0.00    -0.354 N 
ATOM     43  C   UNL A   1      44.453  30.889  28.296  1.00  0.00     0.074 A 
ATOM     44  C   UNL A   1      43.386  31.768  28.723  1.00  0.00     0.031 C 
ATOM     45  C   UNL A   1      41.552  25.195  27.754  1.00  0.00     0.029 A 
ATOM     46  C   UNL A   1      42.954  25.517  27.498  1.00  0.00     0.049 A 
ATOM     47  H   UNL A   1      43.886  27.367  27.723  1.00  0.00     0.167 HD
ATOM     48  C   UNL A   1      45.731  31.293  28.085  1.00  0.00     0.037 A 
ATOM     49  C   UNL A   1      43.886  24.643  27.068  1.00  0.00     0.037 A 
ATOM     50  C   UNL A   1      46.810  30.415  27.711  1.00  0.00     0.049 A 
ATOM     51  C   UNL A   1      45.306  25.102  26.877  1.00  0.00     0.074 A 
ATOM     52  C   UNL A   1      48.151  30.721  27.544  1.00  0.00     0.029 A 
ATOM     53  N   UNL A   1      46.676  29.061  27.446  1.00  0.00    -0.354 N 
ATOM     54  N   UNL A   1      45.814  26.300  27.041  1.00  0.00    -0.248 NA
ATOM     55  C   UNL A   1      46.282  24.088  26.452  1.00  0.00     0.031 C 
ATOM     56  C   UNL A   1      48.821  29.559  27.146  1.00  0.00     0.029 A 
ATOM     57  C   UNL A   1      47.905  28.520  27.105  1.00  0.00     0.049 A 
ATOM     58  H   UNL A   1      45.831  28.557  27.496  1.00  0.00     0.167 HD
ATOM     59  C   UNL A   1      47.171  26.179  26.761  1.00  0.00     0.074 A 
ATOM     60  C   UNL A   1      47.408  24.789  26.431  1.00  0.00     0.031 C 
ATOM     61  C   UNL A   1      48.133  27.134  26.779  1.00  0.00     0.037 A 
BRANCH  48  62
ATOM     62  C   UNL A   1      46.036  32.758  28.259  1.00  0.00     0.058 A 
ATOM     63  C   UNL A   1      46.450  33.287  29.491  1.00  0.00     0.135 A 
ATOM     64  C   UNL A   1      45.939  33.640  27.169  1.00  0.00     0.135 A 
ATOM     65  F   UNL A   1      46.550  32.493  30.568  1.00  0.00    -0.206 F 
ATOM     66  C   UNL A   1      46.715  34.644  29.649  1.00  0.00     0.059 A 
ATOM     67  C   UNL A   1      46.227  34.997  27.298  1.00  0.00     0.059 A 
ATOM     68  F   UNL A   1      45.555  33.188  25.965  1.00  0.00    -0.206 F 
ATOM     69  C   UNL A   1      46.595  35.493  28.547  1.00  0.00     0.060 A 
BRANCH  69  70
ATOM     70  S   UNL A   1      46.930  37.252  28.772  1.00  0.00     0.124 S 
ATOM     71  O   UNL A   1      45.940  37.851  27.879  1.00  0.00    -0.237 OA
ATOM     72  O   UNL A   1      46.697  37.441  30.195  1.00  0.00    -0.237 OA
ATOM     73  O   UNL A   1      48.322  37.387  28.342  1.00  0.00    -0.744 OA
ENDBRANCH  69  70
ENDBRANCH  48  62
BRANCH  49  74
ATOM     74  C   UNL A   1      43.505  23.228  26.816  1.00  0.00     0.058 A 
ATOM     75  C   UNL A   1      43.440  22.718  25.510  1.00  0.00     0.135 A 
ATOM     76  C   UNL A   1      43.227  22.351  27.875  1.00  0.00     0.135 A 
ATOM     77  F   UNL A   1      43.688  23.521  24.464  1.00  0.00    -0.206 F 
ATOM     78  C   UNL A   1      43.109  21.390  25.263  1.00  0.00     0.059 A 
ATOM     79  C   UNL A   1      42.917  21.013  27.654  1.00  0.00     0.059 A 
ATOM     80  F   UNL A   1      43.290  22.787  29.143  1.00  0.00    -0.206 F 
ATOM     81  C   UNL A   1      42.855  20.543  26.343  1.00  0.00     0.060 A 
BRANCH  81  82
ATOM     82  S   UNL A   1      42.500  18.802  26.016  1.00  0.00     0.124 S 
ATOM     83  O   UNL A   1      41.092  18.855  25.640  1.00  0.00    -0.237 OA
ATOM     84  O   UNL A   1      43.438  18.493  24.941  1.00  0.00    -0.237 OA
ATOM     85  O   UNL A   1      42.790  18.157  27.293  1.00  0.00    -0.744 OA
ENDBRANCH  81  82
ENDBRANCH  49  74
BRANCH  61  86
ATOM     86  C   UNL A   1      49.540  26.709  26.458  1.00  0.00     0.058 A 
ATOM     87  C   UNL A   1      50.035  26.728  25.145  1.00  0.00     0.135 A 
ATOM     88  C   UNL A   1      50.415  26.314  27.483  1.00  0.00     0.135 A 
ATOM     89  F   UNL A   1      49.238  27.093  24.128  1.00  0.00    -0.206 F 
ATOM     90  C   UNL A   1      51.341  26.347  24.855  1.00  0.00     0.059 A 
ATOM     91  C   UNL A   1      51.733  25.951  27.219  1.00  0.00     0.059 A 
ATOM     92  F   UNL A   1      49.996  26.287  28.757  1.00  0.00    -0.206 F 
ATOM     93  C   UNL A   1      52.183  25.957  25.899  1.00  0.00     0.060 A 
BRANCH  93  94
ATOM     94  S   UNL A   1      53.882  25.485  25.515  1.00  0.00     0.124 S 
ATOM     95  O   UNL A   1      53.737  24.935  24.171  1.00  0.00    -0.237 OA
ATOM     96  O   UNL A   1      54.591  26.757  25.606  1.00  0.00    -0.237 OA
ATOM     97  O   UNL A   1      54.210  24.516  26.557  1.00  0.00    -0.744 OA
ENDBRANCH  93  94
ENDBRANCH  61  86
ENDBRANCH  35  36
ENDBRANCH  27  30
ENDBRANCH  25  26
ENDBRANCH   1  25
TORSDOF 17
ENDMDL
