MODEL 1
REMARK VINA RESULT:     -11.5      0.000      0.000
REMARK SMILES NC(=O)c1c(F)cccc1O[C@@H](F)C(=O)NCCCNC(=O)c1ccc(-c2c3nc(c(-c4c(F)cc(S(=O)(=O)[O-])cc4F)c4ccc([nH]4)c(-c4c(F)cc(S(=O)(=O)[O-])cc4F)c4nc(c(-c5c(F)cc(S(=O)(=O)[O-])cc5F)c5ccc2[nH]5)C=C4)C=C3)cc1
REMARK SMILES IDX 18 1 17 2 16 3 14 4 15 5 12 7 13 8 11 9 10 10 4 11 5 12 6 13
REMARK SMILES IDX 7 14 9 15 8 16 2 17 1 18 3 21 19 22 20 23 21 24 22 26 23 27
REMARK SMILES IDX 24 28 88 29 25 30 87 31 26 32 27 33 28 34 81 35 29 36 86 37
REMARK SMILES IDX 80 38 82 39 30 40 85 41 79 42 78 43 31 45 65 46 44 47 64 48
REMARK SMILES IDX 45 49 48 50 63 51 83 52 46 53 47 54 62 56 84 57 49 58 32 59
REMARK SMILES IDX 33 60 42 61 34 62 35 63 41 64 43 65 36 66 37 67 38 68 39 69
REMARK SMILES IDX 40 70 66 71 67 72 76 73 68 74 69 75 75 76 77 77 70 78 71 79
REMARK SMILES IDX 72 80 73 81 74 82 50 83 51 84 60 85 52 86 53 87 59 88 61 89
REMARK SMILES IDX 54 90 55 91 56 92 57 93 58 94
REMARK H PARENT 16 6 1 19 1 20 20 25 82 44 48 55
REMARK Flexibility Score: inf
ROOT
ATOM      1  C   UNL A   1      31.783  28.185  27.107  1.00  0.00     0.042 C 
ENDROOT
BRANCH   1   2
ATOM      2  C   UNL A   1      31.559  27.094  26.077  1.00  0.00     0.118 C 
BRANCH   2   3
ATOM      3  N   UNL A   1      30.900  25.904  26.550  1.00  0.00    -0.350 N 
ATOM      4  C   UNL A   1      31.391  24.636  26.657  1.00  0.00     0.294 C 
ATOM      5  O   UNL A   1      30.652  23.837  27.252  1.00  0.00    -0.267 OA
ATOM      6  H   UNL A   1      29.965  26.022  26.836  1.00  0.00     0.163 HD
BRANCH   4   7
ATOM      7  C   UNL A   1      32.764  24.142  26.047  1.00  0.00     0.440 C 
ATOM      8  F   UNL A   1      33.777  24.974  26.428  1.00  0.00    -0.191 F 
BRANCH   7   9
ATOM      9  O   UNL A   1      33.088  23.631  24.774  1.00  0.00    -0.451 OA
BRANCH   9  10
ATOM     10  C   UNL A   1      34.193  22.878  24.523  1.00  0.00     0.139 A 
ATOM     11  C   UNL A   1      34.503  21.575  24.928  1.00  0.00     0.117 A 
ATOM     12  C   UNL A   1      35.809  21.094  24.750  1.00  0.00     0.139 A 
ATOM     13  F   UNL A   1      36.154  19.880  25.204  1.00  0.00    -0.206 F 
ATOM     14  C   UNL A   1      36.796  21.873  24.151  1.00  0.00     0.040 A 
ATOM     15  C   UNL A   1      35.172  23.616  23.828  1.00  0.00     0.047 A 
ATOM     16  C   UNL A   1      36.470  23.131  23.662  1.00  0.00     0.007 A 
BRANCH  11  17
ATOM     17  C   UNL A   1      33.535  20.661  25.547  1.00  0.00     0.255 C 
ATOM     18  N   UNL A   1      33.525  20.633  26.915  1.00  0.00    -0.365 N 
ATOM     19  H   UNL A   1      32.899  20.041  27.393  1.00  0.00     0.159 HD
ATOM     20  H   UNL A   1      34.145  21.207  27.424  1.00  0.00     0.159 HD
ATOM     21  O   UNL A   1      32.804  19.959  24.872  1.00  0.00    -0.269 OA
ENDBRANCH  11  17
ENDBRANCH   9  10
ENDBRANCH   7   9
ENDBRANCH   4   7
ENDBRANCH   2   3
ENDBRANCH   1   2
BRANCH   1  22
ATOM     22  C   UNL A   1      33.243  28.591  27.269  1.00  0.00     0.118 C 
BRANCH  22  23
ATOM     23  N   UNL A   1      33.460  29.953  27.749  1.00  0.00    -0.352 N 
ATOM     24  C   UNL A   1      34.557  30.635  28.230  1.00  0.00     0.251 C 
ATOM     25  H   UNL A   1      32.646  30.504  27.724  1.00  0.00     0.163 HD
ATOM     26  O   UNL A   1      34.394  31.800  28.594  1.00  0.00    -0.269 OA
BRANCH  24  27
ATOM     27  C   UNL A   1      35.891  30.004  28.379  1.00  0.00     0.039 A 
ATOM     28  C   UNL A   1      36.793  30.044  27.307  1.00  0.00     0.014 A 
ATOM     29  C   UNL A   1      36.281  29.367  29.550  1.00  0.00     0.014 A 
ATOM     30  C   UNL A   1      38.100  29.564  27.467  1.00  0.00     0.010 A 
ATOM     31  C   UNL A   1      37.615  29.047  29.763  1.00  0.00     0.010 A 
ATOM     32  C   UNL A   1      38.549  29.136  28.726  1.00  0.00    -0.014 A 
BRANCH  32  33
ATOM     33  C   UNL A   1      39.970  28.782  29.006  1.00  0.00     0.031 A 
ATOM     34  C   UNL A   1      40.908  29.807  29.596  1.00  0.00     0.074 A 
ATOM     35  C   UNL A   1      40.458  27.592  28.598  1.00  0.00     0.049 A 
ATOM     36  N   UNL A   1      42.211  29.771  29.711  1.00  0.00    -0.248 NA
ATOM     37  C   UNL A   1      40.308  31.071  30.058  1.00  0.00     0.031 C 
ATOM     38  C   UNL A   1      39.685  26.537  27.937  1.00  0.00     0.029 A 
ATOM     39  N   UNL A   1      41.730  27.077  28.657  1.00  0.00    -0.354 N 
ATOM     40  C   UNL A   1      42.586  31.020  30.194  1.00  0.00     0.074 A 
ATOM     41  C   UNL A   1      41.379  31.811  30.294  1.00  0.00     0.031 C 
ATOM     42  C   UNL A   1      40.485  25.490  27.691  1.00  0.00     0.029 A 
ATOM     43  C   UNL A   1      41.841  25.815  28.120  1.00  0.00     0.049 A 
ATOM     44  H   UNL A   1      42.491  27.564  29.047  1.00  0.00     0.167 HD
ATOM     45  C   UNL A   1      43.816  31.459  30.552  1.00  0.00     0.037 A 
ATOM     46  C   UNL A   1      42.912  25.009  27.976  1.00  0.00     0.037 A 
ATOM     47  C   UNL A   1      44.994  30.634  30.539  1.00  0.00     0.049 A 
ATOM     48  C   UNL A   1      44.253  25.478  28.456  1.00  0.00     0.074 A 
ATOM     49  C   UNL A   1      46.262  30.941  31.000  1.00  0.00     0.029 A 
ATOM     50  N   UNL A   1      45.047  29.336  30.051  1.00  0.00    -0.354 N 
ATOM     51  N   UNL A   1      44.578  26.640  28.972  1.00  0.00    -0.248 NA
ATOM     52  C   UNL A   1      45.373  24.535  28.339  1.00  0.00     0.031 C 
ATOM     53  C   UNL A   1      47.091  29.842  30.756  1.00  0.00     0.029 A 
ATOM     54  C   UNL A   1      46.330  28.833  30.183  1.00  0.00     0.049 A 
ATOM     55  H   UNL A   1      44.284  28.845  29.668  1.00  0.00     0.167 HD
ATOM     56  C   UNL A   1      45.937  26.565  29.253  1.00  0.00     0.074 A 
ATOM     57  C   UNL A   1      46.371  25.239  28.862  1.00  0.00     0.031 C 
ATOM     58  C   UNL A   1      46.749  27.511  29.786  1.00  0.00     0.037 A 
BRANCH  45  59
ATOM     59  C   UNL A   1      43.946  32.889  31.009  1.00  0.00     0.058 A 
ATOM     60  C   UNL A   1      44.314  33.895  30.100  1.00  0.00     0.135 A 
ATOM     61  C   UNL A   1      43.725  33.267  32.343  1.00  0.00     0.135 A 
ATOM     62  F   UNL A   1      44.538  33.595  28.810  1.00  0.00    -0.206 F 
ATOM     63  C   UNL A   1      44.448  35.222  30.495  1.00  0.00     0.059 A 
ATOM     64  C   UNL A   1      43.821  34.593  32.754  1.00  0.00     0.059 A 
ATOM     65  F   UNL A   1      43.355  32.351  33.252  1.00  0.00    -0.206 F 
ATOM     66  C   UNL A   1      44.192  35.563  31.824  1.00  0.00     0.060 A 
BRANCH  66  67
ATOM     67  S   UNL A   1      44.286  37.301  32.307  1.00  0.00     0.124 S 
ATOM     68  O   UNL A   1      45.696  37.440  32.652  1.00  0.00    -0.237 OA
ATOM     69  O   UNL A   1      43.856  37.981  31.088  1.00  0.00    -0.237 OA
ATOM     70  O   UNL A   1      43.351  37.389  33.424  1.00  0.00    -0.744 OA
ENDBRANCH  66  67
ENDBRANCH  45  59
BRANCH  46  71
ATOM     71  C   UNL A   1      42.719  23.656  27.393  1.00  0.00     0.058 A 
ATOM     72  C   UNL A   1      42.307  22.570  28.182  1.00  0.00     0.135 A 
ATOM     73  C   UNL A   1      43.055  23.402  26.055  1.00  0.00     0.135 A 
ATOM     74  F   UNL A   1      41.990  22.760  29.472  1.00  0.00    -0.206 F 
ATOM     75  C   UNL A   1      42.284  21.275  27.680  1.00  0.00     0.059 A 
ATOM     76  C   UNL A   1      43.019  22.115  25.523  1.00  0.00     0.059 A 
ATOM     77  F   UNL A   1      43.443  24.410  25.260  1.00  0.00    -0.206 F 
ATOM     78  C   UNL A   1      42.659  21.055  26.354  1.00  0.00     0.060 A 
BRANCH  78  79
ATOM     79  S   UNL A   1      42.714  19.354  25.750  1.00  0.00     0.124 S 
ATOM     80  O   UNL A   1      41.292  19.050  25.613  1.00  0.00    -0.237 OA
ATOM     81  O   UNL A   1      43.457  19.498  24.501  1.00  0.00    -0.237 OA
ATOM     82  O   UNL A   1      43.409  18.638  26.814  1.00  0.00    -0.744 OA
ENDBRANCH  78  79
ENDBRANCH  46  71
BRANCH  58  83
ATOM     83  C   UNL A   1      48.194  27.158  29.990  1.00  0.00     0.058 A 
ATOM     84  C   UNL A   1      48.605  26.489  31.154  1.00  0.00     0.135 A 
ATOM     85  C   UNL A   1      49.183  27.568  29.083  1.00  0.00     0.135 A 
ATOM     86  F   UNL A   1      47.699  26.080  32.056  1.00  0.00    -0.206 F 
ATOM     87  C   UNL A   1      49.949  26.263  31.425  1.00  0.00     0.059 A 
ATOM     88  C   UNL A   1      50.533  27.330  29.322  1.00  0.00     0.059 A 
ATOM     89  F   UNL A   1      48.839  28.201  27.951  1.00  0.00    -0.206 F 
ATOM     90  C   UNL A   1      50.907  26.694  30.506  1.00  0.00     0.060 A 
BRANCH  90  91
ATOM     91  S   UNL A   1      52.649  26.399  30.878  1.00  0.00     0.124 S 
ATOM     92  O   UNL A   1      52.575  25.217  31.729  1.00  0.00    -0.237 OA
ATOM     93  O   UNL A   1      53.216  26.191  29.550  1.00  0.00    -0.237 OA
ATOM     94  O   UNL A   1      53.066  27.629  31.544  1.00  0.00    -0.744 OA
ENDBRANCH  90  91
ENDBRANCH  58  83
ENDBRANCH  32  33
ENDBRANCH  24  27
ENDBRANCH  22  23
ENDBRANCH   1  22
TORSDOF 16
ENDMDL
MODEL 2
REMARK VINA RESULT:     -11.4      1.917      2.629
REMARK SMILES NC(=O)c1c(F)cccc1O[C@@H](F)C(=O)NCCCNC(=O)c1ccc(-c2c3nc(c(-c4c(F)cc(S(=O)(=O)[O-])cc4F)c4ccc([nH]4)c(-c4c(F)cc(S(=O)(=O)[O-])cc4F)c4nc(c(-c5c(F)cc(S(=O)(=O)[O-])cc5F)c5ccc2[nH]5)C=C4)C=C3)cc1
REMARK SMILES IDX 18 1 17 2 16 3 14 4 15 5 12 7 13 8 11 9 10 10 4 11 5 12 6 13
REMARK SMILES IDX 7 14 9 15 8 16 2 17 1 18 3 21 19 22 20 23 21 24 22 26 23 27
REMARK SMILES IDX 24 28 88 29 25 30 87 31 26 32 27 33 28 34 81 35 29 36 86 37
REMARK SMILES IDX 80 38 82 39 30 40 85 41 79 42 78 43 31 45 65 46 44 47 64 48
REMARK SMILES IDX 45 49 48 50 63 51 83 52 46 53 47 54 62 56 84 57 49 58 32 59
REMARK SMILES IDX 33 60 42 61 34 62 35 63 41 64 43 65 36 66 37 67 38 68 39 69
REMARK SMILES IDX 40 70 66 71 67 72 76 73 68 74 69 75 75 76 77 77 70 78 71 79
REMARK SMILES IDX 72 80 73 81 74 82 50 83 51 84 60 85 52 86 53 87 59 88 61 89
REMARK SMILES IDX 54 90 55 91 56 92 57 93 58 94
REMARK H PARENT 16 6 1 19 1 20 20 25 82 44 48 55
REMARK Flexibility Score: inf
ROOT
ATOM      1  C   UNL A   1      33.025  29.025  25.344  1.00  0.00     0.042 C 
ENDROOT
BRANCH   1   2
ATOM      2  C   UNL A   1      31.588  29.377  25.011  1.00  0.00     0.118 C 
BRANCH   2   3
ATOM      3  N   UNL A   1      31.321  29.709  23.636  1.00  0.00    -0.350 N 
ATOM      4  C   UNL A   1      30.495  29.085  22.747  1.00  0.00     0.294 C 
ATOM      5  O   UNL A   1      30.332  29.686  21.674  1.00  0.00    -0.267 OA
ATOM      6  H   UNL A   1      31.800  30.496  23.288  1.00  0.00     0.163 HD
BRANCH   4   7
ATOM      7  C   UNL A   1      29.808  27.681  22.980  1.00  0.00     0.440 C 
ATOM      8  F   UNL A   1      28.799  27.794  23.893  1.00  0.00    -0.191 F 
BRANCH   7   9
ATOM      9  O   UNL A   1      30.351  26.386  23.104  1.00  0.00    -0.451 OA
BRANCH   9  10
ATOM     10  C   UNL A   1      31.404  26.084  23.910  1.00  0.00     0.139 A 
ATOM     11  C   UNL A   1      32.748  25.867  23.589  1.00  0.00     0.117 A 
ATOM     12  C   UNL A   1      33.608  25.331  24.560  1.00  0.00     0.139 A 
ATOM     13  F   UNL A   1      34.880  25.034  24.253  1.00  0.00    -0.206 F 
ATOM     14  C   UNL A   1      33.160  25.039  25.846  1.00  0.00     0.040 A 
ATOM     15  C   UNL A   1      30.991  25.880  25.243  1.00  0.00     0.047 A 
ATOM     16  C   UNL A   1      31.852  25.340  26.199  1.00  0.00     0.007 A 
BRANCH  11  17
ATOM     17  C   UNL A   1      33.330  26.161  22.273  1.00  0.00     0.255 C 
ATOM     18  N   UNL A   1      33.404  27.484  21.931  1.00  0.00    -0.365 N 
ATOM     19  H   UNL A   1      33.785  27.748  21.062  1.00  0.00     0.159 HD
ATOM     20  H   UNL A   1      33.077  28.172  22.555  1.00  0.00     0.159 HD
ATOM     21  O   UNL A   1      33.703  25.270  21.531  1.00  0.00    -0.269 OA
ENDBRANCH  11  17
ENDBRANCH   9  10
ENDBRANCH   7   9
ENDBRANCH   4   7
ENDBRANCH   2   3
ENDBRANCH   1   2
BRANCH   1  22
ATOM     22  C   UNL A   1      33.308  28.929  26.838  1.00  0.00     0.118 C 
BRANCH  22  23
ATOM     23  N   UNL A   1      33.482  30.208  27.522  1.00  0.00    -0.352 N 
ATOM     24  C   UNL A   1      34.535  30.807  28.178  1.00  0.00     0.251 C 
ATOM     25  H   UNL A   1      32.669  30.763  27.511  1.00  0.00     0.163 HD
ATOM     26  O   UNL A   1      34.339  31.909  28.689  1.00  0.00    -0.269 OA
BRANCH  24  27
ATOM     27  C   UNL A   1      35.856  30.152  28.340  1.00  0.00     0.039 A 
ATOM     28  C   UNL A   1      36.774  30.187  27.282  1.00  0.00     0.014 A 
ATOM     29  C   UNL A   1      36.217  29.496  29.509  1.00  0.00     0.014 A 
ATOM     30  C   UNL A   1      38.070  29.683  27.455  1.00  0.00     0.010 A 
ATOM     31  C   UNL A   1      37.542  29.151  29.739  1.00  0.00     0.010 A 
ATOM     32  C   UNL A   1      38.493  29.235  28.716  1.00  0.00    -0.014 A 
BRANCH  32  33
ATOM     33  C   UNL A   1      39.904  28.853  29.013  1.00  0.00     0.031 A 
ATOM     34  C   UNL A   1      40.859  29.866  29.597  1.00  0.00     0.074 A 
ATOM     35  C   UNL A   1      40.368  27.648  28.626  1.00  0.00     0.049 A 
ATOM     36  N   UNL A   1      42.160  29.802  29.723  1.00  0.00    -0.248 NA
ATOM     37  C   UNL A   1      40.284  31.149  30.036  1.00  0.00     0.031 C 
ATOM     38  C   UNL A   1      39.578  26.601  27.974  1.00  0.00     0.029 A 
ATOM     39  N   UNL A   1      41.628  27.105  28.703  1.00  0.00    -0.354 N 
ATOM     40  C   UNL A   1      42.558  31.050  30.191  1.00  0.00     0.074 A 
ATOM     41  C   UNL A   1      41.369  31.869  30.270  1.00  0.00     0.031 C 
ATOM     42  C   UNL A   1      40.357  25.533  27.749  1.00  0.00     0.029 A 
ATOM     43  C   UNL A   1      41.716  25.834  28.184  1.00  0.00     0.049 A 
ATOM     44  H   UNL A   1      42.397  27.581  29.093  1.00  0.00     0.167 HD
ATOM     45  C   UNL A   1      43.795  31.467  30.553  1.00  0.00     0.037 A 
ATOM     46  C   UNL A   1      42.769  25.002  28.061  1.00  0.00     0.037 A 
ATOM     47  C   UNL A   1      44.955  30.616  30.562  1.00  0.00     0.049 A 
ATOM     48  C   UNL A   1      44.117  25.449  28.546  1.00  0.00     0.074 A 
ATOM     49  C   UNL A   1      46.226  30.901  31.029  1.00  0.00     0.029 A 
ATOM     50  N   UNL A   1      44.983  29.310  30.093  1.00  0.00    -0.354 N 
ATOM     51  N   UNL A   1      44.463  26.611  29.048  1.00  0.00    -0.248 NA
ATOM     52  C   UNL A   1      45.217  24.480  28.451  1.00  0.00     0.031 C 
ATOM     53  C   UNL A   1      47.032  29.781  30.808  1.00  0.00     0.029 A 
ATOM     54  C   UNL A   1      46.254  28.781  30.242  1.00  0.00     0.049 A 
ATOM     55  H   UNL A   1      44.213  28.831  29.710  1.00  0.00     0.167 HD
ATOM     56  C   UNL A   1      45.818  26.509  29.341  1.00  0.00     0.074 A 
ATOM     57  C   UNL A   1      46.226  25.168  28.973  1.00  0.00     0.031 C 
ATOM     58  C   UNL A   1      46.646  27.445  29.867  1.00  0.00     0.037 A 
BRANCH  45  59
ATOM     59  C   UNL A   1      43.953  32.900  30.991  1.00  0.00     0.058 A 
ATOM     60  C   UNL A   1      44.404  33.875  30.085  1.00  0.00     0.135 A 
ATOM     61  C   UNL A   1      43.677  33.312  32.305  1.00  0.00     0.135 A 
ATOM     62  F   UNL A   1      44.684  33.541  28.814  1.00  0.00    -0.206 F 
ATOM     63  C   UNL A   1      44.566  35.203  30.463  1.00  0.00     0.059 A 
ATOM     64  C   UNL A   1      43.800  34.641  32.697  1.00  0.00     0.059 A 
ATOM     65  F   UNL A   1      43.227  32.427  33.210  1.00  0.00    -0.206 F 
ATOM     66  C   UNL A   1      44.254  35.579  31.771  1.00  0.00     0.060 A 
BRANCH  66  67
ATOM     67  S   UNL A   1      44.385  37.322  32.227  1.00  0.00     0.124 S 
ATOM     68  O   UNL A   1      43.755  37.335  33.541  1.00  0.00    -0.237 OA
ATOM     69  O   UNL A   1      45.830  37.535  32.207  1.00  0.00    -0.237 OA
ATOM     70  O   UNL A   1      43.649  38.002  31.166  1.00  0.00    -0.744 OA
ENDBRANCH  66  67
ENDBRANCH  45  59
BRANCH  46  71
ATOM     71  C   UNL A   1      42.551  23.645  27.495  1.00  0.00     0.058 A 
ATOM     72  C   UNL A   1      42.176  22.565  28.309  1.00  0.00     0.135 A 
ATOM     73  C   UNL A   1      42.828  23.383  26.145  1.00  0.00     0.135 A 
ATOM     74  F   UNL A   1      41.917  22.762  29.611  1.00  0.00    -0.206 F 
ATOM     75  C   UNL A   1      42.131  21.266  27.816  1.00  0.00     0.059 A 
ATOM     76  C   UNL A   1      42.768  22.094  25.624  1.00  0.00     0.059 A 
ATOM     77  F   UNL A   1      43.179  24.387  25.327  1.00  0.00    -0.206 F 
ATOM     78  C   UNL A   1      42.447  21.038  26.476  1.00  0.00     0.060 A 
BRANCH  78  79
ATOM     79  S   UNL A   1      42.475  19.334  25.880  1.00  0.00     0.124 S 
ATOM     80  O   UNL A   1      43.342  19.451  24.711  1.00  0.00    -0.237 OA
ATOM     81  O   UNL A   1      43.041  18.622  27.022  1.00  0.00    -0.237 OA
ATOM     82  O   UNL A   1      41.073  19.050  25.596  1.00  0.00    -0.744 OA
ENDBRANCH  78  79
ENDBRANCH  46  71
BRANCH  58  83
ATOM     83  C   UNL A   1      48.082  27.063  30.088  1.00  0.00     0.058 A 
ATOM     84  C   UNL A   1      48.498  26.549  31.327  1.00  0.00     0.135 A 
ATOM     85  C   UNL A   1      49.061  27.299  29.112  1.00  0.00     0.135 A 
ATOM     86  F   UNL A   1      47.601  26.310  32.297  1.00  0.00    -0.206 F 
ATOM     87  C   UNL A   1      49.839  26.306  31.599  1.00  0.00     0.059 A 
ATOM     88  C   UNL A   1      50.406  27.040  29.352  1.00  0.00     0.059 A 
ATOM     89  F   UNL A   1      48.710  27.779  27.908  1.00  0.00    -0.206 F 
ATOM     90  C   UNL A   1      50.788  26.562  30.606  1.00  0.00     0.060 A 
BRANCH  90  91
ATOM     91  S   UNL A   1      52.526  26.248  30.979  1.00  0.00     0.124 S 
ATOM     92  O   UNL A   1      52.864  27.395  31.814  1.00  0.00    -0.237 OA
ATOM     93  O   UNL A   1      52.466  24.960  31.662  1.00  0.00    -0.237 OA
ATOM     94  O   UNL A   1      53.155  26.222  29.662  1.00  0.00    -0.744 OA
ENDBRANCH  90  91
ENDBRANCH  58  83
ENDBRANCH  32  33
ENDBRANCH  24  27
ENDBRANCH  22  23
ENDBRANCH   1  22
TORSDOF 16
ENDMDL
MODEL 3
REMARK VINA RESULT:     -11.3      4.496      7.154
REMARK SMILES NC(=O)c1c(F)cccc1O[C@@H](F)C(=O)NCCCNC(=O)c1ccc(-c2c3nc(c(-c4c(F)cc(S(=O)(=O)[O-])cc4F)c4ccc([nH]4)c(-c4c(F)cc(S(=O)(=O)[O-])cc4F)c4nc(c(-c5c(F)cc(S(=O)(=O)[O-])cc5F)c5ccc2[nH]5)C=C4)C=C3)cc1
REMARK SMILES IDX 18 1 17 2 16 3 14 4 15 5 12 7 13 8 11 9 10 10 4 11 5 12 6 13
REMARK SMILES IDX 7 14 9 15 8 16 2 17 1 18 3 21 19 22 20 23 21 24 22 26 23 27
REMARK SMILES IDX 24 28 88 29 25 30 87 31 26 32 27 33 28 34 81 35 29 36 86 37
REMARK SMILES IDX 80 38 82 39 30 40 85 41 79 42 78 43 31 45 65 46 44 47 64 48
REMARK SMILES IDX 45 49 48 50 63 51 83 52 46 53 47 54 62 56 84 57 49 58 32 59
REMARK SMILES IDX 33 60 42 61 34 62 35 63 41 64 43 65 36 66 37 67 38 68 39 69
REMARK SMILES IDX 40 70 66 71 67 72 76 73 68 74 69 75 75 76 77 77 70 78 71 79
REMARK SMILES IDX 72 80 73 81 74 82 50 83 51 84 60 85 52 86 53 87 59 88 61 89
REMARK SMILES IDX 54 90 55 91 56 92 57 93 58 94
REMARK H PARENT 16 6 1 19 1 20 20 25 82 44 48 55
REMARK Flexibility Score: inf
ROOT
ATOM      1  C   UNL A   1      36.784  31.722  33.328  1.00  0.00     0.042 C 
ENDROOT
BRANCH   1   2
ATOM      2  C   UNL A   1      37.028  32.994  32.537  1.00  0.00     0.118 C 
BRANCH   2   3
ATOM      3  N   UNL A   1      36.616  34.220  33.169  1.00  0.00    -0.350 N 
ATOM      4  C   UNL A   1      35.355  34.692  33.388  1.00  0.00     0.294 C 
ATOM      5  O   UNL A   1      35.291  35.704  34.103  1.00  0.00    -0.267 OA
ATOM      6  H   UNL A   1      37.346  34.799  33.488  1.00  0.00     0.163 HD
BRANCH   4   7
ATOM      7  C   UNL A   1      34.037  34.078  32.766  1.00  0.00     0.440 C 
ATOM      8  F   UNL A   1      33.583  33.051  33.543  1.00  0.00    -0.191 F 
BRANCH   7   9
ATOM      9  O   UNL A   1      33.680  33.794  31.432  1.00  0.00    -0.451 OA
BRANCH   9  10
ATOM     10  C   UNL A   1      33.934  34.629  30.390  1.00  0.00     0.139 A 
ATOM     11  C   UNL A   1      33.598  35.975  30.214  1.00  0.00     0.117 A 
ATOM     12  C   UNL A   1      33.755  36.563  28.950  1.00  0.00     0.139 A 
ATOM     13  F   UNL A   1      33.362  37.828  28.734  1.00  0.00    -0.206 F 
ATOM     14  C   UNL A   1      34.269  35.845  27.873  1.00  0.00     0.040 A 
ATOM     15  C   UNL A   1      34.547  33.946  29.319  1.00  0.00     0.047 A 
ATOM     16  C   UNL A   1      34.693  34.537  28.064  1.00  0.00     0.007 A 
BRANCH  11  17
ATOM     17  C   UNL A   1      33.071  36.831  31.286  1.00  0.00     0.255 C 
ATOM     18  N   UNL A   1      33.964  37.697  31.857  1.00  0.00    -0.365 N 
ATOM     19  H   UNL A   1      33.674  38.298  32.581  1.00  0.00     0.159 HD
ATOM     20  H   UNL A   1      34.898  37.719  31.543  1.00  0.00     0.159 HD
ATOM     21  O   UNL A   1      31.912  36.750  31.650  1.00  0.00    -0.269 OA
ENDBRANCH  11  17
ENDBRANCH   9  10
ENDBRANCH   7   9
ENDBRANCH   4   7
ENDBRANCH   2   3
ENDBRANCH   1   2
BRANCH   1  22
ATOM     22  C   UNL A   1      36.703  30.466  32.469  1.00  0.00     0.118 C 
BRANCH  22  23
ATOM     23  N   UNL A   1      36.041  30.637  31.178  1.00  0.00    -0.352 N 
ATOM     24  C   UNL A   1      36.473  30.608  29.869  1.00  0.00     0.251 C 
ATOM     25  H   UNL A   1      35.076  30.810  31.261  1.00  0.00     0.163 HD
ATOM     26  O   UNL A   1      35.643  30.829  28.987  1.00  0.00    -0.269 OA
BRANCH  24  27
ATOM     27  C   UNL A   1      37.891  30.384  29.498  1.00  0.00     0.039 A 
ATOM     28  C   UNL A   1      38.893  30.598  30.454  1.00  0.00     0.014 A 
ATOM     29  C   UNL A   1      38.266  29.970  28.227  1.00  0.00     0.014 A 
ATOM     30  C   UNL A   1      40.226  30.276  30.164  1.00  0.00     0.010 A 
ATOM     31  C   UNL A   1      39.549  29.494  27.994  1.00  0.00     0.010 A 
ATOM     32  C   UNL A   1      40.554  29.641  28.956  1.00  0.00    -0.014 A 
BRANCH  32  33
ATOM     33  C   UNL A   1      41.917  29.112  28.658  1.00  0.00     0.031 A 
ATOM     34  C   UNL A   1      43.100  30.048  28.609  1.00  0.00     0.074 A 
ATOM     35  C   UNL A   1      42.071  27.825  28.287  1.00  0.00     0.049 A 
ATOM     36  N   UNL A   1      44.311  29.831  28.161  1.00  0.00    -0.248 NA
ATOM     37  C   UNL A   1      42.876  31.431  29.063  1.00  0.00     0.031 C 
ATOM     38  C   UNL A   1      41.000  26.828  28.208  1.00  0.00     0.029 A 
ATOM     39  N   UNL A   1      43.189  27.136  27.883  1.00  0.00    -0.354 N 
ATOM     40  C   UNL A   1      44.964  31.057  28.219  1.00  0.00     0.074 A 
ATOM     41  C   UNL A   1      43.999  32.026  28.690  1.00  0.00     0.031 C 
ATOM     42  C   UNL A   1      41.517  25.652  27.824  1.00  0.00     0.029 A 
ATOM     43  C   UNL A   1      42.944  25.818  27.571  1.00  0.00     0.049 A 
ATOM     44  H   UNL A   1      44.081  27.545  27.823  1.00  0.00     0.167 HD
ATOM     45  C   UNL A   1      46.257  31.346  27.938  1.00  0.00     0.037 A 
ATOM     46  C   UNL A   1      43.767  24.850  27.122  1.00  0.00     0.037 A 
ATOM     47  C   UNL A   1      47.233  30.359  27.561  1.00  0.00     0.049 A 
ATOM     48  C   UNL A   1      45.216  25.167  26.896  1.00  0.00     0.074 A 
ATOM     49  C   UNL A   1      48.594  30.524  27.378  1.00  0.00     0.029 A 
ATOM     50  N   UNL A   1      46.955  29.020  27.324  1.00  0.00    -0.354 N 
ATOM     51  N   UNL A   1      45.832  26.319  27.020  1.00  0.00    -0.248 NA
ATOM     52  C   UNL A   1      46.084  24.060  26.473  1.00  0.00     0.031 C 
ATOM     53  C   UNL A   1      49.134  29.293  26.992  1.00  0.00     0.029 A 
ATOM     54  C   UNL A   1      48.116  28.350  26.978  1.00  0.00     0.049 A 
ATOM     55  H   UNL A   1      46.064  28.607  27.393  1.00  0.00     0.167 HD
ATOM     56  C   UNL A   1      47.162  26.074  26.702  1.00  0.00     0.074 A 
ATOM     57  C   UNL A   1      47.265  24.662  26.393  1.00  0.00     0.031 C 
ATOM     58  C   UNL A   1      48.202  26.944  26.669  1.00  0.00     0.037 A 
BRANCH  45  59
ATOM     59  C   UNL A   1      46.695  32.783  28.047  1.00  0.00     0.058 A 
ATOM     60  C   UNL A   1      46.521  33.664  26.966  1.00  0.00     0.135 A 
ATOM     61  C   UNL A   1      47.301  33.291  29.208  1.00  0.00     0.135 A 
ATOM     62  F   UNL A   1      45.947  33.237  25.830  1.00  0.00    -0.206 F 
ATOM     63  C   UNL A   1      46.923  34.994  27.036  1.00  0.00     0.059 A 
ATOM     64  C   UNL A   1      47.681  34.625  29.313  1.00  0.00     0.059 A 
ATOM     65  F   UNL A   1      47.478  32.499  30.278  1.00  0.00    -0.206 F 
ATOM     66  C   UNL A   1      47.495  35.468  28.218  1.00  0.00     0.060 A 
BRANCH  66  67
ATOM     67  S   UNL A   1      47.934  37.217  28.328  1.00  0.00     0.124 S 
ATOM     68  O   UNL A   1      49.382  37.172  28.169  1.00  0.00    -0.237 OA
ATOM     69  O   UNL A   1      47.185  37.791  27.214  1.00  0.00    -0.237 OA
ATOM     70  O   UNL A   1      47.456  37.599  29.653  1.00  0.00    -0.744 OA
ENDBRANCH  66  67
ENDBRANCH  45  59
BRANCH  46  71
ATOM     71  C   UNL A   1      43.223  23.483  26.914  1.00  0.00     0.058 A 
ATOM     72  C   UNL A   1      43.039  22.598  27.988  1.00  0.00     0.135 A 
ATOM     73  C   UNL A   1      42.986  23.000  25.619  1.00  0.00     0.135 A 
ATOM     74  F   UNL A   1      43.268  23.009  29.245  1.00  0.00    -0.206 F 
ATOM     75  C   UNL A   1      42.687  21.269  27.781  1.00  0.00     0.059 A 
ATOM     76  C   UNL A   1      42.612  21.679  25.389  1.00  0.00     0.059 A 
ATOM     77  F   UNL A   1      43.138  23.813  24.563  1.00  0.00    -0.206 F 
ATOM     78  C   UNL A   1      42.494  20.814  26.476  1.00  0.00     0.060 A 
BRANCH  78  79
ATOM     79  S   UNL A   1      42.132  19.063  26.224  1.00  0.00     0.124 S 
ATOM     80  O   UNL A   1      43.097  18.716  25.185  1.00  0.00    -0.237 OA
ATOM     81  O   UNL A   1      42.393  18.505  27.547  1.00  0.00    -0.237 OA
ATOM     82  O   UNL A   1      40.734  19.062  25.807  1.00  0.00    -0.744 OA
ENDBRANCH  78  79
ENDBRANCH  46  71
BRANCH  58  83
ATOM     83  C   UNL A   1      49.553  26.405  26.292  1.00  0.00     0.058 A 
ATOM     84  C   UNL A   1      50.377  25.812  27.262  1.00  0.00     0.135 A 
ATOM     85  C   UNL A   1      50.070  26.565  24.998  1.00  0.00     0.135 A 
ATOM     86  F   UNL A   1      49.932  25.641  28.517  1.00  0.00    -0.206 F 
ATOM     87  C   UNL A   1      51.678  25.420  26.968  1.00  0.00     0.059 A 
ATOM     88  C   UNL A   1      51.360  26.157  24.674  1.00  0.00     0.059 A 
ATOM     89  F   UNL A   1      49.315  27.115  24.034  1.00  0.00    -0.206 F 
ATOM     90  C   UNL A   1      52.163  25.604  25.672  1.00  0.00     0.060 A 
BRANCH  90  91
ATOM     91  S   UNL A   1      53.857  25.096  25.309  1.00  0.00     0.124 S 
ATOM     92  O   UNL A   1      54.159  25.889  24.123  1.00  0.00    -0.237 OA
ATOM     93  O   UNL A   1      54.562  25.481  26.528  1.00  0.00    -0.237 OA
ATOM     94  O   UNL A   1      53.739  23.657  25.091  1.00  0.00    -0.744 OA
ENDBRANCH  90  91
ENDBRANCH  58  83
ENDBRANCH  32  33
ENDBRANCH  24  27
ENDBRANCH  22  23
ENDBRANCH   1  22
TORSDOF 16
ENDMDL
