MODEL 1
REMARK VINA RESULT:     -13.3      0.000      0.000
REMARK SMILES COc1ccc(-c2ccc(/C=C3\SC(=S)N([C@H](Cc4ccccc4)C(=O)NCCCNC(=O)c4ccc(-c5c6nc(c(-c7c(F)cc(S(=O)(=O)[O-])cc7F)c7ccc([nH]7)c(-c7c(F)cc(S(=O)(=O)[O-])cc7F)c7nc(c(-c8c(F)cc(S(=O)(=O)[O-])cc8F)c8ccc5[nH]8)C=C7)C=C6)cc4)C3=O)o2)cc1
REMARK SMILES IDX 28 1 27 2 25 3 26 4 17 6 16 7 11 8 12 9 13 10 100 11 14 12
REMARK SMILES IDX 101 13 15 14 10 15 7 16 8 17 102 18 9 19 6 20 3 21 4 22
REMARK SMILES IDX 104 23 5 24 103 25 2 26 1 27 18 28 19 29 20 30 24 31 21 32
REMARK SMILES IDX 23 33 22 34 29 35 30 36 31 37 32 38 33 40 34 41 35 42 99 43
REMARK SMILES IDX 36 44 98 45 37 46 38 47 39 48 92 49 40 50 97 51 91 52 93 53
REMARK SMILES IDX 41 54 96 55 90 56 89 57 42 59 76 60 55 61 75 62 56 63 59 64
REMARK SMILES IDX 74 65 94 66 57 67 58 68 73 70 95 71 60 72 43 73 44 74 53 75
REMARK SMILES IDX 45 76 46 77 52 78 54 79 47 80 48 81 49 82 50 83 51 84 77 85
REMARK SMILES IDX 78 86 87 87 79 88 80 89 86 90 88 91 81 92 82 93 83 94 84 95
REMARK SMILES IDX 85 96 61 97 62 98 71 99 63 100 64 101 70 102 72 103 65 104
REMARK SMILES IDX 66 105 67 106 68 107 69 108
REMARK H PARENT 27 5 31 39 93 58 59 69
REMARK Flexibility Score: inf
ROOT
ATOM      1  C   UNL A   1      33.287  29.657  26.077  1.00  0.00     0.117 C 
ENDROOT
BRANCH   1   2
ATOM      2  N   UNL A   1      33.536  29.661  24.644  1.00  0.00    -0.354 N 
ATOM      3  C   UNL A   1      32.906  28.982  23.637  1.00  0.00     0.243 C 
ATOM      4  O   UNL A   1      33.174  29.306  22.476  1.00  0.00    -0.273 OA
ATOM      5  H   UNL A   1      34.273  30.245  24.352  1.00  0.00     0.163 HD
BRANCH   3   6
ATOM      6  C   UNL A   1      31.947  27.792  23.910  1.00  0.00     0.185 C 
BRANCH   6   7
ATOM      7  N   UNL A   1      32.557  26.486  24.330  1.00  0.00    -0.280 N 
ATOM      8  C   UNL A   1      34.860  23.764  23.634  1.00  0.00     0.068 C 
ATOM      9  C   UNL A   1      33.948  24.570  24.194  1.00  0.00     0.084 C 
ATOM     10  S   UNL A   1      33.096  24.326  25.654  1.00  0.00    -0.054 SA
ATOM     11  C   UNL A   1      33.578  25.884  23.607  1.00  0.00     0.267 C 
ATOM     12  C   UNL A   1      32.301  25.883  25.553  1.00  0.00     0.149 C 
ATOM     13  O   UNL A   1      34.173  26.334  22.636  1.00  0.00    -0.268 OA
ATOM     14  S   UNL A   1      31.424  26.412  26.867  1.00  0.00    -0.052 S 
BRANCH   8  15
ATOM     15  C   UNL A   1      35.235  22.520  24.206  1.00  0.00     0.128 A 
ATOM     16  C   UNL A   1      35.093  20.366  24.717  1.00  0.00     0.134 A 
ATOM     17  C   UNL A   1      36.295  20.794  25.227  1.00  0.00     0.051 A 
ATOM     18  O   UNL A   1      34.444  21.398  24.114  1.00  0.00    -0.457 OA
ATOM     19  C   UNL A   1      36.380  22.169  24.916  1.00  0.00     0.051 A 
BRANCH  16  20
ATOM     20  C   UNL A   1      34.399  19.094  24.725  1.00  0.00     0.017 A 
ATOM     21  C   UNL A   1      33.027  16.651  24.747  1.00  0.00     0.118 A 
ATOM     22  C   UNL A   1      34.408  16.675  24.560  1.00  0.00     0.047 A 
ATOM     23  C   UNL A   1      32.332  17.841  24.962  1.00  0.00     0.047 A 
ATOM     24  C   UNL A   1      35.091  17.893  24.531  1.00  0.00     0.016 A 
ATOM     25  C   UNL A   1      33.018  19.057  24.953  1.00  0.00     0.016 A 
BRANCH  21  26
ATOM     26  O   UNL A   1      32.436  15.416  24.755  1.00  0.00    -0.497 OA
ATOM     27  C   UNL A   1      32.907  14.569  25.802  1.00  0.00     0.278 C 
ENDBRANCH  21  26
ENDBRANCH  16  20
ENDBRANCH   8  15
ENDBRANCH   6   7
BRANCH   6  28
ATOM     28  C   UNL A   1      30.988  27.668  22.684  1.00  0.00     0.071 C 
BRANCH  28  29
ATOM     29  C   UNL A   1      29.783  28.587  22.551  1.00  0.00    -0.045 A 
ATOM     30  C   UNL A   1      28.561  28.134  23.083  1.00  0.00     0.004 A 
ATOM     31  C   UNL A   1      29.821  29.887  22.030  1.00  0.00     0.004 A 
ATOM     32  C   UNL A   1      27.435  28.959  23.125  1.00  0.00     0.000 A 
ATOM     33  C   UNL A   1      28.703  30.724  22.099  1.00  0.00     0.000 A 
ATOM     34  C   UNL A   1      27.512  30.264  22.650  1.00  0.00     0.000 A 
ENDBRANCH  28  29
ENDBRANCH   6  28
ENDBRANCH   3   6
ENDBRANCH   1   2
BRANCH   1  35
ATOM     35  C   UNL A   1      34.309  28.842  26.861  1.00  0.00     0.042 C 
BRANCH  35  36
ATOM     36  C   UNL A   1      35.457  29.655  27.456  1.00  0.00     0.118 C 
BRANCH  36  37
ATOM     37  N   UNL A   1      35.424  29.721  28.911  1.00  0.00    -0.352 N 
ATOM     38  C   UNL A   1      36.435  29.606  29.835  1.00  0.00     0.251 C 
ATOM     39  H   UNL A   1      34.530  29.873  29.295  1.00  0.00     0.163 HD
ATOM     40  O   UNL A   1      36.153  29.547  31.029  1.00  0.00    -0.269 OA
BRANCH  38  41
ATOM     41  C   UNL A   1      37.850  29.521  29.408  1.00  0.00     0.039 A 
ATOM     42  C   UNL A   1      38.832  29.272  30.374  1.00  0.00     0.014 A 
ATOM     43  C   UNL A   1      38.221  29.696  28.073  1.00  0.00     0.014 A 
ATOM     44  C   UNL A   1      40.164  29.106  29.988  1.00  0.00     0.010 A 
ATOM     45  C   UNL A   1      39.536  29.457  27.679  1.00  0.00     0.010 A 
ATOM     46  C   UNL A   1      40.520  29.147  28.630  1.00  0.00    -0.014 A 
BRANCH  46  47
ATOM     47  C   UNL A   1      41.902  28.831  28.180  1.00  0.00     0.031 A 
ATOM     48  C   UNL A   1      42.278  27.426  27.795  1.00  0.00     0.074 A 
ATOM     49  C   UNL A   1      42.842  29.797  28.203  1.00  0.00     0.049 A 
ATOM     50  N   UNL A   1      43.452  26.943  27.480  1.00  0.00    -0.248 NA
ATOM     51  C   UNL A   1      41.197  26.428  27.789  1.00  0.00     0.031 C 
ATOM     52  C   UNL A   1      42.618  31.188  28.606  1.00  0.00     0.029 A 
ATOM     53  N   UNL A   1      44.180  29.756  27.896  1.00  0.00    -0.354 N 
ATOM     54  C   UNL A   1      43.257  25.585  27.258  1.00  0.00     0.074 A 
ATOM     55  C   UNL A   1      41.860  25.313  27.516  1.00  0.00     0.031 C 
ATOM     56  C   UNL A   1      43.771  31.868  28.506  1.00  0.00     0.029 A 
ATOM     57  C   UNL A   1      44.825  30.958  28.072  1.00  0.00     0.049 A 
ATOM     58  H   UNL A   1      44.635  28.942  27.580  1.00  0.00     0.167 HD
ATOM     59  C   UNL A   1      44.156  24.654  26.857  1.00  0.00     0.037 A 
ATOM     60  C   UNL A   1      46.121  31.289  27.915  1.00  0.00     0.037 A 
ATOM     61  C   UNL A   1      45.540  24.935  26.571  1.00  0.00     0.049 A 
ATOM     62  C   UNL A   1      47.100  30.240  27.466  1.00  0.00     0.074 A 
ATOM     63  C   UNL A   1      46.511  24.074  26.090  1.00  0.00     0.029 A 
ATOM     64  N   UNL A   1      46.150  26.169  26.741  1.00  0.00    -0.354 N 
ATOM     65  N   UNL A   1      46.884  28.974  27.200  1.00  0.00    -0.248 NA
ATOM     66  C   UNL A   1      48.496  30.662  27.292  1.00  0.00     0.031 C 
ATOM     67  C   UNL A   1      47.718  24.779  26.005  1.00  0.00     0.029 A 
ATOM     68  C   UNL A   1      47.489  26.088  26.395  1.00  0.00     0.049 A 
ATOM     69  H   UNL A   1      45.697  26.983  27.061  1.00  0.00     0.167 HD
ATOM     70  C   UNL A   1      48.113  28.452  26.815  1.00  0.00     0.074 A 
ATOM     71  C   UNL A   1      49.064  29.543  26.865  1.00  0.00     0.031 C 
ATOM     72  C   UNL A   1      48.425  27.182  26.455  1.00  0.00     0.037 A 
BRANCH  59  73
ATOM     73  C   UNL A   1      43.669  23.240  26.695  1.00  0.00     0.058 A 
ATOM     74  C   UNL A   1      43.495  22.664  25.428  1.00  0.00     0.135 A 
ATOM     75  C   UNL A   1      43.405  22.441  27.820  1.00  0.00     0.135 A 
ATOM     76  F   UNL A   1      43.719  23.387  24.319  1.00  0.00    -0.206 F 
ATOM     77  C   UNL A   1      43.047  21.356  25.279  1.00  0.00     0.059 A 
ATOM     78  C   UNL A   1      42.981  21.122  27.695  1.00  0.00     0.059 A 
ATOM     79  F   UNL A   1      43.557  22.943  29.056  1.00  0.00    -0.206 F 
ATOM     80  C   UNL A   1      42.789  20.593  26.419  1.00  0.00     0.060 A 
BRANCH  80  81
ATOM     81  S   UNL A   1      42.208  18.896  26.210  1.00  0.00     0.124 S 
ATOM     82  O   UNL A   1      40.834  19.114  25.767  1.00  0.00    -0.237 OA
ATOM     83  O   UNL A   1      43.124  18.373  25.201  1.00  0.00    -0.237 OA
ATOM     84  O   UNL A   1      42.355  18.320  27.543  1.00  0.00    -0.744 OA
ENDBRANCH  80  81
ENDBRANCH  59  73
BRANCH  60  85
ATOM     85  C   UNL A   1      46.565  32.683  28.175  1.00  0.00     0.058 A 
ATOM     86  C   UNL A   1      47.085  33.051  29.425  1.00  0.00     0.135 A 
ATOM     87  C   UNL A   1      46.500  33.669  27.179  1.00  0.00     0.135 A 
ATOM     88  F   UNL A   1      47.160  32.145  30.412  1.00  0.00    -0.206 F 
ATOM     89  C   UNL A   1      47.515  34.348  29.683  1.00  0.00     0.059 A 
ATOM     90  C   UNL A   1      46.945  34.968  27.405  1.00  0.00     0.059 A 
ATOM     91  F   UNL A   1      46.027  33.363  25.961  1.00  0.00    -0.206 F 
ATOM     92  C   UNL A   1      47.444  35.299  28.664  1.00  0.00     0.060 A 
BRANCH  92  93
ATOM     93  S   UNL A   1      48.063  36.965  28.986  1.00  0.00     0.124 S 
ATOM     94  O   UNL A   1      49.502  36.738  29.041  1.00  0.00    -0.237 OA
ATOM     95  O   UNL A   1      47.576  37.704  27.825  1.00  0.00    -0.237 OA
ATOM     96  O   UNL A   1      47.429  37.318  30.253  1.00  0.00    -0.744 OA
ENDBRANCH  92  93
ENDBRANCH  60  85
BRANCH  72  97
ATOM     97  C   UNL A   1      49.852  26.908  26.073  1.00  0.00     0.058 A 
ATOM     98  C   UNL A   1      50.784  26.438  27.011  1.00  0.00     0.135 A 
ATOM     99  C   UNL A   1      50.280  27.072  24.746  1.00  0.00     0.135 A 
ATOM    100  F   UNL A   1      50.426  26.273  28.294  1.00  0.00    -0.206 F 
ATOM    101  C   UNL A   1      52.099  26.159  26.651  1.00  0.00     0.059 A 
ATOM    102  C   UNL A   1      51.584  26.777  24.359  1.00  0.00     0.059 A 
ATOM    103  F   UNL A   1      49.425  27.511  23.809  1.00  0.00    -0.206 F 
ATOM    104  C   UNL A   1      52.489  26.332  25.322  1.00  0.00     0.060 A 
BRANCH 104 105
ATOM    105  S   UNL A   1      54.188  25.935  24.859  1.00  0.00     0.124 S 
ATOM    106  O   UNL A   1      54.947  26.709  25.836  1.00  0.00    -0.237 OA
ATOM    107  O   UNL A   1      54.230  24.486  25.028  1.00  0.00    -0.237 OA
ATOM    108  O   UNL A   1      54.282  26.401  23.479  1.00  0.00    -0.744 OA
ENDBRANCH 104 105
ENDBRANCH  72  97
ENDBRANCH  46  47
ENDBRANCH  38  41
ENDBRANCH  36  37
ENDBRANCH  35  36
ENDBRANCH   1  35
TORSDOF 19
ENDMDL
MODEL 2
REMARK VINA RESULT:     -13.2      0.532      7.813
REMARK SMILES COc1ccc(-c2ccc(/C=C3\SC(=S)N([C@H](Cc4ccccc4)C(=O)NCCCNC(=O)c4ccc(-c5c6nc(c(-c7c(F)cc(S(=O)(=O)[O-])cc7F)c7ccc([nH]7)c(-c7c(F)cc(S(=O)(=O)[O-])cc7F)c7nc(c(-c8c(F)cc(S(=O)(=O)[O-])cc8F)c8ccc5[nH]8)C=C7)C=C6)cc4)C3=O)o2)cc1
REMARK SMILES IDX 28 1 27 2 25 3 26 4 17 6 16 7 11 8 12 9 13 10 100 11 14 12
REMARK SMILES IDX 101 13 15 14 10 15 7 16 8 17 102 18 9 19 6 20 3 21 4 22
REMARK SMILES IDX 104 23 5 24 103 25 2 26 1 27 18 28 19 29 20 30 24 31 21 32
REMARK SMILES IDX 23 33 22 34 29 35 30 36 31 37 32 38 33 40 34 41 35 42 99 43
REMARK SMILES IDX 36 44 98 45 37 46 38 47 39 48 92 49 40 50 97 51 91 52 93 53
REMARK SMILES IDX 41 54 96 55 90 56 89 57 42 59 76 60 55 61 75 62 56 63 59 64
REMARK SMILES IDX 74 65 94 66 57 67 58 68 73 70 95 71 60 72 43 73 44 74 53 75
REMARK SMILES IDX 45 76 46 77 52 78 54 79 47 80 48 81 49 82 50 83 51 84 77 85
REMARK SMILES IDX 78 86 87 87 79 88 80 89 86 90 88 91 81 92 82 93 83 94 84 95
REMARK SMILES IDX 85 96 61 97 62 98 71 99 63 100 64 101 70 102 72 103 65 104
REMARK SMILES IDX 66 105 67 106 68 107 69 108
REMARK H PARENT 27 5 31 39 93 58 59 69
REMARK Flexibility Score: inf
ROOT
ATOM      1  C   UNL A   1      33.197  29.619  26.221  1.00  0.00     0.117 C 
ENDROOT
BRANCH   1   2
ATOM      2  N   UNL A   1      33.480  29.651  24.794  1.00  0.00    -0.354 N 
ATOM      3  C   UNL A   1      32.893  28.970  23.763  1.00  0.00     0.243 C 
ATOM      4  O   UNL A   1      33.179  29.318  22.613  1.00  0.00    -0.273 OA
ATOM      5  H   UNL A   1      34.207  30.259  24.528  1.00  0.00     0.163 HD
BRANCH   3   6
ATOM      6  C   UNL A   1      31.961  27.750  23.996  1.00  0.00     0.185 C 
BRANCH   6   7
ATOM      7  N   UNL A   1      32.596  26.458  24.425  1.00  0.00    -0.280 N 
ATOM      8  C   UNL A   1      34.800  23.673  23.662  1.00  0.00     0.068 C 
ATOM      9  C   UNL A   1      33.951  24.519  24.261  1.00  0.00     0.084 C 
ATOM     10  S   UNL A   1      33.236  24.362  25.804  1.00  0.00    -0.054 SA
ATOM     11  C   UNL A   1      33.540  25.807  23.643  1.00  0.00     0.267 C 
ATOM     12  C   UNL A   1      32.450  25.923  25.697  1.00  0.00     0.149 C 
ATOM     13  O   UNL A   1      34.045  26.198  22.599  1.00  0.00    -0.268 OA
ATOM     14  S   UNL A   1      31.704  26.530  27.056  1.00  0.00    -0.052 S 
BRANCH   8  15
ATOM     15  C   UNL A   1      35.215  22.455  24.261  1.00  0.00     0.128 A 
ATOM     16  C   UNL A   1      35.168  20.299  24.782  1.00  0.00     0.134 A 
ATOM     17  C   UNL A   1      36.319  20.796  25.345  1.00  0.00     0.051 A 
ATOM     18  O   UNL A   1      34.493  21.290  24.141  1.00  0.00    -0.457 OA
ATOM     19  C   UNL A   1      36.342  22.172  25.028  1.00  0.00     0.051 A 
BRANCH  16  20
ATOM     20  C   UNL A   1      34.546  18.991  24.767  1.00  0.00     0.017 A 
ATOM     21  C   UNL A   1      33.373  16.446  24.735  1.00  0.00     0.118 A 
ATOM     22  C   UNL A   1      32.573  17.582  24.835  1.00  0.00     0.047 A 
ATOM     23  C   UNL A   1      34.756  16.576  24.613  1.00  0.00     0.047 A 
ATOM     24  C   UNL A   1      33.157  18.851  24.868  1.00  0.00     0.016 A 
ATOM     25  C   UNL A   1      35.339  17.845  24.627  1.00  0.00     0.016 A 
BRANCH  21  26
ATOM     26  O   UNL A   1      32.720  15.243  24.715  1.00  0.00    -0.497 OA
ATOM     27  C   UNL A   1      32.153  14.884  25.973  1.00  0.00     0.278 C 
ENDBRANCH  21  26
ENDBRANCH  16  20
ENDBRANCH   8  15
ENDBRANCH   6   7
BRANCH   6  28
ATOM     28  C   UNL A   1      31.046  27.608  22.739  1.00  0.00     0.071 C 
BRANCH  28  29
ATOM     29  C   UNL A   1      29.826  28.502  22.569  1.00  0.00    -0.045 A 
ATOM     30  C   UNL A   1      28.613  28.056  23.126  1.00  0.00     0.004 A 
ATOM     31  C   UNL A   1      29.844  29.776  21.987  1.00  0.00     0.004 A 
ATOM     32  C   UNL A   1      27.476  28.866  23.134  1.00  0.00     0.000 A 
ATOM     33  C   UNL A   1      28.713  30.599  22.020  1.00  0.00     0.000 A 
ATOM     34  C   UNL A   1      27.531  30.148  22.597  1.00  0.00     0.000 A 
ENDBRANCH  28  29
ENDBRANCH   6  28
ENDBRANCH   3   6
ENDBRANCH   1   2
BRANCH   1  35
ATOM     35  C   UNL A   1      33.976  30.664  27.010  1.00  0.00     0.042 C 
BRANCH  35  36
ATOM     36  C   UNL A   1      35.190  30.126  27.765  1.00  0.00     0.118 C 
BRANCH  36  37
ATOM     37  N   UNL A   1      35.281  30.616  29.134  1.00  0.00    -0.352 N 
ATOM     38  C   UNL A   1      36.294  30.505  30.058  1.00  0.00     0.251 C 
ATOM     39  H   UNL A   1      34.487  31.106  29.449  1.00  0.00     0.163 HD
ATOM     40  O   UNL A   1      36.095  30.871  31.213  1.00  0.00    -0.269 OA
BRANCH  38  41
ATOM     41  C   UNL A   1      37.604  29.924  29.685  1.00  0.00     0.039 A 
ATOM     42  C   UNL A   1      37.984  29.928  28.338  1.00  0.00     0.014 A 
ATOM     43  C   UNL A   1      38.453  29.366  30.643  1.00  0.00     0.014 A 
ATOM     44  C   UNL A   1      39.248  29.460  27.968  1.00  0.00     0.010 A 
ATOM     45  C   UNL A   1      39.740  28.969  30.284  1.00  0.00     0.010 A 
ATOM     46  C   UNL A   1      40.157  29.023  28.946  1.00  0.00    -0.014 A 
BRANCH  46  47
ATOM     47  C   UNL A   1      41.555  28.657  28.596  1.00  0.00     0.031 A 
ATOM     48  C   UNL A   1      42.625  29.712  28.523  1.00  0.00     0.074 A 
ATOM     49  C   UNL A   1      41.841  27.383  28.259  1.00  0.00     0.049 A 
ATOM     50  N   UNL A   1      43.869  29.599  28.136  1.00  0.00    -0.248 NA
ATOM     51  C   UNL A   1      42.238  31.078  28.910  1.00  0.00     0.031 C 
ATOM     52  C   UNL A   1      40.881  26.277  28.239  1.00  0.00     0.029 A 
ATOM     53  N   UNL A   1      43.017  26.805  27.851  1.00  0.00    -0.354 N 
ATOM     54  C   UNL A   1      44.409  30.878  28.213  1.00  0.00     0.074 A 
ATOM     55  C   UNL A   1      43.345  31.758  28.644  1.00  0.00     0.031 C 
ATOM     56  C   UNL A   1      41.509  25.153  27.857  1.00  0.00     0.029 A 
ATOM     57  C   UNL A   1      42.904  25.464  27.565  1.00  0.00     0.049 A 
ATOM     58  H   UNL A   1      43.862  27.303  27.771  1.00  0.00     0.167 HD
ATOM     59  C   UNL A   1      45.680  31.278  27.967  1.00  0.00     0.037 A 
ATOM     60  C   UNL A   1      43.817  24.585  27.107  1.00  0.00     0.037 A 
ATOM     61  C   UNL A   1      46.744  30.393  27.568  1.00  0.00     0.049 A 
ATOM     62  C   UNL A   1      45.221  25.051  26.844  1.00  0.00     0.074 A 
ATOM     63  C   UNL A   1      48.080  30.691  27.365  1.00  0.00     0.029 A 
ATOM     64  N   UNL A   1      46.595  29.038  27.310  1.00  0.00    -0.354 N 
ATOM     65  N   UNL A   1      45.728  26.253  26.984  1.00  0.00    -0.248 NA
ATOM     66  C   UNL A   1      46.178  24.045  26.366  1.00  0.00     0.031 C 
ATOM     67  C   UNL A   1      48.732  29.524  26.947  1.00  0.00     0.029 A 
ATOM     68  C   UNL A   1      47.809  28.491  26.928  1.00  0.00     0.049 A 
ATOM     69  H   UNL A   1      45.749  28.539  27.386  1.00  0.00     0.167 HD
ATOM     70  C   UNL A   1      47.066  26.144  26.623  1.00  0.00     0.074 A 
ATOM     71  C   UNL A   1      47.293  24.756  26.277  1.00  0.00     0.031 C 
ATOM     72  C   UNL A   1      48.019  27.108  26.581  1.00  0.00     0.037 A 
BRANCH  59  73
ATOM     73  C   UNL A   1      45.993  32.740  28.129  1.00  0.00     0.058 A 
ATOM     74  C   UNL A   1      46.454  33.261  29.348  1.00  0.00     0.135 A 
ATOM     75  C   UNL A   1      45.863  33.624  27.046  1.00  0.00     0.135 A 
ATOM     76  F   UNL A   1      46.583  32.463  30.419  1.00  0.00    -0.206 F 
ATOM     77  C   UNL A   1      46.746  34.613  29.497  1.00  0.00     0.059 A 
ATOM     78  C   UNL A   1      46.174  34.975  27.165  1.00  0.00     0.059 A 
ATOM     79  F   UNL A   1      45.428  33.177  25.857  1.00  0.00    -0.206 F 
ATOM     80  C   UNL A   1      46.600  35.463  28.400  1.00  0.00     0.060 A 
BRANCH  80  81
ATOM     81  S   UNL A   1      46.982  37.215  28.609  1.00  0.00     0.124 S 
ATOM     82  O   UNL A   1      48.167  37.355  27.767  1.00  0.00    -0.237 OA
ATOM     83  O   UNL A   1      45.772  37.862  28.113  1.00  0.00    -0.237 OA
ATOM     84  O   UNL A   1      47.214  37.344  30.045  1.00  0.00    -0.744 OA
ENDBRANCH  80  81
ENDBRANCH  59  73
BRANCH  60  85
ATOM     85  C   UNL A   1      43.429  23.168  26.879  1.00  0.00     0.058 A 
ATOM     86  C   UNL A   1      43.158  22.314  27.958  1.00  0.00     0.135 A 
ATOM     87  C   UNL A   1      43.301  22.646  25.583  1.00  0.00     0.135 A 
ATOM     88  F   UNL A   1      43.275  22.766  29.215  1.00  0.00    -0.206 F 
ATOM     89  C   UNL A   1      42.784  20.989  27.762  1.00  0.00     0.059 A 
ATOM     90  C   UNL A   1      42.906  21.331  25.360  1.00  0.00     0.059 A 
ATOM     91  F   UNL A   1      43.532  23.428  24.517  1.00  0.00    -0.206 F 
ATOM     92  C   UNL A   1      42.657  20.507  26.459  1.00  0.00     0.060 A 
BRANCH  92  93
ATOM     93  S   UNL A   1      42.110  18.804  26.211  1.00  0.00     0.124 S 
ATOM     94  O   UNL A   1      42.277  18.245  27.548  1.00  0.00    -0.237 OA
ATOM     95  O   UNL A   1      40.732  18.985  25.763  1.00  0.00    -0.237 OA
ATOM     96  O   UNL A   1      43.029  18.302  25.195  1.00  0.00    -0.744 OA
ENDBRANCH  92  93
ENDBRANCH  60  85
BRANCH  72  97
ATOM     97  C   UNL A   1      49.399  26.692  26.158  1.00  0.00     0.058 A 
ATOM     98  C   UNL A   1      49.812  26.778  24.819  1.00  0.00     0.135 A 
ATOM     99  C   UNL A   1      50.332  26.245  27.106  1.00  0.00     0.135 A 
ATOM    100  F   UNL A   1      48.955  27.192  23.874  1.00  0.00    -0.206 F 
ATOM    101  C   UNL A   1      51.099  26.417  24.432  1.00  0.00     0.059 A 
ATOM    102  C   UNL A   1      51.632  25.901  26.745  1.00  0.00     0.059 A 
ATOM    103  F   UNL A   1      49.990  26.151  28.401  1.00  0.00    -0.206 F 
ATOM    104  C   UNL A   1      52.001  25.980  25.402  1.00  0.00     0.060 A 
BRANCH 104 105
ATOM    105  S   UNL A   1      53.678  25.546  24.893  1.00  0.00     0.124 S 
ATOM    106  O   UNL A   1      53.688  24.104  25.117  1.00  0.00    -0.237 OA
ATOM    107  O   UNL A   1      53.703  25.972  23.498  1.00  0.00    -0.237 OA
ATOM    108  O   UNL A   1      54.520  26.327  25.795  1.00  0.00    -0.744 OA
ENDBRANCH 104 105
ENDBRANCH  72  97
ENDBRANCH  46  47
ENDBRANCH  38  41
ENDBRANCH  36  37
ENDBRANCH  35  36
ENDBRANCH   1  35
TORSDOF 19
ENDMDL
MODEL 3
REMARK VINA RESULT:     -11.2      8.520     14.729
REMARK SMILES COc1ccc(-c2ccc(/C=C3\SC(=S)N([C@H](Cc4ccccc4)C(=O)NCCCNC(=O)c4ccc(-c5c6nc(c(-c7c(F)cc(S(=O)(=O)[O-])cc7F)c7ccc([nH]7)c(-c7c(F)cc(S(=O)(=O)[O-])cc7F)c7nc(c(-c8c(F)cc(S(=O)(=O)[O-])cc8F)c8ccc5[nH]8)C=C7)C=C6)cc4)C3=O)o2)cc1
REMARK SMILES IDX 28 1 27 2 25 3 26 4 17 6 16 7 11 8 12 9 13 10 100 11 14 12
REMARK SMILES IDX 101 13 15 14 10 15 7 16 8 17 102 18 9 19 6 20 3 21 4 22
REMARK SMILES IDX 104 23 5 24 103 25 2 26 1 27 18 28 19 29 20 30 24 31 21 32
REMARK SMILES IDX 23 33 22 34 29 35 30 36 31 37 32 38 33 40 34 41 35 42 99 43
REMARK SMILES IDX 36 44 98 45 37 46 38 47 39 48 92 49 40 50 97 51 91 52 93 53
REMARK SMILES IDX 41 54 96 55 90 56 89 57 42 59 76 60 55 61 75 62 56 63 59 64
REMARK SMILES IDX 74 65 94 66 57 67 58 68 73 70 95 71 60 72 43 73 44 74 53 75
REMARK SMILES IDX 45 76 46 77 52 78 54 79 47 80 48 81 49 82 50 83 51 84 77 85
REMARK SMILES IDX 78 86 87 87 79 88 80 89 86 90 88 91 81 92 82 93 83 94 84 95
REMARK SMILES IDX 85 96 61 97 62 98 71 99 63 100 64 101 70 102 72 103 65 104
REMARK SMILES IDX 66 105 67 106 68 107 69 108
REMARK H PARENT 27 5 31 39 93 58 59 69
REMARK Flexibility Score: inf
ROOT
ATOM      1  C   UNL A   1      50.068  21.897  34.306  1.00  0.00     0.117 C 
ENDROOT
BRANCH   1   2
ATOM      2  N   UNL A   1      49.482  20.635  33.884  1.00  0.00    -0.354 N 
ATOM      3  C   UNL A   1      48.214  20.150  34.056  1.00  0.00     0.243 C 
ATOM      4  O   UNL A   1      47.903  19.131  33.431  1.00  0.00    -0.273 OA
ATOM      5  H   UNL A   1      50.092  20.035  33.397  1.00  0.00     0.163 HD
BRANCH   3   6
ATOM      6  C   UNL A   1      47.208  20.787  35.052  1.00  0.00     0.185 C 
BRANCH   6   7
ATOM      7  N   UNL A   1      46.747  19.949  36.210  1.00  0.00    -0.280 N 
ATOM      8  C   UNL A   1      44.416  17.502  37.544  1.00  0.00     0.068 C 
ATOM      9  C   UNL A   1      45.415  18.382  37.392  1.00  0.00     0.084 C 
ATOM     10  S   UNL A   1      46.539  18.899  38.569  1.00  0.00    -0.054 SA
ATOM     11  C   UNL A   1      45.723  19.020  36.085  1.00  0.00     0.267 C 
ATOM     12  C   UNL A   1      47.420  19.886  37.422  1.00  0.00     0.149 C 
ATOM     13  O   UNL A   1      45.138  18.685  35.063  1.00  0.00    -0.268 OA
ATOM     14  S   UNL A   1      48.871  20.552  37.899  1.00  0.00    -0.052 S 
BRANCH   8  15
ATOM     15  C   UNL A   1      44.136  16.871  38.785  1.00  0.00     0.128 A 
ATOM     16  C   UNL A   1      44.194  16.527  40.976  1.00  0.00     0.134 A 
ATOM     17  C   UNL A   1      43.337  15.580  40.469  1.00  0.00     0.051 A 
ATOM     18  O   UNL A   1      44.689  17.298  39.970  1.00  0.00    -0.457 OA
ATOM     19  C   UNL A   1      43.311  15.788  39.073  1.00  0.00     0.051 A 
BRANCH  16  20
ATOM     20  C   UNL A   1      44.678  16.829  42.307  1.00  0.00     0.017 A 
ATOM     21  C   UNL A   1      45.589  17.434  44.887  1.00  0.00     0.118 A 
ATOM     22  C   UNL A   1      46.285  16.521  44.098  1.00  0.00     0.047 A 
ATOM     23  C   UNL A   1      44.460  18.077  44.379  1.00  0.00     0.047 A 
ATOM     24  C   UNL A   1      45.822  16.204  42.818  1.00  0.00     0.016 A 
ATOM     25  C   UNL A   1      44.009  17.775  43.093  1.00  0.00     0.016 A 
BRANCH  21  26
ATOM     26  O   UNL A   1      46.107  17.682  46.130  1.00  0.00    -0.497 OA
ATOM     27  C   UNL A   1      47.419  17.155  46.312  1.00  0.00     0.278 C 
ENDBRANCH  21  26
ENDBRANCH  16  20
ENDBRANCH   8  15
ENDBRANCH   6   7
BRANCH   6  28
ATOM     28  C   UNL A   1      46.038  21.395  34.218  1.00  0.00     0.071 C 
BRANCH  28  29
ATOM     29  C   UNL A   1      45.326  22.654  34.691  1.00  0.00    -0.045 A 
ATOM     30  C   UNL A   1      44.562  23.362  33.744  1.00  0.00     0.004 A 
ATOM     31  C   UNL A   1      45.294  23.104  36.018  1.00  0.00     0.004 A 
ATOM     32  C   UNL A   1      43.770  24.450  34.116  1.00  0.00     0.000 A 
ATOM     33  C   UNL A   1      44.479  24.176  36.396  1.00  0.00     0.000 A 
ATOM     34  C   UNL A   1      43.714  24.846  35.448  1.00  0.00     0.000 A 
ENDBRANCH  28  29
ENDBRANCH   6  28
ENDBRANCH   3   6
ENDBRANCH   1   2
BRANCH   1  35
ATOM     35  C   UNL A   1      51.169  22.388  33.374  1.00  0.00     0.042 C 
BRANCH  35  36
ATOM     36  C   UNL A   1      51.336  23.905  33.320  1.00  0.00     0.118 C 
BRANCH  36  37
ATOM     37  N   UNL A   1      51.748  24.486  34.592  1.00  0.00    -0.352 N 
ATOM     38  C   UNL A   1      51.170  25.476  35.352  1.00  0.00     0.251 C 
ATOM     39  H   UNL A   1      52.575  24.106  34.968  1.00  0.00     0.163 HD
ATOM     40  O   UNL A   1      51.775  25.913  36.327  1.00  0.00    -0.269 OA
BRANCH  38  41
ATOM     41  C   UNL A   1      49.849  26.039  34.991  1.00  0.00     0.039 A 
ATOM     42  C   UNL A   1      49.803  27.191  34.197  1.00  0.00     0.014 A 
ATOM     43  C   UNL A   1      48.661  25.456  35.436  1.00  0.00     0.014 A 
ATOM     44  C   UNL A   1      48.571  27.697  33.774  1.00  0.00     0.010 A 
ATOM     45  C   UNL A   1      47.437  25.916  34.953  1.00  0.00     0.010 A 
ATOM     46  C   UNL A   1      47.378  27.034  34.108  1.00  0.00    -0.014 A 
BRANCH  46  47
ATOM     47  C   UNL A   1      46.069  27.468  33.553  1.00  0.00     0.031 A 
ATOM     48  C   UNL A   1      45.547  26.874  32.272  1.00  0.00     0.074 A 
ATOM     49  C   UNL A   1      45.389  28.461  34.160  1.00  0.00     0.049 A 
ATOM     50  N   UNL A   1      44.483  27.200  31.586  1.00  0.00    -0.248 NA
ATOM     51  C   UNL A   1      46.341  25.791  31.671  1.00  0.00     0.031 C 
ATOM     52  C   UNL A   1      45.813  29.155  35.379  1.00  0.00     0.029 A 
ATOM     53  N   UNL A   1      44.206  29.074  33.828  1.00  0.00    -0.354 N 
ATOM     54  C   UNL A   1      44.488  26.379  30.464  1.00  0.00     0.074 A 
ATOM     55  C   UNL A   1      45.684  25.569  30.541  1.00  0.00     0.031 C 
ATOM     56  C   UNL A   1      44.898  30.084  35.699  1.00  0.00     0.029 A 
ATOM     57  C   UNL A   1      43.844  30.082  34.691  1.00  0.00     0.049 A 
ATOM     58  H   UNL A   1      43.668  28.816  33.045  1.00  0.00     0.167 HD
ATOM     59  C   UNL A   1      43.570  26.294  29.472  1.00  0.00     0.037 A 
ATOM     60  C   UNL A   1      42.790  30.920  34.667  1.00  0.00     0.037 A 
ATOM     61  C   UNL A   1      42.364  27.080  29.414  1.00  0.00     0.049 A 
ATOM     62  C   UNL A   1      41.782  30.804  33.558  1.00  0.00     0.074 A 
ATOM     63  C   UNL A   1      41.338  27.015  28.488  1.00  0.00     0.029 A 
ATOM     64  N   UNL A   1      42.022  28.075  30.318  1.00  0.00    -0.354 N 
ATOM     65  N   UNL A   1      41.772  29.978  32.539  1.00  0.00    -0.248 NA
ATOM     66  C   UNL A   1      40.643  31.730  33.594  1.00  0.00     0.031 C 
ATOM     67  C   UNL A   1      40.393  27.997  28.811  1.00  0.00     0.029 A 
ATOM     68  C   UNL A   1      40.813  28.646  29.961  1.00  0.00     0.049 A 
ATOM     69  H   UNL A   1      42.562  28.337  31.100  1.00  0.00     0.167 HD
ATOM     70  C   UNL A   1      40.619  30.276  31.822  1.00  0.00     0.074 A 
ATOM     71  C   UNL A   1      39.949  31.345  32.532  1.00  0.00     0.031 C 
ATOM     72  C   UNL A   1      40.160  29.714  30.676  1.00  0.00     0.037 A 
BRANCH  59  73
ATOM     73  C   UNL A   1      43.829  25.308  28.365  1.00  0.00     0.058 A 
ATOM     74  C   UNL A   1      43.388  23.978  28.448  1.00  0.00     0.135 A 
ATOM     75  C   UNL A   1      44.497  25.705  27.196  1.00  0.00     0.135 A 
ATOM     76  F   UNL A   1      42.757  23.543  29.550  1.00  0.00    -0.206 F 
ATOM     77  C   UNL A   1      43.626  23.068  27.424  1.00  0.00     0.059 A 
ATOM     78  C   UNL A   1      44.724  24.818  26.148  1.00  0.00     0.059 A 
ATOM     79  F   UNL A   1      44.939  26.966  27.064  1.00  0.00    -0.206 F 
ATOM     80  C   UNL A   1      44.298  23.496  26.278  1.00  0.00     0.060 A 
BRANCH  80  81
ATOM     81  S   UNL A   1      44.600  22.303  24.958  1.00  0.00     0.124 S 
ATOM     82  O   UNL A   1      43.289  21.673  24.831  1.00  0.00    -0.237 OA
ATOM     83  O   UNL A   1      45.002  23.160  23.846  1.00  0.00    -0.237 OA
ATOM     84  O   UNL A   1      45.655  21.453  25.502  1.00  0.00    -0.744 OA
ENDBRANCH  80  81
ENDBRANCH  59  73
BRANCH  60  85
ATOM     85  C   UNL A   1      42.629  31.937  35.739  1.00  0.00     0.058 A 
ATOM     86  C   UNL A   1      43.238  33.196  35.633  1.00  0.00     0.135 A 
ATOM     87  C   UNL A   1      41.850  31.681  36.878  1.00  0.00     0.135 A 
ATOM     88  F   UNL A   1      43.999  33.484  34.567  1.00  0.00    -0.206 F 
ATOM     89  C   UNL A   1      43.090  34.163  36.622  1.00  0.00     0.059 A 
ATOM     90  C   UNL A   1      41.668  32.640  37.870  1.00  0.00     0.059 A 
ATOM     91  F   UNL A   1      41.232  30.498  37.018  1.00  0.00    -0.206 F 
ATOM     92  C   UNL A   1      42.299  33.876  37.735  1.00  0.00     0.060 A 
BRANCH  92  93
ATOM     93  S   UNL A   1      42.060  35.159  38.984  1.00  0.00     0.124 S 
ATOM     94  O   UNL A   1      43.436  35.543  39.277  1.00  0.00    -0.237 OA
ATOM     95  O   UNL A   1      41.261  36.145  38.263  1.00  0.00    -0.237 OA
ATOM     96  O   UNL A   1      41.357  34.457  40.053  1.00  0.00    -0.744 OA
ENDBRANCH  92  93
ENDBRANCH  60  85
BRANCH  72  97
ATOM     97  C   UNL A   1      38.863  30.238  30.126  1.00  0.00     0.058 A 
ATOM     98  C   UNL A   1      37.670  29.509  30.245  1.00  0.00     0.135 A 
ATOM     99  C   UNL A   1      38.805  31.501  29.515  1.00  0.00     0.135 A 
ATOM    100  F   UNL A   1      37.674  28.294  30.814  1.00  0.00    -0.206 F 
ATOM    101  C   UNL A   1      36.464  30.007  29.759  1.00  0.00     0.059 A 
ATOM    102  C   UNL A   1      37.606  32.027  29.043  1.00  0.00     0.059 A 
ATOM    103  F   UNL A   1      39.917  32.241  29.384  1.00  0.00    -0.206 F 
ATOM    104  C   UNL A   1      36.443  31.267  29.160  1.00  0.00     0.060 A 
BRANCH 104 105
ATOM    105  S   UNL A   1      34.868  31.916  28.563  1.00  0.00     0.124 S 
ATOM    106  O   UNL A   1      35.310  32.955  27.639  1.00  0.00    -0.237 OA
ATOM    107  O   UNL A   1      34.256  30.742  27.950  1.00  0.00    -0.237 OA
ATOM    108  O   UNL A   1      34.215  32.394  29.778  1.00  0.00    -0.744 OA
ENDBRANCH 104 105
ENDBRANCH  72  97
ENDBRANCH  46  47
ENDBRANCH  38  41
ENDBRANCH  36  37
ENDBRANCH  35  36
ENDBRANCH   1  35
TORSDOF 19
ENDMDL
