MODEL 1
REMARK VINA RESULT:     -12.6      0.000      0.000
REMARK SMILES Nc1ccc(-c2cc(O)ccc2Cl)c(C(=O)NCCCNC(=O)c2ccc(-c3c4nc(c(-c5c(F)cc(S(=O)(=O)[O-])cc5F)c5ccc([nH]5)c(-c5c(F)cc(S(=O)(=O)[O-])cc5F)c5nc(c(-c6c(F)cc(S(=O)(=O)[O-])cc6F)c6ccc3[nH]6)C=C5)C=C4)cc2)n1
REMARK SMILES IDX 19 1 18 2 17 3 15 4 16 5 14 7 2 8 3 9 90 10 4 11 5 12 1 13
REMARK SMILES IDX 6 16 7 17 12 18 8 19 11 20 13 21 10 22 9 23 20 25 21 26
REMARK SMILES IDX 22 27 23 29 24 30 25 31 89 32 26 33 88 34 27 35 28 36 29 37
REMARK SMILES IDX 82 38 30 39 87 40 81 41 83 42 31 43 86 44 80 45 79 46 32 48
REMARK SMILES IDX 66 49 45 50 65 51 46 52 49 53 64 54 84 55 47 56 48 57 63 59
REMARK SMILES IDX 85 60 50 61 33 62 34 63 43 64 35 65 36 66 42 67 44 68 37 69
REMARK SMILES IDX 38 70 39 71 40 72 41 73 67 74 68 75 77 76 69 77 70 78 76 79
REMARK SMILES IDX 78 80 71 81 72 82 73 83 74 84 75 85 51 86 52 87 61 88 53 89
REMARK SMILES IDX 54 90 60 91 62 92 55 93 56 94 57 95 58 96 59 97
REMARK H PARENT 17 6 1 14 1 15 9 24 21 28 83 47 49 58
REMARK Flexibility Score: inf
ROOT
ATOM      1  C   UNL A   1      37.564  22.538  25.906  1.00  0.00     0.042 C 
ENDROOT
BRANCH   1   2
ATOM      2  C   UNL A   1      36.076  22.693  25.670  1.00  0.00     0.118 C 
BRANCH   2   3
ATOM      3  N   UNL A   1      35.630  22.780  24.304  1.00  0.00    -0.351 N 
ATOM      4  C   UNL A   1      34.365  23.052  23.818  1.00  0.00     0.270 C 
ATOM      5  O   UNL A   1      34.270  23.228  22.599  1.00  0.00    -0.267 OA
ATOM      6  H   UNL A   1      36.321  22.625  23.621  1.00  0.00     0.163 HD
BRANCH   4   7
ATOM      7  C   UNL A   1      33.108  23.047  24.663  1.00  0.00     0.138 A 
ATOM      8  C   UNL A   1      31.801  24.501  25.946  1.00  0.00     0.124 A 
ATOM      9  C   UNL A   1      30.929  23.486  26.274  1.00  0.00     0.047 A 
ATOM     10  N   UNL A   1      32.851  24.307  25.141  1.00  0.00    -0.225 NA
ATOM     11  C   UNL A   1      31.185  22.203  25.800  1.00  0.00     0.015 A 
ATOM     12  C   UNL A   1      32.305  21.936  24.988  1.00  0.00     0.015 A 
BRANCH   8  13
ATOM     13  N   UNL A   1      31.592  25.790  26.394  1.00  0.00    -0.384 N 
ATOM     14  H   UNL A   1      30.983  25.956  27.148  1.00  0.00     0.158 HD
ATOM     15  H   UNL A   1      32.054  26.543  25.958  1.00  0.00     0.158 HD
ENDBRANCH   8  13
BRANCH  12  16
ATOM     16  C   UNL A   1      32.501  20.543  24.544  1.00  0.00     0.006 A 
ATOM     17  C   UNL A   1      32.941  19.592  25.499  1.00  0.00     0.056 A 
ATOM     18  C   UNL A   1      32.227  20.088  23.239  1.00  0.00     0.049 A 
ATOM     19  C   UNL A   1      32.979  18.235  25.187  1.00  0.00     0.116 A 
ATOM     20  C   UNL A   1      32.299  18.723  22.932  1.00  0.00     0.025 A 
ATOM     21  Cl  UNL A   1      31.777  21.171  21.970  1.00  0.00    -0.084 Cl
ATOM     22  C   UNL A   1      32.654  17.796  23.912  1.00  0.00     0.048 A 
BRANCH  19  23
ATOM     23  O   UNL A   1      33.278  17.297  26.125  1.00  0.00    -0.508 OA
ATOM     24  H   UNL A   1      33.161  17.489  27.035  1.00  0.00     0.293 HD
ENDBRANCH  19  23
ENDBRANCH  12  16
ENDBRANCH   4   7
ENDBRANCH   2   3
ENDBRANCH   1   2
BRANCH   1  25
ATOM     25  C   UNL A   1      38.293  23.833  26.243  1.00  0.00     0.118 C 
BRANCH  25  26
ATOM     26  N   UNL A   1      39.749  23.772  26.123  1.00  0.00    -0.352 N 
ATOM     27  C   UNL A   1      40.788  24.508  26.643  1.00  0.00     0.251 C 
ATOM     28  H   UNL A   1      40.053  23.039  25.539  1.00  0.00     0.163 HD
ATOM     29  O   UNL A   1      41.934  24.223  26.285  1.00  0.00    -0.269 OA
BRANCH  27  30
ATOM     30  C   UNL A   1      40.585  25.653  27.567  1.00  0.00     0.039 A 
ATOM     31  C   UNL A   1      39.600  25.557  28.559  1.00  0.00     0.014 A 
ATOM     32  C   UNL A   1      41.320  26.829  27.473  1.00  0.00     0.014 A 
ATOM     33  C   UNL A   1      39.439  26.582  29.503  1.00  0.00     0.010 A 
ATOM     34  C   UNL A   1      41.262  27.779  28.490  1.00  0.00     0.010 A 
ATOM     35  C   UNL A   1      40.318  27.674  29.520  1.00  0.00    -0.014 A 
BRANCH  35  36
ATOM     36  C   UNL A   1      40.286  28.720  30.582  1.00  0.00     0.031 A 
ATOM     37  C   UNL A   1      41.175  28.593  31.797  1.00  0.00     0.074 A 
ATOM     38  C   UNL A   1      39.378  29.715  30.521  1.00  0.00     0.049 A 
ATOM     39  N   UNL A   1      41.156  29.278  32.913  1.00  0.00    -0.248 NA
ATOM     40  C   UNL A   1      42.181  27.518  31.777  1.00  0.00     0.031 C 
ATOM     41  C   UNL A   1      38.410  29.920  29.439  1.00  0.00     0.029 A 
ATOM     42  N   UNL A   1      39.102  30.733  31.402  1.00  0.00    -0.354 N 
ATOM     43  C   UNL A   1      42.106  28.684  33.740  1.00  0.00     0.074 A 
ATOM     44  C   UNL A   1      42.644  27.553  33.019  1.00  0.00     0.031 C 
ATOM     45  C   UNL A   1      37.669  31.007  29.706  1.00  0.00     0.029 A 
ATOM     46  C   UNL A   1      38.070  31.550  31.000  1.00  0.00     0.049 A 
ATOM     47  H   UNL A   1      39.595  30.866  32.243  1.00  0.00     0.167 HD
ATOM     48  C   UNL A   1      42.514  29.061  34.975  1.00  0.00     0.037 A 
ATOM     49  C   UNL A   1      37.498  32.609  31.606  1.00  0.00     0.037 A 
ATOM     50  C   UNL A   1      42.032  30.234  35.656  1.00  0.00     0.049 A 
ATOM     51  C   UNL A   1      38.013  33.051  32.949  1.00  0.00     0.074 A 
ATOM     52  C   UNL A   1      42.449  30.758  36.867  1.00  0.00     0.029 A 
ATOM     53  N   UNL A   1      41.038  31.075  35.178  1.00  0.00    -0.354 N 
ATOM     54  N   UNL A   1      38.949  32.508  33.689  1.00  0.00    -0.248 NA
ATOM     55  C   UNL A   1      37.400  34.250  33.534  1.00  0.00     0.031 C 
ATOM     56  C   UNL A   1      41.686  31.899  37.137  1.00  0.00     0.029 A 
ATOM     57  C   UNL A   1      40.821  32.109  36.074  1.00  0.00     0.049 A 
ATOM     58  H   UNL A   1      40.557  30.954  34.328  1.00  0.00     0.167 HD
ATOM     59  C   UNL A   1      39.054  33.313  34.818  1.00  0.00     0.074 A 
ATOM     60  C   UNL A   1      38.096  34.387  34.656  1.00  0.00     0.031 C 
ATOM     61  C   UNL A   1      39.871  33.175  35.891  1.00  0.00     0.037 A 
BRANCH  48  62
ATOM     62  C   UNL A   1      43.549  28.211  35.663  1.00  0.00     0.058 A 
ATOM     63  C   UNL A   1      44.923  28.415  35.465  1.00  0.00     0.135 A 
ATOM     64  C   UNL A   1      43.162  27.200  36.558  1.00  0.00     0.135 A 
ATOM     65  F   UNL A   1      45.351  29.359  34.610  1.00  0.00    -0.206 F 
ATOM     66  C   UNL A   1      45.877  27.626  36.099  1.00  0.00     0.059 A 
ATOM     67  C   UNL A   1      44.099  26.418  37.228  1.00  0.00     0.059 A 
ATOM     68  F   UNL A   1      41.861  26.962  36.789  1.00  0.00    -0.206 F 
ATOM     69  C   UNL A   1      45.455  26.628  36.979  1.00  0.00     0.060 A 
BRANCH  69  70
ATOM     70  S   UNL A   1      46.705  25.616  37.798  1.00  0.00     0.124 S 
ATOM     71  O   UNL A   1      45.878  24.605  38.450  1.00  0.00    -0.237 OA
ATOM     72  O   UNL A   1      47.512  25.147  36.678  1.00  0.00    -0.237 OA
ATOM     73  O   UNL A   1      47.369  26.558  38.695  1.00  0.00    -0.744 OA
ENDBRANCH  69  70
ENDBRANCH  48  62
BRANCH  49  74
ATOM     74  C   UNL A   1      36.393  33.342  30.931  1.00  0.00     0.058 A 
ATOM     75  C   UNL A   1      35.072  33.229  31.389  1.00  0.00     0.135 A 
ATOM     76  C   UNL A   1      36.635  34.188  29.838  1.00  0.00     0.135 A 
ATOM     77  F   UNL A   1      34.789  32.427  32.428  1.00  0.00    -0.206 F 
ATOM     78  C   UNL A   1      34.027  33.918  30.782  1.00  0.00     0.059 A 
ATOM     79  C   UNL A   1      35.610  34.907  29.229  1.00  0.00     0.059 A 
ATOM     80  F   UNL A   1      37.884  34.347  29.373  1.00  0.00    -0.206 F 
ATOM     81  C   UNL A   1      34.307  34.759  29.704  1.00  0.00     0.060 A 
BRANCH  81  82
ATOM     82  S   UNL A   1      32.956  35.700  28.963  1.00  0.00     0.124 S 
ATOM     83  O   UNL A   1      32.151  36.029  30.133  1.00  0.00    -0.237 OA
ATOM     84  O   UNL A   1      33.663  36.815  28.339  1.00  0.00    -0.237 OA
ATOM     85  O   UNL A   1      32.358  34.749  28.031  1.00  0.00    -0.744 OA
ENDBRANCH  81  82
ENDBRANCH  49  74
BRANCH  61  86
ATOM     86  C   UNL A   1      39.793  34.229  36.960  1.00  0.00     0.058 A 
ATOM     87  C   UNL A   1      40.438  35.468  36.822  1.00  0.00     0.135 A 
ATOM     88  C   UNL A   1      39.016  34.017  38.110  1.00  0.00     0.135 A 
ATOM     89  F   UNL A   1      41.197  35.717  35.744  1.00  0.00    -0.206 F 
ATOM     90  C   UNL A   1      40.331  36.453  37.797  1.00  0.00     0.059 A 
ATOM     91  C   UNL A   1      38.874  34.997  39.086  1.00  0.00     0.059 A 
ATOM     92  F   UNL A   1      38.371  32.852  38.285  1.00  0.00    -0.206 F 
ATOM     93  C   UNL A   1      39.544  36.209  38.925  1.00  0.00     0.060 A 
BRANCH  93  94
ATOM     94  S   UNL A   1      39.384  37.509  40.167  1.00  0.00     0.124 S 
ATOM     95  O   UNL A   1      40.717  38.100  40.148  1.00  0.00    -0.237 OA
ATOM     96  O   UNL A   1      38.316  38.338  39.617  1.00  0.00    -0.237 OA
ATOM     97  O   UNL A   1      39.038  36.777  41.382  1.00  0.00    -0.744 OA
ENDBRANCH  93  94
ENDBRANCH  61  86
ENDBRANCH  35  36
ENDBRANCH  27  30
ENDBRANCH  25  26
ENDBRANCH   1  25
TORSDOF 16
ENDMDL
MODEL 2
REMARK VINA RESULT:     -12.5      5.243     10.630
REMARK SMILES Nc1ccc(-c2cc(O)ccc2Cl)c(C(=O)NCCCNC(=O)c2ccc(-c3c4nc(c(-c5c(F)cc(S(=O)(=O)[O-])cc5F)c5ccc([nH]5)c(-c5c(F)cc(S(=O)(=O)[O-])cc5F)c5nc(c(-c6c(F)cc(S(=O)(=O)[O-])cc6F)c6ccc3[nH]6)C=C5)C=C4)cc2)n1
REMARK SMILES IDX 19 1 18 2 17 3 15 4 16 5 14 7 2 8 3 9 90 10 4 11 5 12 1 13
REMARK SMILES IDX 6 16 7 17 12 18 8 19 11 20 13 21 10 22 9 23 20 25 21 26
REMARK SMILES IDX 22 27 23 29 24 30 25 31 89 32 26 33 88 34 27 35 28 36 29 37
REMARK SMILES IDX 82 38 30 39 87 40 81 41 83 42 31 43 86 44 80 45 79 46 32 48
REMARK SMILES IDX 66 49 45 50 65 51 46 52 49 53 64 54 84 55 47 56 48 57 63 59
REMARK SMILES IDX 85 60 50 61 33 62 34 63 43 64 35 65 36 66 42 67 44 68 37 69
REMARK SMILES IDX 38 70 39 71 40 72 41 73 67 74 68 75 77 76 69 77 70 78 76 79
REMARK SMILES IDX 78 80 71 81 72 82 73 83 74 84 75 85 51 86 52 87 61 88 53 89
REMARK SMILES IDX 54 90 60 91 62 92 55 93 56 94 57 95 58 96 59 97
REMARK H PARENT 17 6 1 14 1 15 9 24 21 28 83 47 49 58
REMARK Flexibility Score: inf
ROOT
ATOM      1  C   UNL A   1      33.979  27.943  26.314  1.00  0.00     0.042 C 
ENDROOT
BRANCH   1   2
ATOM      2  C   UNL A   1      33.746  28.639  24.989  1.00  0.00     0.118 C 
BRANCH   2   3
ATOM      3  N   UNL A   1      33.969  27.872  23.791  1.00  0.00    -0.351 N 
ATOM      4  C   UNL A   1      33.098  27.613  22.749  1.00  0.00     0.270 C 
ATOM      5  O   UNL A   1      33.579  27.059  21.756  1.00  0.00    -0.267 OA
ATOM      6  H   UNL A   1      34.866  27.478  23.701  1.00  0.00     0.163 HD
BRANCH   4   7
ATOM      7  C   UNL A   1      31.607  27.875  22.800  1.00  0.00     0.138 A 
ATOM      8  C   UNL A   1      30.066  29.570  22.332  1.00  0.00     0.124 A 
ATOM      9  C   UNL A   1      29.015  28.778  22.743  1.00  0.00     0.047 A 
ATOM     10  N   UNL A   1      31.329  29.134  22.330  1.00  0.00    -0.225 NA
ATOM     11  C   UNL A   1      29.288  27.502  23.228  1.00  0.00     0.015 A 
ATOM     12  C   UNL A   1      30.607  27.013  23.291  1.00  0.00     0.015 A 
BRANCH   8  13
ATOM     13  N   UNL A   1      29.848  30.843  21.847  1.00  0.00    -0.384 N 
ATOM     14  H   UNL A   1      29.999  31.040  20.894  1.00  0.00     0.158 HD
ATOM     15  H   UNL A   1      29.540  31.556  22.453  1.00  0.00     0.158 HD
ENDBRANCH   8  13
BRANCH  12  16
ATOM     16  C   UNL A   1      30.798  25.654  23.831  1.00  0.00     0.006 A 
ATOM     17  C   UNL A   1      30.967  24.586  22.914  1.00  0.00     0.056 A 
ATOM     18  C   UNL A   1      30.876  25.359  25.207  1.00  0.00     0.049 A 
ATOM     19  C   UNL A   1      31.321  23.315  23.358  1.00  0.00     0.116 A 
ATOM     20  C   UNL A   1      31.203  24.067  25.640  1.00  0.00     0.025 A 
ATOM     21  Cl  UNL A   1      30.592  26.560  26.416  1.00  0.00    -0.084 Cl
ATOM     22  C   UNL A   1      31.447  23.052  24.714  1.00  0.00     0.048 A 
BRANCH  19  23
ATOM     23  O   UNL A   1      31.609  22.310  22.487  1.00  0.00    -0.508 OA
ATOM     24  H   UNL A   1      32.053  21.542  22.788  1.00  0.00     0.293 HD
ENDBRANCH  19  23
ENDBRANCH  12  16
ENDBRANCH   4   7
ENDBRANCH   2   3
ENDBRANCH   1   2
BRANCH   1  25
ATOM     25  C   UNL A   1      33.216  28.542  27.490  1.00  0.00     0.118 C 
BRANCH  25  26
ATOM     26  N   UNL A   1      33.447  29.968  27.714  1.00  0.00    -0.352 N 
ATOM     27  C   UNL A   1      34.541  30.720  28.072  1.00  0.00     0.251 C 
ATOM     28  H   UNL A   1      32.637  30.512  27.577  1.00  0.00     0.163 HD
ATOM     29  O   UNL A   1      34.380  31.932  28.239  1.00  0.00    -0.269 OA
BRANCH  27  30
ATOM     30  C   UNL A   1      35.883  30.131  28.313  1.00  0.00     0.039 A 
ATOM     31  C   UNL A   1      36.821  30.129  27.272  1.00  0.00     0.014 A 
ATOM     32  C   UNL A   1      36.240  29.557  29.528  1.00  0.00     0.014 A 
ATOM     33  C   UNL A   1      38.124  29.661  27.489  1.00  0.00     0.010 A 
ATOM     34  C   UNL A   1      37.568  29.227  29.787  1.00  0.00     0.010 A 
ATOM     35  C   UNL A   1      38.532  29.269  28.772  1.00  0.00    -0.014 A 
BRANCH  35  36
ATOM     36  C   UNL A   1      39.939  28.897  29.094  1.00  0.00     0.031 A 
ATOM     37  C   UNL A   1      40.880  29.925  29.678  1.00  0.00     0.074 A 
ATOM     38  C   UNL A   1      40.411  27.681  28.751  1.00  0.00     0.049 A 
ATOM     39  N   UNL A   1      42.178  29.863  29.841  1.00  0.00    -0.248 NA
ATOM     40  C   UNL A   1      40.291  31.213  30.081  1.00  0.00     0.031 C 
ATOM     41  C   UNL A   1      39.631  26.613  28.117  1.00  0.00     0.029 A 
ATOM     42  N   UNL A   1      41.669  27.141  28.866  1.00  0.00    -0.354 N 
ATOM     43  C   UNL A   1      42.562  31.115  30.313  1.00  0.00     0.074 A 
ATOM     44  C   UNL A   1      41.370  31.931  30.359  1.00  0.00     0.031 C 
ATOM     45  C   UNL A   1      40.419  25.543  27.924  1.00  0.00     0.029 A 
ATOM     46  C   UNL A   1      41.770  25.860  28.373  1.00  0.00     0.049 A 
ATOM     47  H   UNL A   1      42.428  27.624  29.263  1.00  0.00     0.167 HD
ATOM     48  C   UNL A   1      43.788  31.539  30.700  1.00  0.00     0.037 A 
ATOM     49  C   UNL A   1      42.831  25.035  28.277  1.00  0.00     0.037 A 
ATOM     50  C   UNL A   1      44.957  30.699  30.727  1.00  0.00     0.049 A 
ATOM     51  C   UNL A   1      44.171  25.504  28.775  1.00  0.00     0.074 A 
ATOM     52  C   UNL A   1      46.225  31.002  31.191  1.00  0.00     0.029 A 
ATOM     53  N   UNL A   1      44.997  29.384  30.287  1.00  0.00    -0.354 N 
ATOM     54  N   UNL A   1      44.502  26.673  29.268  1.00  0.00    -0.248 NA
ATOM     55  C   UNL A   1      45.279  24.541  28.709  1.00  0.00     0.031 C 
ATOM     56  C   UNL A   1      47.040  29.881  31.003  1.00  0.00     0.029 A 
ATOM     57  C   UNL A   1      46.269  28.865  30.459  1.00  0.00     0.049 A 
ATOM     58  H   UNL A   1      44.233  28.892  29.907  1.00  0.00     0.167 HD
ATOM     59  C   UNL A   1      45.850  26.579  29.594  1.00  0.00     0.074 A 
ATOM     60  C   UNL A   1      46.270  25.235  29.254  1.00  0.00     0.031 C 
ATOM     61  C   UNL A   1      46.667  27.522  30.126  1.00  0.00     0.037 A 
BRANCH  48  62
ATOM     62  C   UNL A   1      43.928  32.970  31.147  1.00  0.00     0.058 A 
ATOM     63  C   UNL A   1      44.074  34.021  30.228  1.00  0.00     0.135 A 
ATOM     64  C   UNL A   1      43.880  33.300  32.512  1.00  0.00     0.135 A 
ATOM     65  F   UNL A   1      44.140  33.764  28.911  1.00  0.00    -0.206 F 
ATOM     66  C   UNL A   1      44.206  35.341  30.643  1.00  0.00     0.059 A 
ATOM     67  C   UNL A   1      43.979  34.617  32.950  1.00  0.00     0.059 A 
ATOM     68  F   UNL A   1      43.739  32.336  33.436  1.00  0.00    -0.206 F 
ATOM     69  C   UNL A   1      44.159  35.630  32.009  1.00  0.00     0.060 A 
BRANCH  69  70
ATOM     70  S   UNL A   1      44.325  37.349  32.532  1.00  0.00     0.124 S 
ATOM     71  O   UNL A   1      43.099  37.538  33.302  1.00  0.00    -0.237 OA
ATOM     72  O   UNL A   1      45.561  37.323  33.307  1.00  0.00    -0.237 OA
ATOM     73  O   UNL A   1      44.394  38.083  31.272  1.00  0.00    -0.744 OA
ENDBRANCH  69  70
ENDBRANCH  48  62
BRANCH  49  74
ATOM     74  C   UNL A   1      42.659  23.668  27.714  1.00  0.00     0.058 A 
ATOM     75  C   UNL A   1      42.745  23.446  26.331  1.00  0.00     0.135 A 
ATOM     76  C   UNL A   1      42.435  22.557  28.541  1.00  0.00     0.135 A 
ATOM     77  F   UNL A   1      42.952  24.478  25.498  1.00  0.00    -0.206 F 
ATOM     78  C   UNL A   1      42.603  22.174  25.786  1.00  0.00     0.059 A 
ATOM     79  C   UNL A   1      42.314  21.272  28.021  1.00  0.00     0.059 A 
ATOM     80  F   UNL A   1      42.365  22.713  29.872  1.00  0.00    -0.206 F 
ATOM     81  C   UNL A   1      42.392  21.092  26.640  1.00  0.00     0.060 A 
BRANCH  81  82
ATOM     82  S   UNL A   1      42.273  19.436  25.930  1.00  0.00     0.124 S 
ATOM     83  O   UNL A   1      40.845  19.335  25.655  1.00  0.00    -0.237 OA
ATOM     84  O   UNL A   1      43.143  19.539  24.761  1.00  0.00    -0.237 OA
ATOM     85  O   UNL A   1      42.775  18.577  26.997  1.00  0.00    -0.744 OA
ENDBRANCH  81  82
ENDBRANCH  49  74
BRANCH  61  86
ATOM     86  C   UNL A   1      48.088  27.126  30.410  1.00  0.00     0.058 A 
ATOM     87  C   UNL A   1      49.119  27.371  29.489  1.00  0.00     0.135 A 
ATOM     88  C   UNL A   1      48.431  26.546  31.642  1.00  0.00     0.135 A 
ATOM     89  F   UNL A   1      48.842  27.918  28.295  1.00  0.00    -0.206 F 
ATOM     90  C   UNL A   1      50.439  27.037  29.774  1.00  0.00     0.059 A 
ATOM     91  C   UNL A   1      49.747  26.227  31.957  1.00  0.00     0.059 A 
ATOM     92  F   UNL A   1      47.483  26.300  32.560  1.00  0.00    -0.206 F 
ATOM     93  C   UNL A   1      50.743  26.467  31.011  1.00  0.00     0.060 A 
BRANCH  93  94
ATOM     94  S   UNL A   1      52.465  26.070  31.382  1.00  0.00     0.124 S 
ATOM     95  O   UNL A   1      52.339  24.747  31.981  1.00  0.00    -0.237 OA
ATOM     96  O   UNL A   1      53.087  26.112  30.062  1.00  0.00    -0.237 OA
ATOM     97  O   UNL A   1      52.870  27.137  32.293  1.00  0.00    -0.744 OA
ENDBRANCH  93  94
ENDBRANCH  61  86
ENDBRANCH  35  36
ENDBRANCH  27  30
ENDBRANCH  25  26
ENDBRANCH   1  25
TORSDOF 16
ENDMDL
MODEL 3
REMARK VINA RESULT:     -12.5      1.236      2.714
REMARK SMILES Nc1ccc(-c2cc(O)ccc2Cl)c(C(=O)NCCCNC(=O)c2ccc(-c3c4nc(c(-c5c(F)cc(S(=O)(=O)[O-])cc5F)c5ccc([nH]5)c(-c5c(F)cc(S(=O)(=O)[O-])cc5F)c5nc(c(-c6c(F)cc(S(=O)(=O)[O-])cc6F)c6ccc3[nH]6)C=C5)C=C4)cc2)n1
REMARK SMILES IDX 19 1 18 2 17 3 15 4 16 5 14 7 2 8 3 9 90 10 4 11 5 12 1 13
REMARK SMILES IDX 6 16 7 17 12 18 8 19 11 20 13 21 10 22 9 23 20 25 21 26
REMARK SMILES IDX 22 27 23 29 24 30 25 31 89 32 26 33 88 34 27 35 28 36 29 37
REMARK SMILES IDX 82 38 30 39 87 40 81 41 83 42 31 43 86 44 80 45 79 46 32 48
REMARK SMILES IDX 66 49 45 50 65 51 46 52 49 53 64 54 84 55 47 56 48 57 63 59
REMARK SMILES IDX 85 60 50 61 33 62 34 63 43 64 35 65 36 66 42 67 44 68 37 69
REMARK SMILES IDX 38 70 39 71 40 72 41 73 67 74 68 75 77 76 69 77 70 78 76 79
REMARK SMILES IDX 78 80 71 81 72 82 73 83 74 84 75 85 51 86 52 87 61 88 53 89
REMARK SMILES IDX 54 90 60 91 62 92 55 93 56 94 57 95 58 96 59 97
REMARK H PARENT 17 6 1 14 1 15 9 24 21 28 83 47 49 58
REMARK Flexibility Score: inf
ROOT
ATOM      1  C   UNL A   1      37.300  23.179  25.072  1.00  0.00     0.042 C 
ENDROOT
BRANCH   1   2
ATOM      2  C   UNL A   1      36.563  21.931  25.511  1.00  0.00     0.118 C 
BRANCH   2   3
ATOM      3  N   UNL A   1      35.551  22.083  26.525  1.00  0.00    -0.351 N 
ATOM      4  C   UNL A   1      34.287  21.528  26.582  1.00  0.00     0.270 C 
ATOM      5  O   UNL A   1      33.665  21.684  27.638  1.00  0.00    -0.267 OA
ATOM      6  H   UNL A   1      35.794  22.662  27.282  1.00  0.00     0.163 HD
BRANCH   4   7
ATOM      7  C   UNL A   1      33.603  20.844  25.417  1.00  0.00     0.138 A 
ATOM      8  C   UNL A   1      33.274  18.704  24.532  1.00  0.00     0.124 A 
ATOM      9  C   UNL A   1      32.545  19.213  23.479  1.00  0.00     0.047 A 
ATOM     10  N   UNL A   1      33.772  19.485  25.496  1.00  0.00    -0.225 NA
ATOM     11  C   UNL A   1      32.374  20.591  23.385  1.00  0.00     0.015 A 
ATOM     12  C   UNL A   1      32.920  21.459  24.350  1.00  0.00     0.015 A 
BRANCH   8  13
ATOM     13  N   UNL A   1      33.474  17.346  24.668  1.00  0.00    -0.384 N 
ATOM     14  H   UNL A   1      34.194  16.902  24.164  1.00  0.00     0.158 HD
ATOM     15  H   UNL A   1      32.898  16.820  25.269  1.00  0.00     0.158 HD
ENDBRANCH   8  13
BRANCH  12  16
ATOM     16  C   UNL A   1      32.696  22.905  24.159  1.00  0.00     0.006 A 
ATOM     17  C   UNL A   1      33.519  23.593  23.232  1.00  0.00     0.056 A 
ATOM     18  C   UNL A   1      31.680  23.635  24.806  1.00  0.00     0.049 A 
ATOM     19  C   UNL A   1      33.247  24.914  22.882  1.00  0.00     0.116 A 
ATOM     20  C   UNL A   1      31.438  24.973  24.465  1.00  0.00     0.025 A 
ATOM     21  Cl  UNL A   1      30.680  22.927  26.023  1.00  0.00    -0.084 Cl
ATOM     22  C   UNL A   1      32.208  25.604  23.487  1.00  0.00     0.048 A 
BRANCH  19  23
ATOM     23  O   UNL A   1      33.947  25.550  21.904  1.00  0.00    -0.508 OA
ATOM     24  H   UNL A   1      34.884  25.547  21.921  1.00  0.00     0.293 HD
ENDBRANCH  19  23
ENDBRANCH  12  16
ENDBRANCH   4   7
ENDBRANCH   2   3
ENDBRANCH   1   2
BRANCH   1  25
ATOM     25  C   UNL A   1      38.069  23.886  26.182  1.00  0.00     0.118 C 
BRANCH  25  26
ATOM     26  N   UNL A   1      39.524  23.760  26.102  1.00  0.00    -0.352 N 
ATOM     27  C   UNL A   1      40.580  24.449  26.651  1.00  0.00     0.251 C 
ATOM     28  H   UNL A   1      39.811  23.014  25.526  1.00  0.00     0.163 HD
ATOM     29  O   UNL A   1      41.721  24.113  26.325  1.00  0.00    -0.269 OA
BRANCH  27  30
ATOM     30  C   UNL A   1      40.402  25.601  27.571  1.00  0.00     0.039 A 
ATOM     31  C   UNL A   1      39.445  25.515  28.591  1.00  0.00     0.014 A 
ATOM     32  C   UNL A   1      41.134  26.777  27.447  1.00  0.00     0.014 A 
ATOM     33  C   UNL A   1      39.310  26.547  29.530  1.00  0.00     0.010 A 
ATOM     34  C   UNL A   1      41.104  27.735  28.456  1.00  0.00     0.010 A 
ATOM     35  C   UNL A   1      40.190  27.639  29.513  1.00  0.00    -0.014 A 
BRANCH  35  36
ATOM     36  C   UNL A   1      40.187  28.694  30.566  1.00  0.00     0.031 A 
ATOM     37  C   UNL A   1      41.087  28.563  31.773  1.00  0.00     0.074 A 
ATOM     38  C   UNL A   1      39.294  29.704  30.508  1.00  0.00     0.049 A 
ATOM     39  N   UNL A   1      41.092  29.257  32.883  1.00  0.00    -0.248 NA
ATOM     40  C   UNL A   1      42.076  27.471  31.750  1.00  0.00     0.031 C 
ATOM     41  C   UNL A   1      38.318  29.916  29.435  1.00  0.00     0.029 A 
ATOM     42  N   UNL A   1      39.045  30.734  31.384  1.00  0.00    -0.354 N 
ATOM     43  C   UNL A   1      42.041  28.655  33.704  1.00  0.00     0.074 A 
ATOM     44  C   UNL A   1      42.552  27.508  32.986  1.00  0.00     0.031 C 
ATOM     45  C   UNL A   1      37.598  31.017  29.702  1.00  0.00     0.029 A 
ATOM     46  C   UNL A   1      38.022  31.564  30.986  1.00  0.00     0.049 A 
ATOM     47  H   UNL A   1      39.550  30.865  32.217  1.00  0.00     0.167 HD
ATOM     48  C   UNL A   1      42.470  29.035  34.931  1.00  0.00     0.037 A 
ATOM     49  C   UNL A   1      37.475  32.637  31.589  1.00  0.00     0.037 A 
ATOM     50  C   UNL A   1      42.015  30.221  35.608  1.00  0.00     0.049 A 
ATOM     51  C   UNL A   1      38.012  33.081  32.923  1.00  0.00     0.074 A 
ATOM     52  C   UNL A   1      42.455  30.748  36.809  1.00  0.00     0.029 A 
ATOM     53  N   UNL A   1      41.030  31.074  35.134  1.00  0.00    -0.354 N 
ATOM     54  N   UNL A   1      38.947  32.529  33.657  1.00  0.00    -0.248 NA
ATOM     55  C   UNL A   1      37.425  34.296  33.505  1.00  0.00     0.031 C 
ATOM     56  C   UNL A   1      41.713  31.904  37.079  1.00  0.00     0.029 A 
ATOM     57  C   UNL A   1      40.840  32.119  36.024  1.00  0.00     0.049 A 
ATOM     58  H   UNL A   1      40.537  30.954  34.291  1.00  0.00     0.167 HD
ATOM     59  C   UNL A   1      39.078  33.342  34.778  1.00  0.00     0.074 A 
ATOM     60  C   UNL A   1      38.136  34.430  34.617  1.00  0.00     0.031 C 
ATOM     61  C   UNL A   1      39.905  33.199  35.843  1.00  0.00     0.037 A 
BRANCH  48  62
ATOM     62  C   UNL A   1      43.499  28.173  35.614  1.00  0.00     0.058 A 
ATOM     63  C   UNL A   1      43.134  27.153  36.506  1.00  0.00     0.135 A 
ATOM     64  C   UNL A   1      44.867  28.347  35.346  1.00  0.00     0.135 A 
ATOM     65  F   UNL A   1      41.841  26.950  36.810  1.00  0.00    -0.206 F 
ATOM     66  C   UNL A   1      44.086  26.361  37.138  1.00  0.00     0.059 A 
ATOM     67  C   UNL A   1      45.836  27.545  35.943  1.00  0.00     0.059 A 
ATOM     68  F   UNL A   1      45.274  29.305  34.498  1.00  0.00    -0.206 F 
ATOM     69  C   UNL A   1      45.437  26.566  36.851  1.00  0.00     0.060 A 
BRANCH  69  70
ATOM     70  S   UNL A   1      46.661  25.525  37.674  1.00  0.00     0.124 S 
ATOM     71  O   UNL A   1      47.655  26.514  38.083  1.00  0.00    -0.237 OA
ATOM     72  O   UNL A   1      45.885  24.925  38.754  1.00  0.00    -0.237 OA
ATOM     73  O   UNL A   1      47.086  24.605  36.624  1.00  0.00    -0.744 OA
ENDBRANCH  69  70
ENDBRANCH  48  62
BRANCH  49  74
ATOM     74  C   UNL A   1      36.374  33.383  30.921  1.00  0.00     0.058 A 
ATOM     75  C   UNL A   1      35.065  33.330  31.422  1.00  0.00     0.135 A 
ATOM     76  C   UNL A   1      36.610  34.181  29.791  1.00  0.00     0.135 A 
ATOM     77  F   UNL A   1      34.788  32.576  32.496  1.00  0.00    -0.206 F 
ATOM     78  C   UNL A   1      34.025  34.033  30.821  1.00  0.00     0.059 A 
ATOM     79  C   UNL A   1      35.591  34.912  29.187  1.00  0.00     0.059 A 
ATOM     80  F   UNL A   1      37.849  34.281  29.285  1.00  0.00    -0.206 F 
ATOM     81  C   UNL A   1      34.299  34.825  29.705  1.00  0.00     0.060 A 
BRANCH  81  82
ATOM     82  S   UNL A   1      32.957  35.784  28.971  1.00  0.00     0.124 S 
ATOM     83  O   UNL A   1      32.340  34.799  28.090  1.00  0.00    -0.237 OA
ATOM     84  O   UNL A   1      32.177  36.170  30.143  1.00  0.00    -0.237 OA
ATOM     85  O   UNL A   1      33.654  36.879  28.305  1.00  0.00    -0.744 OA
ENDBRANCH  81  82
ENDBRANCH  49  74
BRANCH  61  86
ATOM     86  C   UNL A   1      39.857  34.262  36.904  1.00  0.00     0.058 A 
ATOM     87  C   UNL A   1      40.523  35.488  36.750  1.00  0.00     0.135 A 
ATOM     88  C   UNL A   1      39.086  34.074  38.062  1.00  0.00     0.135 A 
ATOM     89  F   UNL A   1      41.277  35.714  35.663  1.00  0.00    -0.206 F 
ATOM     90  C   UNL A   1      40.443  36.483  37.718  1.00  0.00     0.059 A 
ATOM     91  C   UNL A   1      38.972  35.065  39.031  1.00  0.00     0.059 A 
ATOM     92  F   UNL A   1      38.422  32.923  38.253  1.00  0.00    -0.206 F 
ATOM     93  C   UNL A   1      39.663  36.263  38.855  1.00  0.00     0.060 A 
BRANCH  93  94
ATOM     94  S   UNL A   1      39.539  37.576  40.087  1.00  0.00     0.124 S 
ATOM     95  O   UNL A   1      39.051  36.842  41.249  1.00  0.00    -0.237 OA
ATOM     96  O   UNL A   1      40.916  38.056  40.173  1.00  0.00    -0.237 OA
ATOM     97  O   UNL A   1      38.591  38.512  39.491  1.00  0.00    -0.744 OA
ENDBRANCH  93  94
ENDBRANCH  61  86
ENDBRANCH  35  36
ENDBRANCH  27  30
ENDBRANCH  25  26
ENDBRANCH   1  25
TORSDOF 16
ENDMDL
