MODEL 1
REMARK VINA RESULT:     -11.0      0.000      0.000
REMARK SMILES C[C@@H](C(=O)NCCCNC(=O)c1ccc(-c2c3nc(c(-c4c(F)cc(S(=O)(=O)[O-])cc4F)c4ccc([nH]4)c(-c4c(F)cc(S(=O)(=O)[O-])cc4F)c4nc(c(-c5c(F)cc(S(=O)(=O)[O-])cc5F)c5ccc2[nH]5)C=C4)C=C3)cc1)c1ccc(C[C@H]2CCCC2=O)cc1
REMARK SMILES IDX 7 1 6 2 5 3 3 4 4 5 2 7 1 8 78 9 79 10 90 11 80 12 89 13
REMARK SMILES IDX 81 14 82 15 83 16 84 17 87 18 85 19 86 20 88 21 8 22 9 23
REMARK SMILES IDX 10 24 11 26 12 27 13 28 77 29 14 30 76 31 15 32 16 33 17 34
REMARK SMILES IDX 70 35 18 36 75 37 69 38 71 39 19 40 74 41 68 42 67 43 20 45
REMARK SMILES IDX 54 46 33 47 53 48 34 49 37 50 52 51 72 52 35 53 36 54 51 56
REMARK SMILES IDX 73 57 38 58 21 59 22 60 31 61 23 62 24 63 30 64 32 65 25 66
REMARK SMILES IDX 26 67 27 68 28 69 29 70 55 71 56 72 65 73 57 74 58 75 64 76
REMARK SMILES IDX 66 77 59 78 60 79 61 80 62 81 63 82 39 83 40 84 49 85 41 86
REMARK SMILES IDX 42 87 48 88 50 89 43 90 44 91 45 92 46 93 47 94
REMARK H PARENT 5 6 9 25 71 44 37 55
REMARK Flexibility Score: inf
ROOT
ATOM      1  C   UNL A   1      35.035  34.212  29.060  1.00  0.00     0.042 C 
ENDROOT
BRANCH   1   2
ATOM      2  C   UNL A   1      33.625  34.780  28.919  1.00  0.00     0.117 C 
BRANCH   2   3
ATOM      3  N   UNL A   1      33.498  36.083  29.540  1.00  0.00    -0.356 N 
ATOM      4  C   UNL A   1      33.042  36.449  30.773  1.00  0.00     0.227 C 
ATOM      5  O   UNL A   1      33.055  37.659  31.010  1.00  0.00    -0.274 OA
ATOM      6  H   UNL A   1      33.791  36.834  28.974  1.00  0.00     0.163 HD
BRANCH   4   7
ATOM      7  C   UNL A   1      32.595  35.381  31.789  1.00  0.00     0.105 C 
ATOM      8  C   UNL A   1      31.536  35.897  32.765  1.00  0.00     0.023 C 
BRANCH   7   9
ATOM      9  C   UNL A   1      33.751  34.797  32.599  1.00  0.00    -0.036 A 
ATOM     10  C   UNL A   1      34.451  35.575  33.533  1.00  0.00     0.005 A 
ATOM     11  C   UNL A   1      34.100  33.446  32.461  1.00  0.00     0.005 A 
ATOM     12  C   UNL A   1      35.499  35.034  34.274  1.00  0.00     0.004 A 
ATOM     13  C   UNL A   1      35.150  32.902  33.205  1.00  0.00     0.004 A 
ATOM     14  C   UNL A   1      35.875  33.698  34.102  1.00  0.00    -0.047 A 
BRANCH  14  15
ATOM     15  C   UNL A   1      37.062  33.140  34.847  1.00  0.00     0.047 C 
BRANCH  15  16
ATOM     16  C   UNL A   1      37.514  31.735  34.431  1.00  0.00     0.060 C 
ATOM     17  C   UNL A   1      38.492  31.653  33.255  1.00  0.00     0.012 C 
ATOM     18  C   UNL A   1      38.277  31.018  35.521  1.00  0.00     0.136 C 
ATOM     19  C   UNL A   1      39.885  31.541  33.863  1.00  0.00     0.009 C 
ATOM     20  C   UNL A   1      39.707  30.732  35.140  1.00  0.00     0.076 C 
ATOM     21  O   UNL A   1      37.775  30.673  36.585  1.00  0.00    -0.299 OA
ENDBRANCH  15  16
ENDBRANCH  14  15
ENDBRANCH   7   9
ENDBRANCH   4   7
ENDBRANCH   2   3
ENDBRANCH   1   2
BRANCH   1  22
ATOM     22  C   UNL A   1      35.399  33.158  28.019  1.00  0.00     0.118 C 
BRANCH  22  23
ATOM     23  N   UNL A   1      34.415  32.087  27.929  1.00  0.00    -0.352 N 
ATOM     24  C   UNL A   1      34.604  30.726  27.938  1.00  0.00     0.251 C 
ATOM     25  H   UNL A   1      33.479  32.382  27.850  1.00  0.00     0.163 HD
ATOM     26  O   UNL A   1      33.665  29.979  27.678  1.00  0.00    -0.269 OA
BRANCH  24  27
ATOM     27  C   UNL A   1      35.941  30.167  28.233  1.00  0.00     0.039 A 
ATOM     28  C   UNL A   1      36.890  30.097  27.209  1.00  0.00     0.014 A 
ATOM     29  C   UNL A   1      36.258  29.719  29.518  1.00  0.00     0.014 A 
ATOM     30  C   UNL A   1      38.184  29.649  27.493  1.00  0.00     0.010 A 
ATOM     31  C   UNL A   1      37.565  29.343  29.814  1.00  0.00     0.010 A 
ATOM     32  C   UNL A   1      38.542  29.307  28.805  1.00  0.00    -0.014 A 
BRANCH  32  33
ATOM     33  C   UNL A   1      39.927  28.911  29.167  1.00  0.00     0.031 A 
ATOM     34  C   UNL A   1      40.869  29.932  29.741  1.00  0.00     0.074 A 
ATOM     35  C   UNL A   1      40.371  27.675  28.869  1.00  0.00     0.049 A 
ATOM     36  N   UNL A   1      42.156  29.844  29.955  1.00  0.00    -0.248 NA
ATOM     37  C   UNL A   1      40.289  31.240  30.085  1.00  0.00     0.031 C 
ATOM     38  C   UNL A   1      39.566  26.609  28.268  1.00  0.00     0.029 A 
ATOM     39  N   UNL A   1      41.619  27.117  28.995  1.00  0.00    -0.354 N 
ATOM     40  C   UNL A   1      42.546  31.091  30.428  1.00  0.00     0.074 A 
ATOM     41  C   UNL A   1      41.365  31.929  30.431  1.00  0.00     0.031 C 
ATOM     42  C   UNL A   1      40.341  25.532  28.071  1.00  0.00     0.029 A 
ATOM     43  C   UNL A   1      41.705  25.842  28.488  1.00  0.00     0.049 A 
ATOM     44  H   UNL A   1      42.380  27.585  29.410  1.00  0.00     0.167 HD
ATOM     45  C   UNL A   1      43.773  31.497  30.834  1.00  0.00     0.037 A 
ATOM     46  C   UNL A   1      42.767  25.024  28.346  1.00  0.00     0.037 A 
ATOM     47  C   UNL A   1      44.935  30.648  30.851  1.00  0.00     0.049 A 
ATOM     48  C   UNL A   1      44.118  25.483  28.816  1.00  0.00     0.074 A 
ATOM     49  C   UNL A   1      46.208  30.941  31.307  1.00  0.00     0.029 A 
ATOM     50  N   UNL A   1      44.967  29.342  30.385  1.00  0.00    -0.354 N 
ATOM     51  N   UNL A   1      44.461  26.644  29.322  1.00  0.00    -0.248 NA
ATOM     52  C   UNL A   1      45.227  24.524  28.706  1.00  0.00     0.031 C 
ATOM     53  C   UNL A   1      47.020  29.824  31.081  1.00  0.00     0.029 A 
ATOM     54  C   UNL A   1      46.241  28.819  30.527  1.00  0.00     0.049 A 
ATOM     55  H   UNL A   1      44.196  28.857  30.011  1.00  0.00     0.167 HD
ATOM     56  C   UNL A   1      45.817  26.549  29.612  1.00  0.00     0.074 A 
ATOM     57  C   UNL A   1      46.234  25.216  29.227  1.00  0.00     0.031 C 
ATOM     58  C   UNL A   1      46.638  27.484  30.152  1.00  0.00     0.037 A 
BRANCH  45  59
ATOM     59  C   UNL A   1      43.913  32.927  31.279  1.00  0.00     0.058 A 
ATOM     60  C   UNL A   1      43.694  33.311  32.612  1.00  0.00     0.135 A 
ATOM     61  C   UNL A   1      44.258  33.929  30.357  1.00  0.00     0.135 A 
ATOM     62  F   UNL A   1      43.351  32.395  33.532  1.00  0.00    -0.206 F 
ATOM     63  C   UNL A   1      43.756  34.644  33.004  1.00  0.00     0.059 A 
ATOM     64  C   UNL A   1      44.356  35.266  30.734  1.00  0.00     0.059 A 
ATOM     65  F   UNL A   1      44.485  33.618  29.072  1.00  0.00    -0.206 F 
ATOM     66  C   UNL A   1      44.076  35.616  32.055  1.00  0.00     0.060 A 
BRANCH  66  67
ATOM     67  S   UNL A   1      44.108  37.346  32.567  1.00  0.00     0.124 S 
ATOM     68  O   UNL A   1      43.855  38.027  31.301  1.00  0.00    -0.237 OA
ATOM     69  O   UNL A   1      43.026  37.406  33.544  1.00  0.00    -0.237 OA
ATOM     70  O   UNL A   1      45.450  37.514  33.113  1.00  0.00    -0.744 OA
ENDBRANCH  66  67
ENDBRANCH  45  59
BRANCH  46  71
ATOM     71  C   UNL A   1      42.573  23.683  27.735  1.00  0.00     0.058 A 
ATOM     72  C   UNL A   1      42.619  23.509  26.345  1.00  0.00     0.135 A 
ATOM     73  C   UNL A   1      42.410  22.539  28.534  1.00  0.00     0.135 A 
ATOM     74  F   UNL A   1      42.765  24.573  25.541  1.00  0.00    -0.206 F 
ATOM     75  C   UNL A   1      42.520  22.248  25.766  1.00  0.00     0.059 A 
ATOM     76  C   UNL A   1      42.330  21.265  27.978  1.00  0.00     0.059 A 
ATOM     77  F   UNL A   1      42.378  22.651  29.871  1.00  0.00    -0.206 F 
ATOM     78  C   UNL A   1      42.386  21.130  26.593  1.00  0.00     0.060 A 
BRANCH  78  79
ATOM     79  S   UNL A   1      42.360  19.491  25.834  1.00  0.00     0.124 S 
ATOM     80  O   UNL A   1      42.735  18.641  26.958  1.00  0.00    -0.237 OA
ATOM     81  O   UNL A   1      40.976  19.383  25.384  1.00  0.00    -0.237 OA
ATOM     82  O   UNL A   1      43.350  19.601  24.767  1.00  0.00    -0.744 OA
ENDBRANCH  78  79
ENDBRANCH  46  71
BRANCH  58  83
ATOM     83  C   UNL A   1      48.070  27.099  30.401  1.00  0.00     0.058 A 
ATOM     84  C   UNL A   1      49.059  27.267  29.420  1.00  0.00     0.135 A 
ATOM     85  C   UNL A   1      48.471  26.661  31.673  1.00  0.00     0.135 A 
ATOM     86  F   UNL A   1      48.724  27.675  28.186  1.00  0.00    -0.206 F 
ATOM     87  C   UNL A   1      50.400  27.018  29.694  1.00  0.00     0.059 A 
ATOM     88  C   UNL A   1      49.809  26.427  31.976  1.00  0.00     0.059 A 
ATOM     89  F   UNL A   1      47.563  26.491  32.647  1.00  0.00    -0.206 F 
ATOM     90  C   UNL A   1      50.767  26.608  30.979  1.00  0.00     0.060 A 
BRANCH  90  91
ATOM     91  S   UNL A   1      52.518  26.371  31.346  1.00  0.00     0.124 S 
ATOM     92  O   UNL A   1      52.529  25.007  31.864  1.00  0.00    -0.237 OA
ATOM     93  O   UNL A   1      53.140  26.557  30.038  1.00  0.00    -0.237 OA
ATOM     94  O   UNL A   1      52.806  27.416  32.323  1.00  0.00    -0.744 OA
ENDBRANCH  90  91
ENDBRANCH  58  83
ENDBRANCH  32  33
ENDBRANCH  24  27
ENDBRANCH  22  23
ENDBRANCH   1  22
TORSDOF 16
ENDMDL
MODEL 2
REMARK VINA RESULT:     -10.9      3.588      6.427
REMARK SMILES C[C@@H](C(=O)NCCCNC(=O)c1ccc(-c2c3nc(c(-c4c(F)cc(S(=O)(=O)[O-])cc4F)c4ccc([nH]4)c(-c4c(F)cc(S(=O)(=O)[O-])cc4F)c4nc(c(-c5c(F)cc(S(=O)(=O)[O-])cc5F)c5ccc2[nH]5)C=C4)C=C3)cc1)c1ccc(C[C@H]2CCCC2=O)cc1
REMARK SMILES IDX 7 1 6 2 5 3 3 4 4 5 2 7 1 8 78 9 79 10 90 11 80 12 89 13
REMARK SMILES IDX 81 14 82 15 83 16 84 17 87 18 85 19 86 20 88 21 8 22 9 23
REMARK SMILES IDX 10 24 11 26 12 27 13 28 77 29 14 30 76 31 15 32 16 33 17 34
REMARK SMILES IDX 70 35 18 36 75 37 69 38 71 39 19 40 74 41 68 42 67 43 20 45
REMARK SMILES IDX 54 46 33 47 53 48 34 49 37 50 52 51 72 52 35 53 36 54 51 56
REMARK SMILES IDX 73 57 38 58 21 59 22 60 31 61 23 62 24 63 30 64 32 65 25 66
REMARK SMILES IDX 26 67 27 68 28 69 29 70 55 71 56 72 65 73 57 74 58 75 64 76
REMARK SMILES IDX 66 77 59 78 60 79 61 80 62 81 63 82 39 83 40 84 49 85 41 86
REMARK SMILES IDX 42 87 48 88 50 89 43 90 44 91 45 92 46 93 47 94
REMARK H PARENT 5 6 9 25 71 44 37 55
REMARK Flexibility Score: inf
ROOT
ATOM      1  C   UNL A   1      34.405  29.242  27.485  1.00  0.00     0.042 C 
ENDROOT
BRANCH   1   2
ATOM      2  C   UNL A   1      33.031  29.649  26.958  1.00  0.00     0.117 C 
BRANCH   2   3
ATOM      3  N   UNL A   1      32.030  28.630  27.202  1.00  0.00    -0.356 N 
ATOM      4  C   UNL A   1      31.483  27.694  26.375  1.00  0.00     0.227 C 
ATOM      5  O   UNL A   1      30.636  26.958  26.886  1.00  0.00    -0.274 OA
ATOM      6  H   UNL A   1      31.685  28.611  28.124  1.00  0.00     0.163 HD
BRANCH   4   7
ATOM      7  C   UNL A   1      31.958  27.568  24.914  1.00  0.00     0.105 C 
ATOM      8  C   UNL A   1      30.802  27.400  23.927  1.00  0.00     0.023 C 
BRANCH   7   9
ATOM      9  C   UNL A   1      32.946  26.424  24.697  1.00  0.00    -0.036 A 
ATOM     10  C   UNL A   1      33.691  25.894  25.761  1.00  0.00     0.005 A 
ATOM     11  C   UNL A   1      33.085  25.841  23.430  1.00  0.00     0.005 A 
ATOM     12  C   UNL A   1      34.585  24.844  25.557  1.00  0.00     0.004 A 
ATOM     13  C   UNL A   1      33.980  24.787  23.225  1.00  0.00     0.004 A 
ATOM     14  C   UNL A   1      34.755  24.295  24.282  1.00  0.00    -0.047 A 
BRANCH  14  15
ATOM     15  C   UNL A   1      35.782  23.214  24.052  1.00  0.00     0.047 C 
BRANCH  15  16
ATOM     16  C   UNL A   1      36.232  22.442  25.298  1.00  0.00     0.060 C 
ATOM     17  C   UNL A   1      36.256  20.915  25.184  1.00  0.00     0.012 C 
ATOM     18  C   UNL A   1      37.660  22.747  25.692  1.00  0.00     0.136 C 
ATOM     19  C   UNL A   1      37.694  20.533  24.856  1.00  0.00     0.009 C 
ATOM     20  C   UNL A   1      38.562  21.545  25.590  1.00  0.00     0.076 C 
ATOM     21  O   UNL A   1      38.034  23.846  26.089  1.00  0.00    -0.299 OA
ENDBRANCH  15  16
ENDBRANCH  14  15
ENDBRANCH   7   9
ENDBRANCH   4   7
ENDBRANCH   2   3
ENDBRANCH   1   2
BRANCH   1  22
ATOM     22  C   UNL A   1      35.352  30.409  27.748  1.00  0.00     0.118 C 
BRANCH  22  23
ATOM     23  N   UNL A   1      35.338  30.849  29.136  1.00  0.00    -0.352 N 
ATOM     24  C   UNL A   1      36.276  30.655  30.123  1.00  0.00     0.251 C 
ATOM     25  H   UNL A   1      34.541  31.360  29.407  1.00  0.00     0.163 HD
ATOM     26  O   UNL A   1      36.009  30.954  31.283  1.00  0.00    -0.269 OA
BRANCH  24  27
ATOM     27  C   UNL A   1      37.589  30.063  29.789  1.00  0.00     0.039 A 
ATOM     28  C   UNL A   1      38.007  30.046  28.455  1.00  0.00     0.014 A 
ATOM     29  C   UNL A   1      38.407  29.532  30.789  1.00  0.00     0.014 A 
ATOM     30  C   UNL A   1      39.281  29.567  28.135  1.00  0.00     0.010 A 
ATOM     31  C   UNL A   1      39.700  29.124  30.478  1.00  0.00     0.010 A 
ATOM     32  C   UNL A   1      40.152  29.140  29.148  1.00  0.00    -0.014 A 
BRANCH  32  33
ATOM     33  C   UNL A   1      41.543  28.706  28.862  1.00  0.00     0.031 A 
ATOM     34  C   UNL A   1      42.643  29.729  28.787  1.00  0.00     0.074 A 
ATOM     35  C   UNL A   1      41.795  27.420  28.552  1.00  0.00     0.049 A 
ATOM     36  N   UNL A   1      43.877  29.590  28.379  1.00  0.00    -0.248 NA
ATOM     37  C   UNL A   1      42.293  31.099  29.193  1.00  0.00     0.031 C 
ATOM     38  C   UNL A   1      40.803  26.342  28.545  1.00  0.00     0.029 A 
ATOM     39  N   UNL A   1      42.954  26.807  28.146  1.00  0.00    -0.354 N 
ATOM     40  C   UNL A   1      44.442  30.857  28.447  1.00  0.00     0.074 A 
ATOM     41  C   UNL A   1      43.403  31.759  28.898  1.00  0.00     0.031 C 
ATOM     42  C   UNL A   1      41.394  25.205  28.146  1.00  0.00     0.029 A 
ATOM     43  C   UNL A   1      42.792  25.479  27.827  1.00  0.00     0.049 A 
ATOM     44  H   UNL A   1      43.820  27.273  28.089  1.00  0.00     0.167 HD
ATOM     45  C   UNL A   1      45.714  31.232  28.171  1.00  0.00     0.037 A 
ATOM     46  C   UNL A   1      43.661  24.589  27.308  1.00  0.00     0.037 A 
ATOM     47  C   UNL A   1      46.747  30.324  27.746  1.00  0.00     0.049 A 
ATOM     48  C   UNL A   1      45.072  25.018  27.022  1.00  0.00     0.074 A 
ATOM     49  C   UNL A   1      48.082  30.591  27.507  1.00  0.00     0.029 A 
ATOM     50  N   UNL A   1      46.556  28.973  27.494  1.00  0.00    -0.354 N 
ATOM     51  N   UNL A   1      45.611  26.206  27.152  1.00  0.00    -0.248 NA
ATOM     52  C   UNL A   1      45.997  23.989  26.527  1.00  0.00     0.031 C 
ATOM     53  C   UNL A   1      48.692  29.409  27.071  1.00  0.00     0.029 A 
ATOM     54  C   UNL A   1      47.746  28.396  27.084  1.00  0.00     0.049 A 
ATOM     55  H   UNL A   1      45.701  28.495  27.593  1.00  0.00     0.167 HD
ATOM     56  C   UNL A   1      46.942  26.065  26.778  1.00  0.00     0.074 A 
ATOM     57  C   UNL A   1      47.129  24.674  26.417  1.00  0.00     0.031 C 
ATOM     58  C   UNL A   1      47.920  27.005  26.742  1.00  0.00     0.037 A 
BRANCH  45  59
ATOM     59  C   UNL A   1      46.045  32.694  28.308  1.00  0.00     0.058 A 
ATOM     60  C   UNL A   1      46.513  33.234  29.517  1.00  0.00     0.135 A 
ATOM     61  C   UNL A   1      45.881  33.567  27.221  1.00  0.00     0.135 A 
ATOM     62  F   UNL A   1      46.677  32.446  30.592  1.00  0.00    -0.206 F 
ATOM     63  C   UNL A   1      46.752  34.597  29.660  1.00  0.00     0.059 A 
ATOM     64  C   UNL A   1      46.144  34.930  27.333  1.00  0.00     0.059 A 
ATOM     65  F   UNL A   1      45.444  33.104  26.040  1.00  0.00    -0.206 F 
ATOM     66  C   UNL A   1      46.552  35.439  28.565  1.00  0.00     0.060 A 
BRANCH  66  67
ATOM     67  S   UNL A   1      46.820  37.211  28.777  1.00  0.00     0.124 S 
ATOM     68  O   UNL A   1      45.469  37.674  29.077  1.00  0.00    -0.237 OA
ATOM     69  O   UNL A   1      47.766  37.256  29.888  1.00  0.00    -0.237 OA
ATOM     70  O   UNL A   1      47.356  37.630  27.486  1.00  0.00    -0.744 OA
ENDBRANCH  66  67
ENDBRANCH  45  59
BRANCH  46  71
ATOM     71  C   UNL A   1      43.202  23.201  27.039  1.00  0.00     0.058 A 
ATOM     72  C   UNL A   1      42.973  22.756  25.729  1.00  0.00     0.135 A 
ATOM     73  C   UNL A   1      43.055  22.271  28.081  1.00  0.00     0.135 A 
ATOM     74  F   UNL A   1      43.093  23.611  24.701  1.00  0.00    -0.206 F 
ATOM     75  C   UNL A   1      42.622  21.438  25.459  1.00  0.00     0.059 A 
ATOM     76  C   UNL A   1      42.726  20.942  27.834  1.00  0.00     0.059 A 
ATOM     77  F   UNL A   1      43.282  22.643  29.351  1.00  0.00    -0.206 F 
ATOM     78  C   UNL A   1      42.511  20.535  26.519  1.00  0.00     0.060 A 
BRANCH  78  79
ATOM     79  S   UNL A   1      42.155  18.803  26.146  1.00  0.00     0.124 S 
ATOM     80  O   UNL A   1      43.121  18.524  25.090  1.00  0.00    -0.237 OA
ATOM     81  O   UNL A   1      42.406  18.156  27.430  1.00  0.00    -0.237 OA
ATOM     82  O   UNL A   1      40.756  18.831  25.732  1.00  0.00    -0.744 OA
ENDBRANCH  78  79
ENDBRANCH  46  71
BRANCH  58  83
ATOM     83  C   UNL A   1      49.299  26.567  26.333  1.00  0.00     0.058 A 
ATOM     84  C   UNL A   1      49.770  26.745  25.024  1.00  0.00     0.135 A 
ATOM     85  C   UNL A   1      50.192  26.065  27.293  1.00  0.00     0.135 A 
ATOM     86  F   UNL A   1      48.953  27.214  24.069  1.00  0.00    -0.206 F 
ATOM     87  C   UNL A   1      51.085  26.445  24.682  1.00  0.00     0.059 A 
ATOM     88  C   UNL A   1      51.516  25.777  26.978  1.00  0.00     0.059 A 
ATOM     89  F   UNL A   1      49.789  25.882  28.561  1.00  0.00    -0.206 F 
ATOM     90  C   UNL A   1      51.954  25.971  25.669  1.00  0.00     0.060 A 
BRANCH  90  91
ATOM     91  S   UNL A   1      53.678  25.666  25.231  1.00  0.00     0.124 S 
ATOM     92  O   UNL A   1      53.664  25.904  23.791  1.00  0.00    -0.237 OA
ATOM     93  O   UNL A   1      54.385  26.661  26.031  1.00  0.00    -0.237 OA
ATOM     94  O   UNL A   1      53.892  24.279  25.635  1.00  0.00    -0.744 OA
ENDBRANCH  90  91
ENDBRANCH  58  83
ENDBRANCH  32  33
ENDBRANCH  24  27
ENDBRANCH  22  23
ENDBRANCH   1  22
TORSDOF 16
ENDMDL
MODEL 3
REMARK VINA RESULT:     -10.9      1.535      2.834
REMARK SMILES C[C@@H](C(=O)NCCCNC(=O)c1ccc(-c2c3nc(c(-c4c(F)cc(S(=O)(=O)[O-])cc4F)c4ccc([nH]4)c(-c4c(F)cc(S(=O)(=O)[O-])cc4F)c4nc(c(-c5c(F)cc(S(=O)(=O)[O-])cc5F)c5ccc2[nH]5)C=C4)C=C3)cc1)c1ccc(C[C@H]2CCCC2=O)cc1
REMARK SMILES IDX 7 1 6 2 5 3 3 4 4 5 2 7 1 8 78 9 79 10 90 11 80 12 89 13
REMARK SMILES IDX 81 14 82 15 83 16 84 17 87 18 85 19 86 20 88 21 8 22 9 23
REMARK SMILES IDX 10 24 11 26 12 27 13 28 77 29 14 30 76 31 15 32 16 33 17 34
REMARK SMILES IDX 70 35 18 36 75 37 69 38 71 39 19 40 74 41 68 42 67 43 20 45
REMARK SMILES IDX 54 46 33 47 53 48 34 49 37 50 52 51 72 52 35 53 36 54 51 56
REMARK SMILES IDX 73 57 38 58 21 59 22 60 31 61 23 62 24 63 30 64 32 65 25 66
REMARK SMILES IDX 26 67 27 68 28 69 29 70 55 71 56 72 65 73 57 74 58 75 64 76
REMARK SMILES IDX 66 77 59 78 60 79 61 80 62 81 63 82 39 83 40 84 49 85 41 86
REMARK SMILES IDX 42 87 48 88 50 89 43 90 44 91 45 92 46 93 47 94
REMARK H PARENT 5 6 9 25 71 44 37 55
REMARK Flexibility Score: inf
ROOT
ATOM      1  C   UNL A   1      34.516  34.036  29.368  1.00  0.00     0.042 C 
ENDROOT
BRANCH   1   2
ATOM      2  C   UNL A   1      35.106  33.675  30.729  1.00  0.00     0.117 C 
BRANCH   2   3
ATOM      3  N   UNL A   1      36.449  34.194  30.896  1.00  0.00    -0.356 N 
ATOM      4  C   UNL A   1      37.369  34.002  31.883  1.00  0.00     0.227 C 
ATOM      5  O   UNL A   1      38.441  34.594  31.739  1.00  0.00    -0.274 OA
ATOM      6  H   UNL A   1      36.748  34.788  30.170  1.00  0.00     0.163 HD
BRANCH   4   7
ATOM      7  C   UNL A   1      37.064  33.057  33.062  1.00  0.00     0.105 C 
ATOM      8  C   UNL A   1      36.802  33.806  34.370  1.00  0.00     0.023 C 
BRANCH   7   9
ATOM      9  C   UNL A   1      38.164  32.027  33.310  1.00  0.00    -0.036 A 
ATOM     10  C   UNL A   1      38.020  30.695  32.896  1.00  0.00     0.005 A 
ATOM     11  C   UNL A   1      39.370  32.411  33.913  1.00  0.00     0.005 A 
ATOM     12  C   UNL A   1      39.031  29.762  33.119  1.00  0.00     0.004 A 
ATOM     13  C   UNL A   1      40.385  31.476  34.136  1.00  0.00     0.004 A 
ATOM     14  C   UNL A   1      40.215  30.138  33.761  1.00  0.00    -0.047 A 
BRANCH  14  15
ATOM     15  C   UNL A   1      41.271  29.106  34.072  1.00  0.00     0.047 C 
BRANCH  15  16
ATOM     16  C   UNL A   1      42.587  29.241  33.296  1.00  0.00     0.060 C 
ATOM     17  C   UNL A   1      43.842  29.533  34.125  1.00  0.00     0.012 C 
ATOM     18  C   UNL A   1      42.977  27.968  32.579  1.00  0.00     0.136 C 
ATOM     19  C   UNL A   1      44.522  28.190  34.359  1.00  0.00     0.009 C 
ATOM     20  C   UNL A   1      44.261  27.376  33.099  1.00  0.00     0.076 C 
ATOM     21  O   UNL A   1      42.336  27.492  31.648  1.00  0.00    -0.299 OA
ENDBRANCH  15  16
ENDBRANCH  14  15
ENDBRANCH   7   9
ENDBRANCH   4   7
ENDBRANCH   2   3
ENDBRANCH   1   2
BRANCH   1  22
ATOM     22  C   UNL A   1      34.927  33.101  28.234  1.00  0.00     0.118 C 
BRANCH  22  23
ATOM     23  N   UNL A   1      33.996  31.997  28.044  1.00  0.00    -0.352 N 
ATOM     24  C   UNL A   1      34.248  30.649  27.950  1.00  0.00     0.251 C 
ATOM     25  H   UNL A   1      33.048  32.255  27.972  1.00  0.00     0.163 HD
ATOM     26  O   UNL A   1      33.348  29.883  27.617  1.00  0.00    -0.269 OA
BRANCH  24  27
ATOM     27  C   UNL A   1      35.605  30.130  28.224  1.00  0.00     0.039 A 
ATOM     28  C   UNL A   1      36.534  30.074  27.181  1.00  0.00     0.014 A 
ATOM     29  C   UNL A   1      35.960  29.705  29.506  1.00  0.00     0.014 A 
ATOM     30  C   UNL A   1      37.845  29.665  27.444  1.00  0.00     0.010 A 
ATOM     31  C   UNL A   1      37.282  29.368  29.780  1.00  0.00     0.010 A 
ATOM     32  C   UNL A   1      38.239  29.348  28.752  1.00  0.00    -0.014 A 
BRANCH  32  33
ATOM     33  C   UNL A   1      39.642  28.994  29.090  1.00  0.00     0.031 A 
ATOM     34  C   UNL A   1      40.572  30.050  29.619  1.00  0.00     0.074 A 
ATOM     35  C   UNL A   1      40.109  27.762  28.808  1.00  0.00     0.049 A 
ATOM     36  N   UNL A   1      41.864  29.998  29.805  1.00  0.00    -0.248 NA
ATOM     37  C   UNL A   1      39.967  31.350  29.948  1.00  0.00     0.031 C 
ATOM     38  C   UNL A   1      39.317  26.664  28.249  1.00  0.00     0.029 A 
ATOM     39  N   UNL A   1      41.373  27.238  28.917  1.00  0.00    -0.354 N 
ATOM     40  C   UNL A   1      42.234  31.264  30.241  1.00  0.00     0.074 A 
ATOM     41  C   UNL A   1      41.033  32.073  30.254  1.00  0.00     0.031 C 
ATOM     42  C   UNL A   1      40.114  25.602  28.057  1.00  0.00     0.029 A 
ATOM     43  C   UNL A   1      41.479  25.954  28.436  1.00  0.00     0.049 A 
ATOM     44  H   UNL A   1      42.131  27.733  29.303  1.00  0.00     0.167 HD
ATOM     45  C   UNL A   1      43.460  31.708  30.610  1.00  0.00     0.037 A 
ATOM     46  C   UNL A   1      42.558  25.159  28.286  1.00  0.00     0.037 A 
ATOM     47  C   UNL A   1      44.643  30.888  30.617  1.00  0.00     0.049 A 
ATOM     48  C   UNL A   1      43.907  25.661  28.715  1.00  0.00     0.074 A 
ATOM     49  C   UNL A   1      45.918  31.222  31.037  1.00  0.00     0.029 A 
ATOM     50  N   UNL A   1      44.696  29.573  30.179  1.00  0.00    -0.354 N 
ATOM     51  N   UNL A   1      44.233  26.841  29.187  1.00  0.00    -0.248 NA
ATOM     52  C   UNL A   1      45.037  24.727  28.599  1.00  0.00     0.031 C 
ATOM     53  C   UNL A   1      46.752  30.120  30.816  1.00  0.00     0.029 A 
ATOM     54  C   UNL A   1      45.986  29.085  30.302  1.00  0.00     0.049 A 
ATOM     55  H   UNL A   1      43.929  29.061  29.834  1.00  0.00     0.167 HD
ATOM     56  C   UNL A   1      45.597  26.786  29.446  1.00  0.00     0.074 A 
ATOM     57  C   UNL A   1      46.038  25.455  29.081  1.00  0.00     0.031 C 
ATOM     58  C   UNL A   1      46.407  27.751  29.947  1.00  0.00     0.037 A 
BRANCH  45  59
ATOM     59  C   UNL A   1      43.574  33.151  31.020  1.00  0.00     0.058 A 
ATOM     60  C   UNL A   1      43.791  34.170  30.078  1.00  0.00     0.135 A 
ATOM     61  C   UNL A   1      43.480  33.517  32.372  1.00  0.00     0.135 A 
ATOM     62  F   UNL A   1      43.900  33.874  28.773  1.00  0.00    -0.206 F 
ATOM     63  C   UNL A   1      43.966  35.494  30.468  1.00  0.00     0.059 A 
ATOM     64  C   UNL A   1      43.621  34.841  32.781  1.00  0.00     0.059 A 
ATOM     65  F   UNL A   1      43.267  32.585  33.313  1.00  0.00    -0.206 F 
ATOM     66  C   UNL A   1      43.891  35.817  31.824  1.00  0.00     0.060 A 
BRANCH  66  67
ATOM     67  S   UNL A   1      44.167  37.530  32.320  1.00  0.00     0.124 S 
ATOM     68  O   UNL A   1      43.094  37.726  33.291  1.00  0.00    -0.237 OA
ATOM     69  O   UNL A   1      45.518  37.487  32.870  1.00  0.00    -0.237 OA
ATOM     70  O   UNL A   1      44.027  38.272  31.071  1.00  0.00    -0.744 OA
ENDBRANCH  66  67
ENDBRANCH  45  59
BRANCH  46  71
ATOM     71  C   UNL A   1      42.383  23.800  27.709  1.00  0.00     0.058 A 
ATOM     72  C   UNL A   1      42.392  23.598  26.322  1.00  0.00     0.135 A 
ATOM     73  C   UNL A   1      42.276  22.670  28.535  1.00  0.00     0.135 A 
ATOM     74  F   UNL A   1      42.484  24.649  25.492  1.00  0.00    -0.206 F 
ATOM     75  C   UNL A   1      42.311  22.323  25.772  1.00  0.00     0.059 A 
ATOM     76  C   UNL A   1      42.215  21.383  28.009  1.00  0.00     0.059 A 
ATOM     77  F   UNL A   1      42.282  22.810  29.870  1.00  0.00    -0.206 F 
ATOM     78  C   UNL A   1      42.233  21.220  26.625  1.00  0.00     0.060 A 
BRANCH  78  79
ATOM     79  S   UNL A   1      42.230  19.565  25.902  1.00  0.00     0.124 S 
ATOM     80  O   UNL A   1      42.650  18.748  27.034  1.00  0.00    -0.237 OA
ATOM     81  O   UNL A   1      40.840  19.414  25.485  1.00  0.00    -0.237 OA
ATOM     82  O   UNL A   1      43.193  19.676  24.810  1.00  0.00    -0.744 OA
ENDBRANCH  78  79
ENDBRANCH  46  71
BRANCH  58  83
ATOM     83  C   UNL A   1      47.853  27.407  30.170  1.00  0.00     0.058 A 
ATOM     84  C   UNL A   1      48.834  27.684  29.206  1.00  0.00     0.135 A 
ATOM     85  C   UNL A   1      48.273  26.895  31.409  1.00  0.00     0.135 A 
ATOM     86  F   UNL A   1      48.482  28.166  28.004  1.00  0.00    -0.206 F 
ATOM     87  C   UNL A   1      50.184  27.470  29.464  1.00  0.00     0.059 A 
ATOM     88  C   UNL A   1      49.619  26.693  31.696  1.00  0.00     0.059 A 
ATOM     89  F   UNL A   1      47.373  26.619  32.366  1.00  0.00    -0.206 F 
ATOM     90  C   UNL A   1      50.568  26.984  30.717  1.00  0.00     0.060 A 
BRANCH  90  91
ATOM     91  S   UNL A   1      52.328  26.791  31.070  1.00  0.00     0.124 S 
ATOM     92  O   UNL A   1      52.847  26.383  29.768  1.00  0.00    -0.237 OA
ATOM     93  O   UNL A   1      52.707  28.129  31.512  1.00  0.00    -0.237 OA
ATOM     94  O   UNL A   1      52.357  25.764  32.107  1.00  0.00    -0.744 OA
ENDBRANCH  90  91
ENDBRANCH  58  83
ENDBRANCH  32  33
ENDBRANCH  24  27
ENDBRANCH  22  23
ENDBRANCH   1  22
TORSDOF 16
ENDMDL
