MODEL 1
REMARK VINA RESULT:     -11.6      0.000      0.000
REMARK SMILES O=C(C[C@@H]([NH2+]Cc1ccccc1)C(=O)NCCCNC(=O)c1ccc(-c2c3nc(c(-c4c(F)cc(S(=O)(=O)[O-])cc4F)c4ccc([nH]4)c(-c4c(F)cc(S(=O)(=O)[O-])cc4F)c4nc(c(-c5c(F)cc(S(=O)(=O)[O-])cc5F)c5ccc2[nH]5)C=C4)C=C3)cc1)Nc1cccc(Cl)c1Cl
REMARK SMILES IDX 17 1 16 2 15 3 13 4 14 5 4 7 3 8 2 9 1 10 88 11 89 13 90 14
REMARK SMILES IDX 95 15 91 16 93 17 96 18 92 19 94 20 5 21 6 24 7 25 8 26
REMARK SMILES IDX 12 27 9 28 11 29 10 30 18 31 19 32 20 33 21 35 22 36 23 37
REMARK SMILES IDX 87 38 24 39 86 40 25 41 26 42 27 43 80 44 28 45 85 46 79 47
REMARK SMILES IDX 81 48 29 49 84 50 78 51 77 52 30 54 64 55 43 56 63 57 44 58
REMARK SMILES IDX 47 59 62 60 82 61 45 62 46 63 61 65 83 66 48 67 31 68 32 69
REMARK SMILES IDX 41 70 33 71 34 72 40 73 42 74 35 75 36 76 37 77 38 78 39 79
REMARK SMILES IDX 65 80 66 81 75 82 67 83 68 84 74 85 76 86 69 87 70 88 71 89
REMARK SMILES IDX 72 90 73 91 49 92 50 93 59 94 51 95 52 96 58 97 60 98 53 99
REMARK SMILES IDX 54 100 55 101 56 102 57 103
REMARK H PARENT 15 6 88 12 5 22 5 23 19 34 81 53 47 64
REMARK Flexibility Score: inf
ROOT
ATOM      1  C   UNL A   1      32.272  28.152  26.908  1.00  0.00     0.042 C 
ENDROOT
BRANCH   1   2
ATOM      2  C   UNL A   1      31.677  27.058  26.025  1.00  0.00     0.118 C 
BRANCH   2   3
ATOM      3  N   UNL A   1      31.325  25.890  26.811  1.00  0.00    -0.351 N 
ATOM      4  C   UNL A   1      31.596  24.571  26.608  1.00  0.00     0.278 C 
ATOM      5  O   UNL A   1      31.114  23.764  27.408  1.00  0.00    -0.268 OA
ATOM      6  H   UNL A   1      30.805  26.082  27.625  1.00  0.00     0.163 HD
BRANCH   4   7
ATOM      7  C   UNL A   1      32.512  24.094  25.463  1.00  0.00     0.282 C 
BRANCH   7   8
ATOM      8  C   UNL A   1      33.857  24.821  25.548  1.00  0.00     0.175 C 
BRANCH   8   9
ATOM      9  C   UNL A   1      34.941  23.949  26.125  1.00  0.00     0.230 C 
ATOM     10  O   UNL A   1      34.756  23.250  27.116  1.00  0.00    -0.274 OA
ATOM     11  N   UNL A   1      36.151  24.099  25.466  1.00  0.00    -0.325 N 
ATOM     12  H   UNL A   1      36.231  24.808  24.787  1.00  0.00     0.169 HD
BRANCH  11  13
ATOM     13  C   UNL A   1      37.274  23.286  25.721  1.00  0.00     0.061 A 
ATOM     14  C   UNL A   1      38.366  23.908  26.340  1.00  0.00     0.028 A 
ATOM     15  C   UNL A   1      37.348  21.923  25.362  1.00  0.00     0.083 A 
ATOM     16  C   UNL A   1      39.496  23.168  26.683  1.00  0.00     0.004 A 
ATOM     17  C   UNL A   1      38.499  21.194  25.695  1.00  0.00     0.061 A 
ATOM     18  Cl  UNL A   1      36.125  21.203  24.359  1.00  0.00    -0.080 Cl
ATOM     19  C   UNL A   1      39.559  21.813  26.368  1.00  0.00     0.022 A 
ATOM     20  Cl  UNL A   1      38.702  19.524  25.283  1.00  0.00    -0.083 Cl
ENDBRANCH  11  13
ENDBRANCH   8   9
ENDBRANCH   7   8
BRANCH   7  21
ATOM     21  N   UNL A   1      32.637  22.602  25.423  1.00  0.00    -0.332 N 
ATOM     22  H   UNL A   1      31.941  22.203  26.052  1.00  0.00     0.347 HD
ATOM     23  H   UNL A   1      33.591  22.375  25.704  1.00  0.00     0.347 HD
BRANCH  21  24
ATOM     24  C   UNL A   1      32.433  22.028  24.077  1.00  0.00     0.297 C 
BRANCH  24  25
ATOM     25  C   UNL A   1      32.501  20.519  24.070  1.00  0.00     0.006 A 
ATOM     26  C   UNL A   1      32.282  19.796  22.890  1.00  0.00     0.009 A 
ATOM     27  C   UNL A   1      32.836  19.818  25.238  1.00  0.00     0.009 A 
ATOM     28  C   UNL A   1      32.429  18.410  22.866  1.00  0.00     0.001 A 
ATOM     29  C   UNL A   1      32.962  18.428  25.218  1.00  0.00     0.001 A 
ATOM     30  C   UNL A   1      32.769  17.726  24.030  1.00  0.00     0.000 A 
ENDBRANCH  24  25
ENDBRANCH  21  24
ENDBRANCH   7  21
ENDBRANCH   4   7
ENDBRANCH   2   3
ENDBRANCH   1   2
BRANCH   1  31
ATOM     31  C   UNL A   1      33.600  28.699  26.392  1.00  0.00     0.118 C 
BRANCH  31  32
ATOM     32  N   UNL A   1      33.693  30.147  26.524  1.00  0.00    -0.352 N 
ATOM     33  C   UNL A   1      34.559  30.908  27.266  1.00  0.00     0.251 C 
ATOM     34  H   UNL A   1      33.034  30.656  26.000  1.00  0.00     0.163 HD
ATOM     35  O   UNL A   1      34.332  32.109  27.412  1.00  0.00    -0.269 OA
BRANCH  33  36
ATOM     36  C   UNL A   1      35.741  30.294  27.904  1.00  0.00     0.039 A 
ATOM     37  C   UNL A   1      36.962  30.315  27.225  1.00  0.00     0.014 A 
ATOM     38  C   UNL A   1      35.650  29.695  29.163  1.00  0.00     0.014 A 
ATOM     39  C   UNL A   1      38.106  29.809  27.843  1.00  0.00     0.010 A 
ATOM     40  C   UNL A   1      36.805  29.259  29.809  1.00  0.00     0.010 A 
ATOM     41  C   UNL A   1      38.047  29.322  29.159  1.00  0.00    -0.014 A 
BRANCH  41  42
ATOM     42  C   UNL A   1      39.281  28.941  29.893  1.00  0.00     0.031 A 
ATOM     43  C   UNL A   1      39.718  29.700  31.113  1.00  0.00     0.074 A 
ATOM     44  C   UNL A   1      40.058  27.959  29.395  1.00  0.00     0.049 A 
ATOM     45  N   UNL A   1      40.799  29.546  31.836  1.00  0.00    -0.248 NA
ATOM     46  C   UNL A   1      38.840  30.788  31.567  1.00  0.00     0.031 C 
ATOM     47  C   UNL A   1      39.772  27.195  28.178  1.00  0.00     0.029 A 
ATOM     48  N   UNL A   1      41.255  27.450  29.832  1.00  0.00    -0.354 N 
ATOM     49  C   UNL A   1      40.741  30.529  32.818  1.00  0.00     0.074 A 
ATOM     50  C   UNL A   1      39.540  31.299  32.571  1.00  0.00     0.031 C 
ATOM     51  C   UNL A   1      40.759  26.312  27.971  1.00  0.00     0.029 A 
ATOM     52  C   UNL A   1      41.770  26.475  29.011  1.00  0.00     0.049 A 
ATOM     53  H   UNL A   1      41.703  27.754  30.654  1.00  0.00     0.167 HD
ATOM     54  C   UNL A   1      41.605  30.757  33.837  1.00  0.00     0.037 A 
ATOM     55  C   UNL A   1      42.936  25.801  29.069  1.00  0.00     0.037 A 
ATOM     56  C   UNL A   1      42.794  29.978  34.074  1.00  0.00     0.049 A 
ATOM     57  C   UNL A   1      43.881  26.070  30.205  1.00  0.00     0.074 A 
ATOM     58  C   UNL A   1      43.684  30.068  35.130  1.00  0.00     0.029 A 
ATOM     59  N   UNL A   1      43.276  28.984  33.232  1.00  0.00    -0.354 N 
ATOM     60  N   UNL A   1      43.760  26.929  31.189  1.00  0.00    -0.248 NA
ATOM     61  C   UNL A   1      45.117  25.278  30.243  1.00  0.00     0.031 C 
ATOM     62  C   UNL A   1      44.737  29.177  34.892  1.00  0.00     0.029 A 
ATOM     63  C   UNL A   1      44.474  28.486  33.719  1.00  0.00     0.049 A 
ATOM     64  H   UNL A   1      42.830  28.678  32.409  1.00  0.00     0.167 HD
ATOM     65  C   UNL A   1      44.902  26.780  31.967  1.00  0.00     0.074 A 
ATOM     66  C   UNL A   1      45.689  25.729  31.353  1.00  0.00     0.031 C 
ATOM     67  C   UNL A   1      45.263  27.455  33.086  1.00  0.00     0.037 A 
BRANCH  54  68
ATOM     68  C   UNL A   1      41.307  31.912  34.756  1.00  0.00     0.058 A 
ATOM     69  C   UNL A   1      40.451  31.782  35.864  1.00  0.00     0.135 A 
ATOM     70  C   UNL A   1      41.894  33.169  34.533  1.00  0.00     0.135 A 
ATOM     71  F   UNL A   1      39.855  30.608  36.124  1.00  0.00    -0.206 F 
ATOM     72  C   UNL A   1      40.150  32.865  36.684  1.00  0.00     0.059 A 
ATOM     73  C   UNL A   1      41.634  34.258  35.360  1.00  0.00     0.059 A 
ATOM     74  F   UNL A   1      42.725  33.352  33.495  1.00  0.00    -0.206 F 
ATOM     75  C   UNL A   1      40.742  34.102  36.419  1.00  0.00     0.060 A 
BRANCH  75  76
ATOM     76  S   UNL A   1      40.315  35.504  37.473  1.00  0.00     0.124 S 
ATOM     77  O   UNL A   1      39.147  34.990  38.181  1.00  0.00    -0.237 OA
ATOM     78  O   UNL A   1      41.521  35.668  38.279  1.00  0.00    -0.237 OA
ATOM     79  O   UNL A   1      40.050  36.578  36.521  1.00  0.00    -0.744 OA
ENDBRANCH  75  76
ENDBRANCH  54  68
BRANCH  55  80
ATOM     80  C   UNL A   1      43.255  24.813  28.005  1.00  0.00     0.058 A 
ATOM     81  C   UNL A   1      44.036  25.168  26.897  1.00  0.00     0.135 A 
ATOM     82  C   UNL A   1      42.850  23.473  28.119  1.00  0.00     0.135 A 
ATOM     83  F   UNL A   1      44.440  26.438  26.739  1.00  0.00    -0.206 F 
ATOM     84  C   UNL A   1      44.415  24.228  25.944  1.00  0.00     0.059 A 
ATOM     85  C   UNL A   1      43.238  22.510  27.193  1.00  0.00     0.059 A 
ATOM     86  F   UNL A   1      42.115  23.081  29.171  1.00  0.00    -0.206 F 
ATOM     87  C   UNL A   1      44.023  22.898  26.109  1.00  0.00     0.060 A 
BRANCH  87  88
ATOM     88  S   UNL A   1      44.613  21.670  24.923  1.00  0.00     0.124 S 
ATOM     89  O   UNL A   1      45.998  21.497  25.342  1.00  0.00    -0.237 OA
ATOM     90  O   UNL A   1      43.720  20.545  25.182  1.00  0.00    -0.237 OA
ATOM     91  O   UNL A   1      44.418  22.329  23.634  1.00  0.00    -0.744 OA
ENDBRANCH  87  88
ENDBRANCH  55  80
BRANCH  67  92
ATOM     92  C   UNL A   1      46.577  27.087  33.721  1.00  0.00     0.058 A 
ATOM     93  C   UNL A   1      47.765  27.760  33.394  1.00  0.00     0.135 A 
ATOM     94  C   UNL A   1      46.642  26.090  34.708  1.00  0.00     0.135 A 
ATOM     95  F   UNL A   1      47.763  28.716  32.452  1.00  0.00    -0.206 F 
ATOM     96  C   UNL A   1      48.974  27.446  34.010  1.00  0.00     0.059 A 
ATOM     97  C   UNL A   1      47.834  25.779  35.357  1.00  0.00     0.059 A 
ATOM     98  F   UNL A   1      45.536  25.418  35.065  1.00  0.00    -0.206 F 
ATOM     99  C   UNL A   1      48.996  26.457  34.994  1.00  0.00     0.060 A 
BRANCH  99 100
ATOM    100  S   UNL A   1      50.562  26.088  35.813  1.00  0.00     0.124 S 
ATOM    101  O   UNL A   1      51.491  26.932  35.067  1.00  0.00    -0.237 OA
ATOM    102  O   UNL A   1      50.298  26.499  37.189  1.00  0.00    -0.237 OA
ATOM    103  O   UNL A   1      50.722  24.651  35.615  1.00  0.00    -0.744 OA
ENDBRANCH  99 100
ENDBRANCH  67  92
ENDBRANCH  41  42
ENDBRANCH  33  36
ENDBRANCH  31  32
ENDBRANCH   1  31
TORSDOF 19
ENDMDL
MODEL 2
REMARK VINA RESULT:     -11.5      3.440      9.389
REMARK SMILES O=C(C[C@@H]([NH2+]Cc1ccccc1)C(=O)NCCCNC(=O)c1ccc(-c2c3nc(c(-c4c(F)cc(S(=O)(=O)[O-])cc4F)c4ccc([nH]4)c(-c4c(F)cc(S(=O)(=O)[O-])cc4F)c4nc(c(-c5c(F)cc(S(=O)(=O)[O-])cc5F)c5ccc2[nH]5)C=C4)C=C3)cc1)Nc1cccc(Cl)c1Cl
REMARK SMILES IDX 17 1 16 2 15 3 13 4 14 5 4 7 3 8 2 9 1 10 88 11 89 13 90 14
REMARK SMILES IDX 95 15 91 16 93 17 96 18 92 19 94 20 5 21 6 24 7 25 8 26
REMARK SMILES IDX 12 27 9 28 11 29 10 30 18 31 19 32 20 33 21 35 22 36 23 37
REMARK SMILES IDX 87 38 24 39 86 40 25 41 26 42 27 43 80 44 28 45 85 46 79 47
REMARK SMILES IDX 81 48 29 49 84 50 78 51 77 52 30 54 64 55 43 56 63 57 44 58
REMARK SMILES IDX 47 59 62 60 82 61 45 62 46 63 61 65 83 66 48 67 31 68 32 69
REMARK SMILES IDX 41 70 33 71 34 72 40 73 42 74 35 75 36 76 37 77 38 78 39 79
REMARK SMILES IDX 65 80 66 81 75 82 67 83 68 84 74 85 76 86 69 87 70 88 71 89
REMARK SMILES IDX 72 90 73 91 49 92 50 93 59 94 51 95 52 96 58 97 60 98 53 99
REMARK SMILES IDX 54 100 55 101 56 102 57 103
REMARK H PARENT 15 6 88 12 5 22 5 23 19 34 81 53 47 64
REMARK Flexibility Score: inf
ROOT
ATOM      1  C   UNL A   1      39.166  22.498  26.363  1.00  0.00     0.042 C 
ENDROOT
BRANCH   1   2
ATOM      2  C   UNL A   1      38.075  23.543  26.145  1.00  0.00     0.118 C 
BRANCH   2   3
ATOM      3  N   UNL A   1      37.551  23.475  24.794  1.00  0.00    -0.351 N 
ATOM      4  C   UNL A   1      36.285  23.653  24.324  1.00  0.00     0.278 C 
ATOM      5  O   UNL A   1      36.098  23.469  23.117  1.00  0.00    -0.268 OA
ATOM      6  H   UNL A   1      38.221  23.266  24.103  1.00  0.00     0.163 HD
BRANCH   4   7
ATOM      7  C   UNL A   1      35.135  24.118  25.238  1.00  0.00     0.282 C 
BRANCH   7   8
ATOM      8  C   UNL A   1      34.255  25.119  24.482  1.00  0.00     0.175 C 
BRANCH   8   9
ATOM      9  C   UNL A   1      33.685  26.177  25.391  1.00  0.00     0.230 C 
ATOM     10  O   UNL A   1      32.897  25.906  26.291  1.00  0.00    -0.274 OA
ATOM     11  N   UNL A   1      34.087  27.455  25.037  1.00  0.00    -0.325 N 
ATOM     12  H   UNL A   1      34.590  27.573  24.199  1.00  0.00     0.169 HD
BRANCH  11  13
ATOM     13  C   UNL A   1      33.810  28.595  25.819  1.00  0.00     0.061 A 
ATOM     14  C   UNL A   1      34.709  28.872  26.856  1.00  0.00     0.028 A 
ATOM     15  C   UNL A   1      32.683  29.421  25.621  1.00  0.00     0.083 A 
ATOM     16  C   UNL A   1      34.547  30.012  27.642  1.00  0.00     0.004 A 
ATOM     17  C   UNL A   1      32.520  30.554  26.431  1.00  0.00     0.061 A 
ATOM     18  Cl  UNL A   1      31.419  28.948  24.526  1.00  0.00    -0.080 Cl
ATOM     19  C   UNL A   1      33.460  30.855  27.424  1.00  0.00     0.022 A 
ATOM     20  Cl  UNL A   1      31.165  31.622  26.287  1.00  0.00    -0.083 Cl
ENDBRANCH  11  13
ENDBRANCH   8   9
ENDBRANCH   7   8
BRANCH   7  21
ATOM     21  N   UNL A   1      34.372  22.967  25.817  1.00  0.00    -0.332 N 
ATOM     22  H   UNL A   1      33.835  23.305  26.615  1.00  0.00     0.347 HD
ATOM     23  H   UNL A   1      35.055  22.258  26.081  1.00  0.00     0.347 HD
BRANCH  21  24
ATOM     24  C   UNL A   1      33.438  22.335  24.861  1.00  0.00     0.297 C 
BRANCH  24  25
ATOM     25  C   UNL A   1      33.634  20.842  24.754  1.00  0.00     0.006 A 
ATOM     26  C   UNL A   1      32.550  19.992  24.499  1.00  0.00     0.009 A 
ATOM     27  C   UNL A   1      34.918  20.285  24.859  1.00  0.00     0.009 A 
ATOM     28  C   UNL A   1      32.745  18.624  24.316  1.00  0.00     0.001 A 
ATOM     29  C   UNL A   1      35.109  18.912  24.696  1.00  0.00     0.001 A 
ATOM     30  C   UNL A   1      34.024  18.084  24.414  1.00  0.00     0.000 A 
ENDBRANCH  24  25
ENDBRANCH  21  24
ENDBRANCH   7  21
ENDBRANCH   4   7
ENDBRANCH   2   3
ENDBRANCH   1   2
BRANCH   1  31
ATOM     31  C   UNL A   1      40.445  23.067  26.973  1.00  0.00     0.118 C 
BRANCH  31  32
ATOM     32  N   UNL A   1      41.216  23.848  26.015  1.00  0.00    -0.352 N 
ATOM     33  C   UNL A   1      41.607  25.162  26.063  1.00  0.00     0.251 C 
ATOM     34  H   UNL A   1      41.501  23.358  25.211  1.00  0.00     0.163 HD
ATOM     35  O   UNL A   1      42.066  25.692  25.051  1.00  0.00    -0.269 OA
BRANCH  33  36
ATOM     36  C   UNL A   1      41.459  25.943  27.308  1.00  0.00     0.039 A 
ATOM     37  C   UNL A   1      42.605  26.451  27.926  1.00  0.00     0.014 A 
ATOM     38  C   UNL A   1      40.200  26.173  27.869  1.00  0.00     0.014 A 
ATOM     39  C   UNL A   1      42.480  27.256  29.059  1.00  0.00     0.010 A 
ATOM     40  C   UNL A   1      40.071  27.037  28.954  1.00  0.00     0.010 A 
ATOM     41  C   UNL A   1      41.210  27.597  29.553  1.00  0.00    -0.014 A 
BRANCH  41  42
ATOM     42  C   UNL A   1      41.053  28.587  30.648  1.00  0.00     0.031 A 
ATOM     43  C   UNL A   1      41.869  28.482  31.906  1.00  0.00     0.074 A 
ATOM     44  C   UNL A   1      40.099  29.533  30.541  1.00  0.00     0.049 A 
ATOM     45  N   UNL A   1      41.816  29.218  32.987  1.00  0.00    -0.248 NA
ATOM     46  C   UNL A   1      42.856  27.394  31.966  1.00  0.00     0.031 C 
ATOM     47  C   UNL A   1      39.198  29.694  29.397  1.00  0.00     0.029 A 
ATOM     48  N   UNL A   1      39.711  30.522  31.410  1.00  0.00    -0.354 N 
ATOM     49  C   UNL A   1      42.747  28.672  33.863  1.00  0.00     0.074 A 
ATOM     50  C   UNL A   1      43.319  27.518  33.202  1.00  0.00     0.031 C 
ATOM     51  C   UNL A   1      38.370  30.722  29.630  1.00  0.00     0.029 A 
ATOM     52  C   UNL A   1      38.647  31.266  30.956  1.00  0.00     0.049 A 
ATOM     53  H   UNL A   1      40.151  30.684  32.275  1.00  0.00     0.167 HD
ATOM     54  C   UNL A   1      43.099  29.104  35.099  1.00  0.00     0.037 A 
ATOM     55  C   UNL A   1      37.952  32.258  31.545  1.00  0.00     0.037 A 
ATOM     56  C   UNL A   1      42.525  30.259  35.742  1.00  0.00     0.049 A 
ATOM     57  C   UNL A   1      38.356  32.721  32.916  1.00  0.00     0.074 A 
ATOM     58  C   UNL A   1      42.877  30.834  36.951  1.00  0.00     0.029 A 
ATOM     59  N   UNL A   1      41.461  31.001  35.244  1.00  0.00    -0.354 N 
ATOM     60  N   UNL A   1      39.313  32.264  33.688  1.00  0.00    -0.248 NA
ATOM     61  C   UNL A   1      37.593  33.834  33.494  1.00  0.00     0.031 C 
ATOM     62  C   UNL A   1      41.984  31.879  37.215  1.00  0.00     0.029 A 
ATOM     63  C   UNL A   1      41.114  31.997  36.143  1.00  0.00     0.049 A 
ATOM     64  H   UNL A   1      41.019  30.842  34.379  1.00  0.00     0.167 HD
ATOM     65  C   UNL A   1      39.270  33.036  34.844  1.00  0.00     0.074 A 
ATOM     66  C   UNL A   1      38.209  34.006  34.657  1.00  0.00     0.031 C 
ATOM     67  C   UNL A   1      40.039  32.944  35.958  1.00  0.00     0.037 A 
BRANCH  54  68
ATOM     68  C   UNL A   1      44.136  28.306  35.845  1.00  0.00     0.058 A 
ATOM     69  C   UNL A   1      43.786  27.279  36.738  1.00  0.00     0.135 A 
ATOM     70  C   UNL A   1      45.504  28.567  35.658  1.00  0.00     0.135 A 
ATOM     71  F   UNL A   1      42.495  26.989  36.963  1.00  0.00    -0.206 F 
ATOM     72  C   UNL A   1      44.750  26.575  37.453  1.00  0.00     0.059 A 
ATOM     73  C   UNL A   1      46.487  27.853  36.338  1.00  0.00     0.059 A 
ATOM     74  F   UNL A   1      45.899  29.532  34.812  1.00  0.00    -0.206 F 
ATOM     75  C   UNL A   1      46.098  26.875  37.251  1.00  0.00     0.060 A 
BRANCH  75  76
ATOM     76  S   UNL A   1      47.334  25.975  38.211  1.00  0.00     0.124 S 
ATOM     77  O   UNL A   1      47.155  24.615  37.713  1.00  0.00    -0.237 OA
ATOM     78  O   UNL A   1      48.576  26.634  37.819  1.00  0.00    -0.237 OA
ATOM     79  O   UNL A   1      46.921  26.196  39.593  1.00  0.00    -0.744 OA
ENDBRANCH  75  76
ENDBRANCH  54  68
BRANCH  55  80
ATOM     80  C   UNL A   1      36.803  32.866  30.823  1.00  0.00     0.058 A 
ATOM     81  C   UNL A   1      35.484  32.507  31.129  1.00  0.00     0.135 A 
ATOM     82  C   UNL A   1      37.003  33.877  29.869  1.00  0.00     0.135 A 
ATOM     83  F   UNL A   1      35.241  31.540  32.028  1.00  0.00    -0.206 F 
ATOM     84  C   UNL A   1      34.401  33.135  30.523  1.00  0.00     0.059 A 
ATOM     85  C   UNL A   1      35.937  34.538  29.269  1.00  0.00     0.059 A 
ATOM     86  F   UNL A   1      38.248  34.267  29.554  1.00  0.00    -0.206 F 
ATOM     87  C   UNL A   1      34.638  34.160  29.604  1.00  0.00     0.060 A 
BRANCH  87  88
ATOM     88  S   UNL A   1      33.222  35.040  28.908  1.00  0.00     0.124 S 
ATOM     89  O   UNL A   1      32.371  35.204  30.080  1.00  0.00    -0.237 OA
ATOM     90  O   UNL A   1      33.844  36.256  28.394  1.00  0.00    -0.237 OA
ATOM     91  O   UNL A   1      32.725  34.120  27.888  1.00  0.00    -0.744 OA
ENDBRANCH  87  88
ENDBRANCH  55  80
BRANCH  67  92
ATOM     92  C   UNL A   1      39.758  33.915  37.073  1.00  0.00     0.058 A 
ATOM     93  C   UNL A   1      39.013  33.541  38.203  1.00  0.00     0.135 A 
ATOM     94  C   UNL A   1      40.285  35.217  37.040  1.00  0.00     0.135 A 
ATOM     95  F   UNL A   1      38.478  32.312  38.283  1.00  0.00    -0.206 F 
ATOM     96  C   UNL A   1      38.786  34.427  39.252  1.00  0.00     0.059 A 
ATOM     97  C   UNL A   1      40.095  36.110  38.091  1.00  0.00     0.059 A 
ATOM     98  F   UNL A   1      41.010  35.627  35.987  1.00  0.00    -0.206 F 
ATOM     99  C   UNL A   1      39.336  35.708  39.188  1.00  0.00     0.060 A 
BRANCH  99 100
ATOM    100  S   UNL A   1      39.068  36.833  40.575  1.00  0.00     0.124 S 
ATOM    101  O   UNL A   1      38.052  36.119  41.342  1.00  0.00    -0.237 OA
ATOM    102  O   UNL A   1      40.393  36.896  41.185  1.00  0.00    -0.237 OA
ATOM    103  O   UNL A   1      38.620  38.065  39.933  1.00  0.00    -0.744 OA
ENDBRANCH  99 100
ENDBRANCH  67  92
ENDBRANCH  41  42
ENDBRANCH  33  36
ENDBRANCH  31  32
ENDBRANCH   1  31
TORSDOF 19
ENDMDL
MODEL 3
REMARK VINA RESULT:     -11.4      2.845      8.635
REMARK SMILES O=C(C[C@@H]([NH2+]Cc1ccccc1)C(=O)NCCCNC(=O)c1ccc(-c2c3nc(c(-c4c(F)cc(S(=O)(=O)[O-])cc4F)c4ccc([nH]4)c(-c4c(F)cc(S(=O)(=O)[O-])cc4F)c4nc(c(-c5c(F)cc(S(=O)(=O)[O-])cc5F)c5ccc2[nH]5)C=C4)C=C3)cc1)Nc1cccc(Cl)c1Cl
REMARK SMILES IDX 17 1 16 2 15 3 13 4 14 5 4 7 3 8 2 9 1 10 88 11 89 13 90 14
REMARK SMILES IDX 95 15 91 16 93 17 96 18 92 19 94 20 5 21 6 24 7 25 8 26
REMARK SMILES IDX 12 27 9 28 11 29 10 30 18 31 19 32 20 33 21 35 22 36 23 37
REMARK SMILES IDX 87 38 24 39 86 40 25 41 26 42 27 43 80 44 28 45 85 46 79 47
REMARK SMILES IDX 81 48 29 49 84 50 78 51 77 52 30 54 64 55 43 56 63 57 44 58
REMARK SMILES IDX 47 59 62 60 82 61 45 62 46 63 61 65 83 66 48 67 31 68 32 69
REMARK SMILES IDX 41 70 33 71 34 72 40 73 42 74 35 75 36 76 37 77 38 78 39 79
REMARK SMILES IDX 65 80 66 81 75 82 67 83 68 84 74 85 76 86 69 87 70 88 71 89
REMARK SMILES IDX 72 90 73 91 49 92 50 93 59 94 51 95 52 96 58 97 60 98 53 99
REMARK SMILES IDX 54 100 55 101 56 102 57 103
REMARK H PARENT 15 6 88 12 5 22 5 23 19 34 81 53 47 64
REMARK Flexibility Score: inf
ROOT
ATOM      1  C   UNL A   1      32.436  28.008  27.049  1.00  0.00     0.042 C 
ENDROOT
BRANCH   1   2
ATOM      2  C   UNL A   1      32.410  26.730  26.216  1.00  0.00     0.118 C 
BRANCH   2   3
ATOM      3  N   UNL A   1      31.422  25.797  26.725  1.00  0.00    -0.351 N 
ATOM      4  C   UNL A   1      30.651  24.881  26.075  1.00  0.00     0.278 C 
ATOM      5  O   UNL A   1      29.831  24.251  26.750  1.00  0.00    -0.268 OA
ATOM      6  H   UNL A   1      31.287  25.831  27.699  1.00  0.00     0.163 HD
BRANCH   4   7
ATOM      7  C   UNL A   1      30.823  24.591  24.571  1.00  0.00     0.282 C 
BRANCH   7   8
ATOM      8  C   UNL A   1      31.030  23.087  24.361  1.00  0.00     0.175 C 
BRANCH   8   9
ATOM      9  C   UNL A   1      32.454  22.753  24.003  1.00  0.00     0.230 C 
ATOM     10  O   UNL A   1      32.810  22.581  22.842  1.00  0.00    -0.274 OA
ATOM     11  N   UNL A   1      33.259  22.589  25.120  1.00  0.00    -0.325 N 
ATOM     12  H   UNL A   1      32.834  22.590  26.008  1.00  0.00     0.169 HD
BRANCH  11  13
ATOM     13  C   UNL A   1      34.656  22.420  25.046  1.00  0.00     0.061 A 
ATOM     14  C   UNL A   1      35.425  23.591  25.012  1.00  0.00     0.028 A 
ATOM     15  C   UNL A   1      35.287  21.159  24.976  1.00  0.00     0.083 A 
ATOM     16  C   UNL A   1      36.816  23.519  24.999  1.00  0.00     0.004 A 
ATOM     17  C   UNL A   1      36.688  21.101  24.943  1.00  0.00     0.061 A 
ATOM     18  Cl  UNL A   1      34.352  19.712  24.744  1.00  0.00    -0.080 Cl
ATOM     19  C   UNL A   1      37.446  22.277  24.973  1.00  0.00     0.022 A 
ATOM     20  Cl  UNL A   1      37.561  19.609  24.837  1.00  0.00    -0.083 Cl
ENDBRANCH  11  13
ENDBRANCH   8   9
ENDBRANCH   7   8
BRANCH   7  21
ATOM     21  N   UNL A   1      29.706  25.163  23.754  1.00  0.00    -0.332 N 
ATOM     22  H   UNL A   1      28.986  24.449  23.648  1.00  0.00     0.347 HD
ATOM     23  H   UNL A   1      30.106  25.448  22.860  1.00  0.00     0.347 HD
BRANCH  21  24
ATOM     24  C   UNL A   1      29.088  26.363  24.355  1.00  0.00     0.297 C 
BRANCH  24  25
ATOM     25  C   UNL A   1      29.352  27.618  23.556  1.00  0.00     0.006 A 
ATOM     26  C   UNL A   1      30.658  27.983  23.205  1.00  0.00     0.009 A 
ATOM     27  C   UNL A   1      28.286  28.412  23.109  1.00  0.00     0.009 A 
ATOM     28  C   UNL A   1      30.894  29.094  22.396  1.00  0.00     0.001 A 
ATOM     29  C   UNL A   1      28.525  29.537  22.317  1.00  0.00     0.001 A 
ATOM     30  C   UNL A   1      29.828  29.870  21.952  1.00  0.00     0.000 A 
ENDBRANCH  24  25
ENDBRANCH  21  24
ENDBRANCH   7  21
ENDBRANCH   4   7
ENDBRANCH   2   3
ENDBRANCH   1   2
BRANCH   1  31
ATOM     31  C   UNL A   1      33.835  28.590  27.233  1.00  0.00     0.118 C 
BRANCH  31  32
ATOM     32  N   UNL A   1      33.806  29.958  27.735  1.00  0.00    -0.352 N 
ATOM     33  C   UNL A   1      34.764  30.666  28.414  1.00  0.00     0.251 C 
ATOM     34  H   UNL A   1      32.971  30.448  27.559  1.00  0.00     0.163 HD
ATOM     35  O   UNL A   1      34.461  31.736  28.942  1.00  0.00    -0.269 OA
BRANCH  33  36
ATOM     36  C   UNL A   1      36.140  30.142  28.534  1.00  0.00     0.039 A 
ATOM     37  C   UNL A   1      36.984  30.201  27.421  1.00  0.00     0.014 A 
ATOM     38  C   UNL A   1      36.600  29.592  29.734  1.00  0.00     0.014 A 
ATOM     39  C   UNL A   1      38.310  29.783  27.536  1.00  0.00     0.010 A 
ATOM     40  C   UNL A   1      37.942  29.245  29.868  1.00  0.00     0.010 A 
ATOM     41  C   UNL A   1      38.814  29.349  28.773  1.00  0.00    -0.014 A 
BRANCH  41  42
ATOM     42  C   UNL A   1      40.260  29.065  28.955  1.00  0.00     0.031 A 
ATOM     43  C   UNL A   1      40.834  27.724  28.594  1.00  0.00     0.074 A 
ATOM     44  C   UNL A   1      41.040  29.997  29.538  1.00  0.00     0.049 A 
ATOM     45  N   UNL A   1      42.057  27.282  28.746  1.00  0.00    -0.248 NA
ATOM     46  C   UNL A   1      39.909  26.744  28.006  1.00  0.00     0.031 C 
ATOM     47  C   UNL A   1      40.582  31.312  29.994  1.00  0.00     0.029 A 
ATOM     48  N   UNL A   1      42.372  29.977  29.868  1.00  0.00    -0.354 N 
ATOM     49  C   UNL A   1      42.045  25.968  28.293  1.00  0.00     0.074 A 
ATOM     50  C   UNL A   1      40.683  25.673  27.899  1.00  0.00     0.031 C 
ATOM     51  C   UNL A   1      41.614  31.973  30.536  1.00  0.00     0.029 A 
ATOM     52  C   UNL A   1      42.796  31.117  30.509  1.00  0.00     0.049 A 
ATOM     53  H   UNL A   1      42.967  29.219  29.666  1.00  0.00     0.167 HD
ATOM     54  C   UNL A   1      43.078  25.096  28.202  1.00  0.00     0.037 A 
ATOM     55  C   UNL A   1      43.993  31.434  31.040  1.00  0.00     0.037 A 
ATOM     56  C   UNL A   1      44.430  25.406  28.593  1.00  0.00     0.049 A 
ATOM     57  C   UNL A   1      45.125  30.453  30.932  1.00  0.00     0.074 A 
ATOM     58  C   UNL A   1      45.565  24.627  28.455  1.00  0.00     0.029 A 
ATOM     59  N   UNL A   1      44.828  26.579  29.222  1.00  0.00    -0.354 N 
ATOM     60  N   UNL A   1      45.125  29.254  30.400  1.00  0.00    -0.248 NA
ATOM     61  C   UNL A   1      46.419  30.867  31.489  1.00  0.00     0.031 C 
ATOM     62  C   UNL A   1      46.634  25.298  29.060  1.00  0.00     0.029 A 
ATOM     63  C   UNL A   1      46.180  26.524  29.521  1.00  0.00     0.049 A 
ATOM     64  H   UNL A   1      44.235  27.339  29.425  1.00  0.00     0.167 HD
ATOM     65  C   UNL A   1      46.418  28.769  30.555  1.00  0.00     0.074 A 
ATOM     66  C   UNL A   1      47.179  29.816  31.207  1.00  0.00     0.031 C 
ATOM     67  C   UNL A   1      46.925  27.564  30.192  1.00  0.00     0.037 A 
BRANCH  54  68
ATOM     68  C   UNL A   1      42.779  23.714  27.684  1.00  0.00     0.058 A 
ATOM     69  C   UNL A   1      42.548  22.628  28.546  1.00  0.00     0.135 A 
ATOM     70  C   UNL A   1      42.710  23.472  26.302  1.00  0.00     0.135 A 
ATOM     71  F   UNL A   1      42.607  22.796  29.877  1.00  0.00    -0.206 F 
ATOM     72  C   UNL A   1      42.313  21.346  28.058  1.00  0.00     0.059 A 
ATOM     73  C   UNL A   1      42.443  22.205  25.791  1.00  0.00     0.059 A 
ATOM     74  F   UNL A   1      42.914  24.472  25.430  1.00  0.00    -0.206 F 
ATOM     75  C   UNL A   1      42.269  21.144  26.677  1.00  0.00     0.060 A 
BRANCH  75  76
ATOM     76  S   UNL A   1      41.995  19.469  26.060  1.00  0.00     0.124 S 
ATOM     77  O   UNL A   1      40.552  19.475  25.839  1.00  0.00    -0.237 OA
ATOM     78  O   UNL A   1      42.819  19.440  24.856  1.00  0.00    -0.237 OA
ATOM     79  O   UNL A   1      42.458  18.622  27.154  1.00  0.00    -0.744 OA
ENDBRANCH  75  76
ENDBRANCH  54  68
BRANCH  55  80
ATOM     80  C   UNL A   1      44.159  32.746  31.720  1.00  0.00     0.058 A 
ATOM     81  C   UNL A   1      44.561  33.885  31.009  1.00  0.00     0.135 A 
ATOM     82  C   UNL A   1      43.841  32.900  33.079  1.00  0.00     0.135 A 
ATOM     83  F   UNL A   1      44.885  33.787  29.710  1.00  0.00    -0.206 F 
ATOM     84  C   UNL A   1      44.632  35.133  31.618  1.00  0.00     0.059 A 
ATOM     85  C   UNL A   1      43.878  34.143  33.703  1.00  0.00     0.059 A 
ATOM     86  F   UNL A   1      43.435  31.842  33.798  1.00  0.00    -0.206 F 
ATOM     87  C   UNL A   1      44.274  35.255  32.962  1.00  0.00     0.060 A 
BRANCH  87  88
ATOM     88  S   UNL A   1      44.267  36.900  33.708  1.00  0.00     0.124 S 
ATOM     89  O   UNL A   1      45.394  36.811  34.629  1.00  0.00    -0.237 OA
ATOM     90  O   UNL A   1      44.457  37.761  32.545  1.00  0.00    -0.237 OA
ATOM     91  O   UNL A   1      42.947  36.981  34.329  1.00  0.00    -0.744 OA
ENDBRANCH  87  88
ENDBRANCH  55  80
BRANCH  67  92
ATOM     92  C   UNL A   1      48.375  27.304  30.499  1.00  0.00     0.058 A 
ATOM     93  C   UNL A   1      48.773  26.675  31.690  1.00  0.00     0.135 A 
ATOM     94  C   UNL A   1      49.375  27.634  29.570  1.00  0.00     0.135 A 
ATOM     95  F   UNL A   1      47.860  26.345  32.618  1.00  0.00    -0.206 F 
ATOM     96  C   UNL A   1      50.111  26.399  31.956  1.00  0.00     0.059 A 
ATOM     97  C   UNL A   1      50.716  27.342  29.802  1.00  0.00     0.059 A 
ATOM     98  F   UNL A   1      49.052  28.231  28.411  1.00  0.00    -0.206 F 
ATOM     99  C   UNL A   1      51.075  26.732  31.004  1.00  0.00     0.060 A 
BRANCH  99 100
ATOM    100  S   UNL A   1      52.802  26.331  31.344  1.00  0.00     0.124 S 
ATOM    101  O   UNL A   1      53.194  27.435  32.215  1.00  0.00    -0.237 OA
ATOM    102  O   UNL A   1      52.697  25.024  31.986  1.00  0.00    -0.237 OA
ATOM    103  O   UNL A   1      53.418  26.325  30.021  1.00  0.00    -0.744 OA
ENDBRANCH  99 100
ENDBRANCH  67  92
ENDBRANCH  41  42
ENDBRANCH  33  36
ENDBRANCH  31  32
ENDBRANCH   1  31
TORSDOF 19
ENDMDL
