MODEL 1
REMARK VINA RESULT:     -11.9      0.000      0.000
REMARK SMILES O=C(NCCCNC(=O)[C@@]1(c2ccccc2)CCCC[NH2+]1)c1ccc(-c2c3nc(c(-c4c(F)cc(S(=O)(=O)[O-])cc4F)c4ccc([nH]4)c(-c4c(F)cc(S(=O)(=O)[O-])cc4F)c4nc(c(-c5c(F)cc(S(=O)(=O)[O-])cc5F)c5ccc2[nH]5)C=C4)C=C3)cc1
REMARK SMILES IDX 4 1 3 2 1 3 2 4 22 6 23 7 87 8 24 9 86 10 25 11 26 12 27 13
REMARK SMILES IDX 80 14 28 15 85 16 79 17 81 18 29 19 84 20 78 21 77 22 30 24
REMARK SMILES IDX 64 25 43 26 63 27 44 28 47 29 62 30 82 31 45 32 46 33 61 35
REMARK SMILES IDX 83 36 48 37 31 38 32 39 41 40 33 41 34 42 40 43 42 44 35 45
REMARK SMILES IDX 36 46 37 47 38 48 39 49 65 50 66 51 75 52 67 53 68 54 74 55
REMARK SMILES IDX 76 56 69 57 70 58 71 59 72 60 73 61 49 62 50 63 59 64 51 65
REMARK SMILES IDX 52 66 58 67 60 68 53 69 54 70 55 71 56 72 57 73 5 74 6 75
REMARK SMILES IDX 7 76 8 77 9 79 10 80 17 81 21 82 18 83 20 84 19 87 11 88
REMARK SMILES IDX 12 89 16 90 13 91 15 92 14 93
REMARK H PARENT 3 5 81 23 47 34 7 78 21 85 21 86
REMARK Flexibility Score: inf
ROOT
ATOM      1  C   UNL A   1      35.043  29.610  27.455  1.00  0.00     0.118 C 
ENDROOT
BRANCH   1   2
ATOM      2  N   UNL A   1      35.130  30.195  28.789  1.00  0.00    -0.352 N 
ATOM      3  O   UNL A   1      36.008  30.621  30.822  1.00  0.00    -0.269 OA
ATOM      4  C   UNL A   1      36.182  30.226  29.676  1.00  0.00     0.251 C 
ATOM      5  H   UNL A   1      34.307  30.635  29.103  1.00  0.00     0.163 HD
BRANCH   4   6
ATOM      6  C   UNL A   1      37.512  29.748  29.242  1.00  0.00     0.039 A 
ATOM      7  C   UNL A   1      38.407  29.234  30.177  1.00  0.00     0.014 A 
ATOM      8  C   UNL A   1      37.880  29.845  27.898  1.00  0.00     0.014 A 
ATOM      9  C   UNL A   1      39.730  29.037  29.820  1.00  0.00     0.010 A 
ATOM     10  C   UNL A   1      39.182  29.506  27.512  1.00  0.00     0.010 A 
ATOM     11  C   UNL A   1      40.132  29.143  28.479  1.00  0.00    -0.014 A 
BRANCH  11  12
ATOM     12  C   UNL A   1      41.534  28.800  28.129  1.00  0.00     0.031 A 
ATOM     13  C   UNL A   1      42.637  29.818  28.217  1.00  0.00     0.074 A 
ATOM     14  C   UNL A   1      41.809  27.524  27.789  1.00  0.00     0.049 A 
ATOM     15  N   UNL A   1      43.913  29.666  27.966  1.00  0.00    -0.248 NA
ATOM     16  C   UNL A   1      42.269  31.183  28.625  1.00  0.00     0.031 C 
ATOM     17  C   UNL A   1      40.812  26.455  27.663  1.00  0.00     0.029 A 
ATOM     18  N   UNL A   1      42.997  26.897  27.524  1.00  0.00    -0.354 N 
ATOM     19  C   UNL A   1      44.493  30.917  28.148  1.00  0.00     0.074 A 
ATOM     20  C   UNL A   1      43.427  31.822  28.523  1.00  0.00     0.031 C 
ATOM     21  C   UNL A   1      41.435  25.295  27.423  1.00  0.00     0.029 A 
ATOM     22  C   UNL A   1      42.864  25.549  27.290  1.00  0.00     0.049 A 
ATOM     23  H   UNL A   1      43.862  27.366  27.504  1.00  0.00     0.167 HD
ATOM     24  C   UNL A   1      45.793  31.272  28.013  1.00  0.00     0.037 A 
ATOM     25  C   UNL A   1      43.783  24.617  26.980  1.00  0.00     0.037 A 
ATOM     26  C   UNL A   1      46.849  30.351  27.672  1.00  0.00     0.049 A 
ATOM     27  C   UNL A   1      45.215  25.035  26.850  1.00  0.00     0.074 A 
ATOM     28  C   UNL A   1      48.203  30.604  27.540  1.00  0.00     0.029 A 
ATOM     29  N   UNL A   1      46.670  28.999  27.411  1.00  0.00    -0.354 N 
ATOM     30  N   UNL A   1      45.742  26.224  27.025  1.00  0.00    -0.248 NA
ATOM     31  C   UNL A   1      46.176  23.995  26.466  1.00  0.00     0.031 C 
ATOM     32  C   UNL A   1      48.838  29.413  27.167  1.00  0.00     0.029 A 
ATOM     33  C   UNL A   1      47.885  28.409  27.104  1.00  0.00     0.049 A 
ATOM     34  H   UNL A   1      45.805  28.529  27.441  1.00  0.00     0.167 HD
ATOM     35  C   UNL A   1      47.098  26.077  26.770  1.00  0.00     0.074 A 
ATOM     36  C   UNL A   1      47.314  24.677  26.457  1.00  0.00     0.031 C 
ATOM     37  C   UNL A   1      48.074  27.016  26.787  1.00  0.00     0.037 A 
BRANCH  24  38
ATOM     38  C   UNL A   1      46.151  32.720  28.210  1.00  0.00     0.058 A 
ATOM     39  C   UNL A   1      46.089  33.650  27.162  1.00  0.00     0.135 A 
ATOM     40  C   UNL A   1      46.518  33.192  29.482  1.00  0.00     0.135 A 
ATOM     41  F   UNL A   1      45.759  33.252  25.923  1.00  0.00    -0.206 F 
ATOM     42  C   UNL A   1      46.397  34.994  27.361  1.00  0.00     0.059 A 
ATOM     43  C   UNL A   1      46.810  34.534  29.709  1.00  0.00     0.059 A 
ATOM     44  F   UNL A   1      46.594  32.345  30.521  1.00  0.00    -0.206 F 
ATOM     45  C   UNL A   1      46.759  35.426  28.638  1.00  0.00     0.060 A 
BRANCH  45  46
ATOM     46  S   UNL A   1      47.153  37.171  28.884  1.00  0.00     0.124 S 
ATOM     47  O   UNL A   1      47.904  37.124  30.136  1.00  0.00    -0.237 OA
ATOM     48  O   UNL A   1      47.933  37.488  27.691  1.00  0.00    -0.237 OA
ATOM     49  O   UNL A   1      45.843  37.808  28.961  1.00  0.00    -0.744 OA
ENDBRANCH  45  46
ENDBRANCH  24  38
BRANCH  25  50
ATOM     50  C   UNL A   1      43.353  23.213  26.754  1.00  0.00     0.058 A 
ATOM     51  C   UNL A   1      43.342  22.658  25.468  1.00  0.00     0.135 A 
ATOM     52  C   UNL A   1      43.006  22.383  27.832  1.00  0.00     0.135 A 
ATOM     53  F   UNL A   1      43.665  23.413  24.407  1.00  0.00    -0.206 F 
ATOM     54  C   UNL A   1      43.002  21.326  25.256  1.00  0.00     0.059 A 
ATOM     55  C   UNL A   1      42.688  21.043  27.648  1.00  0.00     0.059 A 
ATOM     56  F   UNL A   1      43.023  22.865  29.084  1.00  0.00    -0.206 F 
ATOM     57  C   UNL A   1      42.682  20.524  26.354  1.00  0.00     0.060 A 
BRANCH  57  58
ATOM     58  S   UNL A   1      42.316  18.777  26.082  1.00  0.00     0.124 S 
ATOM     59  O   UNL A   1      40.904  18.827  25.723  1.00  0.00    -0.237 OA
ATOM     60  O   UNL A   1      43.239  18.432  25.006  1.00  0.00    -0.237 OA
ATOM     61  O   UNL A   1      42.620  18.169  27.374  1.00  0.00    -0.744 OA
ENDBRANCH  57  58
ENDBRANCH  25  50
BRANCH  37  62
ATOM     62  C   UNL A   1      49.464  26.551  26.463  1.00  0.00     0.058 A 
ATOM     63  C   UNL A   1      50.278  25.949  27.434  1.00  0.00     0.135 A 
ATOM     64  C   UNL A   1      49.975  26.688  25.163  1.00  0.00     0.135 A 
ATOM     65  F   UNL A   1      49.836  25.807  28.694  1.00  0.00    -0.206 F 
ATOM     66  C   UNL A   1      51.565  25.518  27.133  1.00  0.00     0.059 A 
ATOM     67  C   UNL A   1      51.251  26.243  24.835  1.00  0.00     0.059 A 
ATOM     68  F   UNL A   1      49.231  27.252  24.199  1.00  0.00    -0.206 F 
ATOM     69  C   UNL A   1      52.043  25.671  25.831  1.00  0.00     0.060 A 
BRANCH  69  70
ATOM     70  S   UNL A   1      53.707  25.087  25.443  1.00  0.00     0.124 S 
ATOM     71  O   UNL A   1      53.923  25.674  24.125  1.00  0.00    -0.237 OA
ATOM     72  O   UNL A   1      54.500  25.654  26.528  1.00  0.00    -0.237 OA
ATOM     73  O   UNL A   1      53.570  23.633  25.469  1.00  0.00    -0.744 OA
ENDBRANCH  69  70
ENDBRANCH  37  62
ENDBRANCH  11  12
ENDBRANCH   4   6
ENDBRANCH   1   2
BRANCH   1  74
ATOM     74  C   UNL A   1      33.770  28.810  27.236  1.00  0.00     0.042 C 
BRANCH  74  75
ATOM     75  C   UNL A   1      33.064  29.155  25.943  1.00  0.00     0.118 C 
BRANCH  75  76
ATOM     76  N   UNL A   1      33.916  28.989  24.775  1.00  0.00    -0.350 N 
ATOM     77  C   UNL A   1      33.661  28.337  23.596  1.00  0.00     0.286 C 
ATOM     78  H   UNL A   1      34.806  29.404  24.842  1.00  0.00     0.163 HD
ATOM     79  O   UNL A   1      34.417  28.599  22.655  1.00  0.00    -0.267 OA
BRANCH  77  80
ATOM     80  C   UNL A   1      32.487  27.284  23.490  1.00  0.00     0.201 C 
ATOM     81  C   UNL A   1      32.695  26.332  22.284  1.00  0.00     0.085 C 
ATOM     82  N   UNL A   1      32.480  26.471  24.749  1.00  0.00    -0.330 N 
ATOM     83  C   UNL A   1      33.886  25.380  22.439  1.00  0.00     0.013 C 
ATOM     84  C   UNL A   1      33.694  25.675  24.928  1.00  0.00     0.261 C 
ATOM     85  H   UNL A   1      31.680  25.840  24.723  1.00  0.00     0.347 HD
ATOM     86  H   UNL A   1      32.428  27.124  25.531  1.00  0.00     0.347 HD
ATOM     87  C   UNL A   1      33.875  24.682  23.791  1.00  0.00     0.062 C 
BRANCH  80  88
ATOM     88  C   UNL A   1      31.138  28.015  23.279  1.00  0.00     0.022 A 
ATOM     89  C   UNL A   1      31.049  29.176  22.490  1.00  0.00     0.011 A 
ATOM     90  C   UNL A   1      29.941  27.486  23.806  1.00  0.00     0.011 A 
ATOM     91  C   UNL A   1      29.807  29.719  22.149  1.00  0.00     0.001 A 
ATOM     92  C   UNL A   1      28.700  28.019  23.449  1.00  0.00     0.001 A 
ATOM     93  C   UNL A   1      28.635  29.125  22.606  1.00  0.00     0.000 A 
ENDBRANCH  80  88
ENDBRANCH  77  80
ENDBRANCH  75  76
ENDBRANCH  74  75
ENDBRANCH   1  74
TORSDOF 14
ENDMDL
MODEL 2
REMARK VINA RESULT:     -11.9      0.912      2.425
REMARK SMILES O=C(NCCCNC(=O)[C@@]1(c2ccccc2)CCCC[NH2+]1)c1ccc(-c2c3nc(c(-c4c(F)cc(S(=O)(=O)[O-])cc4F)c4ccc([nH]4)c(-c4c(F)cc(S(=O)(=O)[O-])cc4F)c4nc(c(-c5c(F)cc(S(=O)(=O)[O-])cc5F)c5ccc2[nH]5)C=C4)C=C3)cc1
REMARK SMILES IDX 4 1 3 2 1 3 2 4 22 6 23 7 87 8 24 9 86 10 25 11 26 12 27 13
REMARK SMILES IDX 80 14 28 15 85 16 79 17 81 18 29 19 84 20 78 21 77 22 30 24
REMARK SMILES IDX 64 25 43 26 63 27 44 28 47 29 62 30 82 31 45 32 46 33 61 35
REMARK SMILES IDX 83 36 48 37 31 38 32 39 41 40 33 41 34 42 40 43 42 44 35 45
REMARK SMILES IDX 36 46 37 47 38 48 39 49 65 50 66 51 75 52 67 53 68 54 74 55
REMARK SMILES IDX 76 56 69 57 70 58 71 59 72 60 73 61 49 62 50 63 59 64 51 65
REMARK SMILES IDX 52 66 58 67 60 68 53 69 54 70 55 71 56 72 57 73 5 74 6 75
REMARK SMILES IDX 7 76 8 77 9 79 10 80 17 81 21 82 18 83 20 84 19 87 11 88
REMARK SMILES IDX 12 89 16 90 13 91 15 92 14 93
REMARK H PARENT 3 5 81 23 47 34 7 78 21 85 21 86
REMARK Flexibility Score: inf
ROOT
ATOM      1  C   UNL A   1      35.224  30.110  27.644  1.00  0.00     0.118 C 
ENDROOT
BRANCH   1   2
ATOM      2  N   UNL A   1      35.261  30.323  29.088  1.00  0.00    -0.352 N 
ATOM      3  O   UNL A   1      36.031  30.140  31.200  1.00  0.00    -0.269 OA
ATOM      4  C   UNL A   1      36.253  30.040  30.000  1.00  0.00     0.251 C 
ATOM      5  H   UNL A   1      34.450  30.732  29.467  1.00  0.00     0.163 HD
BRANCH   4   6
ATOM      6  C   UNL A   1      37.574  29.585  29.518  1.00  0.00     0.039 A 
ATOM      7  C   UNL A   1      38.453  28.947  30.390  1.00  0.00     0.014 A 
ATOM      8  C   UNL A   1      37.953  29.827  28.195  1.00  0.00     0.014 A 
ATOM      9  C   UNL A   1      39.773  28.763  30.017  1.00  0.00     0.010 A 
ATOM     10  C   UNL A   1      39.248  29.506  27.777  1.00  0.00     0.010 A 
ATOM     11  C   UNL A   1      40.185  29.013  28.698  1.00  0.00    -0.014 A 
BRANCH  11  12
ATOM     12  C   UNL A   1      41.581  28.681  28.316  1.00  0.00     0.031 A 
ATOM     13  C   UNL A   1      42.681  29.703  28.395  1.00  0.00     0.074 A 
ATOM     14  C   UNL A   1      41.855  27.411  27.954  1.00  0.00     0.049 A 
ATOM     15  N   UNL A   1      43.952  29.560  28.116  1.00  0.00    -0.248 NA
ATOM     16  C   UNL A   1      42.315  31.061  28.828  1.00  0.00     0.031 C 
ATOM     17  C   UNL A   1      40.860  26.339  27.834  1.00  0.00     0.029 A 
ATOM     18  N   UNL A   1      43.040  26.792  27.657  1.00  0.00    -0.354 N 
ATOM     19  C   UNL A   1      44.530  30.811  28.302  1.00  0.00     0.074 A 
ATOM     20  C   UNL A   1      43.469  31.706  28.711  1.00  0.00     0.031 C 
ATOM     21  C   UNL A   1      41.482  25.184  27.566  1.00  0.00     0.029 A 
ATOM     22  C   UNL A   1      42.907  25.446  27.408  1.00  0.00     0.049 A 
ATOM     23  H   UNL A   1      43.902  27.265  27.625  1.00  0.00     0.167 HD
ATOM     24  C   UNL A   1      45.827  31.172  28.146  1.00  0.00     0.037 A 
ATOM     25  C   UNL A   1      43.824  24.523  27.067  1.00  0.00     0.037 A 
ATOM     26  C   UNL A   1      46.879  30.261  27.771  1.00  0.00     0.049 A 
ATOM     27  C   UNL A   1      45.251  24.949  26.913  1.00  0.00     0.074 A 
ATOM     28  C   UNL A   1      48.229  30.522  27.616  1.00  0.00     0.029 A 
ATOM     29  N   UNL A   1      46.700  28.912  27.497  1.00  0.00    -0.354 N 
ATOM     30  N   UNL A   1      45.776  26.138  27.093  1.00  0.00    -0.248 NA
ATOM     31  C   UNL A   1      46.209  23.918  26.497  1.00  0.00     0.031 C 
ATOM     32  C   UNL A   1      48.861  29.338  27.215  1.00  0.00     0.029 A 
ATOM     33  C   UNL A   1      47.911  28.331  27.158  1.00  0.00     0.049 A 
ATOM     34  H   UNL A   1      45.838  28.437  27.538  1.00  0.00     0.167 HD
ATOM     35  C   UNL A   1      47.128  26.000  26.810  1.00  0.00     0.074 A 
ATOM     36  C   UNL A   1      47.343  24.605  26.473  1.00  0.00     0.031 C 
ATOM     37  C   UNL A   1      48.100  26.943  26.819  1.00  0.00     0.037 A 
BRANCH  24  38
ATOM     38  C   UNL A   1      46.183  32.620  28.355  1.00  0.00     0.058 A 
ATOM     39  C   UNL A   1      46.146  33.552  27.307  1.00  0.00     0.135 A 
ATOM     40  C   UNL A   1      46.520  33.088  29.636  1.00  0.00     0.135 A 
ATOM     41  F   UNL A   1      45.845  33.157  26.060  1.00  0.00    -0.206 F 
ATOM     42  C   UNL A   1      46.452  34.895  27.517  1.00  0.00     0.059 A 
ATOM     43  C   UNL A   1      46.809  34.429  29.873  1.00  0.00     0.059 A 
ATOM     44  F   UNL A   1      46.570  32.239  30.674  1.00  0.00    -0.206 F 
ATOM     45  C   UNL A   1      46.785  35.323  28.803  1.00  0.00     0.060 A 
BRANCH  45  46
ATOM     46  S   UNL A   1      47.176  37.067  29.062  1.00  0.00     0.124 S 
ATOM     47  O   UNL A   1      47.797  37.417  27.787  1.00  0.00    -0.237 OA
ATOM     48  O   UNL A   1      45.861  37.651  29.306  1.00  0.00    -0.237 OA
ATOM     49  O   UNL A   1      48.074  37.047  30.213  1.00  0.00    -0.744 OA
ENDBRANCH  45  46
ENDBRANCH  24  38
BRANCH  25  50
ATOM     50  C   UNL A   1      43.395  23.120  26.831  1.00  0.00     0.058 A 
ATOM     51  C   UNL A   1      43.366  22.580  25.539  1.00  0.00     0.135 A 
ATOM     52  C   UNL A   1      43.067  22.276  27.905  1.00  0.00     0.135 A 
ATOM     53  F   UNL A   1      43.670  23.348  24.483  1.00  0.00    -0.206 F 
ATOM     54  C   UNL A   1      43.027  21.249  25.317  1.00  0.00     0.059 A 
ATOM     55  C   UNL A   1      42.752  20.937  27.711  1.00  0.00     0.059 A 
ATOM     56  F   UNL A   1      43.102  22.744  29.162  1.00  0.00    -0.206 F 
ATOM     57  C   UNL A   1      42.727  20.434  26.411  1.00  0.00     0.060 A 
BRANCH  57  58
ATOM     58  S   UNL A   1      42.363  18.688  26.125  1.00  0.00     0.124 S 
ATOM     59  O   UNL A   1      42.616  18.117  27.442  1.00  0.00    -0.237 OA
ATOM     60  O   UNL A   1      40.967  18.729  25.702  1.00  0.00    -0.237 OA
ATOM     61  O   UNL A   1      43.313  18.318  25.080  1.00  0.00    -0.744 OA
ENDBRANCH  57  58
ENDBRANCH  25  50
BRANCH  37  62
ATOM     62  C   UNL A   1      49.485  26.489  26.461  1.00  0.00     0.058 A 
ATOM     63  C   UNL A   1      49.984  26.621  25.157  1.00  0.00     0.135 A 
ATOM     64  C   UNL A   1      50.329  25.941  27.439  1.00  0.00     0.135 A 
ATOM     65  F   UNL A   1      49.209  27.131  24.185  1.00  0.00    -0.206 F 
ATOM     66  C   UNL A   1      51.267  26.203  24.827  1.00  0.00     0.059 A 
ATOM     67  C   UNL A   1      51.624  25.536  27.136  1.00  0.00     0.059 A 
ATOM     68  F   UNL A   1      49.899  25.800  28.703  1.00  0.00    -0.206 F 
ATOM     69  C   UNL A   1      52.080  25.659  25.823  1.00  0.00     0.060 A 
BRANCH  69  70
ATOM     70  S   UNL A   1      53.753  25.139  25.390  1.00  0.00     0.124 S 
ATOM     71  O   UNL A   1      53.622  23.686  25.411  1.00  0.00    -0.237 OA
ATOM     72  O   UNL A   1      53.940  25.741  24.074  1.00  0.00    -0.237 OA
ATOM     73  O   UNL A   1      54.571  25.713  26.456  1.00  0.00    -0.744 OA
ENDBRANCH  69  70
ENDBRANCH  37  62
ENDBRANCH  11  12
ENDBRANCH   4   6
ENDBRANCH   1   2
BRANCH   1  74
ATOM     74  C   UNL A   1      34.506  28.832  27.248  1.00  0.00     0.042 C 
BRANCH  74  75
ATOM     75  C   UNL A   1      33.330  29.070  26.325  1.00  0.00     0.118 C 
BRANCH  75  76
ATOM     76  N   UNL A   1      32.129  28.370  26.754  1.00  0.00    -0.350 N 
ATOM     77  C   UNL A   1      31.498  27.294  26.186  1.00  0.00     0.286 C 
ATOM     78  H   UNL A   1      31.707  28.721  27.571  1.00  0.00     0.163 HD
ATOM     79  O   UNL A   1      30.686  26.699  26.901  1.00  0.00    -0.267 OA
BRANCH  77  80
ATOM     80  C   UNL A   1      31.783  26.887  24.685  1.00  0.00     0.201 C 
ATOM     81  C   UNL A   1      30.592  26.098  24.083  1.00  0.00     0.085 C 
ATOM     82  N   UNL A   1      31.976  28.144  23.894  1.00  0.00    -0.330 N 
ATOM     83  C   UNL A   1      29.323  26.936  23.889  1.00  0.00     0.013 C 
ATOM     84  C   UNL A   1      30.780  28.984  23.844  1.00  0.00     0.261 C 
ATOM     85  H   UNL A   1      32.235  27.892  22.941  1.00  0.00     0.347 HD
ATOM     86  H   UNL A   1      32.706  28.686  24.359  1.00  0.00     0.347 HD
ATOM     87  C   UNL A   1      29.620  28.253  23.187  1.00  0.00     0.062 C 
BRANCH  80  88
ATOM     88  C   UNL A   1      33.032  25.973  24.612  1.00  0.00     0.022 A 
ATOM     89  C   UNL A   1      33.699  25.549  25.776  1.00  0.00     0.011 A 
ATOM     90  C   UNL A   1      33.484  25.469  23.376  1.00  0.00     0.011 A 
ATOM     91  C   UNL A   1      34.701  24.578  25.716  1.00  0.00     0.001 A 
ATOM     92  C   UNL A   1      34.474  24.484  23.319  1.00  0.00     0.001 A 
ATOM     93  C   UNL A   1      35.069  24.027  24.491  1.00  0.00     0.000 A 
ENDBRANCH  80  88
ENDBRANCH  77  80
ENDBRANCH  75  76
ENDBRANCH  74  75
ENDBRANCH   1  74
TORSDOF 14
ENDMDL
MODEL 3
REMARK VINA RESULT:     -11.8      7.029     12.296
REMARK SMILES O=C(NCCCNC(=O)[C@@]1(c2ccccc2)CCCC[NH2+]1)c1ccc(-c2c3nc(c(-c4c(F)cc(S(=O)(=O)[O-])cc4F)c4ccc([nH]4)c(-c4c(F)cc(S(=O)(=O)[O-])cc4F)c4nc(c(-c5c(F)cc(S(=O)(=O)[O-])cc5F)c5ccc2[nH]5)C=C4)C=C3)cc1
REMARK SMILES IDX 4 1 3 2 1 3 2 4 22 6 23 7 87 8 24 9 86 10 25 11 26 12 27 13
REMARK SMILES IDX 80 14 28 15 85 16 79 17 81 18 29 19 84 20 78 21 77 22 30 24
REMARK SMILES IDX 64 25 43 26 63 27 44 28 47 29 62 30 82 31 45 32 46 33 61 35
REMARK SMILES IDX 83 36 48 37 31 38 32 39 41 40 33 41 34 42 40 43 42 44 35 45
REMARK SMILES IDX 36 46 37 47 38 48 39 49 65 50 66 51 75 52 67 53 68 54 74 55
REMARK SMILES IDX 76 56 69 57 70 58 71 59 72 60 73 61 49 62 50 63 59 64 51 65
REMARK SMILES IDX 52 66 58 67 60 68 53 69 54 70 55 71 56 72 57 73 5 74 6 75
REMARK SMILES IDX 7 76 8 77 9 79 10 80 17 81 21 82 18 83 20 84 19 87 11 88
REMARK SMILES IDX 12 89 16 90 13 91 15 92 14 93
REMARK H PARENT 3 5 81 23 47 34 7 78 21 85 21 86
REMARK Flexibility Score: inf
ROOT
ATOM      1  C   UNL A   1      38.537  23.943  26.505  1.00  0.00     0.118 C 
ENDROOT
BRANCH   1   2
ATOM      2  N   UNL A   1      39.946  23.961  26.126  1.00  0.00    -0.352 N 
ATOM      3  O   UNL A   1      42.042  24.773  25.942  1.00  0.00    -0.269 OA
ATOM      4  C   UNL A   1      40.953  24.822  26.500  1.00  0.00     0.251 C 
ATOM      5  H   UNL A   1      40.218  23.246  25.507  1.00  0.00     0.163 HD
BRANCH   4   6
ATOM      6  C   UNL A   1      40.697  25.825  27.555  1.00  0.00     0.039 A 
ATOM      7  C   UNL A   1      41.505  26.955  27.655  1.00  0.00     0.014 A 
ATOM      8  C   UNL A   1      39.664  25.618  28.474  1.00  0.00     0.014 A 
ATOM      9  C   UNL A   1      41.436  27.747  28.788  1.00  0.00     0.010 A 
ATOM     10  C   UNL A   1      39.503  26.506  29.543  1.00  0.00     0.010 A 
ATOM     11  C   UNL A   1      40.417  27.552  29.735  1.00  0.00    -0.014 A 
BRANCH  11  12
ATOM     12  C   UNL A   1      40.311  28.507  30.868  1.00  0.00     0.031 A 
ATOM     13  C   UNL A   1      41.257  28.449  32.035  1.00  0.00     0.074 A 
ATOM     14  C   UNL A   1      39.377  29.477  30.794  1.00  0.00     0.049 A 
ATOM     15  N   UNL A   1      41.304  29.225  33.089  1.00  0.00    -0.248 NA
ATOM     16  C   UNL A   1      42.271  27.383  32.034  1.00  0.00     0.031 C 
ATOM     17  C   UNL A   1      38.399  29.621  29.710  1.00  0.00     0.029 A 
ATOM     18  N   UNL A   1      39.114  30.541  31.615  1.00  0.00    -0.354 N 
ATOM     19  C   UNL A   1      42.323  28.722  33.891  1.00  0.00     0.074 A 
ATOM     20  C   UNL A   1      42.864  27.568  33.207  1.00  0.00     0.031 C 
ATOM     21  C   UNL A   1      37.699  30.747  29.891  1.00  0.00     0.029 A 
ATOM     22  C   UNL A   1      38.114  31.360  31.146  1.00  0.00     0.049 A 
ATOM     23  H   UNL A   1      39.595  30.704  32.458  1.00  0.00     0.167 HD
ATOM     24  C   UNL A   1      42.762  29.186  35.086  1.00  0.00     0.037 A 
ATOM     25  C   UNL A   1      37.569  32.471  31.674  1.00  0.00     0.037 A 
ATOM     26  C   UNL A   1      42.235  30.358  35.739  1.00  0.00     0.049 A 
ATOM     27  C   UNL A   1      38.083  32.968  32.991  1.00  0.00     0.074 A 
ATOM     28  C   UNL A   1      42.631  30.928  36.937  1.00  0.00     0.029 A 
ATOM     29  N   UNL A   1      41.201  31.143  35.248  1.00  0.00    -0.354 N 
ATOM     30  N   UNL A   1      39.047  32.476  33.733  1.00  0.00    -0.248 NA
ATOM     31  C   UNL A   1      37.430  34.156  33.550  1.00  0.00     0.031 C 
ATOM     32  C   UNL A   1      41.814  32.037  37.187  1.00  0.00     0.029 A 
ATOM     33  C   UNL A   1      40.934  32.182  36.126  1.00  0.00     0.049 A 
ATOM     34  H   UNL A   1      40.726  30.985  34.400  1.00  0.00     0.167 HD
ATOM     35  C   UNL A   1      39.116  33.294  34.852  1.00  0.00     0.074 A 
ATOM     36  C   UNL A   1      38.114  34.329  34.674  1.00  0.00     0.031 C 
ATOM     37  C   UNL A   1      39.928  33.194  35.931  1.00  0.00     0.037 A 
BRANCH  24  38
ATOM     38  C   UNL A   1      43.850  28.414  35.783  1.00  0.00     0.058 A 
ATOM     39  C   UNL A   1      43.565  27.380  36.686  1.00  0.00     0.135 A 
ATOM     40  C   UNL A   1      45.201  28.686  35.504  1.00  0.00     0.135 A 
ATOM     41  F   UNL A   1      42.293  27.088  37.001  1.00  0.00    -0.206 F 
ATOM     42  C   UNL A   1      44.581  26.654  37.306  1.00  0.00     0.059 A 
ATOM     43  C   UNL A   1      46.231  27.960  36.095  1.00  0.00     0.059 A 
ATOM     44  F   UNL A   1      45.530  29.665  34.647  1.00  0.00    -0.206 F 
ATOM     45  C   UNL A   1      45.910  26.953  37.005  1.00  0.00     0.060 A 
BRANCH  45  46
ATOM     46  S   UNL A   1      47.217  26.003  37.813  1.00  0.00     0.124 S 
ATOM     47  O   UNL A   1      46.986  26.330  39.217  1.00  0.00    -0.237 OA
ATOM     48  O   UNL A   1      46.897  24.634  37.422  1.00  0.00    -0.237 OA
ATOM     49  O   UNL A   1      48.441  26.547  37.234  1.00  0.00    -0.744 OA
ENDBRANCH  45  46
ENDBRANCH  24  38
BRANCH  25  50
ATOM     50  C   UNL A   1      36.467  33.158  30.955  1.00  0.00     0.058 A 
ATOM     51  C   UNL A   1      35.148  33.094  31.422  1.00  0.00     0.135 A 
ATOM     52  C   UNL A   1      36.725  33.943  29.820  1.00  0.00     0.135 A 
ATOM     53  F   UNL A   1      34.852  32.355  32.502  1.00  0.00    -0.206 F 
ATOM     54  C   UNL A   1      34.120  33.786  30.789  1.00  0.00     0.059 A 
ATOM     55  C   UNL A   1      35.720  34.664  29.187  1.00  0.00     0.059 A 
ATOM     56  F   UNL A   1      37.977  34.051  29.348  1.00  0.00    -0.206 F 
ATOM     57  C   UNL A   1      34.418  34.574  29.675  1.00  0.00     0.060 A 
BRANCH  57  58
ATOM     58  S   UNL A   1      33.095  35.531  28.904  1.00  0.00     0.124 S 
ATOM     59  O   UNL A   1      32.510  34.547  28.002  1.00  0.00    -0.237 OA
ATOM     60  O   UNL A   1      32.279  35.912  30.053  1.00  0.00    -0.237 OA
ATOM     61  O   UNL A   1      33.810  36.631  28.264  1.00  0.00    -0.744 OA
ENDBRANCH  57  58
ENDBRANCH  25  50
BRANCH  37  62
ATOM     62  C   UNL A   1      39.767  34.239  36.997  1.00  0.00     0.058 A 
ATOM     63  C   UNL A   1      39.049  33.979  38.173  1.00  0.00     0.135 A 
ATOM     64  C   UNL A   1      40.360  35.503  36.849  1.00  0.00     0.135 A 
ATOM     65  F   UNL A   1      38.455  32.788  38.354  1.00  0.00    -0.206 F 
ATOM     66  C   UNL A   1      38.902  34.946  39.161  1.00  0.00     0.059 A 
ATOM     67  C   UNL A   1      40.244  36.477  37.835  1.00  0.00     0.059 A 
ATOM     68  F   UNL A   1      41.062  35.796  35.745  1.00  0.00    -0.206 F 
ATOM     69  C   UNL A   1      39.502  36.193  38.981  1.00  0.00     0.060 A 
BRANCH  69  70
ATOM     70  S   UNL A   1      39.326  37.436  40.279  1.00  0.00     0.124 S 
ATOM     71  O   UNL A   1      40.718  37.785  40.541  1.00  0.00    -0.237 OA
ATOM     72  O   UNL A   1      38.526  38.465  39.623  1.00  0.00    -0.237 OA
ATOM     73  O   UNL A   1      38.646  36.712  41.350  1.00  0.00    -0.744 OA
ENDBRANCH  69  70
ENDBRANCH  37  62
ENDBRANCH  11  12
ENDBRANCH   4   6
ENDBRANCH   1   2
BRANCH   1  74
ATOM     74  C   UNL A   1      37.698  23.020  25.638  1.00  0.00     0.042 C 
BRANCH  74  75
ATOM     75  C   UNL A   1      36.334  23.586  25.309  1.00  0.00     0.118 C 
BRANCH  75  76
ATOM     76  N   UNL A   1      35.919  23.295  23.945  1.00  0.00    -0.350 N 
ATOM     77  C   UNL A   1      34.663  23.304  23.396  1.00  0.00     0.286 C 
ATOM     78  H   UNL A   1      36.646  23.055  23.327  1.00  0.00     0.163 HD
ATOM     79  O   UNL A   1      34.608  23.324  22.163  1.00  0.00    -0.267 OA
BRANCH  77  80
ATOM     80  C   UNL A   1      33.377  23.247  24.314  1.00  0.00     0.201 C 
ATOM     81  C   UNL A   1      32.124  22.835  23.499  1.00  0.00     0.085 C 
ATOM     82  N   UNL A   1      33.615  22.222  25.381  1.00  0.00    -0.330 N 
ATOM     83  C   UNL A   1      32.153  21.386  23.001  1.00  0.00     0.013 C 
ATOM     84  C   UNL A   1      33.770  20.866  24.854  1.00  0.00     0.261 C 
ATOM     85  H   UNL A   1      32.823  22.231  26.022  1.00  0.00     0.347 HD
ATOM     86  H   UNL A   1      34.489  22.467  25.847  1.00  0.00     0.347 HD
ATOM     87  C   UNL A   1      32.521  20.416  24.114  1.00  0.00     0.062 C 
BRANCH  80  88
ATOM     88  C   UNL A   1      33.099  24.644  24.922  1.00  0.00     0.022 A 
ATOM     89  C   UNL A   1      33.564  25.819  24.303  1.00  0.00     0.011 A 
ATOM     90  C   UNL A   1      32.294  24.783  26.072  1.00  0.00     0.011 A 
ATOM     91  C   UNL A   1      33.151  27.077  24.748  1.00  0.00     0.001 A 
ATOM     92  C   UNL A   1      31.867  26.041  26.505  1.00  0.00     0.001 A 
ATOM     93  C   UNL A   1      32.283  27.186  25.831  1.00  0.00     0.000 A 
ENDBRANCH  80  88
ENDBRANCH  77  80
ENDBRANCH  75  76
ENDBRANCH  74  75
ENDBRANCH   1  74
TORSDOF 14
ENDMDL
