MODEL 1
REMARK VINA RESULT:     -12.2      0.000      0.000
REMARK SMILES C[C@@H]1C[C@@H](C)CN(S(=O)(=O)N2CC[C@H](C(=O)NCCCNC(=O)c3ccc(-c4c5nc(c(-c6c(F)cc(S(=O)(=O)[O-])cc6F)c6ccc([nH]6)c(-c6c(F)cc(S(=O)(=O)[O-])cc6F)c6nc(c(-c7c(F)cc(S(=O)(=O)[O-])cc7F)c7ccc4[nH]7)C=C6)C=C5)cc3)[C@@H]2C)C1
REMARK SMILES IDX 19 1 18 2 17 3 15 4 16 5 14 7 11 8 12 9 90 10 13 11 91 12
REMARK SMILES IDX 8 13 9 14 10 15 7 16 1 17 2 18 3 19 92 20 4 21 6 22 5 23
REMARK SMILES IDX 20 24 21 25 22 26 23 28 24 29 25 30 89 31 26 32 88 33 27 34
REMARK SMILES IDX 28 35 29 36 82 37 30 38 87 39 81 40 83 41 31 42 86 43 80 44
REMARK SMILES IDX 79 45 32 47 66 48 45 49 65 50 46 51 49 52 64 53 84 54 47 55
REMARK SMILES IDX 48 56 63 58 85 59 50 60 33 61 34 62 43 63 35 64 36 65 42 66
REMARK SMILES IDX 44 67 37 68 38 69 39 70 40 71 41 72 67 73 68 74 77 75 69 76
REMARK SMILES IDX 70 77 76 78 78 79 71 80 72 81 73 82 74 83 75 84 51 85 52 86
REMARK SMILES IDX 61 87 53 88 54 89 60 90 62 91 55 92 56 93 57 94 58 95 59 96
REMARK H PARENT 17 6 21 27 83 46 49 57
REMARK Flexibility Score: inf
ROOT
ATOM      1  C   UNL A   1      33.522  29.164  25.380  1.00  0.00     0.042 C 
ENDROOT
BRANCH   1   2
ATOM      2  C   UNL A   1      32.573  28.215  24.675  1.00  0.00     0.117 C 
BRANCH   2   3
ATOM      3  N   UNL A   1      33.086  27.697  23.420  1.00  0.00    -0.356 N 
ATOM      4  C   UNL A   1      33.355  26.421  23.028  1.00  0.00     0.224 C 
ATOM      5  O   UNL A   1      33.808  26.295  21.890  1.00  0.00    -0.275 OA
ATOM      6  H   UNL A   1      33.270  28.382  22.738  1.00  0.00     0.163 HD
BRANCH   4   7
ATOM      7  C   UNL A   1      33.243  25.262  24.011  1.00  0.00     0.098 C 
ATOM      8  N   UNL A   1      31.682  24.421  25.643  1.00  0.00    -0.185 NA
ATOM      9  C   UNL A   1      32.481  25.445  26.309  1.00  0.00     0.105 C 
ATOM     10  C   UNL A   1      31.836  24.610  24.174  1.00  0.00     0.083 C 
ATOM     11  C   UNL A   1      33.711  25.543  25.446  1.00  0.00     0.032 C 
ATOM     12  C   UNL A   1      30.615  25.391  23.687  1.00  0.00     0.026 C 
BRANCH   8  13
ATOM     13  S   UNL A   1      31.588  22.911  26.354  1.00  0.00     0.282 S 
ATOM     14  O   UNL A   1      30.268  22.369  26.122  1.00  0.00    -0.195 OA
ATOM     15  O   UNL A   1      32.109  23.049  27.695  1.00  0.00    -0.195 OA
BRANCH  13  16
ATOM     16  N   UNL A   1      32.716  21.977  25.446  1.00  0.00    -0.188 NA
ATOM     17  C   UNL A   1      35.680  21.743  24.269  1.00  0.00     0.009 C 
ATOM     18  C   UNL A   1      35.043  20.958  25.424  1.00  0.00     0.001 C 
ATOM     19  C   UNL A   1      34.430  19.640  24.940  1.00  0.00     0.009 C 
ATOM     20  C   UNL A   1      34.012  21.804  26.197  1.00  0.00     0.106 C 
ATOM     21  C   UNL A   1      33.167  19.908  24.128  1.00  0.00     0.001 C 
ATOM     22  C   UNL A   1      32.174  20.656  25.011  1.00  0.00     0.106 C 
ATOM     23  C   UNL A   1      32.541  18.613  23.615  1.00  0.00     0.009 C 
ENDBRANCH  13  16
ENDBRANCH   8  13
ENDBRANCH   4   7
ENDBRANCH   2   3
ENDBRANCH   1   2
BRANCH   1  24
ATOM     24  C   UNL A   1      33.547  29.010  26.892  1.00  0.00     0.118 C 
BRANCH  24  25
ATOM     25  N   UNL A   1      33.584  30.279  27.610  1.00  0.00    -0.352 N 
ATOM     26  C   UNL A   1      34.574  30.834  28.392  1.00  0.00     0.251 C 
ATOM     27  H   UNL A   1      32.771  30.827  27.523  1.00  0.00     0.163 HD
ATOM     28  O   UNL A   1      34.346  31.857  29.029  1.00  0.00    -0.269 OA
BRANCH  26  29
ATOM     29  C   UNL A   1      35.888  30.165  28.498  1.00  0.00     0.039 A 
ATOM     30  C   UNL A   1      36.752  30.177  27.401  1.00  0.00     0.014 A 
ATOM     31  C   UNL A   1      36.292  29.580  29.698  1.00  0.00     0.014 A 
ATOM     32  C   UNL A   1      38.062  29.714  27.553  1.00  0.00     0.010 A 
ATOM     33  C   UNL A   1      37.627  29.249  29.884  1.00  0.00     0.010 A 
ATOM     34  C   UNL A   1      38.531  29.314  28.815  1.00  0.00    -0.014 A 
BRANCH  34  35
ATOM     35  C   UNL A   1      39.958  28.971  29.053  1.00  0.00     0.031 A 
ATOM     36  C   UNL A   1      40.908  30.023  29.560  1.00  0.00     0.074 A 
ATOM     37  C   UNL A   1      40.416  27.745  28.725  1.00  0.00     0.049 A 
ATOM     38  N   UNL A   1      42.205  29.959  29.714  1.00  0.00    -0.248 NA
ATOM     39  C   UNL A   1      40.330  31.333  29.906  1.00  0.00     0.031 C 
ATOM     40  C   UNL A   1      39.607  26.655  28.173  1.00  0.00     0.029 A 
ATOM     41  N   UNL A   1      41.680  27.210  28.792  1.00  0.00    -0.354 N 
ATOM     42  C   UNL A   1      42.596  31.217  30.156  1.00  0.00     0.074 A 
ATOM     43  C   UNL A   1      41.412  32.045  30.182  1.00  0.00     0.031 C 
ATOM     44  C   UNL A   1      40.384  25.577  27.981  1.00  0.00     0.029 A 
ATOM     45  C   UNL A   1      41.758  25.912  28.341  1.00  0.00     0.049 A 
ATOM     46  H   UNL A   1      42.457  27.708  29.132  1.00  0.00     0.167 HD
ATOM     47  C   UNL A   1      43.826  31.637  30.537  1.00  0.00     0.037 A 
ATOM     48  C   UNL A   1      42.818  25.090  28.213  1.00  0.00     0.037 A 
ATOM     49  C   UNL A   1      44.993  30.797  30.537  1.00  0.00     0.049 A 
ATOM     50  C   UNL A   1      44.180  25.588  28.617  1.00  0.00     0.074 A 
ATOM     51  C   UNL A   1      46.272  31.107  30.964  1.00  0.00     0.029 A 
ATOM     52  N   UNL A   1      45.028  29.486  30.084  1.00  0.00    -0.354 N 
ATOM     53  N   UNL A   1      44.517  26.758  29.104  1.00  0.00    -0.248 NA
ATOM     54  C   UNL A   1      45.306  24.659  28.452  1.00  0.00     0.031 C 
ATOM     55  C   UNL A   1      47.093  30.003  30.717  1.00  0.00     0.029 A 
ATOM     56  C   UNL A   1      46.314  28.984  30.191  1.00  0.00     0.049 A 
ATOM     57  H   UNL A   1      44.253  28.987  29.739  1.00  0.00     0.167 HD
ATOM     58  C   UNL A   1      45.888  26.697  29.326  1.00  0.00     0.074 A 
ATOM     59  C   UNL A   1      46.315  25.370  28.937  1.00  0.00     0.031 C 
ATOM     60  C   UNL A   1      46.721  27.655  29.805  1.00  0.00     0.037 A 
BRANCH  47  61
ATOM     61  C   UNL A   1      43.972  33.063  30.995  1.00  0.00     0.058 A 
ATOM     62  C   UNL A   1      44.303  34.093  30.100  1.00  0.00     0.135 A 
ATOM     63  C   UNL A   1      43.731  33.412  32.333  1.00  0.00     0.135 A 
ATOM     64  F   UNL A   1      44.562  33.816  28.812  1.00  0.00    -0.206 F 
ATOM     65  C   UNL A   1      44.414  35.415  30.521  1.00  0.00     0.059 A 
ATOM     66  C   UNL A   1      43.805  34.731  32.770  1.00  0.00     0.059 A 
ATOM     67  F   UNL A   1      43.415  32.466  33.232  1.00  0.00    -0.206 F 
ATOM     68  C   UNL A   1      44.158  35.724  31.857  1.00  0.00     0.060 A 
BRANCH  68  69
ATOM     69  S   UNL A   1      44.288  37.447  32.379  1.00  0.00     0.124 S 
ATOM     70  O   UNL A   1      45.688  37.524  32.784  1.00  0.00    -0.237 OA
ATOM     71  O   UNL A   1      43.940  38.167  31.158  1.00  0.00    -0.237 OA
ATOM     72  O   UNL A   1      43.317  37.550  33.464  1.00  0.00    -0.744 OA
ENDBRANCH  68  69
ENDBRANCH  47  61
BRANCH  48  73
ATOM     73  C   UNL A   1      42.637  23.711  27.681  1.00  0.00     0.058 A 
ATOM     74  C   UNL A   1      42.614  23.466  26.298  1.00  0.00     0.135 A 
ATOM     75  C   UNL A   1      42.485  22.610  28.539  1.00  0.00     0.135 A 
ATOM     76  F   UNL A   1      42.747  24.484  25.436  1.00  0.00    -0.206 F 
ATOM     77  C   UNL A   1      42.425  22.186  25.787  1.00  0.00     0.059 A 
ATOM     78  C   UNL A   1      42.326  21.316  28.051  1.00  0.00     0.059 A 
ATOM     79  F   UNL A   1      42.516  22.783  29.869  1.00  0.00    -0.206 F 
ATOM     80  C   UNL A   1      42.286  21.116  26.672  1.00  0.00     0.060 A 
BRANCH  80  81
ATOM     81  S   UNL A   1      42.081  19.454  25.996  1.00  0.00     0.124 S 
ATOM     82  O   UNL A   1      40.640  19.398  25.784  1.00  0.00    -0.237 OA
ATOM     83  O   UNL A   1      42.904  19.511  24.792  1.00  0.00    -0.237 OA
ATOM     84  O   UNL A   1      42.596  18.595  27.058  1.00  0.00    -0.744 OA
ENDBRANCH  80  81
ENDBRANCH  48  73
BRANCH  60  85
ATOM     85  C   UNL A   1      48.174  27.304  29.958  1.00  0.00     0.058 A 
ATOM     86  C   UNL A   1      49.127  27.684  29.000  1.00  0.00     0.135 A 
ATOM     87  C   UNL A   1      48.632  26.655  31.116  1.00  0.00     0.135 A 
ATOM     88  F   UNL A   1      48.742  28.299  27.870  1.00  0.00    -0.206 F 
ATOM     89  C   UNL A   1      50.481  27.423  29.179  1.00  0.00     0.059 A 
ATOM     90  C   UNL A   1      49.984  26.412  31.332  1.00  0.00     0.059 A 
ATOM     91  F   UNL A   1      47.763  26.278  32.068  1.00  0.00    -0.206 F 
ATOM     92  C   UNL A   1      50.901  26.795  30.354  1.00  0.00     0.060 A 
BRANCH  92  93
ATOM     93  S   UNL A   1      52.669  26.524  30.600  1.00  0.00     0.124 S 
ATOM     94  O   UNL A   1      53.110  26.215  29.245  1.00  0.00    -0.237 OA
ATOM     95  O   UNL A   1      53.107  27.810  31.134  1.00  0.00    -0.237 OA
ATOM     96  O   UNL A   1      52.714  25.411  31.544  1.00  0.00    -0.744 OA
ENDBRANCH  92  93
ENDBRANCH  60  85
ENDBRANCH  34  35
ENDBRANCH  26  29
ENDBRANCH  24  25
ENDBRANCH   1  24
TORSDOF 15
ENDMDL
MODEL 2
REMARK VINA RESULT:     -12.1      1.221      2.345
REMARK SMILES C[C@@H]1C[C@@H](C)CN(S(=O)(=O)N2CC[C@H](C(=O)NCCCNC(=O)c3ccc(-c4c5nc(c(-c6c(F)cc(S(=O)(=O)[O-])cc6F)c6ccc([nH]6)c(-c6c(F)cc(S(=O)(=O)[O-])cc6F)c6nc(c(-c7c(F)cc(S(=O)(=O)[O-])cc7F)c7ccc4[nH]7)C=C6)C=C5)cc3)[C@@H]2C)C1
REMARK SMILES IDX 19 1 18 2 17 3 15 4 16 5 14 7 11 8 12 9 90 10 13 11 91 12
REMARK SMILES IDX 8 13 9 14 10 15 7 16 1 17 2 18 3 19 92 20 4 21 6 22 5 23
REMARK SMILES IDX 20 24 21 25 22 26 23 28 24 29 25 30 89 31 26 32 88 33 27 34
REMARK SMILES IDX 28 35 29 36 82 37 30 38 87 39 81 40 83 41 31 42 86 43 80 44
REMARK SMILES IDX 79 45 32 47 66 48 45 49 65 50 46 51 49 52 64 53 84 54 47 55
REMARK SMILES IDX 48 56 63 58 85 59 50 60 33 61 34 62 43 63 35 64 36 65 42 66
REMARK SMILES IDX 44 67 37 68 38 69 39 70 40 71 41 72 67 73 68 74 77 75 69 76
REMARK SMILES IDX 70 77 76 78 78 79 71 80 72 81 73 82 74 83 75 84 51 85 52 86
REMARK SMILES IDX 61 87 53 88 54 89 60 90 62 91 55 92 56 93 57 94 58 95 59 96
REMARK H PARENT 17 6 21 27 83 46 49 57
REMARK Flexibility Score: inf
ROOT
ATOM      1  C   UNL A   1      32.329  28.156  27.649  1.00  0.00     0.042 C 
ENDROOT
BRANCH   1   2
ATOM      2  C   UNL A   1      31.262  27.792  26.635  1.00  0.00     0.117 C 
BRANCH   2   3
ATOM      3  N   UNL A   1      31.312  28.584  25.419  1.00  0.00    -0.356 N 
ATOM      4  C   UNL A   1      31.354  28.205  24.113  1.00  0.00     0.224 C 
ATOM      5  O   UNL A   1      31.412  29.121  23.291  1.00  0.00    -0.275 OA
ATOM      6  H   UNL A   1      31.318  29.557  25.564  1.00  0.00     0.163 HD
BRANCH   4   7
ATOM      7  C   UNL A   1      31.479  26.736  23.729  1.00  0.00     0.098 C 
ATOM      8  N   UNL A   1      33.137  25.241  22.820  1.00  0.00    -0.185 NA
ATOM      9  C   UNL A   1      32.501  25.906  21.688  1.00  0.00     0.105 C 
ATOM     10  C   UNL A   1      32.839  26.039  24.041  1.00  0.00     0.083 C 
ATOM     11  C   UNL A   1      31.196  26.393  22.259  1.00  0.00     0.032 C 
ATOM     12  C   UNL A   1      34.058  26.920  24.315  1.00  0.00     0.026 C 
BRANCH   8  13
ATOM     13  S   UNL A   1      33.187  23.570  22.824  1.00  0.00     0.282 S 
ATOM     14  O   UNL A   1      34.017  23.127  21.726  1.00  0.00    -0.195 OA
ATOM     15  O   UNL A   1      31.823  23.113  22.954  1.00  0.00    -0.195 OA
BRANCH  13  16
ATOM     16  N   UNL A   1      34.006  23.204  24.295  1.00  0.00    -0.188 NA
ATOM     17  C   UNL A   1      33.822  21.959  27.235  1.00  0.00     0.009 C 
ATOM     18  C   UNL A   1      34.529  21.392  25.997  1.00  0.00     0.001 C 
ATOM     19  C   UNL A   1      36.003  21.811  25.947  1.00  0.00     0.009 C 
ATOM     20  C   UNL A   1      33.797  21.765  24.693  1.00  0.00     0.106 C 
ATOM     21  C   UNL A   1      36.122  23.294  25.613  1.00  0.00     0.001 C 
ATOM     22  C   UNL A   1      35.460  23.540  24.261  1.00  0.00     0.106 C 
ATOM     23  C   UNL A   1      37.579  23.748  25.573  1.00  0.00     0.009 C 
ENDBRANCH  13  16
ENDBRANCH   8  13
ENDBRANCH   4   7
ENDBRANCH   2   3
ENDBRANCH   1   2
BRANCH   1  24
ATOM     24  C   UNL A   1      33.452  29.013  27.089  1.00  0.00     0.118 C 
BRANCH  24  25
ATOM     25  N   UNL A   1      33.534  30.338  27.691  1.00  0.00    -0.352 N 
ATOM     26  C   UNL A   1      34.555  30.937  28.397  1.00  0.00     0.251 C 
ATOM     27  H   UNL A   1      32.731  30.895  27.575  1.00  0.00     0.163 HD
ATOM     28  O   UNL A   1      34.365  32.017  28.947  1.00  0.00    -0.269 OA
BRANCH  26  29
ATOM     29  C   UNL A   1      35.857  30.250  28.531  1.00  0.00     0.039 A 
ATOM     30  C   UNL A   1      36.740  30.241  27.449  1.00  0.00     0.014 A 
ATOM     31  C   UNL A   1      36.232  29.669  29.742  1.00  0.00     0.014 A 
ATOM     32  C   UNL A   1      38.041  29.761  27.627  1.00  0.00     0.010 A 
ATOM     33  C   UNL A   1      37.559  29.320  29.954  1.00  0.00     0.010 A 
ATOM     34  C   UNL A   1      38.481  29.364  28.900  1.00  0.00    -0.014 A 
BRANCH  34  35
ATOM     35  C   UNL A   1      39.899  29.002  29.165  1.00  0.00     0.031 A 
ATOM     36  C   UNL A   1      40.847  30.036  29.713  1.00  0.00     0.074 A 
ATOM     37  C   UNL A   1      40.353  27.777  28.826  1.00  0.00     0.049 A 
ATOM     38  N   UNL A   1      42.139  29.956  29.896  1.00  0.00    -0.248 NA
ATOM     39  C   UNL A   1      40.274  31.345  30.069  1.00  0.00     0.031 C 
ATOM     40  C   UNL A   1      39.546  26.705  28.236  1.00  0.00     0.029 A 
ATOM     41  N   UNL A   1      41.610  27.228  28.914  1.00  0.00    -0.354 N 
ATOM     42  C   UNL A   1      42.532  31.202  30.369  1.00  0.00     0.074 A 
ATOM     43  C   UNL A   1      41.356  32.041  30.383  1.00  0.00     0.031 C 
ATOM     44  C   UNL A   1      40.317  25.624  28.044  1.00  0.00     0.029 A 
ATOM     45  C   UNL A   1      41.686  25.939  28.442  1.00  0.00     0.049 A 
ATOM     46  H   UNL A   1      42.383  27.713  29.281  1.00  0.00     0.167 HD
ATOM     47  C   UNL A   1      43.757  31.603  30.786  1.00  0.00     0.037 A 
ATOM     48  C   UNL A   1      42.740  25.108  28.324  1.00  0.00     0.037 A 
ATOM     49  C   UNL A   1      44.916  30.751  30.799  1.00  0.00     0.049 A 
ATOM     50  C   UNL A   1      44.098  25.584  28.768  1.00  0.00     0.074 A 
ATOM     51  C   UNL A   1      46.187  31.040  31.261  1.00  0.00     0.029 A 
ATOM     52  N   UNL A   1      44.949  29.448  30.324  1.00  0.00    -0.354 N 
ATOM     53  N   UNL A   1      44.434  26.743  29.284  1.00  0.00    -0.248 NA
ATOM     54  C   UNL A   1      45.218  24.647  28.613  1.00  0.00     0.031 C 
ATOM     55  C   UNL A   1      47.003  29.932  31.013  1.00  0.00     0.029 A 
ATOM     56  C   UNL A   1      46.227  28.931  30.451  1.00  0.00     0.049 A 
ATOM     57  H   UNL A   1      44.177  28.963  29.951  1.00  0.00     0.167 HD
ATOM     58  C   UNL A   1      45.799  26.664  29.537  1.00  0.00     0.074 A 
ATOM     59  C   UNL A   1      46.222  25.339  29.135  1.00  0.00     0.031 C 
ATOM     60  C   UNL A   1      46.629  27.605  30.052  1.00  0.00     0.037 A 
BRANCH  47  61
ATOM     61  C   UNL A   1      43.905  33.019  31.272  1.00  0.00     0.058 A 
ATOM     62  C   UNL A   1      43.726  33.356  32.624  1.00  0.00     0.135 A 
ATOM     63  C   UNL A   1      44.278  34.043  30.387  1.00  0.00     0.135 A 
ATOM     64  F   UNL A   1      43.351  32.422  33.512  1.00  0.00    -0.206 F 
ATOM     65  C   UNL A   1      43.887  34.663  33.075  1.00  0.00     0.059 A 
ATOM     66  C   UNL A   1      44.476  35.350  30.822  1.00  0.00     0.059 A 
ATOM     67  F   UNL A   1      44.460  33.777  29.084  1.00  0.00    -0.206 F 
ATOM     68  C   UNL A   1      44.267  35.651  32.167  1.00  0.00     0.060 A 
BRANCH  68  69
ATOM     69  S   UNL A   1      44.491  37.336  32.777  1.00  0.00     0.124 S 
ATOM     70  O   UNL A   1      44.625  38.081  31.528  1.00  0.00    -0.237 OA
ATOM     71  O   UNL A   1      43.257  37.562  33.521  1.00  0.00    -0.237 OA
ATOM     72  O   UNL A   1      45.703  37.248  33.585  1.00  0.00    -0.744 OA
ENDBRANCH  68  69
ENDBRANCH  47  61
BRANCH  48  73
ATOM     73  C   UNL A   1      42.559  23.740  27.763  1.00  0.00     0.058 A 
ATOM     74  C   UNL A   1      42.439  22.623  28.605  1.00  0.00     0.135 A 
ATOM     75  C   UNL A   1      42.503  23.519  26.377  1.00  0.00     0.135 A 
ATOM     76  F   UNL A   1      42.494  22.779  29.936  1.00  0.00    -0.206 F 
ATOM     77  C   UNL A   1      42.291  21.337  28.095  1.00  0.00     0.059 A 
ATOM     78  C   UNL A   1      42.324  22.246  25.844  1.00  0.00     0.059 A 
ATOM     79  F   UNL A   1      42.595  24.552  25.526  1.00  0.00    -0.206 F 
ATOM     80  C   UNL A   1      42.231  21.159  26.712  1.00  0.00     0.060 A 
BRANCH  80  81
ATOM     81  S   UNL A   1      41.998  19.490  26.064  1.00  0.00     0.124 S 
ATOM     82  O   UNL A   1      42.480  18.674  27.171  1.00  0.00    -0.237 OA
ATOM     83  O   UNL A   1      40.559  19.455  25.821  1.00  0.00    -0.237 OA
ATOM     84  O   UNL A   1      42.828  19.479  24.863  1.00  0.00    -0.744 OA
ENDBRANCH  80  81
ENDBRANCH  48  73
BRANCH  60  85
ATOM     85  C   UNL A   1      48.075  27.237  30.232  1.00  0.00     0.058 A 
ATOM     86  C   UNL A   1      49.002  27.364  29.187  1.00  0.00     0.135 A 
ATOM     87  C   UNL A   1      48.555  26.833  31.489  1.00  0.00     0.135 A 
ATOM     88  F   UNL A   1      48.595  27.738  27.963  1.00  0.00    -0.206 F 
ATOM     89  C   UNL A   1      50.353  27.094  29.377  1.00  0.00     0.059 A 
ATOM     90  C   UNL A   1      49.906  26.587  31.711  1.00  0.00     0.059 A 
ATOM     91  F   UNL A   1      47.711  26.704  32.526  1.00  0.00    -0.206 F 
ATOM     92  C   UNL A   1      50.797  26.715  30.646  1.00  0.00     0.060 A 
BRANCH  92  93
ATOM     93  S   UNL A   1      52.563  26.433  30.891  1.00  0.00     0.124 S 
ATOM     94  O   UNL A   1      52.563  25.134  31.555  1.00  0.00    -0.237 OA
ATOM     95  O   UNL A   1      53.072  26.447  29.523  1.00  0.00    -0.237 OA
ATOM     96  O   UNL A   1      52.976  27.561  31.720  1.00  0.00    -0.744 OA
ENDBRANCH  92  93
ENDBRANCH  60  85
ENDBRANCH  34  35
ENDBRANCH  26  29
ENDBRANCH  24  25
ENDBRANCH   1  24
TORSDOF 15
ENDMDL
MODEL 3
REMARK VINA RESULT:     -12.1      1.515      2.388
REMARK SMILES C[C@@H]1C[C@@H](C)CN(S(=O)(=O)N2CC[C@H](C(=O)NCCCNC(=O)c3ccc(-c4c5nc(c(-c6c(F)cc(S(=O)(=O)[O-])cc6F)c6ccc([nH]6)c(-c6c(F)cc(S(=O)(=O)[O-])cc6F)c6nc(c(-c7c(F)cc(S(=O)(=O)[O-])cc7F)c7ccc4[nH]7)C=C6)C=C5)cc3)[C@@H]2C)C1
REMARK SMILES IDX 19 1 18 2 17 3 15 4 16 5 14 7 11 8 12 9 90 10 13 11 91 12
REMARK SMILES IDX 8 13 9 14 10 15 7 16 1 17 2 18 3 19 92 20 4 21 6 22 5 23
REMARK SMILES IDX 20 24 21 25 22 26 23 28 24 29 25 30 89 31 26 32 88 33 27 34
REMARK SMILES IDX 28 35 29 36 82 37 30 38 87 39 81 40 83 41 31 42 86 43 80 44
REMARK SMILES IDX 79 45 32 47 66 48 45 49 65 50 46 51 49 52 64 53 84 54 47 55
REMARK SMILES IDX 48 56 63 58 85 59 50 60 33 61 34 62 43 63 35 64 36 65 42 66
REMARK SMILES IDX 44 67 37 68 38 69 39 70 40 71 41 72 67 73 68 74 77 75 69 76
REMARK SMILES IDX 70 77 76 78 78 79 71 80 72 81 73 82 74 83 75 84 51 85 52 86
REMARK SMILES IDX 61 87 53 88 54 89 60 90 62 91 55 92 56 93 57 94 58 95 59 96
REMARK H PARENT 17 6 21 27 83 46 49 57
REMARK Flexibility Score: inf
ROOT
ATOM      1  C   UNL A   1      33.241  29.537  25.753  1.00  0.00     0.042 C 
ENDROOT
BRANCH   1   2
ATOM      2  C   UNL A   1      31.765  29.332  25.473  1.00  0.00     0.117 C 
BRANCH   2   3
ATOM      3  N   UNL A   1      31.385  29.605  24.099  1.00  0.00    -0.356 N 
ATOM      4  C   UNL A   1      31.227  28.770  23.036  1.00  0.00     0.224 C 
ATOM      5  O   UNL A   1      30.911  29.307  21.974  1.00  0.00    -0.275 OA
ATOM      6  H   UNL A   1      31.212  30.554  23.903  1.00  0.00     0.163 HD
BRANCH   4   7
ATOM      7  C   UNL A   1      31.580  27.291  23.146  1.00  0.00     0.098 C 
ATOM      8  N   UNL A   1      33.159  25.735  22.200  1.00  0.00    -0.185 NA
ATOM      9  C   UNL A   1      32.038  25.819  21.269  1.00  0.00     0.105 C 
ATOM     10  C   UNL A   1      33.095  26.923  23.096  1.00  0.00     0.083 C 
ATOM     11  C   UNL A   1      30.919  26.359  22.121  1.00  0.00     0.032 C 
ATOM     12  C   UNL A   1      34.075  27.959  22.546  1.00  0.00     0.026 C 
BRANCH   8  13
ATOM     13  S   UNL A   1      33.623  24.223  22.738  1.00  0.00     0.282 S 
ATOM     14  O   UNL A   1      35.061  24.203  22.889  1.00  0.00    -0.195 OA
ATOM     15  O   UNL A   1      32.952  23.257  21.898  1.00  0.00    -0.195 OA
BRANCH  13  16
ATOM     16  N   UNL A   1      32.920  24.130  24.308  1.00  0.00    -0.188 NA
ATOM     17  C   UNL A   1      30.443  24.870  26.192  1.00  0.00     0.009 C 
ATOM     18  C   UNL A   1      30.846  23.499  25.633  1.00  0.00     0.001 C 
ATOM     19  C   UNL A   1      31.741  22.730  26.612  1.00  0.00     0.009 C 
ATOM     20  C   UNL A   1      31.505  23.612  24.244  1.00  0.00     0.106 C 
ATOM     21  C   UNL A   1      33.127  23.363  26.673  1.00  0.00     0.001 C 
ATOM     22  C   UNL A   1      33.734  23.333  25.274  1.00  0.00     0.106 C 
ATOM     23  C   UNL A   1      34.038  22.630  27.655  1.00  0.00     0.009 C 
ENDBRANCH  13  16
ENDBRANCH   8  13
ENDBRANCH   4   7
ENDBRANCH   2   3
ENDBRANCH   1   2
BRANCH   1  24
ATOM     24  C   UNL A   1      33.637  29.308  27.202  1.00  0.00     0.118 C 
BRANCH  24  25
ATOM     25  N   UNL A   1      33.697  30.531  27.994  1.00  0.00    -0.352 N 
ATOM     26  C   UNL A   1      34.707  31.033  28.785  1.00  0.00     0.251 C 
ATOM     27  H   UNL A   1      32.886  31.087  27.958  1.00  0.00     0.163 HD
ATOM     28  O   UNL A   1      34.499  32.017  29.488  1.00  0.00    -0.269 OA
BRANCH  26  29
ATOM     29  C   UNL A   1      36.019  30.353  28.823  1.00  0.00     0.039 A 
ATOM     30  C   UNL A   1      36.810  30.329  27.672  1.00  0.00     0.014 A 
ATOM     31  C   UNL A   1      36.495  29.794  30.007  1.00  0.00     0.014 A 
ATOM     32  C   UNL A   1      38.122  29.855  27.749  1.00  0.00     0.010 A 
ATOM     33  C   UNL A   1      37.837  29.453  30.114  1.00  0.00     0.010 A 
ATOM     34  C   UNL A   1      38.669  29.482  28.987  1.00  0.00    -0.014 A 
BRANCH  34  35
ATOM     35  C   UNL A   1      40.106  29.129  29.140  1.00  0.00     0.031 A 
ATOM     36  C   UNL A   1      41.092  30.177  29.583  1.00  0.00     0.074 A 
ATOM     37  C   UNL A   1      40.534  27.898  28.790  1.00  0.00     0.049 A 
ATOM     38  N   UNL A   1      42.395  30.104  29.659  1.00  0.00    -0.248 NA
ATOM     39  C   UNL A   1      40.545  31.492  29.958  1.00  0.00     0.031 C 
ATOM     40  C   UNL A   1      39.685  26.812  28.293  1.00  0.00     0.029 A 
ATOM     41  N   UNL A   1      41.796  27.354  28.784  1.00  0.00    -0.354 N 
ATOM     42  C   UNL A   1      42.821  31.361  30.070  1.00  0.00     0.074 A 
ATOM     43  C   UNL A   1      41.647  32.197  30.164  1.00  0.00     0.031 C 
ATOM     44  C   UNL A   1      40.442  25.728  28.060  1.00  0.00     0.029 A 
ATOM     45  C   UNL A   1      41.838  26.055  28.335  1.00  0.00     0.049 A 
ATOM     46  H   UNL A   1      42.596  27.849  29.074  1.00  0.00     0.167 HD
ATOM     47  C   UNL A   1      44.075  31.773  30.374  1.00  0.00     0.037 A 
ATOM     48  C   UNL A   1      42.882  25.224  28.146  1.00  0.00     0.037 A 
ATOM     49  C   UNL A   1      45.234  30.925  30.307  1.00  0.00     0.049 A 
ATOM     50  C   UNL A   1      44.270  25.713  28.465  1.00  0.00     0.074 A 
ATOM     51  C   UNL A   1      46.539  31.227  30.655  1.00  0.00     0.029 A 
ATOM     52  N   UNL A   1      45.233  29.612  29.860  1.00  0.00    -0.354 N 
ATOM     53  N   UNL A   1      44.644  26.883  28.925  1.00  0.00    -0.248 NA
ATOM     54  C   UNL A   1      45.377  24.775  28.236  1.00  0.00     0.031 C 
ATOM     55  C   UNL A   1      47.335  30.116  30.363  1.00  0.00     0.029 A 
ATOM     56  C   UNL A   1      46.519  29.101  29.890  1.00  0.00     0.049 A 
ATOM     57  H   UNL A   1      44.435  29.117  29.564  1.00  0.00     0.167 HD
ATOM     58  C   UNL A   1      46.026  26.814  29.064  1.00  0.00     0.074 A 
ATOM     59  C   UNL A   1      46.419  25.481  28.656  1.00  0.00     0.031 C 
ATOM     60  C   UNL A   1      46.892  27.767  29.487  1.00  0.00     0.037 A 
BRANCH  47  61
ATOM     61  C   UNL A   1      44.258  33.200  30.815  1.00  0.00     0.058 A 
ATOM     62  C   UNL A   1      44.503  34.231  29.893  1.00  0.00     0.135 A 
ATOM     63  C   UNL A   1      44.141  33.550  32.170  1.00  0.00     0.135 A 
ATOM     64  F   UNL A   1      44.643  33.953  28.587  1.00  0.00    -0.206 F 
ATOM     65  C   UNL A   1      44.648  35.553  30.301  1.00  0.00     0.059 A 
ATOM     66  C   UNL A   1      44.251  34.870  32.597  1.00  0.00     0.059 A 
ATOM     67  F   UNL A   1      43.911  32.604  33.095  1.00  0.00    -0.206 F 
ATOM     68  C   UNL A   1      44.516  35.863  31.655  1.00  0.00     0.060 A 
BRANCH  68  69
ATOM     69  S   UNL A   1      44.688  37.587  32.161  1.00  0.00     0.124 S 
ATOM     70  O   UNL A   1      44.089  37.560  33.492  1.00  0.00    -0.237 OA
ATOM     71  O   UNL A   1      46.134  37.779  32.120  1.00  0.00    -0.237 OA
ATOM     72  O   UNL A   1      43.931  38.317  31.149  1.00  0.00    -0.744 OA
ENDBRANCH  68  69
ENDBRANCH  47  61
BRANCH  48  73
ATOM     73  C   UNL A   1      42.660  23.844  27.633  1.00  0.00     0.058 A 
ATOM     74  C   UNL A   1      42.544  22.755  28.511  1.00  0.00     0.135 A 
ATOM     75  C   UNL A   1      42.560  23.583  26.256  1.00  0.00     0.135 A 
ATOM     76  F   UNL A   1      42.640  22.949  29.835  1.00  0.00    -0.206 F 
ATOM     77  C   UNL A   1      42.357  21.458  28.045  1.00  0.00     0.059 A 
ATOM     78  C   UNL A   1      42.343  22.298  25.767  1.00  0.00     0.059 A 
ATOM     79  F   UNL A   1      42.648  24.588  25.372  1.00  0.00    -0.206 F 
ATOM     80  C   UNL A   1      42.255  21.240  26.670  1.00  0.00     0.060 A 
BRANCH  80  81
ATOM     81  S   UNL A   1      41.973  19.556  26.079  1.00  0.00     0.124 S 
ATOM     82  O   UNL A   1      42.869  19.495  24.930  1.00  0.00    -0.237 OA
ATOM     83  O   UNL A   1      42.363  18.758  27.237  1.00  0.00    -0.237 OA
ATOM     84  O   UNL A   1      40.547  19.544  25.770  1.00  0.00    -0.744 OA
ENDBRANCH  80  81
ENDBRANCH  48  73
BRANCH  60  85
ATOM     85  C   UNL A   1      48.350  27.407  29.553  1.00  0.00     0.058 A 
ATOM     86  C   UNL A   1      49.215  27.644  28.474  1.00  0.00     0.135 A 
ATOM     87  C   UNL A   1      48.903  26.896  30.739  1.00  0.00     0.135 A 
ATOM     88  F   UNL A   1      48.736  28.122  27.315  1.00  0.00    -0.206 F 
ATOM     89  C   UNL A   1      50.578  27.378  28.564  1.00  0.00     0.059 A 
ATOM     90  C   UNL A   1      50.267  26.652  30.862  1.00  0.00     0.059 A 
ATOM     91  F   UNL A   1      48.120  26.659  31.803  1.00  0.00    -0.206 F 
ATOM     92  C   UNL A   1      51.095  26.891  29.766  1.00  0.00     0.060 A 
BRANCH  92  93
ATOM     93  S   UNL A   1      52.875  26.615  29.887  1.00  0.00     0.124 S 
ATOM     94  O   UNL A   1      52.955  25.708  31.027  1.00  0.00    -0.237 OA
ATOM     95  O   UNL A   1      53.187  26.029  28.587  1.00  0.00    -0.237 OA
ATOM     96  O   UNL A   1      53.413  27.953  30.111  1.00  0.00    -0.744 OA
ENDBRANCH  92  93
ENDBRANCH  60  85
ENDBRANCH  34  35
ENDBRANCH  26  29
ENDBRANCH  24  25
ENDBRANCH   1  24
TORSDOF 15
ENDMDL
