MODEL 1
REMARK VINA RESULT:     -11.8      0.000      0.000
REMARK SMILES C[C@@H]1[C@H](C(=O)NCCCNC(=O)c2ccc(-c3c4nc(c(-c5c(F)cc(S(=O)(=O)[O-])cc5F)c5ccc([nH]5)c(-c5c(F)cc(S(=O)(=O)[O-])cc5F)c5nc(c(-c6c(F)cc(S(=O)(=O)[O-])cc6F)c6ccc3[nH]6)C=C5)C=C4)cc2)CCN1S(=O)(=O)c1cc(F)cc(F)c1
REMARK SMILES IDX 8 1 7 2 6 3 4 4 5 5 3 7 1 8 2 9 81 10 79 11 80 12 82 13
REMARK SMILES IDX 83 14 84 15 85 16 86 17 92 18 87 19 90 20 88 21 89 22 91 23
REMARK SMILES IDX 9 24 10 25 11 26 12 28 13 29 14 30 78 31 15 32 77 33 16 34
REMARK SMILES IDX 17 35 18 36 71 37 19 38 76 39 70 40 72 41 20 42 75 43 69 44
REMARK SMILES IDX 68 45 21 47 55 48 34 49 54 50 35 51 38 52 53 53 73 54 36 55
REMARK SMILES IDX 37 56 52 58 74 59 39 60 22 61 23 62 32 63 24 64 25 65 31 66
REMARK SMILES IDX 33 67 26 68 27 69 28 70 29 71 30 72 56 73 57 74 66 75 58 76
REMARK SMILES IDX 59 77 65 78 67 79 60 80 61 81 62 82 63 83 64 84 40 85 41 86
REMARK SMILES IDX 50 87 42 88 43 89 49 90 51 91 44 92 45 93 46 94 47 95 48 96
REMARK H PARENT 6 6 10 27 72 46 38 57
REMARK Flexibility Score: inf
ROOT
ATOM      1  C   UNL A   1      33.671  28.190  25.721  1.00  0.00     0.042 C 
ENDROOT
BRANCH   1   2
ATOM      2  C   UNL A   1      32.541  28.440  24.715  1.00  0.00     0.117 C 
BRANCH   2   3
ATOM      3  N   UNL A   1      31.299  27.742  25.029  1.00  0.00    -0.356 N 
ATOM      4  C   UNL A   1      30.840  26.477  24.882  1.00  0.00     0.224 C 
ATOM      5  O   UNL A   1      29.707  26.272  25.341  1.00  0.00    -0.275 OA
ATOM      6  H   UNL A   1      30.634  28.334  25.451  1.00  0.00     0.163 HD
BRANCH   4   7
ATOM      7  C   UNL A   1      31.550  25.322  24.186  1.00  0.00     0.098 C 
ATOM      8  C   UNL A   1      32.575  24.546  26.396  1.00  0.00     0.026 C 
ATOM      9  C   UNL A   1      32.750  24.678  24.903  1.00  0.00     0.082 C 
ATOM     10  N   UNL A   1      32.988  23.379  24.167  1.00  0.00    -0.194 NA
ATOM     11  C   UNL A   1      30.749  24.153  23.668  1.00  0.00     0.032 C 
ATOM     12  C   UNL A   1      31.845  23.205  23.199  1.00  0.00     0.104 C 
BRANCH  10  13
ATOM     13  S   UNL A   1      33.403  21.903  24.911  1.00  0.00     0.243 S 
ATOM     14  O   UNL A   1      32.807  21.918  26.234  1.00  0.00    -0.207 OA
ATOM     15  O   UNL A   1      33.051  20.864  23.967  1.00  0.00    -0.207 OA
BRANCH  13  16
ATOM     16  C   UNL A   1      35.155  21.774  25.132  1.00  0.00     0.088 A 
ATOM     17  C   UNL A   1      35.816  22.951  25.510  1.00  0.00     0.061 A 
ATOM     18  C   UNL A   1      35.890  20.614  24.897  1.00  0.00     0.061 A 
ATOM     19  C   UNL A   1      37.203  22.970  25.580  1.00  0.00     0.127 A 
ATOM     20  C   UNL A   1      37.282  20.678  24.924  1.00  0.00     0.127 A 
ATOM     21  F   UNL A   1      37.825  24.096  25.949  1.00  0.00    -0.207 F 
ATOM     22  C   UNL A   1      37.951  21.848  25.259  1.00  0.00     0.078 A 
ATOM     23  F   UNL A   1      37.989  19.587  24.597  1.00  0.00    -0.207 F 
ENDBRANCH  13  16
ENDBRANCH  10  13
ENDBRANCH   4   7
ENDBRANCH   2   3
ENDBRANCH   1   2
BRANCH   1  24
ATOM     24  C   UNL A   1      33.309  28.442  27.179  1.00  0.00     0.118 C 
BRANCH  24  25
ATOM     25  N   UNL A   1      33.360  29.854  27.502  1.00  0.00    -0.352 N 
ATOM     26  C   UNL A   1      34.338  30.593  28.125  1.00  0.00     0.251 C 
ATOM     27  H   UNL A   1      32.566  30.369  27.230  1.00  0.00     0.163 HD
ATOM     28  O   UNL A   1      34.035  31.705  28.559  1.00  0.00    -0.269 OA
BRANCH  26  29
ATOM     29  C   UNL A   1      35.731  30.097  28.295  1.00  0.00     0.039 A 
ATOM     30  C   UNL A   1      36.137  29.682  29.569  1.00  0.00     0.014 A 
ATOM     31  C   UNL A   1      36.677  30.146  27.267  1.00  0.00     0.014 A 
ATOM     32  C   UNL A   1      37.467  29.305  29.806  1.00  0.00     0.010 A 
ATOM     33  C   UNL A   1      37.984  29.698  27.483  1.00  0.00     0.010 A 
ATOM     34  C   UNL A   1      38.404  29.301  28.762  1.00  0.00    -0.014 A 
BRANCH  34  35
ATOM     35  C   UNL A   1      39.834  28.955  29.004  1.00  0.00     0.031 A 
ATOM     36  C   UNL A   1      40.772  29.981  29.590  1.00  0.00     0.074 A 
ATOM     37  C   UNL A   1      40.306  27.737  28.669  1.00  0.00     0.049 A 
ATOM     38  N   UNL A   1      42.063  29.901  29.800  1.00  0.00    -0.248 NA
ATOM     39  C   UNL A   1      40.187  31.277  29.966  1.00  0.00     0.031 C 
ATOM     40  C   UNL A   1      39.520  26.658  28.069  1.00  0.00     0.029 A 
ATOM     41  N   UNL A   1      41.567  27.205  28.780  1.00  0.00    -0.354 N 
ATOM     42  C   UNL A   1      42.445  31.139  30.304  1.00  0.00     0.074 A 
ATOM     43  C   UNL A   1      41.259  31.967  30.332  1.00  0.00     0.031 C 
ATOM     44  C   UNL A   1      40.310  25.588  27.884  1.00  0.00     0.029 A 
ATOM     45  C   UNL A   1      41.665  25.912  28.321  1.00  0.00     0.049 A 
ATOM     46  H   UNL A   1      42.330  27.701  29.155  1.00  0.00     0.167 HD
ATOM     47  C   UNL A   1      43.667  31.548  30.726  1.00  0.00     0.037 A 
ATOM     48  C   UNL A   1      42.725  25.082  28.255  1.00  0.00     0.037 A 
ATOM     49  C   UNL A   1      44.840  30.714  30.748  1.00  0.00     0.049 A 
ATOM     50  C   UNL A   1      44.066  25.548  28.753  1.00  0.00     0.074 A 
ATOM     51  C   UNL A   1      46.109  31.024  31.208  1.00  0.00     0.029 A 
ATOM     52  N   UNL A   1      44.886  29.402  30.301  1.00  0.00    -0.354 N 
ATOM     53  N   UNL A   1      44.399  26.712  29.255  1.00  0.00    -0.248 NA
ATOM     54  C   UNL A   1      45.176  24.585  28.680  1.00  0.00     0.031 C 
ATOM     55  C   UNL A   1      46.929  29.906  31.018  1.00  0.00     0.029 A 
ATOM     56  C   UNL A   1      46.162  28.891  30.468  1.00  0.00     0.049 A 
ATOM     57  H   UNL A   1      44.124  28.908  29.922  1.00  0.00     0.167 HD
ATOM     58  C   UNL A   1      45.749  26.615  29.578  1.00  0.00     0.074 A 
ATOM     59  C   UNL A   1      46.169  25.275  29.224  1.00  0.00     0.031 C 
ATOM     60  C   UNL A   1      46.564  27.551  30.121  1.00  0.00     0.037 A 
BRANCH  47  61
ATOM     61  C   UNL A   1      43.795  32.967  31.210  1.00  0.00     0.058 A 
ATOM     62  C   UNL A   1      44.073  34.022  30.328  1.00  0.00     0.135 A 
ATOM     63  C   UNL A   1      43.616  33.278  32.568  1.00  0.00     0.135 A 
ATOM     64  F   UNL A   1      44.267  33.777  29.022  1.00  0.00    -0.206 F 
ATOM     65  C   UNL A   1      44.202  35.332  30.778  1.00  0.00     0.059 A 
ATOM     66  C   UNL A   1      43.717  34.585  33.037  1.00  0.00     0.059 A 
ATOM     67  F   UNL A   1      43.346  32.307  33.454  1.00  0.00    -0.206 F 
ATOM     68  C   UNL A   1      44.028  35.602  32.136  1.00  0.00     0.060 A 
BRANCH  68  69
ATOM     69  S   UNL A   1      44.209  37.304  32.710  1.00  0.00     0.124 S 
ATOM     70  O   UNL A   1      43.170  37.377  33.733  1.00  0.00    -0.237 OA
ATOM     71  O   UNL A   1      45.583  37.329  33.201  1.00  0.00    -0.237 OA
ATOM     72  O   UNL A   1      43.963  38.095  31.508  1.00  0.00    -0.744 OA
ENDBRANCH  68  69
ENDBRANCH  47  61
BRANCH  48  73
ATOM     73  C   UNL A   1      42.555  23.707  27.717  1.00  0.00     0.058 A 
ATOM     74  C   UNL A   1      42.533  23.476  26.334  1.00  0.00     0.135 A 
ATOM     75  C   UNL A   1      42.424  22.601  28.569  1.00  0.00     0.135 A 
ATOM     76  F   UNL A   1      42.646  24.506  25.480  1.00  0.00    -0.206 F 
ATOM     77  C   UNL A   1      42.377  22.197  25.812  1.00  0.00     0.059 A 
ATOM     78  C   UNL A   1      42.287  21.309  28.071  1.00  0.00     0.059 A 
ATOM     79  F   UNL A   1      42.453  22.770  29.901  1.00  0.00    -0.206 F 
ATOM     80  C   UNL A   1      42.256  21.118  26.690  1.00  0.00     0.060 A 
BRANCH  80  81
ATOM     81  S   UNL A   1      42.109  19.453  26.005  1.00  0.00     0.124 S 
ATOM     82  O   UNL A   1      42.985  19.537  24.842  1.00  0.00    -0.237 OA
ATOM     83  O   UNL A   1      42.586  18.623  27.106  1.00  0.00    -0.237 OA
ATOM     84  O   UNL A   1      40.683  19.337  25.716  1.00  0.00    -0.744 OA
ENDBRANCH  80  81
ENDBRANCH  48  73
BRANCH  60  85
ATOM     85  C   UNL A   1      47.987  27.155  30.393  1.00  0.00     0.058 A 
ATOM     86  C   UNL A   1      49.003  27.375  29.452  1.00  0.00     0.135 A 
ATOM     87  C   UNL A   1      48.345  26.596  31.631  1.00  0.00     0.135 A 
ATOM     88  F   UNL A   1      48.711  27.901  28.252  1.00  0.00    -0.206 F 
ATOM     89  C   UNL A   1      50.326  27.038  29.721  1.00  0.00     0.059 A 
ATOM     90  C   UNL A   1      49.665  26.270  31.928  1.00  0.00     0.059 A 
ATOM     91  F   UNL A   1      47.410  26.374  32.568  1.00  0.00    -0.206 F 
ATOM     92  C   UNL A   1      50.648  26.485  30.963  1.00  0.00     0.060 A 
BRANCH  92  93
ATOM     93  S   UNL A   1      52.372  26.086  31.318  1.00  0.00     0.124 S 
ATOM     94  O   UNL A   1      52.969  26.157  29.988  1.00  0.00    -0.237 OA
ATOM     95  O   UNL A   1      52.758  27.147  32.244  1.00  0.00    -0.237 OA
ATOM     96  O   UNL A   1      52.297  24.750  31.902  1.00  0.00    -0.744 OA
ENDBRANCH  92  93
ENDBRANCH  60  85
ENDBRANCH  34  35
ENDBRANCH  26  29
ENDBRANCH  24  25
ENDBRANCH   1  24
TORSDOF 15
ENDMDL
MODEL 2
REMARK VINA RESULT:     -11.7      5.019     10.634
REMARK SMILES C[C@@H]1[C@H](C(=O)NCCCNC(=O)c2ccc(-c3c4nc(c(-c5c(F)cc(S(=O)(=O)[O-])cc5F)c5ccc([nH]5)c(-c5c(F)cc(S(=O)(=O)[O-])cc5F)c5nc(c(-c6c(F)cc(S(=O)(=O)[O-])cc6F)c6ccc3[nH]6)C=C5)C=C4)cc2)CCN1S(=O)(=O)c1cc(F)cc(F)c1
REMARK SMILES IDX 8 1 7 2 6 3 4 4 5 5 3 7 1 8 2 9 81 10 79 11 80 12 82 13
REMARK SMILES IDX 83 14 84 15 85 16 86 17 92 18 87 19 90 20 88 21 89 22 91 23
REMARK SMILES IDX 9 24 10 25 11 26 12 28 13 29 14 30 78 31 15 32 77 33 16 34
REMARK SMILES IDX 17 35 18 36 71 37 19 38 76 39 70 40 72 41 20 42 75 43 69 44
REMARK SMILES IDX 68 45 21 47 55 48 34 49 54 50 35 51 38 52 53 53 73 54 36 55
REMARK SMILES IDX 37 56 52 58 74 59 39 60 22 61 23 62 32 63 24 64 25 65 31 66
REMARK SMILES IDX 33 67 26 68 27 69 28 70 29 71 30 72 56 73 57 74 66 75 58 76
REMARK SMILES IDX 59 77 65 78 67 79 60 80 61 81 62 82 63 83 64 84 40 85 41 86
REMARK SMILES IDX 50 87 42 88 43 89 49 90 51 91 44 92 45 93 46 94 47 95 48 96
REMARK H PARENT 6 6 10 27 72 46 38 57
REMARK Flexibility Score: inf
ROOT
ATOM      1  C   UNL A   1      39.441  22.040  26.486  1.00  0.00     0.042 C 
ENDROOT
BRANCH   1   2
ATOM      2  C   UNL A   1      38.193  22.671  25.857  1.00  0.00     0.117 C 
BRANCH   2   3
ATOM      3  N   UNL A   1      36.974  21.892  26.045  1.00  0.00    -0.356 N 
ATOM      4  C   UNL A   1      35.646  22.145  25.969  1.00  0.00     0.224 C 
ATOM      5  O   UNL A   1      34.912  21.164  26.157  1.00  0.00    -0.275 OA
ATOM      6  H   UNL A   1      37.163  20.955  26.285  1.00  0.00     0.163 HD
BRANCH   4   7
ATOM      7  C   UNL A   1      34.986  23.496  25.720  1.00  0.00     0.098 C 
ATOM      8  C   UNL A   1      34.991  23.096  23.195  1.00  0.00     0.026 C 
ATOM      9  C   UNL A   1      35.103  24.105  24.311  1.00  0.00     0.082 C 
ATOM     10  N   UNL A   1      34.072  25.210  24.283  1.00  0.00    -0.194 NA
ATOM     11  C   UNL A   1      33.541  23.705  26.103  1.00  0.00     0.032 C 
ATOM     12  C   UNL A   1      33.272  25.100  25.556  1.00  0.00     0.104 C 
BRANCH  10  13
ATOM     13  S   UNL A   1      33.074  25.574  22.951  1.00  0.00     0.243 S 
ATOM     14  O   UNL A   1      33.955  25.864  21.835  1.00  0.00    -0.207 OA
ATOM     15  O   UNL A   1      32.115  24.494  22.859  1.00  0.00    -0.207 OA
BRANCH  13  16
ATOM     16  C   UNL A   1      32.119  27.035  23.251  1.00  0.00     0.088 A 
ATOM     17  C   UNL A   1      32.749  28.036  24.004  1.00  0.00     0.061 A 
ATOM     18  C   UNL A   1      30.799  27.205  22.842  1.00  0.00     0.061 A 
ATOM     19  C   UNL A   1      32.029  29.159  24.396  1.00  0.00     0.127 A 
ATOM     20  C   UNL A   1      30.087  28.315  23.294  1.00  0.00     0.127 A 
ATOM     21  F   UNL A   1      32.640  30.113  25.107  1.00  0.00    -0.207 F 
ATOM     22  C   UNL A   1      30.688  29.296  24.072  1.00  0.00     0.078 A 
ATOM     23  F   UNL A   1      28.789  28.425  22.984  1.00  0.00    -0.207 F 
ENDBRANCH  13  16
ENDBRANCH  10  13
ENDBRANCH   4   7
ENDBRANCH   2   3
ENDBRANCH   1   2
BRANCH   1  24
ATOM     24  C   UNL A   1      40.397  23.021  27.155  1.00  0.00     0.118 C 
BRANCH  24  25
ATOM     25  N   UNL A   1      41.153  23.776  26.176  1.00  0.00    -0.352 N 
ATOM     26  C   UNL A   1      41.489  25.109  26.142  1.00  0.00     0.251 C 
ATOM     27  H   UNL A   1      41.480  23.250  25.410  1.00  0.00     0.163 HD
ATOM     28  O   UNL A   1      41.871  25.582  25.072  1.00  0.00    -0.269 OA
BRANCH  26  29
ATOM     29  C   UNL A   1      41.402  25.988  27.340  1.00  0.00     0.039 A 
ATOM     30  C   UNL A   1      40.294  25.849  28.186  1.00  0.00     0.014 A 
ATOM     31  C   UNL A   1      42.311  27.020  27.583  1.00  0.00     0.014 A 
ATOM     32  C   UNL A   1      40.109  26.722  29.268  1.00  0.00     0.010 A 
ATOM     33  C   UNL A   1      42.170  27.842  28.706  1.00  0.00     0.010 A 
ATOM     34  C   UNL A   1      41.052  27.723  29.545  1.00  0.00    -0.014 A 
BRANCH  34  35
ATOM     35  C   UNL A   1      40.849  28.693  30.659  1.00  0.00     0.031 A 
ATOM     36  C   UNL A   1      41.702  28.609  31.901  1.00  0.00     0.074 A 
ATOM     37  C   UNL A   1      39.881  29.628  30.581  1.00  0.00     0.049 A 
ATOM     38  N   UNL A   1      41.628  29.306  33.008  1.00  0.00    -0.248 NA
ATOM     39  C   UNL A   1      42.764  27.590  31.909  1.00  0.00     0.031 C 
ATOM     40  C   UNL A   1      38.964  29.807  29.454  1.00  0.00     0.029 A 
ATOM     41  N   UNL A   1      39.502  30.601  31.473  1.00  0.00    -0.354 N 
ATOM     42  C   UNL A   1      42.609  28.792  33.849  1.00  0.00     0.074 A 
ATOM     43  C   UNL A   1      43.240  27.699  33.141  1.00  0.00     0.031 C 
ATOM     44  C   UNL A   1      38.144  30.839  29.714  1.00  0.00     0.029 A 
ATOM     45  C   UNL A   1      38.453  31.375  31.036  1.00  0.00     0.049 A 
ATOM     46  H   UNL A   1      39.942  30.734  32.344  1.00  0.00     0.167 HD
ATOM     47  C   UNL A   1      42.970  29.202  35.089  1.00  0.00     0.037 A 
ATOM     48  C   UNL A   1      37.809  32.398  31.633  1.00  0.00     0.037 A 
ATOM     49  C   UNL A   1      42.380  30.320  35.779  1.00  0.00     0.049 A 
ATOM     50  C   UNL A   1      38.242  32.854  32.999  1.00  0.00     0.074 A 
ATOM     51  C   UNL A   1      42.715  30.844  37.016  1.00  0.00     0.029 A 
ATOM     52  N   UNL A   1      41.340  31.094  35.286  1.00  0.00    -0.354 N 
ATOM     53  N   UNL A   1      39.194  32.375  33.763  1.00  0.00    -0.248 NA
ATOM     54  C   UNL A   1      37.518  33.994  33.582  1.00  0.00     0.031 C 
ATOM     55  C   UNL A   1      41.863  31.922  37.281  1.00  0.00     0.029 A 
ATOM     56  C   UNL A   1      41.017  32.086  36.196  1.00  0.00     0.049 A 
ATOM     57  H   UNL A   1      40.898  30.958  34.417  1.00  0.00     0.167 HD
ATOM     58  C   UNL A   1      39.197  33.167  34.907  1.00  0.00     0.074 A 
ATOM     59  C   UNL A   1      38.160  34.163  34.730  1.00  0.00     0.031 C 
ATOM     60  C   UNL A   1      39.989  33.078  36.003  1.00  0.00     0.037 A 
BRANCH  47  61
ATOM     61  C   UNL A   1      44.066  28.439  35.782  1.00  0.00     0.058 A 
ATOM     62  C   UNL A   1      43.783  27.370  36.646  1.00  0.00     0.135 A 
ATOM     63  C   UNL A   1      45.414  28.766  35.562  1.00  0.00     0.135 A 
ATOM     64  F   UNL A   1      42.511  27.026  36.901  1.00  0.00    -0.206 F 
ATOM     65  C   UNL A   1      44.796  26.671  37.295  1.00  0.00     0.059 A 
ATOM     66  C   UNL A   1      46.445  28.065  36.182  1.00  0.00     0.059 A 
ATOM     67  F   UNL A   1      45.739  29.778  34.744  1.00  0.00    -0.206 F 
ATOM     68  C   UNL A   1      46.125  27.032  37.061  1.00  0.00     0.060 A 
BRANCH  68  69
ATOM     69  S   UNL A   1      47.431  26.125  37.916  1.00  0.00     0.124 S 
ATOM     70  O   UNL A   1      46.660  25.356  38.888  1.00  0.00    -0.237 OA
ATOM     71  O   UNL A   1      48.041  25.354  36.838  1.00  0.00    -0.237 OA
ATOM     72  O   UNL A   1      48.268  27.184  38.475  1.00  0.00    -0.744 OA
ENDBRANCH  68  69
ENDBRANCH  47  61
BRANCH  48  73
ATOM     73  C   UNL A   1      36.696  33.083  30.925  1.00  0.00     0.058 A 
ATOM     74  C   UNL A   1      35.362  32.845  31.286  1.00  0.00     0.135 A 
ATOM     75  C   UNL A   1      36.942  33.995  29.887  1.00  0.00     0.135 A 
ATOM     76  F   UNL A   1      35.078  31.974  32.268  1.00  0.00    -0.206 F 
ATOM     77  C   UNL A   1      34.307  33.479  30.638  1.00  0.00     0.059 A 
ATOM     78  C   UNL A   1      35.905  34.657  29.238  1.00  0.00     0.059 A 
ATOM     79  F   UNL A   1      38.203  34.267  29.515  1.00  0.00    -0.206 F 
ATOM     80  C   UNL A   1      34.590  34.385  29.614  1.00  0.00     0.060 A 
BRANCH  80  81
ATOM     81  S   UNL A   1      33.218  35.246  28.813  1.00  0.00     0.124 S 
ATOM     82  O   UNL A   1      32.444  35.696  29.964  1.00  0.00    -0.237 OA
ATOM     83  O   UNL A   1      33.906  36.289  28.058  1.00  0.00    -0.237 OA
ATOM     84  O   UNL A   1      32.598  34.202  28.003  1.00  0.00    -0.744 OA
ENDBRANCH  80  81
ENDBRANCH  48  73
BRANCH  60  85
ATOM     85  C   UNL A   1      39.789  34.099  37.086  1.00  0.00     0.058 A 
ATOM     86  C   UNL A   1      39.059  33.804  38.246  1.00  0.00     0.135 A 
ATOM     87  C   UNL A   1      40.378  35.369  36.984  1.00  0.00     0.135 A 
ATOM     88  F   UNL A   1      38.471  32.605  38.389  1.00  0.00    -0.206 F 
ATOM     89  C   UNL A   1      38.904  34.739  39.264  1.00  0.00     0.059 A 
ATOM     90  C   UNL A   1      40.253  36.314  37.998  1.00  0.00     0.059 A 
ATOM     91  F   UNL A   1      41.094  35.696  35.897  1.00  0.00    -0.206 F 
ATOM     92  C   UNL A   1      39.505  35.993  39.131  1.00  0.00     0.060 A 
BRANCH  92  93
ATOM     93  S   UNL A   1      39.330  37.189  40.472  1.00  0.00     0.124 S 
ATOM     94  O   UNL A   1      38.539  36.433  41.437  1.00  0.00    -0.237 OA
ATOM     95  O   UNL A   1      40.717  37.444  40.850  1.00  0.00    -0.237 OA
ATOM     96  O   UNL A   1      38.645  38.312  39.838  1.00  0.00    -0.744 OA
ENDBRANCH  92  93
ENDBRANCH  60  85
ENDBRANCH  34  35
ENDBRANCH  26  29
ENDBRANCH  24  25
ENDBRANCH   1  24
TORSDOF 15
ENDMDL
MODEL 3
REMARK VINA RESULT:     -11.7      4.907     10.611
REMARK SMILES C[C@@H]1[C@H](C(=O)NCCCNC(=O)c2ccc(-c3c4nc(c(-c5c(F)cc(S(=O)(=O)[O-])cc5F)c5ccc([nH]5)c(-c5c(F)cc(S(=O)(=O)[O-])cc5F)c5nc(c(-c6c(F)cc(S(=O)(=O)[O-])cc6F)c6ccc3[nH]6)C=C5)C=C4)cc2)CCN1S(=O)(=O)c1cc(F)cc(F)c1
REMARK SMILES IDX 8 1 7 2 6 3 4 4 5 5 3 7 1 8 2 9 81 10 79 11 80 12 82 13
REMARK SMILES IDX 83 14 84 15 85 16 86 17 92 18 87 19 90 20 88 21 89 22 91 23
REMARK SMILES IDX 9 24 10 25 11 26 12 28 13 29 14 30 78 31 15 32 77 33 16 34
REMARK SMILES IDX 17 35 18 36 71 37 19 38 76 39 70 40 72 41 20 42 75 43 69 44
REMARK SMILES IDX 68 45 21 47 55 48 34 49 54 50 35 51 38 52 53 53 73 54 36 55
REMARK SMILES IDX 37 56 52 58 74 59 39 60 22 61 23 62 32 63 24 64 25 65 31 66
REMARK SMILES IDX 33 67 26 68 27 69 28 70 29 71 30 72 56 73 57 74 66 75 58 76
REMARK SMILES IDX 59 77 65 78 67 79 60 80 61 81 62 82 63 83 64 84 40 85 41 86
REMARK SMILES IDX 50 87 42 88 43 89 49 90 51 91 44 92 45 93 46 94 47 95 48 96
REMARK H PARENT 6 6 10 27 72 46 38 57
REMARK Flexibility Score: inf
ROOT
ATOM      1  C   UNL A   1      37.693  23.496  25.363  1.00  0.00     0.042 C 
ENDROOT
BRANCH   1   2
ATOM      2  C   UNL A   1      36.844  22.225  25.234  1.00  0.00     0.117 C 
BRANCH   2   3
ATOM      3  N   UNL A   1      35.838  22.286  24.179  1.00  0.00    -0.356 N 
ATOM      4  C   UNL A   1      34.594  22.810  24.061  1.00  0.00     0.224 C 
ATOM      5  O   UNL A   1      34.076  22.687  22.942  1.00  0.00    -0.275 OA
ATOM      6  H   UNL A   1      36.134  21.839  23.354  1.00  0.00     0.163 HD
BRANCH   4   7
ATOM      7  C   UNL A   1      33.779  23.485  25.158  1.00  0.00     0.098 C 
ATOM      8  C   UNL A   1      33.804  25.705  23.891  1.00  0.00     0.026 C 
ATOM      9  C   UNL A   1      33.809  25.022  25.236  1.00  0.00     0.082 C 
ATOM     10  N   UNL A   1      32.656  25.385  26.144  1.00  0.00    -0.194 NA
ATOM     11  C   UNL A   1      32.324  23.127  25.336  1.00  0.00     0.032 C 
ATOM     12  C   UNL A   1      31.888  24.115  26.409  1.00  0.00     0.104 C 
BRANCH  10  13
ATOM     13  S   UNL A   1      31.609  26.707  25.903  1.00  0.00     0.243 S 
ATOM     14  O   UNL A   1      31.310  26.752  24.484  1.00  0.00    -0.207 OA
ATOM     15  O   UNL A   1      30.540  26.554  26.867  1.00  0.00    -0.207 OA
BRANCH  13  16
ATOM     16  C   UNL A   1      32.407  28.234  26.314  1.00  0.00     0.088 A 
ATOM     17  C   UNL A   1      33.727  28.132  26.774  1.00  0.00     0.061 A 
ATOM     18  C   UNL A   1      31.787  29.479  26.263  1.00  0.00     0.061 A 
ATOM     19  C   UNL A   1      34.383  29.265  27.241  1.00  0.00     0.127 A 
ATOM     20  C   UNL A   1      32.451  30.588  26.786  1.00  0.00     0.127 A 
ATOM     21  F   UNL A   1      35.646  29.161  27.670  1.00  0.00    -0.207 F 
ATOM     22  C   UNL A   1      33.745  30.495  27.280  1.00  0.00     0.078 A 
ATOM     23  F   UNL A   1      31.813  31.766  26.829  1.00  0.00    -0.207 F 
ENDBRANCH  13  16
ENDBRANCH  10  13
ENDBRANCH   4   7
ENDBRANCH   2   3
ENDBRANCH   1   2
BRANCH   1  24
ATOM     24  C   UNL A   1      38.635  23.528  26.560  1.00  0.00     0.118 C 
BRANCH  24  25
ATOM     25  N   UNL A   1      40.013  23.703  26.146  1.00  0.00    -0.352 N 
ATOM     26  C   UNL A   1      40.885  24.743  26.361  1.00  0.00     0.251 C 
ATOM     27  H   UNL A   1      40.386  22.954  25.626  1.00  0.00     0.163 HD
ATOM     28  O   UNL A   1      41.896  24.805  25.663  1.00  0.00    -0.269 OA
BRANCH  26  29
ATOM     29  C   UNL A   1      40.646  25.788  27.394  1.00  0.00     0.039 A 
ATOM     30  C   UNL A   1      41.455  26.931  27.382  1.00  0.00     0.014 A 
ATOM     31  C   UNL A   1      39.735  25.617  28.440  1.00  0.00     0.014 A 
ATOM     32  C   UNL A   1      41.343  27.895  28.394  1.00  0.00     0.010 A 
ATOM     33  C   UNL A   1      39.568  26.614  29.407  1.00  0.00     0.010 A 
ATOM     34  C   UNL A   1      40.390  27.751  29.414  1.00  0.00    -0.014 A 
BRANCH  34  35
ATOM     35  C   UNL A   1      40.289  28.738  30.527  1.00  0.00     0.031 A 
ATOM     36  C   UNL A   1      41.190  28.614  31.731  1.00  0.00     0.074 A 
ATOM     37  C   UNL A   1      39.371  29.724  30.482  1.00  0.00     0.049 A 
ATOM     38  N   UNL A   1      41.202  29.321  32.834  1.00  0.00    -0.248 NA
ATOM     39  C   UNL A   1      42.193  27.538  31.702  1.00  0.00     0.031 C 
ATOM     40  C   UNL A   1      38.418  29.947  29.394  1.00  0.00     0.029 A 
ATOM     41  N   UNL A   1      39.086  30.723  31.381  1.00  0.00    -0.354 N 
ATOM     42  C   UNL A   1      42.189  28.759  33.637  1.00  0.00     0.074 A 
ATOM     43  C   UNL A   1      42.728  27.629  32.912  1.00  0.00     0.031 C 
ATOM     44  C   UNL A   1      37.668  31.024  29.680  1.00  0.00     0.029 A 
ATOM     45  C   UNL A   1      38.063  31.551  30.983  1.00  0.00     0.049 A 
ATOM     46  H   UNL A   1      39.570  30.836  32.231  1.00  0.00     0.167 HD
ATOM     47  C   UNL A   1      42.625  29.157  34.857  1.00  0.00     0.037 A 
ATOM     48  C   UNL A   1      37.502  32.611  31.598  1.00  0.00     0.037 A 
ATOM     49  C   UNL A   1      42.128  30.309  35.562  1.00  0.00     0.049 A 
ATOM     50  C   UNL A   1      38.019  33.051  32.940  1.00  0.00     0.074 A 
ATOM     51  C   UNL A   1      42.545  30.822  36.779  1.00  0.00     0.029 A 
ATOM     52  N   UNL A   1      41.112  31.137  35.107  1.00  0.00    -0.354 N 
ATOM     53  N   UNL A   1      38.975  32.525  33.667  1.00  0.00    -0.248 NA
ATOM     54  C   UNL A   1      37.384  34.233  33.544  1.00  0.00     0.031 C 
ATOM     55  C   UNL A   1      41.765  31.947  37.071  1.00  0.00     0.029 A 
ATOM     56  C   UNL A   1      40.884  32.151  36.022  1.00  0.00     0.049 A 
ATOM     57  H   UNL A   1      40.625  31.019  34.259  1.00  0.00     0.167 HD
ATOM     58  C   UNL A   1      39.071  33.323  34.803  1.00  0.00     0.074 A 
ATOM     59  C   UNL A   1      38.084  34.373  34.662  1.00  0.00     0.031 C 
ATOM     60  C   UNL A   1      39.904  33.196  35.864  1.00  0.00     0.037 A 
BRANCH  47  61
ATOM     61  C   UNL A   1      43.706  28.338  35.509  1.00  0.00     0.058 A 
ATOM     62  C   UNL A   1      45.064  28.565  35.237  1.00  0.00     0.135 A 
ATOM     63  C   UNL A   1      43.382  27.330  36.432  1.00  0.00     0.135 A 
ATOM     64  F   UNL A   1      45.428  29.507  34.352  1.00  0.00    -0.206 F 
ATOM     65  C   UNL A   1      46.063  27.801  35.831  1.00  0.00     0.059 A 
ATOM     66  C   UNL A   1      44.366  26.569  37.056  1.00  0.00     0.059 A 
ATOM     67  F   UNL A   1      42.099  27.074  36.729  1.00  0.00    -0.206 F 
ATOM     68  C   UNL A   1      45.703  26.800  36.736  1.00  0.00     0.060 A 
BRANCH  68  69
ATOM     69  S   UNL A   1      47.007  25.807  37.492  1.00  0.00     0.124 S 
ATOM     70  O   UNL A   1      46.261  24.627  37.920  1.00  0.00    -0.237 OA
ATOM     71  O   UNL A   1      47.933  25.603  36.384  1.00  0.00    -0.237 OA
ATOM     72  O   UNL A   1      47.502  26.661  38.568  1.00  0.00    -0.744 OA
ENDBRANCH  68  69
ENDBRANCH  47  61
BRANCH  48  73
ATOM     73  C   UNL A   1      36.399  33.352  30.933  1.00  0.00     0.058 A 
ATOM     74  C   UNL A   1      35.078  33.231  31.387  1.00  0.00     0.135 A 
ATOM     75  C   UNL A   1      36.643  34.203  29.844  1.00  0.00     0.135 A 
ATOM     76  F   UNL A   1      34.796  32.422  32.420  1.00  0.00    -0.206 F 
ATOM     77  C   UNL A   1      34.033  33.918  30.779  1.00  0.00     0.059 A 
ATOM     78  C   UNL A   1      35.618  34.917  29.233  1.00  0.00     0.059 A 
ATOM     79  F   UNL A   1      37.894  34.363  29.383  1.00  0.00    -0.206 F 
ATOM     80  C   UNL A   1      34.314  34.761  29.702  1.00  0.00     0.060 A 
BRANCH  80  81
ATOM     81  S   UNL A   1      32.960  35.693  28.953  1.00  0.00     0.124 S 
ATOM     82  O   UNL A   1      32.153  36.027  30.121  1.00  0.00    -0.237 OA
ATOM     83  O   UNL A   1      33.663  36.807  28.323  1.00  0.00    -0.237 OA
ATOM     84  O   UNL A   1      32.367  34.734  28.027  1.00  0.00    -0.744 OA
ENDBRANCH  80  81
ENDBRANCH  48  73
BRANCH  60  85
ATOM     85  C   UNL A   1      39.807  34.233  36.947  1.00  0.00     0.058 A 
ATOM     86  C   UNL A   1      40.462  35.469  36.840  1.00  0.00     0.135 A 
ATOM     87  C   UNL A   1      39.008  34.007  38.079  1.00  0.00     0.135 A 
ATOM     88  F   UNL A   1      41.243  35.731  35.780  1.00  0.00    -0.206 F 
ATOM     89  C   UNL A   1      40.343  36.441  37.828  1.00  0.00     0.059 A 
ATOM     90  C   UNL A   1      38.859  34.972  39.070  1.00  0.00     0.059 A 
ATOM     91  F   UNL A   1      38.354  32.844  38.223  1.00  0.00    -0.206 F 
ATOM     92  C   UNL A   1      39.539  36.183  38.941  1.00  0.00     0.060 A 
BRANCH  92  93
ATOM     93  S   UNL A   1      39.360  37.463  40.201  1.00  0.00     0.124 S 
ATOM     94  O   UNL A   1      38.906  36.684  41.348  1.00  0.00    -0.237 OA
ATOM     95  O   UNL A   1      40.712  38.005  40.296  1.00  0.00    -0.237 OA
ATOM     96  O   UNL A   1      38.369  38.369  39.625  1.00  0.00    -0.744 OA
ENDBRANCH  92  93
ENDBRANCH  60  85
ENDBRANCH  34  35
ENDBRANCH  26  29
ENDBRANCH  24  25
ENDBRANCH   1  24
TORSDOF 15
ENDMDL
