MODEL 1
REMARK VINA RESULT:     -12.6      0.000      0.000
REMARK SMILES NC(=O)[C@@H]1CCC[N@@H+]1[C@@H](C(=O)NCCCNC(=O)c1ccc(-c2c3nc(c(-c4c(F)cc(S(=O)(=O)[O-])cc4F)c4ccc([nH]4)c(-c4c(F)cc(S(=O)(=O)[O-])cc4F)c4nc(c(-c5c(F)cc(S(=O)(=O)[O-])cc5F)c5ccc2[nH]5)C=C4)C=C3)cc1)c1c[nH]c2cc(OCc3ccccc3)ccc12
REMARK SMILES IDX 13 1 12 2 10 3 11 4 9 6 8 7 4 8 5 9 6 10 7 11 2 13 1 14 3 17
REMARK SMILES IDX 85 18 86 19 101 20 87 21 88 22 100 23 89 25 99 26 90 27
REMARK SMILES IDX 91 28 92 29 93 30 94 31 98 32 95 33 97 34 96 35 14 36 15 37
REMARK SMILES IDX 16 38 17 39 18 41 19 42 20 43 84 44 21 45 83 46 22 47 23 48
REMARK SMILES IDX 24 49 77 50 25 51 82 52 76 53 78 54 26 55 81 56 75 57 74 58
REMARK SMILES IDX 27 60 61 61 40 62 60 63 41 64 44 65 59 66 79 67 42 68 43 69
REMARK SMILES IDX 58 71 80 72 45 73 28 74 29 75 38 76 30 77 31 78 37 79 39 80
REMARK SMILES IDX 32 81 33 82 34 83 35 84 36 85 62 86 63 87 72 88 64 89 65 90
REMARK SMILES IDX 71 91 73 92 66 93 67 94 68 95 69 96 70 97 46 98 47 99 56 100
REMARK SMILES IDX 48 101 49 102 55 103 57 104 50 105 51 106 52 107 53 108
REMARK SMILES IDX 54 109
REMARK H PARENT 12 5 8 12 1 15 1 16 87 24 16 40 78 59 44 70
REMARK Flexibility Score: inf
ROOT
ATOM      1  C   UNL A   1      33.867  28.092  26.432  1.00  0.00     0.118 C 
ENDROOT
BRANCH   1   2
ATOM      2  N   UNL A   1      32.693  27.294  26.738  1.00  0.00    -0.351 N 
ATOM      3  C   UNL A   1      31.839  26.469  26.069  1.00  0.00     0.283 C 
ATOM      4  O   UNL A   1      30.890  26.134  26.787  1.00  0.00    -0.268 OA
ATOM      5  H   UNL A   1      32.447  27.370  27.688  1.00  0.00     0.163 HD
BRANCH   3   6
ATOM      6  C   UNL A   1      32.010  26.005  24.590  1.00  0.00     0.308 C 
BRANCH   6   7
ATOM      7  N   UNL A   1      31.170  26.764  23.588  1.00  0.00    -0.311 N 
ATOM      8  C   UNL A   1      31.756  27.360  22.381  1.00  0.00     0.275 C 
ATOM      9  C   UNL A   1      32.194  28.751  22.823  1.00  0.00     0.081 C 
ATOM     10  C   UNL A   1      31.205  29.140  23.907  1.00  0.00     0.068 C 
ATOM     11  C   UNL A   1      30.386  27.888  24.134  1.00  0.00     0.264 C 
ATOM     12  H   UNL A   1      30.640  25.933  23.325  1.00  0.00     0.349 HD
BRANCH   8  13
ATOM     13  C   UNL A   1      32.697  26.484  21.554  1.00  0.00     0.275 C 
ATOM     14  N   UNL A   1      32.080  25.721  20.598  1.00  0.00    -0.365 N 
ATOM     15  H   UNL A   1      32.614  25.128  20.022  1.00  0.00     0.159 HD
ATOM     16  H   UNL A   1      31.103  25.765  20.489  1.00  0.00     0.159 HD
ATOM     17  O   UNL A   1      33.904  26.356  21.731  1.00  0.00    -0.268 OA
ENDBRANCH   8  13
ENDBRANCH   6   7
BRANCH   6  18
ATOM     18  C   UNL A   1      31.616  24.505  24.308  1.00  0.00     0.044 A 
ATOM     19  C   UNL A   1      30.541  23.891  24.956  1.00  0.00     0.094 A 
ATOM     20  C   UNL A   1      32.453  23.397  23.896  1.00  0.00     0.009 A 
ATOM     21  N   UNL A   1      31.056  22.725  25.481  1.00  0.00    -0.361 N 
ATOM     22  C   UNL A   1      32.294  22.483  24.940  1.00  0.00     0.050 A 
ATOM     23  C   UNL A   1      33.548  23.196  23.025  1.00  0.00     0.015 A 
ATOM     24  H   UNL A   1      30.604  22.153  26.143  1.00  0.00     0.166 HD
ATOM     25  C   UNL A   1      33.338  21.654  25.358  1.00  0.00     0.073 A 
ATOM     26  C   UNL A   1      34.558  22.279  23.361  1.00  0.00     0.047 A 
ATOM     27  C   UNL A   1      34.493  21.593  24.566  1.00  0.00     0.121 A 
BRANCH  27  28
ATOM     28  O   UNL A   1      35.566  20.964  25.140  1.00  0.00    -0.489 OA
BRANCH  28  29
ATOM     29  C   UNL A   1      36.847  21.214  24.557  1.00  0.00     0.265 C 
BRANCH  29  30
ATOM     30  C   UNL A   1      37.674  22.173  25.391  1.00  0.00    -0.011 A 
ATOM     31  C   UNL A   1      38.867  21.730  25.977  1.00  0.00     0.007 A 
ATOM     32  C   UNL A   1      37.277  23.497  25.625  1.00  0.00     0.007 A 
ATOM     33  C   UNL A   1      39.620  22.586  26.785  1.00  0.00     0.000 A 
ATOM     34  C   UNL A   1      38.017  24.348  26.439  1.00  0.00     0.000 A 
ATOM     35  C   UNL A   1      39.190  23.892  27.023  1.00  0.00     0.000 A 
ENDBRANCH  29  30
ENDBRANCH  28  29
ENDBRANCH  27  28
ENDBRANCH   6  18
ENDBRANCH   3   6
ENDBRANCH   1   2
BRANCH   1  36
ATOM     36  C   UNL A   1      34.033  29.342  27.324  1.00  0.00     0.042 C 
BRANCH  36  37
ATOM     37  C   UNL A   1      35.455  29.649  27.824  1.00  0.00     0.118 C 
BRANCH  37  38
ATOM     38  N   UNL A   1      35.422  30.281  29.128  1.00  0.00    -0.352 N 
ATOM     39  C   UNL A   1      36.408  30.384  30.079  1.00  0.00     0.251 C 
ATOM     40  H   UNL A   1      34.565  30.700  29.368  1.00  0.00     0.163 HD
ATOM     41  O   UNL A   1      36.085  30.691  31.225  1.00  0.00    -0.269 OA
BRANCH  39  42
ATOM     42  C   UNL A   1      37.840  30.146  29.761  1.00  0.00     0.039 A 
ATOM     43  C   UNL A   1      38.232  30.154  28.417  1.00  0.00     0.014 A 
ATOM     44  C   UNL A   1      38.769  29.784  30.743  1.00  0.00     0.014 A 
ATOM     45  C   UNL A   1      39.538  29.799  28.055  1.00  0.00     0.010 A 
ATOM     46  C   UNL A   1      40.085  29.464  30.384  1.00  0.00     0.010 A 
ATOM     47  C   UNL A   1      40.478  29.445  29.035  1.00  0.00    -0.014 A 
BRANCH  47  48
ATOM     48  C   UNL A   1      41.854  29.021  28.653  1.00  0.00     0.031 A 
ATOM     49  C   UNL A   1      42.981  30.023  28.626  1.00  0.00     0.074 A 
ATOM     50  C   UNL A   1      42.093  27.741  28.305  1.00  0.00     0.049 A 
ATOM     51  N   UNL A   1      44.234  29.852  28.282  1.00  0.00    -0.248 NA
ATOM     52  C   UNL A   1      42.653  31.401  29.021  1.00  0.00     0.031 C 
ATOM     53  C   UNL A   1      41.089  26.677  28.265  1.00  0.00     0.029 A 
ATOM     54  N   UNL A   1      43.252  27.119  27.910  1.00  0.00    -0.354 N 
ATOM     55  C   UNL A   1      44.838  31.099  28.404  1.00  0.00     0.074 A 
ATOM     56  C   UNL A   1      43.805  32.025  28.819  1.00  0.00     0.031 C 
ATOM     57  C   UNL A   1      41.674  25.534  27.873  1.00  0.00     0.029 A 
ATOM     58  C   UNL A   1      43.089  25.786  27.608  1.00  0.00     0.049 A 
ATOM     59  H   UNL A   1      44.118  27.583  27.847  1.00  0.00     0.167 HD
ATOM     60  C   UNL A   1      46.135  31.440  28.205  1.00  0.00     0.037 A 
ATOM     61  C   UNL A   1      43.973  24.873  27.160  1.00  0.00     0.037 A 
ATOM     62  C   UNL A   1      47.168  30.512  27.818  1.00  0.00     0.049 A 
ATOM     63  C   UNL A   1      45.409  25.272  26.950  1.00  0.00     0.074 A 
ATOM     64  C   UNL A   1      48.522  30.752  27.648  1.00  0.00     0.029 A 
ATOM     65  N   UNL A   1      46.965  29.169  27.541  1.00  0.00    -0.354 N 
ATOM     66  N   UNL A   1      45.971  26.444  27.124  1.00  0.00    -0.248 NA
ATOM     67  C   UNL A   1      46.332  24.224  26.493  1.00  0.00     0.031 C 
ATOM     68  C   UNL A   1      49.130  29.562  27.232  1.00  0.00     0.029 A 
ATOM     69  C   UNL A   1      48.163  28.571  27.184  1.00  0.00     0.049 A 
ATOM     70  H   UNL A   1      46.096  28.707  27.590  1.00  0.00     0.167 HD
ATOM     71  C   UNL A   1      47.317  26.269  26.819  1.00  0.00     0.074 A 
ATOM     72  C   UNL A   1      47.486  24.875  26.461  1.00  0.00     0.031 C 
ATOM     73  C   UNL A   1      48.320  27.181  26.834  1.00  0.00     0.037 A 
BRANCH  60  74
ATOM     74  C   UNL A   1      46.518  32.882  28.401  1.00  0.00     0.058 A 
ATOM     75  C   UNL A   1      46.916  33.375  29.655  1.00  0.00     0.135 A 
ATOM     76  C   UNL A   1      46.527  33.774  27.316  1.00  0.00     0.135 A 
ATOM     77  F   UNL A   1      46.917  32.570  30.728  1.00  0.00    -0.206 F 
ATOM     78  C   UNL A   1      47.280  34.707  29.831  1.00  0.00     0.059 A 
ATOM     79  C   UNL A   1      46.911  35.104  27.465  1.00  0.00     0.059 A 
ATOM     80  F   UNL A   1      46.161  33.356  26.095  1.00  0.00    -0.206 F 
ATOM     81  C   UNL A   1      47.270  35.564  28.730  1.00  0.00     0.060 A 
BRANCH  81  82
ATOM     82  S   UNL A   1      47.744  37.290  28.978  1.00  0.00     0.124 S 
ATOM     83  O   UNL A   1      47.505  37.454  30.408  1.00  0.00    -0.237 OA
ATOM     84  O   UNL A   1      49.141  37.296  28.562  1.00  0.00    -0.237 OA
ATOM     85  O   UNL A   1      46.830  38.021  28.102  1.00  0.00    -0.744 OA
ENDBRANCH  81  82
ENDBRANCH  60  74
BRANCH  61  86
ATOM     86  C   UNL A   1      43.525  23.480  26.896  1.00  0.00     0.058 A 
ATOM     87  C   UNL A   1      43.320  23.024  25.586  1.00  0.00     0.135 A 
ATOM     88  C   UNL A   1      43.312  22.573  27.946  1.00  0.00     0.135 A 
ATOM     89  F   UNL A   1      43.501  23.857  24.550  1.00  0.00    -0.206 F 
ATOM     90  C   UNL A   1      42.909  21.720  25.324  1.00  0.00     0.059 A 
ATOM     91  C   UNL A   1      42.924  21.258  27.709  1.00  0.00     0.059 A 
ATOM     92  F   UNL A   1      43.510  22.956  29.217  1.00  0.00    -0.206 F 
ATOM     93  C   UNL A   1      42.718  20.844  26.393  1.00  0.00     0.060 A 
BRANCH  93  94
ATOM     94  S   UNL A   1      42.250  19.135  26.041  1.00  0.00     0.124 S 
ATOM     95  O   UNL A   1      43.031  18.857  24.842  1.00  0.00    -0.237 OA
ATOM     96  O   UNL A   1      42.675  18.444  27.256  1.00  0.00    -0.237 OA
ATOM     97  O   UNL A   1      40.805  19.216  25.852  1.00  0.00    -0.744 OA
ENDBRANCH  93  94
ENDBRANCH  61  86
BRANCH  73  98
ATOM     98  C   UNL A   1      49.700  26.697  26.482  1.00  0.00     0.058 A 
ATOM     99  C   UNL A   1      50.502  26.018  27.413  1.00  0.00     0.135 A 
ATOM    100  C   UNL A   1      50.206  26.872  25.184  1.00  0.00     0.135 A 
ATOM    101  F   UNL A   1      50.068  25.830  28.669  1.00  0.00    -0.206 F 
ATOM    102  C   UNL A   1      51.767  25.547  27.073  1.00  0.00     0.059 A 
ATOM    103  C   UNL A   1      51.458  26.389  24.817  1.00  0.00     0.059 A 
ATOM    104  F   UNL A   1      49.476  27.507  24.254  1.00  0.00    -0.206 F 
ATOM    105  C   UNL A   1      52.236  25.737  25.772  1.00  0.00     0.060 A 
BRANCH 105 106
ATOM    106  S   UNL A   1      53.866  25.094  25.335  1.00  0.00     0.124 S 
ATOM    107  O   UNL A   1      54.702  25.681  26.376  1.00  0.00    -0.237 OA
ATOM    108  O   UNL A   1      53.667  23.651  25.419  1.00  0.00    -0.237 OA
ATOM    109  O   UNL A   1      54.084  25.612  23.987  1.00  0.00    -0.744 OA
ENDBRANCH 105 106
ENDBRANCH  73  98
ENDBRANCH  47  48
ENDBRANCH  39  42
ENDBRANCH  37  38
ENDBRANCH  36  37
ENDBRANCH   1  36
TORSDOF 19
ENDMDL
MODEL 2
REMARK VINA RESULT:     -12.0      4.701      6.020
REMARK SMILES NC(=O)[C@@H]1CCC[N@@H+]1[C@@H](C(=O)NCCCNC(=O)c1ccc(-c2c3nc(c(-c4c(F)cc(S(=O)(=O)[O-])cc4F)c4ccc([nH]4)c(-c4c(F)cc(S(=O)(=O)[O-])cc4F)c4nc(c(-c5c(F)cc(S(=O)(=O)[O-])cc5F)c5ccc2[nH]5)C=C4)C=C3)cc1)c1c[nH]c2cc(OCc3ccccc3)ccc12
REMARK SMILES IDX 13 1 12 2 10 3 11 4 9 6 8 7 4 8 5 9 6 10 7 11 2 13 1 14 3 17
REMARK SMILES IDX 85 18 86 19 101 20 87 21 88 22 100 23 89 25 99 26 90 27
REMARK SMILES IDX 91 28 92 29 93 30 94 31 98 32 95 33 97 34 96 35 14 36 15 37
REMARK SMILES IDX 16 38 17 39 18 41 19 42 20 43 84 44 21 45 83 46 22 47 23 48
REMARK SMILES IDX 24 49 77 50 25 51 82 52 76 53 78 54 26 55 81 56 75 57 74 58
REMARK SMILES IDX 27 60 61 61 40 62 60 63 41 64 44 65 59 66 79 67 42 68 43 69
REMARK SMILES IDX 58 71 80 72 45 73 28 74 29 75 38 76 30 77 31 78 37 79 39 80
REMARK SMILES IDX 32 81 33 82 34 83 35 84 36 85 62 86 63 87 72 88 64 89 65 90
REMARK SMILES IDX 71 91 73 92 66 93 67 94 68 95 69 96 70 97 46 98 47 99 56 100
REMARK SMILES IDX 48 101 49 102 55 103 57 104 50 105 51 106 52 107 53 108
REMARK SMILES IDX 54 109
REMARK H PARENT 12 5 8 12 1 15 1 16 87 24 16 40 78 59 44 70
REMARK Flexibility Score: inf
ROOT
ATOM      1  C   UNL A   1      31.940  27.977  26.536  1.00  0.00     0.118 C 
ENDROOT
BRANCH   1   2
ATOM      2  N   UNL A   1      30.985  26.912  26.788  1.00  0.00    -0.351 N 
ATOM      3  C   UNL A   1      30.590  25.756  26.183  1.00  0.00     0.283 C 
ATOM      4  O   UNL A   1      29.612  25.265  26.759  1.00  0.00    -0.268 OA
ATOM      5  H   UNL A   1      30.489  27.067  27.624  1.00  0.00     0.163 HD
BRANCH   3   6
ATOM      6  C   UNL A   1      31.259  25.125  24.924  1.00  0.00     0.308 C 
BRANCH   6   7
ATOM      7  N   UNL A   1      30.617  25.506  23.609  1.00  0.00    -0.311 N 
ATOM      8  C   UNL A   1      31.326  26.313  22.609  1.00  0.00     0.275 C 
ATOM      9  C   UNL A   1      31.008  27.753  22.995  1.00  0.00     0.081 C 
ATOM     10  C   UNL A   1      29.626  27.689  23.620  1.00  0.00     0.068 C 
ATOM     11  C   UNL A   1      29.324  26.209  23.710  1.00  0.00     0.264 C 
ATOM     12  H   UNL A   1      30.578  24.538  23.289  1.00  0.00     0.349 HD
BRANCH   8  13
ATOM     13  C   UNL A   1      32.759  25.907  22.268  1.00  0.00     0.275 C 
ATOM     14  N   UNL A   1      33.728  26.577  22.966  1.00  0.00    -0.365 N 
ATOM     15  H   UNL A   1      34.679  26.375  22.806  1.00  0.00     0.159 HD
ATOM     16  H   UNL A   1      33.474  27.261  23.627  1.00  0.00     0.159 HD
ATOM     17  O   UNL A   1      33.095  25.116  21.391  1.00  0.00    -0.268 OA
ENDBRANCH   8  13
ENDBRANCH   6   7
BRANCH   6  18
ATOM     18  C   UNL A   1      31.242  23.549  24.875  1.00  0.00     0.044 A 
ATOM     19  C   UNL A   1      30.375  22.796  25.671  1.00  0.00     0.094 A 
ATOM     20  C   UNL A   1      32.315  22.628  24.560  1.00  0.00     0.009 A 
ATOM     21  N   UNL A   1      31.181  21.880  26.313  1.00  0.00    -0.361 N 
ATOM     22  C   UNL A   1      32.422  21.867  25.726  1.00  0.00     0.050 A 
ATOM     23  C   UNL A   1      33.396  22.572  23.652  1.00  0.00     0.015 A 
ATOM     24  H   UNL A   1      30.908  21.320  27.075  1.00  0.00     0.166 HD
ATOM     25  C   UNL A   1      33.653  21.386  26.181  1.00  0.00     0.073 A 
ATOM     26  C   UNL A   1      34.613  21.987  24.039  1.00  0.00     0.047 A 
ATOM     27  C   UNL A   1      34.760  21.491  25.328  1.00  0.00     0.121 A 
BRANCH  27  28
ATOM     28  O   UNL A   1      35.974  21.231  25.907  1.00  0.00    -0.489 OA
BRANCH  28  29
ATOM     29  C   UNL A   1      37.136  21.517  25.124  1.00  0.00     0.265 C 
BRANCH  29  30
ATOM     30  C   UNL A   1      38.125  22.390  25.870  1.00  0.00    -0.011 A 
ATOM     31  C   UNL A   1      37.813  23.731  26.124  1.00  0.00     0.007 A 
ATOM     32  C   UNL A   1      39.370  21.910  26.302  1.00  0.00     0.007 A 
ATOM     33  C   UNL A   1      38.731  24.563  26.770  1.00  0.00     0.000 A 
ATOM     34  C   UNL A   1      40.292  22.738  26.934  1.00  0.00     0.000 A 
ATOM     35  C   UNL A   1      39.973  24.068  27.167  1.00  0.00     0.000 A 
ENDBRANCH  29  30
ENDBRANCH  28  29
ENDBRANCH  27  28
ENDBRANCH   6  18
ENDBRANCH   3   6
ENDBRANCH   1   2
BRANCH   1  36
ATOM     36  C   UNL A   1      33.412  27.511  26.494  1.00  0.00     0.042 C 
BRANCH  36  37
ATOM     37  C   UNL A   1      34.460  28.568  26.107  1.00  0.00     0.118 C 
BRANCH  37  38
ATOM     38  N   UNL A   1      33.991  29.903  26.421  1.00  0.00    -0.352 N 
ATOM     39  C   UNL A   1      34.353  30.743  27.445  1.00  0.00     0.251 C 
ATOM     40  H   UNL A   1      33.312  30.263  25.806  1.00  0.00     0.163 HD
ATOM     41  O   UNL A   1      33.624  31.699  27.704  1.00  0.00    -0.269 OA
BRANCH  39  42
ATOM     42  C   UNL A   1      35.594  30.534  28.237  1.00  0.00     0.039 A 
ATOM     43  C   UNL A   1      36.747  31.234  27.860  1.00  0.00     0.014 A 
ATOM     44  C   UNL A   1      35.678  29.570  29.247  1.00  0.00     0.014 A 
ATOM     45  C   UNL A   1      37.973  30.970  28.483  1.00  0.00     0.010 A 
ATOM     46  C   UNL A   1      36.898  29.333  29.895  1.00  0.00     0.010 A 
ATOM     47  C   UNL A   1      38.063  30.013  29.504  1.00  0.00    -0.014 A 
BRANCH  47  48
ATOM     48  C   UNL A   1      39.374  29.696  30.138  1.00  0.00     0.031 A 
ATOM     49  C   UNL A   1      39.800  30.398  31.402  1.00  0.00     0.074 A 
ATOM     50  C   UNL A   1      40.196  28.793  29.568  1.00  0.00     0.049 A 
ATOM     51  N   UNL A   1      40.918  30.285  32.077  1.00  0.00    -0.248 NA
ATOM     52  C   UNL A   1      38.853  31.367  31.975  1.00  0.00     0.031 C 
ATOM     53  C   UNL A   1      39.917  28.060  28.333  1.00  0.00     0.029 A 
ATOM     54  N   UNL A   1      41.439  28.346  29.946  1.00  0.00    -0.354 N 
ATOM     55  C   UNL A   1      40.816  31.176  33.140  1.00  0.00     0.074 A 
ATOM     56  C   UNL A   1      39.542  31.849  33.000  1.00  0.00     0.031 C 
ATOM     57  C   UNL A   1      40.953  27.251  28.057  1.00  0.00     0.029 A 
ATOM     58  C   UNL A   1      41.983  27.425  29.079  1.00  0.00     0.049 A 
ATOM     59  H   UNL A   1      41.898  28.654  30.760  1.00  0.00     0.167 HD
ATOM     60  C   UNL A   1      41.694  31.403  34.148  1.00  0.00     0.037 A 
ATOM     61  C   UNL A   1      43.176  26.799  29.099  1.00  0.00     0.037 A 
ATOM     62  C   UNL A   1      42.950  30.713  34.301  1.00  0.00     0.049 A 
ATOM     63  C   UNL A   1      44.133  27.063  30.229  1.00  0.00     0.074 A 
ATOM     64  C   UNL A   1      43.880  30.833  35.321  1.00  0.00     0.029 A 
ATOM     65  N   UNL A   1      43.454  29.776  33.412  1.00  0.00    -0.354 N 
ATOM     66  N   UNL A   1      43.994  27.869  31.254  1.00  0.00    -0.248 NA
ATOM     67  C   UNL A   1      45.405  26.326  30.213  1.00  0.00     0.031 C 
ATOM     68  C   UNL A   1      44.963  29.996  35.029  1.00  0.00     0.029 A 
ATOM     69  C   UNL A   1      44.689  29.323  33.850  1.00  0.00     0.049 A 
ATOM     70  H   UNL A   1      43.001  29.476  32.591  1.00  0.00     0.167 HD
ATOM     71  C   UNL A   1      45.149  27.720  32.015  1.00  0.00     0.074 A 
ATOM     72  C   UNL A   1      45.971  26.737  31.338  1.00  0.00     0.031 C 
ATOM     73  C   UNL A   1      45.496  28.340  33.169  1.00  0.00     0.037 A 
BRANCH  60  74
ATOM     74  C   UNL A   1      41.329  32.444  35.172  1.00  0.00     0.058 A 
ATOM     75  C   UNL A   1      41.843  33.749  35.112  1.00  0.00     0.135 A 
ATOM     76  C   UNL A   1      40.421  32.146  36.202  1.00  0.00     0.135 A 
ATOM     77  F   UNL A   1      42.722  34.086  34.156  1.00  0.00    -0.206 F 
ATOM     78  C   UNL A   1      41.495  34.712  36.055  1.00  0.00     0.059 A 
ATOM     79  C   UNL A   1      40.039  33.102  37.140  1.00  0.00     0.059 A 
ATOM     80  F   UNL A   1      39.894  30.916  36.304  1.00  0.00    -0.206 F 
ATOM     81  C   UNL A   1      40.595  34.378  37.067  1.00  0.00     0.060 A 
BRANCH  81  82
ATOM     82  S   UNL A   1      40.155  35.640  38.282  1.00  0.00     0.124 S 
ATOM     83  O   UNL A   1      41.423  35.826  38.979  1.00  0.00    -0.237 OA
ATOM     84  O   UNL A   1      39.724  36.750  37.441  1.00  0.00    -0.237 OA
ATOM     85  O   UNL A   1      39.097  35.003  39.064  1.00  0.00    -0.744 OA
ENDBRANCH  81  82
ENDBRANCH  60  74
BRANCH  61  86
ATOM     86  C   UNL A   1      43.526  25.845  28.013  1.00  0.00     0.058 A 
ATOM     87  C   UNL A   1      43.999  26.302  26.775  1.00  0.00     0.135 A 
ATOM     88  C   UNL A   1      43.413  24.459  28.200  1.00  0.00     0.135 A 
ATOM     89  F   UNL A   1      44.116  27.618  26.546  1.00  0.00    -0.206 F 
ATOM     90  C   UNL A   1      44.339  25.419  25.754  1.00  0.00     0.059 A 
ATOM     91  C   UNL A   1      43.769  23.555  27.203  1.00  0.00     0.059 A 
ATOM     92  F   UNL A   1      42.980  23.970  29.373  1.00  0.00    -0.206 F 
ATOM     93  C   UNL A   1      44.224  24.047  25.980  1.00  0.00     0.060 A 
BRANCH  93  94
ATOM     94  S   UNL A   1      44.731  22.906  24.674  1.00  0.00     0.124 S 
ATOM     95  O   UNL A   1      45.187  21.758  25.448  1.00  0.00    -0.237 OA
ATOM     96  O   UNL A   1      43.489  22.723  23.928  1.00  0.00    -0.237 OA
ATOM     97  O   UNL A   1      45.771  23.648  23.968  1.00  0.00    -0.744 OA
ENDBRANCH  93  94
ENDBRANCH  61  86
BRANCH  73  98
ATOM     98  C   UNL A   1      46.808  27.956  33.794  1.00  0.00     0.058 A 
ATOM     99  C   UNL A   1      47.998  28.631  33.482  1.00  0.00     0.135 A 
ATOM    100  C   UNL A   1      46.867  26.933  34.755  1.00  0.00     0.135 A 
ATOM    101  F   UNL A   1      47.998  29.613  32.566  1.00  0.00    -0.206 F 
ATOM    102  C   UNL A   1      49.206  28.291  34.085  1.00  0.00     0.059 A 
ATOM    103  C   UNL A   1      48.059  26.592  35.387  1.00  0.00     0.059 A 
ATOM    104  F   UNL A   1      45.756  26.262  35.097  1.00  0.00    -0.206 F 
ATOM    105  C   UNL A   1      49.226  27.270  35.037  1.00  0.00     0.060 A 
BRANCH 105 106
ATOM    106  S   UNL A   1      50.792  26.859  35.835  1.00  0.00     0.124 S 
ATOM    107  O   UNL A   1      51.744  27.605  35.018  1.00  0.00    -0.237 OA
ATOM    108  O   UNL A   1      50.594  27.359  37.192  1.00  0.00    -0.237 OA
ATOM    109  O   UNL A   1      50.863  25.406  35.714  1.00  0.00    -0.744 OA
ENDBRANCH 105 106
ENDBRANCH  73  98
ENDBRANCH  47  48
ENDBRANCH  39  42
ENDBRANCH  37  38
ENDBRANCH  36  37
ENDBRANCH   1  36
TORSDOF 19
ENDMDL
MODEL 3
REMARK VINA RESULT:     -11.8      2.839      3.925
REMARK SMILES NC(=O)[C@@H]1CCC[N@@H+]1[C@@H](C(=O)NCCCNC(=O)c1ccc(-c2c3nc(c(-c4c(F)cc(S(=O)(=O)[O-])cc4F)c4ccc([nH]4)c(-c4c(F)cc(S(=O)(=O)[O-])cc4F)c4nc(c(-c5c(F)cc(S(=O)(=O)[O-])cc5F)c5ccc2[nH]5)C=C4)C=C3)cc1)c1c[nH]c2cc(OCc3ccccc3)ccc12
REMARK SMILES IDX 13 1 12 2 10 3 11 4 9 6 8 7 4 8 5 9 6 10 7 11 2 13 1 14 3 17
REMARK SMILES IDX 85 18 86 19 101 20 87 21 88 22 100 23 89 25 99 26 90 27
REMARK SMILES IDX 91 28 92 29 93 30 94 31 98 32 95 33 97 34 96 35 14 36 15 37
REMARK SMILES IDX 16 38 17 39 18 41 19 42 20 43 84 44 21 45 83 46 22 47 23 48
REMARK SMILES IDX 24 49 77 50 25 51 82 52 76 53 78 54 26 55 81 56 75 57 74 58
REMARK SMILES IDX 27 60 61 61 40 62 60 63 41 64 44 65 59 66 79 67 42 68 43 69
REMARK SMILES IDX 58 71 80 72 45 73 28 74 29 75 38 76 30 77 31 78 37 79 39 80
REMARK SMILES IDX 32 81 33 82 34 83 35 84 36 85 62 86 63 87 72 88 64 89 65 90
REMARK SMILES IDX 71 91 73 92 66 93 67 94 68 95 69 96 70 97 46 98 47 99 56 100
REMARK SMILES IDX 48 101 49 102 55 103 57 104 50 105 51 106 52 107 53 108
REMARK SMILES IDX 54 109
REMARK H PARENT 12 5 8 12 1 15 1 16 87 24 16 40 78 59 44 70
REMARK Flexibility Score: inf
ROOT
ATOM      1  C   UNL A   1      31.836  29.760  25.254  1.00  0.00     0.118 C 
ENDROOT
BRANCH   1   2
ATOM      2  N   UNL A   1      30.830  29.102  24.439  1.00  0.00    -0.351 N 
ATOM      3  C   UNL A   1      30.575  27.843  23.984  1.00  0.00     0.283 C 
ATOM      4  O   UNL A   1      29.630  27.842  23.187  1.00  0.00    -0.268 OA
ATOM      5  H   UNL A   1      30.145  29.740  24.132  1.00  0.00     0.163 HD
BRANCH   3   6
ATOM      6  C   UNL A   1      31.365  26.562  24.391  1.00  0.00     0.308 C 
BRANCH   6   7
ATOM      7  N   UNL A   1      32.251  25.994  23.305  1.00  0.00    -0.311 N 
ATOM      8  C   UNL A   1      33.696  25.824  23.498  1.00  0.00     0.275 C 
ATOM      9  C   UNL A   1      34.293  27.157  23.063  1.00  0.00     0.081 C 
ATOM     10  C   UNL A   1      33.351  27.669  21.988  1.00  0.00     0.068 C 
ATOM     11  C   UNL A   1      32.195  26.691  22.007  1.00  0.00     0.264 C 
ATOM     12  H   UNL A   1      31.801  25.080  23.344  1.00  0.00     0.349 HD
BRANCH   8  13
ATOM     13  C   UNL A   1      34.157  25.163  24.797  1.00  0.00     0.275 C 
ATOM     14  N   UNL A   1      34.723  23.926  24.643  1.00  0.00    -0.365 N 
ATOM     15  H   UNL A   1      35.047  23.431  25.430  1.00  0.00     0.159 HD
ATOM     16  H   UNL A   1      34.806  23.531  23.745  1.00  0.00     0.159 HD
ATOM     17  O   UNL A   1      33.988  25.604  25.930  1.00  0.00    -0.268 OA
ENDBRANCH   8  13
ENDBRANCH   6   7
BRANCH   6  18
ATOM     18  C   UNL A   1      30.474  25.325  24.794  1.00  0.00     0.044 A 
ATOM     19  C   UNL A   1      29.692  25.325  25.951  1.00  0.00     0.094 A 
ATOM     20  C   UNL A   1      30.671  23.918  24.506  1.00  0.00     0.009 A 
ATOM     21  N   UNL A   1      30.033  24.166  26.615  1.00  0.00    -0.361 N 
ATOM     22  C   UNL A   1      30.755  23.351  25.779  1.00  0.00     0.050 A 
ATOM     23  C   UNL A   1      31.133  23.140  23.421  1.00  0.00     0.015 A 
ATOM     24  H   UNL A   1      29.794  23.954  27.547  1.00  0.00     0.166 HD
ATOM     25  C   UNL A   1      31.587  22.261  26.046  1.00  0.00     0.073 A 
ATOM     26  C   UNL A   1      31.874  21.970  23.658  1.00  0.00     0.047 A 
ATOM     27  C   UNL A   1      32.177  21.598  24.961  1.00  0.00     0.121 A 
BRANCH  27  28
ATOM     28  O   UNL A   1      33.162  20.703  25.285  1.00  0.00    -0.489 OA
BRANCH  28  29
ATOM     29  C   UNL A   1      33.621  19.843  24.239  1.00  0.00     0.265 C 
BRANCH  29  30
ATOM     30  C   UNL A   1      33.636  18.387  24.663  1.00  0.00    -0.011 A 
ATOM     31  C   UNL A   1      34.781  17.612  24.441  1.00  0.00     0.007 A 
ATOM     32  C   UNL A   1      32.525  17.768  25.253  1.00  0.00     0.007 A 
ATOM     33  C   UNL A   1      34.797  16.258  24.784  1.00  0.00     0.000 A 
ATOM     34  C   UNL A   1      32.533  16.417  25.585  1.00  0.00     0.000 A 
ATOM     35  C   UNL A   1      33.671  15.659  25.347  1.00  0.00     0.000 A 
ENDBRANCH  29  30
ENDBRANCH  28  29
ENDBRANCH  27  28
ENDBRANCH   6  18
ENDBRANCH   3   6
ENDBRANCH   1   2
BRANCH   1  36
ATOM     36  C   UNL A   1      33.066  28.882  25.573  1.00  0.00     0.042 C 
BRANCH  36  37
ATOM     37  C   UNL A   1      33.534  28.855  27.037  1.00  0.00     0.118 C 
BRANCH  37  38
ATOM     38  N   UNL A   1      33.552  30.190  27.601  1.00  0.00    -0.352 N 
ATOM     39  C   UNL A   1      34.496  30.796  28.393  1.00  0.00     0.251 C 
ATOM     40  H   UNL A   1      32.770  30.747  27.383  1.00  0.00     0.163 HD
ATOM     41  O   UNL A   1      34.180  31.815  29.006  1.00  0.00    -0.269 OA
BRANCH  39  42
ATOM     42  C   UNL A   1      35.879  30.266  28.521  1.00  0.00     0.039 A 
ATOM     43  C   UNL A   1      36.302  29.813  29.777  1.00  0.00     0.014 A 
ATOM     44  C   UNL A   1      36.802  30.333  27.472  1.00  0.00     0.014 A 
ATOM     45  C   UNL A   1      37.634  29.434  29.985  1.00  0.00     0.010 A 
ATOM     46  C   UNL A   1      38.126  29.919  27.671  1.00  0.00     0.010 A 
ATOM     47  C   UNL A   1      38.562  29.488  28.934  1.00  0.00    -0.014 A 
BRANCH  47  48
ATOM     48  C   UNL A   1      39.991  29.131  29.161  1.00  0.00     0.031 A 
ATOM     49  C   UNL A   1      40.950  30.147  29.729  1.00  0.00     0.074 A 
ATOM     50  C   UNL A   1      40.438  27.902  28.836  1.00  0.00     0.049 A 
ATOM     51  N   UNL A   1      42.235  30.035  29.959  1.00  0.00    -0.248 NA
ATOM     52  C   UNL A   1      40.395  31.466  30.066  1.00  0.00     0.031 C 
ATOM     53  C   UNL A   1      39.623  26.834  28.257  1.00  0.00     0.029 A 
ATOM     54  N   UNL A   1      41.690  27.346  28.936  1.00  0.00    -0.354 N 
ATOM     55  C   UNL A   1      42.645  31.270  30.451  1.00  0.00     0.074 A 
ATOM     56  C   UNL A   1      41.478  32.127  30.453  1.00  0.00     0.031 C 
ATOM     57  C   UNL A   1      40.392  25.751  28.059  1.00  0.00     0.029 A 
ATOM     58  C   UNL A   1      41.761  26.054  28.469  1.00  0.00     0.049 A 
ATOM     59  H   UNL A   1      42.466  27.828  29.306  1.00  0.00     0.167 HD
ATOM     60  C   UNL A   1      43.874  31.651  30.878  1.00  0.00     0.037 A 
ATOM     61  C   UNL A   1      42.808  25.210  28.375  1.00  0.00     0.037 A 
ATOM     62  C   UNL A   1      45.029  30.789  30.902  1.00  0.00     0.049 A 
ATOM     63  C   UNL A   1      44.162  25.653  28.858  1.00  0.00     0.074 A 
ATOM     64  C   UNL A   1      46.302  31.067  31.370  1.00  0.00     0.029 A 
ATOM     65  N   UNL A   1      45.053  29.483  30.438  1.00  0.00    -0.354 N 
ATOM     66  N   UNL A   1      44.517  26.807  29.372  1.00  0.00    -0.248 NA
ATOM     67  C   UNL A   1      45.258  24.677  28.760  1.00  0.00     0.031 C 
ATOM     68  C   UNL A   1      47.105  29.942  31.155  1.00  0.00     0.029 A 
ATOM     69  C   UNL A   1      46.322  28.947  30.592  1.00  0.00     0.049 A 
ATOM     70  H   UNL A   1      44.281  29.005  30.056  1.00  0.00     0.167 HD
ATOM     71  C   UNL A   1      45.868  26.688  29.677  1.00  0.00     0.074 A 
ATOM     72  C   UNL A   1      46.265  25.346  29.302  1.00  0.00     0.031 C 
ATOM     73  C   UNL A   1      46.704  27.608  30.219  1.00  0.00     0.037 A 
BRANCH  60  74
ATOM     74  C   UNL A   1      44.039  33.068  31.358  1.00  0.00     0.058 A 
ATOM     75  C   UNL A   1      43.854  33.417  32.706  1.00  0.00     0.135 A 
ATOM     76  C   UNL A   1      44.429  34.084  30.468  1.00  0.00     0.135 A 
ATOM     77  F   UNL A   1      43.473  32.489  33.597  1.00  0.00    -0.206 F 
ATOM     78  C   UNL A   1      44.018  34.726  33.148  1.00  0.00     0.059 A 
ATOM     79  C   UNL A   1      44.623  35.395  30.895  1.00  0.00     0.059 A 
ATOM     80  F   UNL A   1      44.625  33.806  29.170  1.00  0.00    -0.206 F 
ATOM     81  C   UNL A   1      44.400  35.709  32.234  1.00  0.00     0.060 A 
BRANCH  81  82
ATOM     82  S   UNL A   1      44.607  37.403  32.825  1.00  0.00     0.124 S 
ATOM     83  O   UNL A   1      46.061  37.507  32.902  1.00  0.00    -0.237 OA
ATOM     84  O   UNL A   1      43.969  38.184  31.774  1.00  0.00    -0.237 OA
ATOM     85  O   UNL A   1      43.911  37.401  34.111  1.00  0.00    -0.744 OA
ENDBRANCH  81  82
ENDBRANCH  60  74
BRANCH  61  86
ATOM     86  C   UNL A   1      42.610  23.849  27.810  1.00  0.00     0.058 A 
ATOM     87  C   UNL A   1      42.607  23.636  26.424  1.00  0.00     0.135 A 
ATOM     88  C   UNL A   1      42.440  22.734  28.645  1.00  0.00     0.135 A 
ATOM     89  F   UNL A   1      42.757  24.672  25.587  1.00  0.00    -0.206 F 
ATOM     90  C   UNL A   1      42.432  22.366  25.883  1.00  0.00     0.059 A 
ATOM     91  C   UNL A   1      42.287  21.450  28.128  1.00  0.00     0.059 A 
ATOM     92  F   UNL A   1      42.451  22.882  29.978  1.00  0.00    -0.206 F 
ATOM     93  C   UNL A   1      42.277  21.279  26.744  1.00  0.00     0.060 A 
BRANCH  93  94
ATOM     94  S   UNL A   1      42.117  19.625  26.035  1.00  0.00     0.124 S 
ATOM     95  O   UNL A   1      43.027  19.703  24.899  1.00  0.00    -0.237 OA
ATOM     96  O   UNL A   1      42.546  18.774  27.142  1.00  0.00    -0.237 OA
ATOM     97  O   UNL A   1      40.698  19.538  25.705  1.00  0.00    -0.744 OA
ENDBRANCH  93  94
ENDBRANCH  61  86
BRANCH  73  98
ATOM     98  C   UNL A   1      48.126  27.189  30.469  1.00  0.00     0.058 A 
ATOM     99  C   UNL A   1      49.147  27.462  29.546  1.00  0.00     0.135 A 
ATOM    100  C   UNL A   1      48.480  26.550  31.669  1.00  0.00     0.135 A 
ATOM    101  F   UNL A   1      48.862  28.065  28.381  1.00  0.00    -0.206 F 
ATOM    102  C   UNL A   1      50.468  27.098  29.795  1.00  0.00     0.059 A 
ATOM    103  C   UNL A   1      49.797  26.198  31.948  1.00  0.00     0.059 A 
ATOM    104  F   UNL A   1      47.543  26.274  32.589  1.00  0.00    -0.206 F 
ATOM    105  C   UNL A   1      50.783  26.467  30.999  1.00  0.00     0.060 A 
BRANCH 105 106
ATOM    106  S   UNL A   1      52.504  26.028  31.325  1.00  0.00     0.124 S 
ATOM    107  O   UNL A   1      52.358  24.735  31.985  1.00  0.00    -0.237 OA
ATOM    108  O   UNL A   1      53.078  25.993  29.983  1.00  0.00    -0.237 OA
ATOM    109  O   UNL A   1      52.977  27.118  32.173  1.00  0.00    -0.744 OA
ENDBRANCH 105 106
ENDBRANCH  73  98
ENDBRANCH  47  48
ENDBRANCH  39  42
ENDBRANCH  37  38
ENDBRANCH  36  37
ENDBRANCH   1  36
TORSDOF 19
ENDMDL
