MODEL 1
REMARK VINA RESULT:     -11.4      0.000      0.000
REMARK SMILES C[NH2+][C@@]1(C(=O)NCCCNC(=O)c2ccc(-c3c4nc(c(-c5c(F)cc(S(=O)(=O)[O-])cc5F)c5ccc([nH]5)c(-c5c(F)cc(S(=O)(=O)[O-])cc5F)c5nc(c(-c6c(F)cc(S(=O)(=O)[O-])cc6F)c6ccc3[nH]6)C=C5)C=C4)cc2)CCC[C@H]1CCSc1nccc(=O)[nH]1
REMARK SMILES IDX 7 1 6 2 4 3 5 4 3 6 79 7 82 8 80 9 81 10 2 11 1 12 83 15
REMARK SMILES IDX 84 16 85 17 86 18 87 19 92 20 88 21 90 22 89 24 91 25 8 26
REMARK SMILES IDX 9 27 10 28 11 29 12 31 13 32 14 33 78 34 15 35 77 36 16 37
REMARK SMILES IDX 17 38 18 39 71 40 19 41 76 42 70 43 72 44 20 45 75 46 69 47
REMARK SMILES IDX 68 48 21 50 55 51 34 52 54 53 35 54 38 55 53 56 73 57 36 58
REMARK SMILES IDX 37 59 52 61 74 62 39 63 22 64 23 65 32 66 24 67 25 68 31 69
REMARK SMILES IDX 33 70 26 71 27 72 28 73 29 74 30 75 56 76 57 77 66 78 58 79
REMARK SMILES IDX 59 80 65 81 67 82 60 83 61 84 62 85 63 86 64 87 40 88 41 89
REMARK SMILES IDX 50 90 42 91 43 92 49 93 51 94 44 95 45 96 46 97 47 98 48 99
REMARK H PARENT 6 5 2 13 2 14 92 23 10 30 72 49 38 60
REMARK Flexibility Score: inf
ROOT
ATOM      1  C   UNL A   1      33.391  28.624  26.050  1.00  0.00     0.118 C 
ENDROOT
BRANCH   1   2
ATOM      2  N   UNL A   1      33.902  27.324  26.408  1.00  0.00    -0.351 N 
ATOM      3  C   UNL A   1      33.732  26.112  25.819  1.00  0.00     0.281 C 
ATOM      4  O   UNL A   1      34.760  25.414  25.857  1.00  0.00    -0.268 OA
ATOM      5  H   UNL A   1      34.469  27.313  27.213  1.00  0.00     0.163 HD
BRANCH   3   6
ATOM      6  C   UNL A   1      32.416  25.585  25.081  1.00  0.00     0.178 C 
ATOM      7  C   UNL A   1      32.808  24.340  24.240  1.00  0.00     0.079 C 
ATOM      8  C   UNL A   1      31.734  26.534  24.030  1.00  0.00     0.061 C 
ATOM      9  C   UNL A   1      33.050  24.781  22.814  1.00  0.00     0.008 C 
ATOM     10  C   UNL A   1      32.275  26.075  22.636  1.00  0.00     0.011 C 
BRANCH   6  11
ATOM     11  N   UNL A   1      31.498  24.992  26.123  1.00  0.00    -0.336 N 
ATOM     12  C   UNL A   1      30.838  23.722  25.837  1.00  0.00     0.331 C 
ATOM     13  H   UNL A   1      32.051  24.859  26.969  1.00  0.00     0.346 HD
ATOM     14  H   UNL A   1      30.731  25.661  26.184  1.00  0.00     0.346 HD
ENDBRANCH   6  11
BRANCH   8  15
ATOM     15  C   UNL A   1      30.189  26.511  23.868  1.00  0.00     0.022 C 
BRANCH  15  16
ATOM     16  C   UNL A   1      29.418  27.695  23.287  1.00  0.00     0.079 C 
BRANCH  16  17
ATOM     17  S   UNL A   1      30.067  29.348  23.660  1.00  0.00    -0.088 SA
BRANCH  17  18
ATOM     18  C   UNL A   1      29.252  30.416  22.569  1.00  0.00     0.168 A 
ATOM     19  N   UNL A   1      28.718  30.061  21.451  1.00  0.00    -0.233 NA
ATOM     20  N   UNL A   1      29.243  31.690  23.039  1.00  0.00    -0.301 N 
ATOM     21  C   UNL A   1      28.092  31.042  20.727  1.00  0.00     0.120 A 
ATOM     22  C   UNL A   1      28.620  32.699  22.376  1.00  0.00     0.251 A 
ATOM     23  H   UNL A   1      29.703  31.889  23.887  1.00  0.00     0.172 HD
ATOM     24  C   UNL A   1      27.991  32.320  21.103  1.00  0.00     0.091 A 
ATOM     25  O   UNL A   1      28.559  33.849  22.794  1.00  0.00    -0.269 OA
ENDBRANCH  17  18
ENDBRANCH  16  17
ENDBRANCH  15  16
ENDBRANCH   8  15
ENDBRANCH   3   6
ENDBRANCH   1   2
BRANCH   1  26
ATOM     26  C   UNL A   1      34.056  29.780  26.771  1.00  0.00     0.042 C 
BRANCH  26  27
ATOM     27  C   UNL A   1      35.120  29.342  27.766  1.00  0.00     0.118 C 
BRANCH  27  28
ATOM     28  N   UNL A   1      35.147  30.178  28.964  1.00  0.00    -0.352 N 
ATOM     29  C   UNL A   1      36.155  30.443  29.858  1.00  0.00     0.251 C 
ATOM     30  H   UNL A   1      34.296  30.628  29.166  1.00  0.00     0.163 HD
ATOM     31  O   UNL A   1      35.878  30.972  30.931  1.00  0.00    -0.269 OA
BRANCH  29  32
ATOM     32  C   UNL A   1      37.558  30.098  29.541  1.00  0.00     0.039 A 
ATOM     33  C   UNL A   1      38.450  29.834  30.585  1.00  0.00     0.014 A 
ATOM     34  C   UNL A   1      38.005  30.071  28.220  1.00  0.00     0.014 A 
ATOM     35  C   UNL A   1      39.770  29.483  30.294  1.00  0.00     0.010 A 
ATOM     36  C   UNL A   1      39.283  29.612  27.929  1.00  0.00     0.010 A 
ATOM     37  C   UNL A   1      40.187  29.331  28.962  1.00  0.00    -0.014 A 
BRANCH  37  38
ATOM     38  C   UNL A   1      41.567  28.908  28.618  1.00  0.00     0.031 A 
ATOM     39  C   UNL A   1      42.672  29.931  28.563  1.00  0.00     0.074 A 
ATOM     40  C   UNL A   1      41.808  27.626  28.281  1.00  0.00     0.049 A 
ATOM     41  N   UNL A   1      43.919  29.782  28.198  1.00  0.00    -0.248 NA
ATOM     42  C   UNL A   1      42.320  31.312  28.935  1.00  0.00     0.031 C 
ATOM     43  C   UNL A   1      40.806  26.558  28.245  1.00  0.00     0.029 A 
ATOM     44  N   UNL A   1      42.967  27.005  27.892  1.00  0.00    -0.354 N 
ATOM     45  C   UNL A   1      44.490  31.047  28.274  1.00  0.00     0.074 A 
ATOM     46  C   UNL A   1      43.440  31.963  28.660  1.00  0.00     0.031 C 
ATOM     47  C   UNL A   1      41.401  25.409  27.885  1.00  0.00     0.029 A 
ATOM     48  C   UNL A   1      42.811  25.666  27.618  1.00  0.00     0.049 A 
ATOM     49  H   UNL A   1      43.831  27.472  27.817  1.00  0.00     0.167 HD
ATOM     50  C   UNL A   1      45.779  31.409  28.068  1.00  0.00     0.037 A 
ATOM     51  C   UNL A   1      43.703  24.752  27.190  1.00  0.00     0.037 A 
ATOM     52  C   UNL A   1      46.821  30.482  27.712  1.00  0.00     0.049 A 
ATOM     53  C   UNL A   1      45.130  25.176  26.967  1.00  0.00     0.074 A 
ATOM     54  C   UNL A   1      48.171  30.730  27.543  1.00  0.00     0.029 A 
ATOM     55  N   UNL A   1      46.628  29.130  27.466  1.00  0.00    -0.354 N 
ATOM     56  N   UNL A   1      45.670  26.364  27.114  1.00  0.00    -0.248 NA
ATOM     57  C   UNL A   1      46.071  24.138  26.528  1.00  0.00     0.031 C 
ATOM     58  C   UNL A   1      48.786  29.539  27.143  1.00  0.00     0.029 A 
ATOM     59  C   UNL A   1      47.831  28.535  27.123  1.00  0.00     0.049 A 
ATOM     60  H   UNL A   1      45.764  28.662  27.527  1.00  0.00     0.167 HD
ATOM     61  C   UNL A   1      47.019  26.208  26.817  1.00  0.00     0.074 A 
ATOM     62  C   UNL A   1      47.214  24.810  26.494  1.00  0.00     0.031 C 
ATOM     63  C   UNL A   1      48.007  27.137  26.815  1.00  0.00     0.037 A 
BRANCH  50  64
ATOM     64  C   UNL A   1      46.132  32.865  28.223  1.00  0.00     0.058 A 
ATOM     65  C   UNL A   1      46.078  33.760  27.142  1.00  0.00     0.135 A 
ATOM     66  C   UNL A   1      46.503  33.379  29.476  1.00  0.00     0.135 A 
ATOM     67  F   UNL A   1      45.745  33.322  25.917  1.00  0.00    -0.206 F 
ATOM     68  C   UNL A   1      46.410  35.103  27.289  1.00  0.00     0.059 A 
ATOM     69  C   UNL A   1      46.808  34.726  29.654  1.00  0.00     0.059 A 
ATOM     70  F   UNL A   1      46.573  32.571  30.545  1.00  0.00    -0.206 F 
ATOM     71  C   UNL A   1      46.774  35.577  28.550  1.00  0.00     0.060 A 
BRANCH  71  72
ATOM     72  S   UNL A   1      47.197  37.323  28.724  1.00  0.00     0.124 S 
ATOM     73  O   UNL A   1      48.637  37.251  28.955  1.00  0.00    -0.237 OA
ATOM     74  O   UNL A   1      46.789  37.871  27.435  1.00  0.00    -0.237 OA
ATOM     75  O   UNL A   1      46.400  37.755  29.868  1.00  0.00    -0.744 OA
ENDBRANCH  71  72
ENDBRANCH  50  64
BRANCH  51  76
ATOM     76  C   UNL A   1      43.279  23.342  26.973  1.00  0.00     0.058 A 
ATOM     77  C   UNL A   1      43.050  22.849  25.679  1.00  0.00     0.135 A 
ATOM     78  C   UNL A   1      43.108  22.456  28.048  1.00  0.00     0.135 A 
ATOM     79  F   UNL A   1      43.195  23.657  24.618  1.00  0.00    -0.206 F 
ATOM     80  C   UNL A   1      42.648  21.535  25.459  1.00  0.00     0.059 A 
ATOM     81  C   UNL A   1      42.735  21.130  27.852  1.00  0.00     0.059 A 
ATOM     82  F   UNL A   1      43.333  22.871  29.304  1.00  0.00    -0.206 F 
ATOM     83  C   UNL A   1      42.497  20.682  26.553  1.00  0.00     0.060 A 
BRANCH  83  84
ATOM     84  S   UNL A   1      42.021  18.965  26.252  1.00  0.00     0.124 S 
ATOM     85  O   UNL A   1      40.660  19.122  25.753  1.00  0.00    -0.237 OA
ATOM     86  O   UNL A   1      43.016  18.540  25.273  1.00  0.00    -0.237 OA
ATOM     87  O   UNL A   1      42.143  18.347  27.568  1.00  0.00    -0.744 OA
ENDBRANCH  83  84
ENDBRANCH  51  76
BRANCH  63  88
ATOM     88  C   UNL A   1      49.400  26.667  26.496  1.00  0.00     0.058 A 
ATOM     89  C   UNL A   1      50.261  26.170  27.487  1.00  0.00     0.135 A 
ATOM     90  C   UNL A   1      49.858  26.664  25.168  1.00  0.00     0.135 A 
ATOM     91  F   UNL A   1      49.877  26.157  28.773  1.00  0.00    -0.206 F 
ATOM     92  C   UNL A   1      51.537  25.710  27.176  1.00  0.00     0.059 A 
ATOM     93  C   UNL A   1      51.117  26.178  24.830  1.00  0.00     0.059 A 
ATOM     94  F   UNL A   1      49.071  27.118  24.180  1.00  0.00    -0.206 F 
ATOM     95  C   UNL A   1      51.954  25.714  25.843  1.00  0.00     0.060 A 
BRANCH  95  96
ATOM     96  S   UNL A   1      53.597  25.081  25.450  1.00  0.00     0.124 S 
ATOM     97  O   UNL A   1      54.342  25.427  26.656  1.00  0.00    -0.237 OA
ATOM     98  O   UNL A   1      53.343  23.659  25.247  1.00  0.00    -0.237 OA
ATOM     99  O   UNL A   1      53.970  25.823  24.249  1.00  0.00    -0.744 OA
ENDBRANCH  95  96
ENDBRANCH  63  88
ENDBRANCH  37  38
ENDBRANCH  29  32
ENDBRANCH  27  28
ENDBRANCH  26  27
ENDBRANCH   1  26
TORSDOF 18
ENDMDL
MODEL 2
REMARK VINA RESULT:     -11.4      6.728     11.967
REMARK SMILES C[NH2+][C@@]1(C(=O)NCCCNC(=O)c2ccc(-c3c4nc(c(-c5c(F)cc(S(=O)(=O)[O-])cc5F)c5ccc([nH]5)c(-c5c(F)cc(S(=O)(=O)[O-])cc5F)c5nc(c(-c6c(F)cc(S(=O)(=O)[O-])cc6F)c6ccc3[nH]6)C=C5)C=C4)cc2)CCC[C@H]1CCSc1nccc(=O)[nH]1
REMARK SMILES IDX 7 1 6 2 4 3 5 4 3 6 79 7 82 8 80 9 81 10 2 11 1 12 83 15
REMARK SMILES IDX 84 16 85 17 86 18 87 19 92 20 88 21 90 22 89 24 91 25 8 26
REMARK SMILES IDX 9 27 10 28 11 29 12 31 13 32 14 33 78 34 15 35 77 36 16 37
REMARK SMILES IDX 17 38 18 39 71 40 19 41 76 42 70 43 72 44 20 45 75 46 69 47
REMARK SMILES IDX 68 48 21 50 55 51 34 52 54 53 35 54 38 55 53 56 73 57 36 58
REMARK SMILES IDX 37 59 52 61 74 62 39 63 22 64 23 65 32 66 24 67 25 68 31 69
REMARK SMILES IDX 33 70 26 71 27 72 28 73 29 74 30 75 56 76 57 77 66 78 58 79
REMARK SMILES IDX 59 80 65 81 67 82 60 83 61 84 62 85 63 86 64 87 40 88 41 89
REMARK SMILES IDX 50 90 42 91 43 92 49 93 51 94 44 95 45 96 46 97 47 98 48 99
REMARK H PARENT 6 5 2 13 2 14 92 23 10 30 72 49 38 60
REMARK Flexibility Score: inf
ROOT
ATOM      1  C   UNL A   1      37.360  22.537  24.665  1.00  0.00     0.118 C 
ENDROOT
BRANCH   1   2
ATOM      2  N   UNL A   1      36.413  21.588  25.197  1.00  0.00    -0.351 N 
ATOM      3  C   UNL A   1      35.079  21.452  24.983  1.00  0.00     0.281 C 
ATOM      4  O   UNL A   1      34.721  20.263  24.942  1.00  0.00    -0.268 OA
ATOM      5  H   UNL A   1      36.798  20.929  25.819  1.00  0.00     0.163 HD
BRANCH   3   6
ATOM      6  C   UNL A   1      34.026  22.629  24.736  1.00  0.00     0.178 C 
ATOM      7  C   UNL A   1      32.641  21.981  24.469  1.00  0.00     0.079 C 
ATOM      8  C   UNL A   1      34.241  23.556  23.484  1.00  0.00     0.061 C 
ATOM      9  C   UNL A   1      32.428  21.903  22.974  1.00  0.00     0.008 C 
ATOM     10  C   UNL A   1      33.319  22.971  22.365  1.00  0.00     0.011 C 
BRANCH   6  11
ATOM     11  N   UNL A   1      33.800  23.341  26.048  1.00  0.00    -0.336 N 
ATOM     12  C   UNL A   1      32.439  23.445  26.566  1.00  0.00     0.331 C 
ATOM     13  H   UNL A   1      34.352  22.852  26.753  1.00  0.00     0.346 HD
ATOM     14  H   UNL A   1      34.066  24.306  25.854  1.00  0.00     0.346 HD
ENDBRANCH   6  11
BRANCH   8  15
ATOM     15  C   UNL A   1      33.842  25.055  23.566  1.00  0.00     0.022 C 
BRANCH  15  16
ATOM     16  C   UNL A   1      33.459  25.859  22.324  1.00  0.00     0.079 C 
BRANCH  16  17
ATOM     17  S   UNL A   1      31.951  26.861  22.439  1.00  0.00    -0.088 SA
BRANCH  17  18
ATOM     18  C   UNL A   1      31.828  27.314  24.104  1.00  0.00     0.168 A 
ATOM     19  N   UNL A   1      31.164  26.665  24.998  1.00  0.00    -0.233 NA
ATOM     20  N   UNL A   1      32.524  28.452  24.360  1.00  0.00    -0.301 N 
ATOM     21  C   UNL A   1      31.200  27.161  26.276  1.00  0.00     0.120 A 
ATOM     22  C   UNL A   1      32.613  28.978  25.609  1.00  0.00     0.251 A 
ATOM     23  H   UNL A   1      32.979  28.910  23.616  1.00  0.00     0.172 HD
ATOM     24  C   UNL A   1      31.876  28.250  26.651  1.00  0.00     0.091 A 
ATOM     25  O   UNL A   1      33.267  29.979  25.879  1.00  0.00    -0.269 OA
ENDBRANCH  17  18
ENDBRANCH  16  17
ENDBRANCH  15  16
ENDBRANCH   8  15
ENDBRANCH   3   6
ENDBRANCH   1   2
BRANCH   1  26
ATOM     26  C   UNL A   1      37.406  23.860  25.405  1.00  0.00     0.042 C 
BRANCH  26  27
ATOM     27  C   UNL A   1      38.348  23.853  26.600  1.00  0.00     0.118 C 
BRANCH  27  28
ATOM     28  N   UNL A   1      39.754  23.843  26.207  1.00  0.00    -0.352 N 
ATOM     29  C   UNL A   1      40.772  24.727  26.471  1.00  0.00     0.251 C 
ATOM     30  H   UNL A   1      40.018  23.071  25.658  1.00  0.00     0.163 HD
ATOM     31  O   UNL A   1      41.814  24.648  25.825  1.00  0.00    -0.269 OA
BRANCH  29  32
ATOM     32  C   UNL A   1      40.623  25.763  27.515  1.00  0.00     0.039 A 
ATOM     33  C   UNL A   1      39.681  25.580  28.532  1.00  0.00     0.014 A 
ATOM     34  C   UNL A   1      41.382  26.932  27.472  1.00  0.00     0.014 A 
ATOM     35  C   UNL A   1      39.551  26.542  29.537  1.00  0.00     0.010 A 
ATOM     36  C   UNL A   1      41.333  27.831  28.531  1.00  0.00     0.010 A 
ATOM     37  C   UNL A   1      40.405  27.657  29.565  1.00  0.00    -0.014 A 
BRANCH  37  38
ATOM     38  C   UNL A   1      40.329  28.672  30.646  1.00  0.00     0.031 A 
ATOM     39  C   UNL A   1      41.212  28.540  31.860  1.00  0.00     0.074 A 
ATOM     40  C   UNL A   1      39.418  29.660  30.570  1.00  0.00     0.049 A 
ATOM     41  N   UNL A   1      41.235  29.265  32.948  1.00  0.00    -0.248 NA
ATOM     42  C   UNL A   1      42.173  27.424  31.867  1.00  0.00     0.031 C 
ATOM     43  C   UNL A   1      38.472  29.857  29.468  1.00  0.00     0.029 A 
ATOM     44  N   UNL A   1      39.126  30.678  31.441  1.00  0.00    -0.354 N 
ATOM     45  C   UNL A   1      42.190  28.682  33.773  1.00  0.00     0.074 A 
ATOM     46  C   UNL A   1      42.680  27.508  33.087  1.00  0.00     0.031 C 
ATOM     47  C   UNL A   1      37.727  30.946  29.717  1.00  0.00     0.029 A 
ATOM     48  C   UNL A   1      38.107  31.497  31.013  1.00  0.00     0.049 A 
ATOM     49  H   UNL A   1      39.602  30.812  32.293  1.00  0.00     0.167 HD
ATOM     50  C   UNL A   1      42.637  29.103  34.980  1.00  0.00     0.037 A 
ATOM     51  C   UNL A   1      37.536  32.565  31.605  1.00  0.00     0.037 A 
ATOM     52  C   UNL A   1      42.161  30.291  35.638  1.00  0.00     0.049 A 
ATOM     53  C   UNL A   1      38.050  33.014  32.946  1.00  0.00     0.074 A 
ATOM     54  C   UNL A   1      42.591  30.844  36.831  1.00  0.00     0.029 A 
ATOM     55  N   UNL A   1      41.144  31.106  35.162  1.00  0.00    -0.354 N 
ATOM     56  N   UNL A   1      39.004  32.492  33.681  1.00  0.00    -0.248 NA
ATOM     57  C   UNL A   1      37.415  34.199  33.537  1.00  0.00     0.031 C 
ATOM     58  C   UNL A   1      41.798  31.963  37.102  1.00  0.00     0.029 A 
ATOM     59  C   UNL A   1      40.917  32.145  36.049  1.00  0.00     0.049 A 
ATOM     60  H   UNL A   1      40.657  30.967  34.318  1.00  0.00     0.167 HD
ATOM     61  C   UNL A   1      39.108  33.305  34.804  1.00  0.00     0.074 A 
ATOM     62  C   UNL A   1      38.125  34.358  34.646  1.00  0.00     0.031 C 
ATOM     63  C   UNL A   1      39.940  33.192  35.869  1.00  0.00     0.037 A 
BRANCH  50  64
ATOM     64  C   UNL A   1      43.694  28.275  35.663  1.00  0.00     0.058 A 
ATOM     65  C   UNL A   1      45.062  28.464  35.411  1.00  0.00     0.135 A 
ATOM     66  C   UNL A   1      43.335  27.297  36.605  1.00  0.00     0.135 A 
ATOM     67  F   UNL A   1      45.465  29.374  34.508  1.00  0.00    -0.206 F 
ATOM     68  C   UNL A   1      46.034  27.693  36.041  1.00  0.00     0.059 A 
ATOM     69  C   UNL A   1      44.291  26.537  37.272  1.00  0.00     0.059 A 
ATOM     70  F   UNL A   1      42.042  27.071  36.886  1.00  0.00    -0.206 F 
ATOM     71  C   UNL A   1      45.639  26.732  36.971  1.00  0.00     0.060 A 
BRANCH  71  72
ATOM     72  S   UNL A   1      46.913  25.744  37.783  1.00  0.00     0.124 S 
ATOM     73  O   UNL A   1      47.632  26.764  38.541  1.00  0.00    -0.237 OA
ATOM     74  O   UNL A   1      46.122  24.807  38.575  1.00  0.00    -0.237 OA
ATOM     75  O   UNL A   1      47.650  25.155  36.670  1.00  0.00    -0.744 OA
ENDBRANCH  71  72
ENDBRANCH  50  64
BRANCH  51  76
ATOM     76  C   UNL A   1      36.437  33.297  30.919  1.00  0.00     0.058 A 
ATOM     77  C   UNL A   1      35.114  33.204  31.376  1.00  0.00     0.135 A 
ATOM     78  C   UNL A   1      36.686  34.113  29.804  1.00  0.00     0.135 A 
ATOM     79  F   UNL A   1      34.823  32.433  32.435  1.00  0.00    -0.206 F 
ATOM     80  C   UNL A   1      34.073  33.878  30.744  1.00  0.00     0.059 A 
ATOM     81  C   UNL A   1      35.668  34.820  29.172  1.00  0.00     0.059 A 
ATOM     82  F   UNL A   1      37.936  34.252  29.337  1.00  0.00    -0.206 F 
ATOM     83  C   UNL A   1      34.362  34.687  29.644  1.00  0.00     0.060 A 
BRANCH  83  84
ATOM     84  S   UNL A   1      33.011  35.595  28.860  1.00  0.00     0.124 S 
ATOM     85  O   UNL A   1      33.737  36.626  28.127  1.00  0.00    -0.237 OA
ATOM     86  O   UNL A   1      32.378  34.560  28.048  1.00  0.00    -0.237 OA
ATOM     87  O   UNL A   1      32.220  36.064  29.992  1.00  0.00    -0.744 OA
ENDBRANCH  83  84
ENDBRANCH  51  76
BRANCH  63  88
ATOM     88  C   UNL A   1      39.861  34.257  36.928  1.00  0.00     0.058 A 
ATOM     89  C   UNL A   1      40.494  35.500  36.780  1.00  0.00     0.135 A 
ATOM     90  C   UNL A   1      39.091  34.047  38.084  1.00  0.00     0.135 A 
ATOM     91  F   UNL A   1      41.248  35.751  35.697  1.00  0.00    -0.206 F 
ATOM     92  C   UNL A   1      40.389  36.489  37.753  1.00  0.00     0.059 A 
ATOM     93  C   UNL A   1      38.945  35.033  39.054  1.00  0.00     0.059 A 
ATOM     94  F   UNL A   1      38.455  32.879  38.271  1.00  0.00    -0.206 F 
ATOM     95  C   UNL A   1      39.608  36.247  38.885  1.00  0.00     0.060 A 
BRANCH  95  96
ATOM     96  S   UNL A   1      39.451  37.552  40.122  1.00  0.00     0.124 S 
ATOM     97  O   UNL A   1      40.790  38.133  40.107  1.00  0.00    -0.237 OA
ATOM     98  O   UNL A   1      38.392  38.385  39.563  1.00  0.00    -0.237 OA
ATOM     99  O   UNL A   1      39.095  36.828  41.338  1.00  0.00    -0.744 OA
ENDBRANCH  95  96
ENDBRANCH  63  88
ENDBRANCH  37  38
ENDBRANCH  29  32
ENDBRANCH  27  28
ENDBRANCH  26  27
ENDBRANCH   1  26
TORSDOF 18
ENDMDL
MODEL 3
REMARK VINA RESULT:     -11.3      1.927      4.125
REMARK SMILES C[NH2+][C@@]1(C(=O)NCCCNC(=O)c2ccc(-c3c4nc(c(-c5c(F)cc(S(=O)(=O)[O-])cc5F)c5ccc([nH]5)c(-c5c(F)cc(S(=O)(=O)[O-])cc5F)c5nc(c(-c6c(F)cc(S(=O)(=O)[O-])cc6F)c6ccc3[nH]6)C=C5)C=C4)cc2)CCC[C@H]1CCSc1nccc(=O)[nH]1
REMARK SMILES IDX 7 1 6 2 4 3 5 4 3 6 79 7 82 8 80 9 81 10 2 11 1 12 83 15
REMARK SMILES IDX 84 16 85 17 86 18 87 19 92 20 88 21 90 22 89 24 91 25 8 26
REMARK SMILES IDX 9 27 10 28 11 29 12 31 13 32 14 33 78 34 15 35 77 36 16 37
REMARK SMILES IDX 17 38 18 39 71 40 19 41 76 42 70 43 72 44 20 45 75 46 69 47
REMARK SMILES IDX 68 48 21 50 55 51 34 52 54 53 35 54 38 55 53 56 73 57 36 58
REMARK SMILES IDX 37 59 52 61 74 62 39 63 22 64 23 65 32 66 24 67 25 68 31 69
REMARK SMILES IDX 33 70 26 71 27 72 28 73 29 74 30 75 56 76 57 77 66 78 58 79
REMARK SMILES IDX 59 80 65 81 67 82 60 83 61 84 62 85 63 86 64 87 40 88 41 89
REMARK SMILES IDX 50 90 42 91 43 92 49 93 51 94 44 95 45 96 46 97 47 98 48 99
REMARK H PARENT 6 5 2 13 2 14 92 23 10 30 72 49 38 60
REMARK Flexibility Score: inf
ROOT
ATOM      1  C   UNL A   1      33.054  29.993  26.639  1.00  0.00     0.118 C 
ENDROOT
BRANCH   1   2
ATOM      2  N   UNL A   1      32.304  30.057  25.409  1.00  0.00    -0.351 N 
ATOM      3  C   UNL A   1      31.649  29.088  24.718  1.00  0.00     0.281 C 
ATOM      4  O   UNL A   1      30.591  29.496  24.210  1.00  0.00    -0.268 OA
ATOM      5  H   UNL A   1      32.258  30.953  25.003  1.00  0.00     0.163 HD
BRANCH   3   6
ATOM      6  C   UNL A   1      32.083  27.557  24.577  1.00  0.00     0.178 C 
ATOM      7  C   UNL A   1      31.088  26.867  23.605  1.00  0.00     0.079 C 
ATOM      8  C   UNL A   1      32.018  26.654  25.863  1.00  0.00     0.061 C 
ATOM      9  C   UNL A   1      30.027  26.164  24.421  1.00  0.00     0.008 C 
ATOM     10  C   UNL A   1      30.646  25.908  25.785  1.00  0.00     0.011 C 
BRANCH   6  11
ATOM     11  N   UNL A   1      33.377  27.504  23.803  1.00  0.00    -0.336 N 
ATOM     12  C   UNL A   1      33.347  27.753  22.364  1.00  0.00     0.331 C 
ATOM     13  H   UNL A   1      34.001  28.199  24.214  1.00  0.00     0.346 HD
ATOM     14  H   UNL A   1      33.671  26.531  23.880  1.00  0.00     0.346 HD
ENDBRANCH   6  11
BRANCH   8  15
ATOM     15  C   UNL A   1      33.062  25.519  26.053  1.00  0.00     0.022 C 
BRANCH  15  16
ATOM     16  C   UNL A   1      32.651  24.051  26.153  1.00  0.00     0.079 C 
BRANCH  16  17
ATOM     17  S   UNL A   1      33.750  22.963  27.102  1.00  0.00    -0.088 SA
BRANCH  17  18
ATOM     18  C   UNL A   1      35.158  22.763  26.117  1.00  0.00     0.168 A 
ATOM     19  N   UNL A   1      35.873  23.727  25.649  1.00  0.00    -0.233 NA
ATOM     20  N   UNL A   1      35.422  21.449  25.892  1.00  0.00    -0.301 N 
ATOM     21  C   UNL A   1      36.971  23.377  24.905  1.00  0.00     0.120 A 
ATOM     22  C   UNL A   1      36.506  21.043  25.182  1.00  0.00     0.251 A 
ATOM     23  H   UNL A   1      34.808  20.770  26.257  1.00  0.00     0.172 HD
ATOM     24  C   UNL A   1      37.347  22.122  24.647  1.00  0.00     0.091 A 
ATOM     25  O   UNL A   1      36.794  19.866  24.998  1.00  0.00    -0.269 OA
ENDBRANCH  17  18
ENDBRANCH  16  17
ENDBRANCH  15  16
ENDBRANCH   8  15
ENDBRANCH   3   6
ENDBRANCH   1   2
BRANCH   1  26
ATOM     26  C   UNL A   1      34.508  29.596  26.467  1.00  0.00     0.042 C 
BRANCH  26  27
ATOM     27  C   UNL A   1      35.157  29.102  27.751  1.00  0.00     0.118 C 
BRANCH  27  28
ATOM     28  N   UNL A   1      35.164  30.114  28.803  1.00  0.00    -0.352 N 
ATOM     29  C   UNL A   1      36.166  30.544  29.637  1.00  0.00     0.251 C 
ATOM     30  H   UNL A   1      34.300  30.566  28.939  1.00  0.00     0.163 HD
ATOM     31  O   UNL A   1      35.878  31.226  30.616  1.00  0.00    -0.269 OA
BRANCH  29  32
ATOM     32  C   UNL A   1      37.577  30.192  29.368  1.00  0.00     0.039 A 
ATOM     33  C   UNL A   1      38.434  29.927  30.440  1.00  0.00     0.014 A 
ATOM     34  C   UNL A   1      38.068  30.162  28.062  1.00  0.00     0.014 A 
ATOM     35  C   UNL A   1      39.762  29.570  30.194  1.00  0.00     0.010 A 
ATOM     36  C   UNL A   1      39.353  29.697  27.814  1.00  0.00     0.010 A 
ATOM     37  C   UNL A   1      40.221  29.414  28.876  1.00  0.00    -0.014 A 
BRANCH  37  38
ATOM     38  C   UNL A   1      41.611  28.986  28.579  1.00  0.00     0.031 A 
ATOM     39  C   UNL A   1      42.723  30.002  28.573  1.00  0.00     0.074 A 
ATOM     40  C   UNL A   1      41.856  27.705  28.240  1.00  0.00     0.049 A 
ATOM     41  N   UNL A   1      43.982  29.848  28.252  1.00  0.00    -0.248 NA
ATOM     42  C   UNL A   1      42.366  31.382  28.944  1.00  0.00     0.031 C 
ATOM     43  C   UNL A   1      40.849  26.643  28.159  1.00  0.00     0.029 A 
ATOM     44  N   UNL A   1      43.024  27.080  27.888  1.00  0.00    -0.354 N 
ATOM     45  C   UNL A   1      44.557  31.109  28.359  1.00  0.00     0.074 A 
ATOM     46  C   UNL A   1      43.499  32.028  28.715  1.00  0.00     0.031 C 
ATOM     47  C   UNL A   1      41.450  25.494  27.811  1.00  0.00     0.029 A 
ATOM     48  C   UNL A   1      42.870  25.744  27.597  1.00  0.00     0.049 A 
ATOM     49  H   UNL A   1      43.893  27.542  27.848  1.00  0.00     0.167 HD
ATOM     50  C   UNL A   1      45.855  31.464  28.203  1.00  0.00     0.037 A 
ATOM     51  C   UNL A   1      43.772  24.828  27.194  1.00  0.00     0.037 A 
ATOM     52  C   UNL A   1      46.904  30.534  27.877  1.00  0.00     0.049 A 
ATOM     53  C   UNL A   1      45.208  25.245  27.027  1.00  0.00     0.074 A 
ATOM     54  C   UNL A   1      48.260  30.775  27.759  1.00  0.00     0.029 A 
ATOM     55  N   UNL A   1      46.711  29.185  27.612  1.00  0.00    -0.354 N 
ATOM     56  N   UNL A   1      45.749  26.428  27.202  1.00  0.00    -0.248 NA
ATOM     57  C   UNL A   1      46.159  24.204  26.613  1.00  0.00     0.031 C 
ATOM     58  C   UNL A   1      48.881  29.583  27.371  1.00  0.00     0.029 A 
ATOM     59  C   UNL A   1      47.922  28.585  27.308  1.00  0.00     0.049 A 
ATOM     60  H   UNL A   1      45.843  28.722  27.639  1.00  0.00     0.167 HD
ATOM     61  C   UNL A   1      47.108  26.266  26.954  1.00  0.00     0.074 A 
ATOM     62  C   UNL A   1      47.306  24.869  26.625  1.00  0.00     0.031 C 
ATOM     63  C   UNL A   1      48.101  27.188  26.995  1.00  0.00     0.037 A 
BRANCH  50  64
ATOM     64  C   UNL A   1      46.211  32.916  28.383  1.00  0.00     0.058 A 
ATOM     65  C   UNL A   1      46.618  33.431  29.625  1.00  0.00     0.135 A 
ATOM     66  C   UNL A   1      46.172  33.801  27.292  1.00  0.00     0.135 A 
ATOM     67  F   UNL A   1      46.658  32.637  30.707  1.00  0.00    -0.206 F 
ATOM     68  C   UNL A   1      46.940  34.775  29.787  1.00  0.00     0.059 A 
ATOM     69  C   UNL A   1      46.523  35.142  27.424  1.00  0.00     0.059 A 
ATOM     70  F   UNL A   1      45.791  33.366  26.082  1.00  0.00    -0.206 F 
ATOM     71  C   UNL A   1      46.891  35.623  28.680  1.00  0.00     0.060 A 
BRANCH  71  72
ATOM     72  S   UNL A   1      47.318  37.361  28.908  1.00  0.00     0.124 S 
ATOM     73  O   UNL A   1      48.279  37.568  27.828  1.00  0.00    -0.237 OA
ATOM     74  O   UNL A   1      46.027  38.022  28.741  1.00  0.00    -0.237 OA
ATOM     75  O   UNL A   1      47.872  37.404  30.257  1.00  0.00    -0.744 OA
ENDBRANCH  71  72
ENDBRANCH  50  64
BRANCH  51  76
ATOM     76  C   UNL A   1      43.348  23.423  26.950  1.00  0.00     0.058 A 
ATOM     77  C   UNL A   1      43.231  22.921  25.644  1.00  0.00     0.135 A 
ATOM     78  C   UNL A   1      43.063  22.550  28.011  1.00  0.00     0.135 A 
ATOM     79  F   UNL A   1      43.487  23.716  24.595  1.00  0.00    -0.206 F 
ATOM     80  C   UNL A   1      42.831  21.611  25.398  1.00  0.00     0.059 A 
ATOM     81  C   UNL A   1      42.689  21.227  27.792  1.00  0.00     0.059 A 
ATOM     82  F   UNL A   1      43.177  22.973  29.280  1.00  0.00    -0.206 F 
ATOM     83  C   UNL A   1      42.565  20.770  26.481  1.00  0.00     0.060 A 
BRANCH  83  84
ATOM     84  S   UNL A   1      42.092  19.059  26.150  1.00  0.00     0.124 S 
ATOM     85  O   UNL A   1      43.014  18.702  25.078  1.00  0.00    -0.237 OA
ATOM     86  O   UNL A   1      42.334  18.421  27.440  1.00  0.00    -0.237 OA
ATOM     87  O   UNL A   1      40.688  19.166  25.766  1.00  0.00    -0.744 OA
ENDBRANCH  83  84
ENDBRANCH  51  76
BRANCH  63  88
ATOM     88  C   UNL A   1      49.502  26.713  26.723  1.00  0.00     0.058 A 
ATOM     89  C   UNL A   1      50.342  26.252  27.748  1.00  0.00     0.135 A 
ATOM     90  C   UNL A   1      49.988  26.666  25.405  1.00  0.00     0.135 A 
ATOM     91  F   UNL A   1      49.929  26.281  29.025  1.00  0.00    -0.206 F 
ATOM     92  C   UNL A   1      51.625  25.786  27.481  1.00  0.00     0.059 A 
ATOM     93  C   UNL A   1      51.255  26.173  25.112  1.00  0.00     0.059 A 
ATOM     94  F   UNL A   1      49.222  27.084  24.386  1.00  0.00    -0.206 F 
ATOM     95  C   UNL A   1      52.072  25.746  26.158  1.00  0.00     0.060 A 
BRANCH  95  96
ATOM     96  S   UNL A   1      53.724  25.106  25.822  1.00  0.00     0.124 S 
ATOM     97  O   UNL A   1      54.381  25.297  27.111  1.00  0.00    -0.237 OA
ATOM     98  O   UNL A   1      53.452  23.722  25.448  1.00  0.00    -0.237 OA
ATOM     99  O   UNL A   1      54.207  25.958  24.740  1.00  0.00    -0.744 OA
ENDBRANCH  95  96
ENDBRANCH  63  88
ENDBRANCH  37  38
ENDBRANCH  29  32
ENDBRANCH  27  28
ENDBRANCH  26  27
ENDBRANCH   1  26
TORSDOF 18
ENDMDL
