MODEL 1
REMARK VINA RESULT:     -13.8      0.000      0.000
REMARK SMILES Cc1ccccc1[C@@H](Cc1c(Cl)cccc1Cl)C(=O)NCCCNC(=O)c1ccc(-c2c3nc(c(-c4c(F)cc(S(=O)(=O)[O-])cc4F)c4ccc([nH]4)c(-c4c(F)cc(S(=O)(=O)[O-])cc4F)c4nc(c(-c5c(F)cc(S(=O)(=O)[O-])cc5F)c5ccc2[nH]5)C=C4)C=C3)cc1
REMARK SMILES IDX 22 1 21 2 20 3 18 4 19 5 8 7 7 8 1 9 2 10 3 11 4 12 6 13
REMARK SMILES IDX 5 14 9 15 10 16 11 17 16 18 12 19 13 20 15 21 17 22 14 23
REMARK SMILES IDX 23 24 24 25 25 26 26 28 27 29 28 30 92 31 29 32 91 33 30 34
REMARK SMILES IDX 31 35 32 36 85 37 33 38 90 39 84 40 86 41 34 42 89 43 83 44
REMARK SMILES IDX 82 45 35 47 69 48 48 49 68 50 49 51 52 52 67 53 87 54 50 55
REMARK SMILES IDX 51 56 66 58 88 59 53 60 36 61 37 62 46 63 38 64 39 65 45 66
REMARK SMILES IDX 47 67 40 68 41 69 42 70 43 71 44 72 70 73 71 74 80 75 72 76
REMARK SMILES IDX 73 77 79 78 81 79 74 80 75 81 76 82 77 83 78 84 54 85 55 86
REMARK SMILES IDX 64 87 56 88 57 89 63 90 65 91 58 92 59 93 60 94 61 95 62 96
REMARK H PARENT 20 6 24 27 86 46 52 57
REMARK Flexibility Score: inf
ROOT
ATOM      1  C   UNL A   1      33.887  29.377  26.395  1.00  0.00     0.042 C 
ENDROOT
BRANCH   1   2
ATOM      2  C   UNL A   1      32.406  29.427  26.028  1.00  0.00     0.117 C 
BRANCH   2   3
ATOM      3  N   UNL A   1      31.669  28.259  26.469  1.00  0.00    -0.355 N 
ATOM      4  C   UNL A   1      31.060  27.244  25.803  1.00  0.00     0.227 C 
ATOM      5  O   UNL A   1      30.419  26.450  26.507  1.00  0.00    -0.274 OA
ATOM      6  H   UNL A   1      31.595  28.187  27.448  1.00  0.00     0.163 HD
BRANCH   4   7
ATOM      7  C   UNL A   1      31.083  27.036  24.273  1.00  0.00     0.113 C 
BRANCH   7   8
ATOM      8  C   UNL A   1      30.054  27.941  23.570  1.00  0.00    -0.032 A 
ATOM      9  C   UNL A   1      28.068  26.327  23.913  1.00  0.00     0.044 C 
ATOM     10  C   UNL A   1      28.672  27.648  23.517  1.00  0.00    -0.047 A 
ATOM     11  C   UNL A   1      27.769  28.649  23.101  1.00  0.00     0.004 A 
ATOM     12  C   UNL A   1      28.214  29.898  22.679  1.00  0.00     0.000 A 
ATOM     13  C   UNL A   1      30.480  29.170  23.034  1.00  0.00     0.005 A 
ATOM     14  C   UNL A   1      29.575  30.147  22.615  1.00  0.00     0.000 A 
ENDBRANCH   7   8
BRANCH   7  15
ATOM     15  C   UNL A   1      32.442  26.930  23.536  1.00  0.00     0.057 C 
BRANCH  15  16
ATOM     16  C   UNL A   1      33.066  25.567  23.243  1.00  0.00    -0.010 A 
ATOM     17  C   UNL A   1      33.898  24.948  24.208  1.00  0.00     0.045 A 
ATOM     18  C   UNL A   1      32.901  24.874  22.026  1.00  0.00     0.045 A 
ATOM     19  Cl  UNL A   1      34.385  25.744  25.671  1.00  0.00    -0.084 Cl
ATOM     20  C   UNL A   1      34.413  23.658  24.021  1.00  0.00     0.021 A 
ATOM     21  C   UNL A   1      33.399  23.572  21.855  1.00  0.00     0.021 A 
ATOM     22  Cl  UNL A   1      32.190  25.581  20.619  1.00  0.00    -0.084 Cl
ATOM     23  C   UNL A   1      34.137  22.955  22.857  1.00  0.00     0.003 A 
ENDBRANCH  15  16
ENDBRANCH   7  15
ENDBRANCH   4   7
ENDBRANCH   2   3
ENDBRANCH   1   2
BRANCH   1  24
ATOM     24  C   UNL A   1      34.154  29.421  27.891  1.00  0.00     0.118 C 
BRANCH  24  25
ATOM     25  N   UNL A   1      34.784  30.679  28.270  1.00  0.00    -0.352 N 
ATOM     26  C   UNL A   1      36.114  30.907  28.615  1.00  0.00     0.251 C 
ATOM     27  H   UNL A   1      34.195  31.468  28.284  1.00  0.00     0.163 HD
ATOM     28  O   UNL A   1      36.541  31.994  28.898  1.00  0.00    -0.269 OA
BRANCH  26  29
ATOM     29  C   UNL A   1      36.988  29.713  28.575  1.00  0.00     0.039 A 
ATOM     30  C   UNL A   1      37.167  29.006  29.765  1.00  0.00     0.014 A 
ATOM     31  C   UNL A   1      37.820  29.546  27.479  1.00  0.00     0.014 A 
ATOM     32  C   UNL A   1      38.313  28.226  29.912  1.00  0.00     0.010 A 
ATOM     33  C   UNL A   1      38.992  28.834  27.658  1.00  0.00     0.010 A 
ATOM     34  C   UNL A   1      39.264  28.216  28.891  1.00  0.00    -0.014 A 
BRANCH  34  35
ATOM     35  C   UNL A   1      40.608  27.672  29.057  1.00  0.00     0.031 A 
ATOM     36  C   UNL A   1      40.912  26.284  28.631  1.00  0.00     0.074 A 
ATOM     37  C   UNL A   1      41.602  28.427  29.575  1.00  0.00     0.049 A 
ATOM     38  N   UNL A   1      41.915  25.586  29.050  1.00  0.00    -0.248 NA
ATOM     39  C   UNL A   1      40.035  25.537  27.740  1.00  0.00     0.031 C 
ATOM     40  C   UNL A   1      43.034  28.155  29.498  1.00  0.00     0.029 A 
ATOM     41  N   UNL A   1      41.509  29.500  30.454  1.00  0.00    -0.354 N 
ATOM     42  C   UNL A   1      41.987  24.438  28.290  1.00  0.00     0.074 A 
ATOM     43  C   UNL A   1      40.742  24.417  27.560  1.00  0.00     0.031 C 
ATOM     44  C   UNL A   1      43.666  28.862  30.446  1.00  0.00     0.029 A 
ATOM     45  C   UNL A   1      42.654  29.507  31.263  1.00  0.00     0.049 A 
ATOM     46  H   UNL A   1      40.766  30.143  30.500  1.00  0.00     0.167 HD
ATOM     47  C   UNL A   1      43.151  23.720  28.272  1.00  0.00     0.037 A 
ATOM     48  C   UNL A   1      42.580  29.406  32.622  1.00  0.00     0.037 A 
ATOM     49  C   UNL A   1      44.098  24.232  29.267  1.00  0.00     0.049 A 
ATOM     50  C   UNL A   1      43.262  28.186  33.195  1.00  0.00     0.074 A 
ATOM     51  C   UNL A   1      45.208  25.058  29.175  1.00  0.00     0.029 A 
ATOM     52  N   UNL A   1      43.809  24.117  30.624  1.00  0.00    -0.354 N 
ATOM     53  N   UNL A   1      43.654  27.166  32.483  1.00  0.00    -0.248 NA
ATOM     54  C   UNL A   1      43.529  27.999  34.620  1.00  0.00     0.031 C 
ATOM     55  C   UNL A   1      45.556  25.480  30.482  1.00  0.00     0.029 A 
ATOM     56  C   UNL A   1      44.668  24.902  31.373  1.00  0.00     0.049 A 
ATOM     57  H   UNL A   1      43.093  23.556  30.998  1.00  0.00     0.167 HD
ATOM     58  C   UNL A   1      44.151  26.189  33.307  1.00  0.00     0.074 A 
ATOM     59  C   UNL A   1      44.090  26.776  34.632  1.00  0.00     0.031 C 
ATOM     60  C   UNL A   1      44.547  24.974  32.824  1.00  0.00     0.037 A 
BRANCH  47  61
ATOM     61  C   UNL A   1      43.558  22.761  27.155  1.00  0.00     0.058 A 
ATOM     62  C   UNL A   1      42.879  21.531  26.976  1.00  0.00     0.135 A 
ATOM     63  C   UNL A   1      44.654  22.932  26.286  1.00  0.00     0.135 A 
ATOM     64  F   UNL A   1      41.740  21.257  27.626  1.00  0.00    -0.206 F 
ATOM     65  C   UNL A   1      43.332  20.518  26.124  1.00  0.00     0.059 A 
ATOM     66  C   UNL A   1      45.157  21.919  25.462  1.00  0.00     0.059 A 
ATOM     67  F   UNL A   1      45.259  24.113  26.137  1.00  0.00    -0.206 F 
ATOM     68  C   UNL A   1      44.500  20.703  25.402  1.00  0.00     0.060 A 
BRANCH  68  69
ATOM     69  S   UNL A   1      45.130  19.363  24.375  1.00  0.00     0.124 S 
ATOM     70  O   UNL A   1      44.523  19.658  23.080  1.00  0.00    -0.237 OA
ATOM     71  O   UNL A   1      46.572  19.562  24.462  1.00  0.00    -0.237 OA
ATOM     72  O   UNL A   1      44.625  18.161  25.035  1.00  0.00    -0.744 OA
ENDBRANCH  68  69
ENDBRANCH  47  61
BRANCH  48  73
ATOM     73  C   UNL A   1      41.387  30.074  33.202  1.00  0.00     0.058 A 
ATOM     74  C   UNL A   1      41.440  31.471  33.357  1.00  0.00     0.135 A 
ATOM     75  C   UNL A   1      40.123  29.469  33.167  1.00  0.00     0.135 A 
ATOM     76  F   UNL A   1      42.629  32.095  33.415  1.00  0.00    -0.206 F 
ATOM     77  C   UNL A   1      40.296  32.253  33.297  1.00  0.00     0.059 A 
ATOM     78  C   UNL A   1      38.957  30.236  33.111  1.00  0.00     0.059 A 
ATOM     79  F   UNL A   1      40.013  28.139  33.028  1.00  0.00    -0.206 F 
ATOM     80  C   UNL A   1      39.066  31.628  33.102  1.00  0.00     0.060 A 
BRANCH  80  81
ATOM     81  S   UNL A   1      37.669  32.669  32.621  1.00  0.00     0.124 S 
ATOM     82  O   UNL A   1      36.664  31.679  32.252  1.00  0.00    -0.237 OA
ATOM     83  O   UNL A   1      37.411  33.398  33.862  1.00  0.00    -0.237 OA
ATOM     84  O   UNL A   1      38.206  33.468  31.526  1.00  0.00    -0.744 OA
ENDBRANCH  80  81
ENDBRANCH  48  73
BRANCH  60  85
ATOM     85  C   UNL A   1      44.938  23.772  33.654  1.00  0.00     0.058 A 
ATOM     86  C   UNL A   1      44.050  22.750  34.034  1.00  0.00     0.135 A 
ATOM     87  C   UNL A   1      46.296  23.551  33.992  1.00  0.00     0.135 A 
ATOM     88  F   UNL A   1      42.759  22.781  33.676  1.00  0.00    -0.206 F 
ATOM     89  C   UNL A   1      44.462  21.627  34.756  1.00  0.00     0.059 A 
ATOM     90  C   UNL A   1      46.736  22.412  34.665  1.00  0.00     0.059 A 
ATOM     91  F   UNL A   1      47.249  24.437  33.667  1.00  0.00    -0.206 F 
ATOM     92  C   UNL A   1      45.807  21.466  35.069  1.00  0.00     0.060 A 
BRANCH  92  93
ATOM     93  S   UNL A   1      46.365  19.991  35.945  1.00  0.00     0.124 S 
ATOM     94  O   UNL A   1      45.704  18.933  35.188  1.00  0.00    -0.237 OA
ATOM     95  O   UNL A   1      47.817  20.053  35.800  1.00  0.00    -0.237 OA
ATOM     96  O   UNL A   1      45.871  20.206  37.301  1.00  0.00    -0.744 OA
ENDBRANCH  92  93
ENDBRANCH  60  85
ENDBRANCH  34  35
ENDBRANCH  26  29
ENDBRANCH  24  25
ENDBRANCH   1  24
TORSDOF 16
ENDMDL
MODEL 2
REMARK VINA RESULT:     -13.8      1.265      1.951
REMARK SMILES Cc1ccccc1[C@@H](Cc1c(Cl)cccc1Cl)C(=O)NCCCNC(=O)c1ccc(-c2c3nc(c(-c4c(F)cc(S(=O)(=O)[O-])cc4F)c4ccc([nH]4)c(-c4c(F)cc(S(=O)(=O)[O-])cc4F)c4nc(c(-c5c(F)cc(S(=O)(=O)[O-])cc5F)c5ccc2[nH]5)C=C4)C=C3)cc1
REMARK SMILES IDX 22 1 21 2 20 3 18 4 19 5 8 7 7 8 1 9 2 10 3 11 4 12 6 13
REMARK SMILES IDX 5 14 9 15 10 16 11 17 16 18 12 19 13 20 15 21 17 22 14 23
REMARK SMILES IDX 23 24 24 25 25 26 26 28 27 29 28 30 92 31 29 32 91 33 30 34
REMARK SMILES IDX 31 35 32 36 85 37 33 38 90 39 84 40 86 41 34 42 89 43 83 44
REMARK SMILES IDX 82 45 35 47 69 48 48 49 68 50 49 51 52 52 67 53 87 54 50 55
REMARK SMILES IDX 51 56 66 58 88 59 53 60 36 61 37 62 46 63 38 64 39 65 45 66
REMARK SMILES IDX 47 67 40 68 41 69 42 70 43 71 44 72 70 73 71 74 80 75 72 76
REMARK SMILES IDX 73 77 79 78 81 79 74 80 75 81 76 82 77 83 78 84 54 85 55 86
REMARK SMILES IDX 64 87 56 88 57 89 63 90 65 91 58 92 59 93 60 94 61 95 62 96
REMARK H PARENT 20 6 24 27 86 46 52 57
REMARK Flexibility Score: inf
ROOT
ATOM      1  C   UNL A   1      32.626  29.577  27.083  1.00  0.00     0.042 C 
ENDROOT
BRANCH   1   2
ATOM      2  C   UNL A   1      32.017  30.144  25.804  1.00  0.00     0.117 C 
BRANCH   2   3
ATOM      3  N   UNL A   1      32.751  29.771  24.610  1.00  0.00    -0.355 N 
ATOM      4  C   UNL A   1      32.578  28.790  23.687  1.00  0.00     0.227 C 
ATOM      5  O   UNL A   1      33.472  28.693  22.835  1.00  0.00    -0.274 OA
ATOM      6  H   UNL A   1      33.531  30.344  24.433  1.00  0.00     0.163 HD
BRANCH   4   7
ATOM      7  C   UNL A   1      31.396  27.796  23.647  1.00  0.00     0.113 C 
BRANCH   7   8
ATOM      8  C   UNL A   1      30.152  28.433  23.002  1.00  0.00    -0.032 A 
ATOM      9  C   UNL A   1      28.486  26.732  24.003  1.00  0.00     0.044 C 
ATOM     10  C   UNL A   1      28.832  27.999  23.267  1.00  0.00    -0.047 A 
ATOM     11  C   UNL A   1      27.746  28.801  22.857  1.00  0.00     0.004 A 
ATOM     12  C   UNL A   1      27.942  29.976  22.139  1.00  0.00     0.000 A 
ATOM     13  C   UNL A   1      30.311  29.564  22.182  1.00  0.00     0.005 A 
ATOM     14  C   UNL A   1      29.227  30.342  21.774  1.00  0.00     0.000 A 
ENDBRANCH   7   8
BRANCH   7  15
ATOM     15  C   UNL A   1      31.647  26.326  23.224  1.00  0.00     0.057 C 
BRANCH  15  16
ATOM     16  C   UNL A   1      32.557  25.422  24.053  1.00  0.00    -0.010 A 
ATOM     17  C   UNL A   1      33.378  24.463  23.409  1.00  0.00     0.045 A 
ATOM     18  C   UNL A   1      32.613  25.443  25.462  1.00  0.00     0.045 A 
ATOM     19  Cl  UNL A   1      33.285  24.147  21.706  1.00  0.00    -0.084 Cl
ATOM     20  C   UNL A   1      34.296  23.679  24.121  1.00  0.00     0.021 A 
ATOM     21  C   UNL A   1      33.552  24.674  26.167  1.00  0.00     0.021 A 
ATOM     22  Cl  UNL A   1      31.484  26.308  26.443  1.00  0.00    -0.084 Cl
ATOM     23  C   UNL A   1      34.407  23.807  25.498  1.00  0.00     0.003 A 
ENDBRANCH  15  16
ENDBRANCH   7  15
ENDBRANCH   4   7
ENDBRANCH   2   3
ENDBRANCH   1   2
BRANCH   1  24
ATOM     24  C   UNL A   1      34.146  29.557  27.087  1.00  0.00     0.118 C 
BRANCH  24  25
ATOM     25  N   UNL A   1      34.679  30.761  27.712  1.00  0.00    -0.352 N 
ATOM     26  C   UNL A   1      35.946  30.961  28.255  1.00  0.00     0.251 C 
ATOM     27  H   UNL A   1      34.067  31.530  27.756  1.00  0.00     0.163 HD
ATOM     28  O   UNL A   1      36.296  32.005  28.736  1.00  0.00    -0.269 OA
BRANCH  26  29
ATOM     29  C   UNL A   1      36.859  29.799  28.169  1.00  0.00     0.039 A 
ATOM     30  C   UNL A   1      36.997  29.002  29.306  1.00  0.00     0.014 A 
ATOM     31  C   UNL A   1      37.753  29.745  27.110  1.00  0.00     0.014 A 
ATOM     32  C   UNL A   1      38.158  28.245  29.454  1.00  0.00     0.010 A 
ATOM     33  C   UNL A   1      38.936  29.053  27.296  1.00  0.00     0.010 A 
ATOM     34  C   UNL A   1      39.161  28.344  28.489  1.00  0.00    -0.014 A 
BRANCH  34  35
ATOM     35  C   UNL A   1      40.512  27.826  28.685  1.00  0.00     0.031 A 
ATOM     36  C   UNL A   1      40.836  26.426  28.318  1.00  0.00     0.074 A 
ATOM     37  C   UNL A   1      41.492  28.615  29.178  1.00  0.00     0.049 A 
ATOM     38  N   UNL A   1      41.847  25.760  28.771  1.00  0.00    -0.248 NA
ATOM     39  C   UNL A   1      39.976  25.631  27.453  1.00  0.00     0.031 C 
ATOM     40  C   UNL A   1      42.928  28.359  29.121  1.00  0.00     0.029 A 
ATOM     41  N   UNL A   1      41.379  29.721  30.011  1.00  0.00    -0.354 N 
ATOM     42  C   UNL A   1      41.938  24.583  28.059  1.00  0.00     0.074 A 
ATOM     43  C   UNL A   1      40.699  24.515  27.323  1.00  0.00     0.031 C 
ATOM     44  C   UNL A   1      43.544  29.113  30.043  1.00  0.00     0.029 A 
ATOM     45  C   UNL A   1      42.518  29.777  30.826  1.00  0.00     0.049 A 
ATOM     46  H   UNL A   1      40.627  30.355  30.027  1.00  0.00     0.167 HD
ATOM     47  C   UNL A   1      43.112  23.880  28.078  1.00  0.00     0.037 A 
ATOM     48  C   UNL A   1      42.437  29.730  32.188  1.00  0.00     0.037 A 
ATOM     49  C   UNL A   1      44.046  24.445  29.057  1.00  0.00     0.049 A 
ATOM     50  C   UNL A   1      43.131  28.544  32.815  1.00  0.00     0.074 A 
ATOM     51  C   UNL A   1      45.145  25.282  28.938  1.00  0.00     0.029 A 
ATOM     52  N   UNL A   1      43.749  24.382  30.415  1.00  0.00    -0.354 N 
ATOM     53  N   UNL A   1      43.542  27.502  32.147  1.00  0.00    -0.248 NA
ATOM     54  C   UNL A   1      43.392  28.419  34.248  1.00  0.00     0.031 C 
ATOM     55  C   UNL A   1      45.479  25.761  30.228  1.00  0.00     0.029 A 
ATOM     56  C   UNL A   1      44.593  25.208  31.137  1.00  0.00     0.049 A 
ATOM     57  H   UNL A   1      43.038  23.827  30.808  1.00  0.00     0.167 HD
ATOM     58  C   UNL A   1      44.046  26.566  33.013  1.00  0.00     0.074 A 
ATOM     59  C   UNL A   1      43.969  27.206  34.313  1.00  0.00     0.031 C 
ATOM     60  C   UNL A   1      44.461  25.337  32.583  1.00  0.00     0.037 A 
BRANCH  47  61
ATOM     61  C   UNL A   1      43.539  22.882  27.003  1.00  0.00     0.058 A 
ATOM     62  C   UNL A   1      42.856  21.651  26.849  1.00  0.00     0.135 A 
ATOM     63  C   UNL A   1      44.657  23.017  26.156  1.00  0.00     0.135 A 
ATOM     64  F   UNL A   1      41.700  21.406  27.480  1.00  0.00    -0.206 F 
ATOM     65  C   UNL A   1      43.322  20.607  26.042  1.00  0.00     0.059 A 
ATOM     66  C   UNL A   1      45.172  21.974  25.378  1.00  0.00     0.059 A 
ATOM     67  F   UNL A   1      45.273  24.189  25.982  1.00  0.00    -0.206 F 
ATOM     68  C   UNL A   1      44.509  20.761  25.343  1.00  0.00     0.060 A 
BRANCH  68  69
ATOM     69  S   UNL A   1      45.154  19.383  24.377  1.00  0.00     0.124 S 
ATOM     70  O   UNL A   1      46.593  19.629  24.416  1.00  0.00    -0.237 OA
ATOM     71  O   UNL A   1      44.685  18.230  25.136  1.00  0.00    -0.237 OA
ATOM     72  O   UNL A   1      44.531  19.563  23.068  1.00  0.00    -0.744 OA
ENDBRANCH  68  69
ENDBRANCH  47  61
BRANCH  48  73
ATOM     73  C   UNL A   1      41.231  30.405  32.733  1.00  0.00     0.058 A 
ATOM     74  C   UNL A   1      40.134  29.593  33.072  1.00  0.00     0.135 A 
ATOM     75  C   UNL A   1      41.310  31.675  33.322  1.00  0.00     0.135 A 
ATOM     76  F   UNL A   1      40.004  28.375  32.519  1.00  0.00    -0.206 F 
ATOM     77  C   UNL A   1      39.251  29.947  34.082  1.00  0.00     0.059 A 
ATOM     78  C   UNL A   1      40.430  32.055  34.337  1.00  0.00     0.059 A 
ATOM     79  F   UNL A   1      42.331  32.493  33.030  1.00  0.00    -0.206 F 
ATOM     80  C   UNL A   1      39.453  31.150  34.756  1.00  0.00     0.060 A 
BRANCH  80  81
ATOM     81  S   UNL A   1      38.563  31.392  36.311  1.00  0.00     0.124 S 
ATOM     82  O   UNL A   1      38.209  30.024  36.675  1.00  0.00    -0.237 OA
ATOM     83  O   UNL A   1      39.592  32.019  37.140  1.00  0.00    -0.237 OA
ATOM     84  O   UNL A   1      37.451  32.256  35.931  1.00  0.00    -0.744 OA
ENDBRANCH  80  81
ENDBRANCH  48  73
BRANCH  60  85
ATOM     85  C   UNL A   1      44.863  24.175  33.464  1.00  0.00     0.058 A 
ATOM     86  C   UNL A   1      44.039  23.069  33.739  1.00  0.00     0.135 A 
ATOM     87  C   UNL A   1      46.184  24.088  33.969  1.00  0.00     0.135 A 
ATOM     88  F   UNL A   1      42.806  22.974  33.223  1.00  0.00    -0.206 F 
ATOM     89  C   UNL A   1      44.467  21.989  34.514  1.00  0.00     0.059 A 
ATOM     90  C   UNL A   1      46.647  22.995  34.699  1.00  0.00     0.059 A 
ATOM     91  F   UNL A   1      47.078  25.065  33.758  1.00  0.00    -0.206 F 
ATOM     92  C   UNL A   1      45.773  21.959  34.992  1.00  0.00     0.060 A 
BRANCH  92  93
ATOM     93  S   UNL A   1      46.361  20.543  35.941  1.00  0.00     0.124 S 
ATOM     94  O   UNL A   1      47.808  20.709  35.847  1.00  0.00    -0.237 OA
ATOM     95  O   UNL A   1      45.787  20.772  37.264  1.00  0.00    -0.237 OA
ATOM     96  O   UNL A   1      45.804  19.406  35.215  1.00  0.00    -0.744 OA
ENDBRANCH  92  93
ENDBRANCH  60  85
ENDBRANCH  34  35
ENDBRANCH  26  29
ENDBRANCH  24  25
ENDBRANCH   1  24
TORSDOF 16
ENDMDL
MODEL 3
REMARK VINA RESULT:     -13.7      1.286      3.041
REMARK SMILES Cc1ccccc1[C@@H](Cc1c(Cl)cccc1Cl)C(=O)NCCCNC(=O)c1ccc(-c2c3nc(c(-c4c(F)cc(S(=O)(=O)[O-])cc4F)c4ccc([nH]4)c(-c4c(F)cc(S(=O)(=O)[O-])cc4F)c4nc(c(-c5c(F)cc(S(=O)(=O)[O-])cc5F)c5ccc2[nH]5)C=C4)C=C3)cc1
REMARK SMILES IDX 22 1 21 2 20 3 18 4 19 5 8 7 7 8 1 9 2 10 3 11 4 12 6 13
REMARK SMILES IDX 5 14 9 15 10 16 11 17 16 18 12 19 13 20 15 21 17 22 14 23
REMARK SMILES IDX 23 24 24 25 25 26 26 28 27 29 28 30 92 31 29 32 91 33 30 34
REMARK SMILES IDX 31 35 32 36 85 37 33 38 90 39 84 40 86 41 34 42 89 43 83 44
REMARK SMILES IDX 82 45 35 47 69 48 48 49 68 50 49 51 52 52 67 53 87 54 50 55
REMARK SMILES IDX 51 56 66 58 88 59 53 60 36 61 37 62 46 63 38 64 39 65 45 66
REMARK SMILES IDX 47 67 40 68 41 69 42 70 43 71 44 72 70 73 71 74 80 75 72 76
REMARK SMILES IDX 73 77 79 78 81 79 74 80 75 81 76 82 77 83 78 84 54 85 55 86
REMARK SMILES IDX 64 87 56 88 57 89 63 90 65 91 58 92 59 93 60 94 61 95 62 96
REMARK H PARENT 20 6 24 27 86 46 52 57
REMARK Flexibility Score: inf
ROOT
ATOM      1  C   UNL A   1      33.453  28.819  27.421  1.00  0.00     0.042 C 
ENDROOT
BRANCH   1   2
ATOM      2  C   UNL A   1      32.033  28.912  26.869  1.00  0.00     0.117 C 
BRANCH   2   3
ATOM      3  N   UNL A   1      31.286  27.677  27.008  1.00  0.00    -0.355 N 
ATOM      4  C   UNL A   1      31.158  26.580  26.218  1.00  0.00     0.227 C 
ATOM      5  O   UNL A   1      30.337  25.735  26.604  1.00  0.00    -0.274 OA
ATOM      6  H   UNL A   1      30.766  27.623  27.843  1.00  0.00     0.163 HD
BRANCH   4   7
ATOM      7  C   UNL A   1      31.918  26.335  24.896  1.00  0.00     0.113 C 
BRANCH   7   8
ATOM      8  C   UNL A   1      32.901  25.157  25.027  1.00  0.00    -0.032 A 
ATOM      9  C   UNL A   1      31.194  23.360  24.302  1.00  0.00     0.044 C 
ATOM     10  C   UNL A   1      32.582  23.834  24.646  1.00  0.00    -0.047 A 
ATOM     11  C   UNL A   1      33.614  22.877  24.541  1.00  0.00     0.004 A 
ATOM     12  C   UNL A   1      34.929  23.190  24.867  1.00  0.00     0.000 A 
ATOM     13  C   UNL A   1      34.217  25.411  25.455  1.00  0.00     0.005 A 
ATOM     14  C   UNL A   1      35.226  24.452  25.355  1.00  0.00     0.000 A 
ENDBRANCH   7   8
BRANCH   7  15
ATOM     15  C   UNL A   1      31.146  26.369  23.553  1.00  0.00     0.057 C 
BRANCH  15  16
ATOM     16  C   UNL A   1      30.284  27.574  23.180  1.00  0.00    -0.010 A 
ATOM     17  C   UNL A   1      30.896  28.766  22.719  1.00  0.00     0.045 A 
ATOM     18  C   UNL A   1      28.880  27.603  23.303  1.00  0.00     0.045 A 
ATOM     19  Cl  UNL A   1      32.617  28.988  22.707  1.00  0.00    -0.084 Cl
ATOM     20  C   UNL A   1      30.141  29.861  22.278  1.00  0.00     0.021 A 
ATOM     21  C   UNL A   1      28.128  28.694  22.835  1.00  0.00     0.021 A 
ATOM     22  Cl  UNL A   1      27.973  26.383  24.124  1.00  0.00    -0.084 Cl
ATOM     23  C   UNL A   1      28.755  29.814  22.305  1.00  0.00     0.003 A 
ENDBRANCH  15  16
ENDBRANCH   7  15
ENDBRANCH   4   7
ENDBRANCH   2   3
ENDBRANCH   1   2
BRANCH   1  24
ATOM     24  C   UNL A   1      34.476  29.621  26.632  1.00  0.00     0.118 C 
BRANCH  24  25
ATOM     25  N   UNL A   1      34.939  30.770  27.398  1.00  0.00    -0.352 N 
ATOM     26  C   UNL A   1      36.139  30.918  28.090  1.00  0.00     0.251 C 
ATOM     27  H   UNL A   1      34.326  31.540  27.432  1.00  0.00     0.163 HD
ATOM     28  O   UNL A   1      36.435  31.920  28.682  1.00  0.00    -0.269 OA
BRANCH  26  29
ATOM     29  C   UNL A   1      37.055  29.757  28.017  1.00  0.00     0.039 A 
ATOM     30  C   UNL A   1      37.158  28.947  29.148  1.00  0.00     0.014 A 
ATOM     31  C   UNL A   1      37.980  29.715  26.986  1.00  0.00     0.014 A 
ATOM     32  C   UNL A   1      38.315  28.187  29.322  1.00  0.00     0.010 A 
ATOM     33  C   UNL A   1      39.157  29.021  27.199  1.00  0.00     0.010 A 
ATOM     34  C   UNL A   1      39.347  28.298  28.389  1.00  0.00    -0.014 A 
BRANCH  34  35
ATOM     35  C   UNL A   1      40.691  27.778  28.620  1.00  0.00     0.031 A 
ATOM     36  C   UNL A   1      41.026  26.382  28.249  1.00  0.00     0.074 A 
ATOM     37  C   UNL A   1      41.657  28.562  29.149  1.00  0.00     0.049 A 
ATOM     38  N   UNL A   1      42.023  25.711  28.725  1.00  0.00    -0.248 NA
ATOM     39  C   UNL A   1      40.191  25.595  27.352  1.00  0.00     0.031 C 
ATOM     40  C   UNL A   1      43.094  28.307  29.131  1.00  0.00     0.029 A 
ATOM     41  N   UNL A   1      41.519  29.660  29.989  1.00  0.00    -0.354 N 
ATOM     42  C   UNL A   1      42.135  24.540  28.005  1.00  0.00     0.074 A 
ATOM     43  C   UNL A   1      40.917  24.480  27.233  1.00  0.00     0.031 C 
ATOM     44  C   UNL A   1      43.682  29.051  30.078  1.00  0.00     0.029 A 
ATOM     45  C   UNL A   1      42.634  29.708  30.837  1.00  0.00     0.049 A 
ATOM     46  H   UNL A   1      40.767  30.295  29.989  1.00  0.00     0.167 HD
ATOM     47  C   UNL A   1      43.307  23.838  28.051  1.00  0.00     0.037 A 
ATOM     48  C   UNL A   1      42.513  29.648  32.196  1.00  0.00     0.037 A 
ATOM     49  C   UNL A   1      44.213  24.393  29.063  1.00  0.00     0.049 A 
ATOM     50  C   UNL A   1      43.189  28.456  32.831  1.00  0.00     0.074 A 
ATOM     51  C   UNL A   1      45.314  25.230  28.984  1.00  0.00     0.029 A 
ATOM     52  N   UNL A   1      43.876  24.317  30.411  1.00  0.00    -0.354 N 
ATOM     53  N   UNL A   1      43.618  27.420  32.166  1.00  0.00    -0.248 NA
ATOM     54  C   UNL A   1      43.407  28.317  34.270  1.00  0.00     0.031 C 
ATOM     55  C   UNL A   1      45.611  25.697  30.288  1.00  0.00     0.029 A 
ATOM     56  C   UNL A   1      44.698  25.136  31.165  1.00  0.00     0.049 A 
ATOM     57  H   UNL A   1      43.154  23.758  30.778  1.00  0.00     0.167 HD
ATOM     58  C   UNL A   1      44.097  26.476  33.038  1.00  0.00     0.074 A 
ATOM     59  C   UNL A   1      43.982  27.103  34.340  1.00  0.00     0.031 C 
ATOM     60  C   UNL A   1      44.525  25.251  32.608  1.00  0.00     0.037 A 
BRANCH  47  61
ATOM     61  C   UNL A   1      43.766  22.850  26.981  1.00  0.00     0.058 A 
ATOM     62  C   UNL A   1      43.017  21.678  26.711  1.00  0.00     0.135 A 
ATOM     63  C   UNL A   1      44.967  22.932  26.248  1.00  0.00     0.135 A 
ATOM     64  F   UNL A   1      41.791  21.496  27.220  1.00  0.00    -0.206 F 
ATOM     65  C   UNL A   1      43.485  20.632  25.908  1.00  0.00     0.059 A 
ATOM     66  C   UNL A   1      45.481  21.883  25.479  1.00  0.00     0.059 A 
ATOM     67  F   UNL A   1      45.678  24.061  26.183  1.00  0.00    -0.206 F 
ATOM     68  C   UNL A   1      44.741  20.723  25.330  1.00  0.00     0.060 A 
BRANCH  68  69
ATOM     69  S   UNL A   1      45.379  19.337  24.371  1.00  0.00     0.124 S 
ATOM     70  O   UNL A   1      45.084  18.202  25.241  1.00  0.00    -0.237 OA
ATOM     71  O   UNL A   1      44.590  19.423  23.147  1.00  0.00    -0.237 OA
ATOM     72  O   UNL A   1      46.798  19.650  24.222  1.00  0.00    -0.744 OA
ENDBRANCH  68  69
ENDBRANCH  47  61
BRANCH  48  73
ATOM     73  C   UNL A   1      41.292  30.318  32.712  1.00  0.00     0.058 A 
ATOM     74  C   UNL A   1      40.204  29.498  33.063  1.00  0.00     0.135 A 
ATOM     75  C   UNL A   1      41.345  31.605  33.266  1.00  0.00     0.135 A 
ATOM     76  F   UNL A   1      40.099  28.264  32.543  1.00  0.00    -0.206 F 
ATOM     77  C   UNL A   1      39.307  29.866  34.056  1.00  0.00     0.059 A 
ATOM     78  C   UNL A   1      40.450  31.998  34.263  1.00  0.00     0.059 A 
ATOM     79  F   UNL A   1      42.356  32.431  32.961  1.00  0.00    -0.206 F 
ATOM     80  C   UNL A   1      39.484  31.089  34.699  1.00  0.00     0.060 A 
BRANCH  80  81
ATOM     81  S   UNL A   1      38.575  31.359  36.238  1.00  0.00     0.124 S 
ATOM     82  O   UNL A   1      39.564  32.051  37.057  1.00  0.00    -0.237 OA
ATOM     83  O   UNL A   1      37.456  32.178  35.774  1.00  0.00    -0.237 OA
ATOM     84  O   UNL A   1      38.229  30.009  36.666  1.00  0.00    -0.744 OA
ENDBRANCH  80  81
ENDBRANCH  48  73
BRANCH  60  85
ATOM     85  C   UNL A   1      44.900  24.081  33.489  1.00  0.00     0.058 A 
ATOM     86  C   UNL A   1      44.063  22.980  33.742  1.00  0.00     0.135 A 
ATOM     87  C   UNL A   1      46.211  23.979  34.018  1.00  0.00     0.135 A 
ATOM     88  F   UNL A   1      42.839  22.898  33.203  1.00  0.00    -0.206 F 
ATOM     89  C   UNL A   1      44.467  21.891  34.519  1.00  0.00     0.059 A 
ATOM     90  C   UNL A   1      46.651  22.879  34.750  1.00  0.00     0.059 A 
ATOM     91  F   UNL A   1      47.116  24.950  33.830  1.00  0.00    -0.206 F 
ATOM     92  C   UNL A   1      45.763  21.849  35.021  1.00  0.00     0.060 A 
BRANCH  92  93
ATOM     93  S   UNL A   1      46.322  20.422  35.972  1.00  0.00     0.124 S 
ATOM     94  O   UNL A   1      45.720  19.320  35.227  1.00  0.00    -0.237 OA
ATOM     95  O   UNL A   1      47.777  20.518  35.885  1.00  0.00    -0.237 OA
ATOM     96  O   UNL A   1      45.765  20.671  37.298  1.00  0.00    -0.744 OA
ENDBRANCH  92  93
ENDBRANCH  60  85
ENDBRANCH  34  35
ENDBRANCH  26  29
ENDBRANCH  24  25
ENDBRANCH   1  24
TORSDOF 16
ENDMDL
