MODEL 1
REMARK VINA RESULT:     -13.1      0.000      0.000
REMARK SMILES Cn1cc([C@@H]2CC(NCCCNC(=O)c3ccc(-c4c5nc(c(-c6c(F)cc(S(=O)(=O)[O-])cc6F)c6ccc([nH]6)c(-c6c(F)cc(S(=O)(=O)[O-])cc6F)c6nc(c(-c7c(F)cc(S(=O)(=O)[O-])cc7F)c7ccc4[nH]7)C=C6)C=C5)cc3)=[NH+]c3c2sc(C(=O)[O-])c3-c2ccc(Cl)cc2)cn1
REMARK SMILES IDX 12 1 13 2 14 3 11 5 10 6 9 7 8 8 5 9 6 10 83 11 7 12 82 13
REMARK SMILES IDX 84 14 81 15 89 16 85 17 4 20 1 21 2 22 3 23 98 24 97 25
REMARK SMILES IDX 90 26 91 27 96 28 92 29 95 30 93 31 94 32 86 33 87 34 88 35
REMARK SMILES IDX 15 36 16 37 80 38 17 39 79 40 18 41 19 42 20 43 73 44 21 45
REMARK SMILES IDX 78 46 72 47 74 48 22 49 77 50 71 51 70 52 23 54 57 55 36 56
REMARK SMILES IDX 56 57 37 58 40 59 55 60 75 61 38 62 39 63 54 65 76 66 41 67
REMARK SMILES IDX 24 68 25 69 34 70 26 71 27 72 33 73 35 74 28 75 29 76 30 77
REMARK SMILES IDX 31 78 32 79 58 80 59 81 68 82 60 83 61 84 67 85 69 86 62 87
REMARK SMILES IDX 63 88 64 89 65 90 66 91 42 92 43 93 52 94 44 95 45 96 51 97
REMARK SMILES IDX 53 98 46 99 47 100 48 101 49 102 50 103
REMARK H PARENT 12 4 8 18 81 19 74 53 40 64
REMARK Flexibility Score: inf
ROOT
ATOM      1  N   UNL A   1      41.314  22.873  26.355  1.00  0.00    -0.352 N 
ATOM      2  C   UNL A   1      42.219  23.770  25.803  1.00  0.00     0.251 C 
ATOM      3  O   UNL A   1      42.986  23.422  24.914  1.00  0.00    -0.269 OA
ATOM      4  H   UNL A   1      41.507  21.920  26.205  1.00  0.00     0.163 HD
ENDROOT
BRANCH   1   5
ATOM      5  C   UNL A   1      40.104  23.170  27.137  1.00  0.00     0.120 C 
BRANCH   5   6
ATOM      6  C   UNL A   1      39.294  24.327  26.585  1.00  0.00     0.067 C 
BRANCH   6   7
ATOM      7  C   UNL A   1      37.788  24.100  26.719  1.00  0.00     0.235 C 
BRANCH   7   8
ATOM      8  N   UNL A   1      37.387  22.773  26.262  1.00  0.00    -0.278 N 
ATOM      9  C   UNL A   1      34.757  20.869  24.172  1.00  0.00     0.079 C 
ATOM     10  C   UNL A   1      36.024  21.118  25.011  1.00  0.00     0.142 C 
ATOM     11  C   UNL A   1      33.949  22.117  24.048  1.00  0.00     0.061 A 
ATOM     12  C   UNL A   1      36.217  22.536  25.565  1.00  0.00     0.248 C 
ATOM     13  C   UNL A   1      34.251  23.304  24.641  1.00  0.00     0.147 A 
ATOM     14  S   UNL A   1      32.527  22.242  23.122  1.00  0.00    -0.133 S 
ATOM     15  N   UNL A   1      35.385  23.523  25.410  1.00  0.00    -0.243 N 
ATOM     16  C   UNL A   1      33.313  24.349  24.386  1.00  0.00     0.049 A 
ATOM     17  C   UNL A   1      32.285  23.900  23.561  1.00  0.00     0.062 A 
ATOM     18  H   UNL A   1      37.978  22.011  26.460  1.00  0.00     0.304 HD
ATOM     19  H   UNL A   1      35.555  24.399  25.826  1.00  0.00     0.312 HD
BRANCH   9  20
ATOM     20  C   UNL A   1      33.922  19.735  24.699  1.00  0.00    -0.001 A 
ATOM     21  C   UNL A   1      32.797  16.346  25.220  1.00  0.00     0.173 C 
ATOM     22  N   UNL A   1      33.073  17.761  25.171  1.00  0.00    -0.276 N 
ATOM     23  C   UNL A   1      33.932  18.403  24.328  1.00  0.00     0.112 A 
ATOM     24  N   UNL A   1      32.496  18.580  26.066  1.00  0.00    -0.182 NA
ATOM     25  C   UNL A   1      32.992  19.780  25.766  1.00  0.00     0.139 A 
ENDBRANCH   9  20
BRANCH  16  26
ATOM     26  C   UNL A   1      33.447  25.718  24.876  1.00  0.00    -0.012 A 
ATOM     27  C   UNL A   1      33.944  26.739  24.058  1.00  0.00     0.010 A 
ATOM     28  C   UNL A   1      33.026  26.023  26.180  1.00  0.00     0.010 A 
ATOM     29  C   UNL A   1      34.083  28.035  24.562  1.00  0.00     0.021 A 
ATOM     30  C   UNL A   1      33.150  27.320  26.678  1.00  0.00     0.021 A 
ATOM     31  C   UNL A   1      33.694  28.317  25.872  1.00  0.00     0.041 A 
ATOM     32  Cl  UNL A   1      33.892  29.907  26.500  1.00  0.00    -0.084 Cl
ENDBRANCH  16  26
BRANCH  17  33
ATOM     33  C   UNL A   1      31.112  24.545  23.002  1.00  0.00     0.082 C 
ATOM     34  O   UNL A   1      29.939  24.364  23.278  1.00  0.00    -0.544 OA
ATOM     35  O   UNL A   1      31.412  25.449  22.041  1.00  0.00    -0.544 OA
ENDBRANCH  17  33
ENDBRANCH   7   8
ENDBRANCH   6   7
ENDBRANCH   5   6
ENDBRANCH   1   5
BRANCH   2  36
ATOM     36  C   UNL A   1      42.238  25.146  26.326  1.00  0.00     0.039 A 
ATOM     37  C   UNL A   1      41.695  26.233  25.636  1.00  0.00     0.014 A 
ATOM     38  C   UNL A   1      42.770  25.309  27.597  1.00  0.00     0.014 A 
ATOM     39  C   UNL A   1      41.628  27.465  26.287  1.00  0.00     0.010 A 
ATOM     40  C   UNL A   1      42.462  26.426  28.314  1.00  0.00     0.010 A 
ATOM     41  C   UNL A   1      42.001  27.543  27.639  1.00  0.00    -0.014 A 
BRANCH  41  42
ATOM     42  C   UNL A   1      41.845  28.755  28.432  1.00  0.00     0.031 A 
ATOM     43  C   UNL A   1      42.941  29.734  28.228  1.00  0.00     0.074 A 
ATOM     44  C   UNL A   1      40.682  29.057  29.059  1.00  0.00     0.049 A 
ATOM     45  N   UNL A   1      43.912  30.009  29.032  1.00  0.00    -0.248 NA
ATOM     46  C   UNL A   1      43.099  30.335  26.890  1.00  0.00     0.031 C 
ATOM     47  C   UNL A   1      39.408  28.318  29.006  1.00  0.00     0.029 A 
ATOM     48  N   UNL A   1      40.348  30.153  29.796  1.00  0.00    -0.354 N 
ATOM     49  C   UNL A   1      44.619  31.041  28.418  1.00  0.00     0.074 A 
ATOM     50  C   UNL A   1      44.246  31.005  27.030  1.00  0.00     0.031 C 
ATOM     51  C   UNL A   1      38.402  29.095  29.464  1.00  0.00     0.029 A 
ATOM     52  C   UNL A   1      38.979  30.296  30.033  1.00  0.00     0.049 A 
ATOM     53  H   UNL A   1      41.016  30.792  30.133  1.00  0.00     0.167 HD
ATOM     54  C   UNL A   1      45.172  32.039  29.165  1.00  0.00     0.037 A 
ATOM     55  C   UNL A   1      38.367  31.322  30.673  1.00  0.00     0.037 A 
ATOM     56  C   UNL A   1      45.123  31.692  30.564  1.00  0.00     0.049 A 
ATOM     57  C   UNL A   1      39.401  31.983  31.503  1.00  0.00     0.074 A 
ATOM     58  C   UNL A   1      45.791  30.829  31.404  1.00  0.00     0.029 A 
ATOM     59  N   UNL A   1      43.933  32.015  31.165  1.00  0.00    -0.354 N 
ATOM     60  N   UNL A   1      40.008  31.390  32.496  1.00  0.00    -0.248 NA
ATOM     61  C   UNL A   1      40.064  33.176  30.990  1.00  0.00     0.031 C 
ATOM     62  C   UNL A   1      44.872  30.501  32.444  1.00  0.00     0.029 A 
ATOM     63  C   UNL A   1      43.691  31.215  32.250  1.00  0.00     0.049 A 
ATOM     64  H   UNL A   1      43.331  32.730  30.856  1.00  0.00     0.167 HD
ATOM     65  C   UNL A   1      41.302  31.871  32.449  1.00  0.00     0.074 A 
ATOM     66  C   UNL A   1      41.235  33.074  31.626  1.00  0.00     0.031 C 
ATOM     67  C   UNL A   1      42.357  31.080  32.801  1.00  0.00     0.037 A 
BRANCH  54  68
ATOM     68  C   UNL A   1      45.305  33.491  28.742  1.00  0.00     0.058 A 
ATOM     69  C   UNL A   1      46.573  34.111  28.814  1.00  0.00     0.135 A 
ATOM     70  C   UNL A   1      44.218  34.371  28.548  1.00  0.00     0.135 A 
ATOM     71  F   UNL A   1      47.682  33.378  29.007  1.00  0.00    -0.206 F 
ATOM     72  C   UNL A   1      46.739  35.498  28.755  1.00  0.00     0.059 A 
ATOM     73  C   UNL A   1      44.366  35.750  28.437  1.00  0.00     0.059 A 
ATOM     74  F   UNL A   1      42.947  33.957  28.554  1.00  0.00    -0.206 F 
ATOM     75  C   UNL A   1      45.624  36.310  28.576  1.00  0.00     0.060 A 
BRANCH  75  76
ATOM     76  S   UNL A   1      45.818  38.101  28.565  1.00  0.00     0.124 S 
ATOM     77  O   UNL A   1      46.623  38.317  29.761  1.00  0.00    -0.237 OA
ATOM     78  O   UNL A   1      46.491  38.323  27.290  1.00  0.00    -0.237 OA
ATOM     79  O   UNL A   1      44.443  38.587  28.633  1.00  0.00    -0.744 OA
ENDBRANCH  75  76
ENDBRANCH  54  68
BRANCH  55  80
ATOM     80  C   UNL A   1      37.038  31.935  30.410  1.00  0.00     0.058 A 
ATOM     81  C   UNL A   1      36.042  31.996  31.402  1.00  0.00     0.135 A 
ATOM     82  C   UNL A   1      36.834  32.740  29.273  1.00  0.00     0.135 A 
ATOM     83  F   UNL A   1      36.167  31.274  32.525  1.00  0.00    -0.206 F 
ATOM     84  C   UNL A   1      34.934  32.846  31.296  1.00  0.00     0.059 A 
ATOM     85  C   UNL A   1      35.737  33.595  29.145  1.00  0.00     0.059 A 
ATOM     86  F   UNL A   1      37.751  32.786  28.294  1.00  0.00    -0.206 F 
ATOM     87  C   UNL A   1      34.802  33.660  30.171  1.00  0.00     0.060 A 
BRANCH  87  88
ATOM     88  S   UNL A   1      33.466  34.883  30.112  1.00  0.00     0.124 S 
ATOM     89  O   UNL A   1      32.587  34.319  29.094  1.00  0.00    -0.237 OA
ATOM     90  O   UNL A   1      32.958  34.853  31.479  1.00  0.00    -0.237 OA
ATOM     91  O   UNL A   1      34.152  36.114  29.733  1.00  0.00    -0.744 OA
ENDBRANCH  87  88
ENDBRANCH  55  80
BRANCH  67  92
ATOM     92  C   UNL A   1      42.092  29.926  33.725  1.00  0.00     0.058 A 
ATOM     93  C   UNL A   1      41.752  28.622  33.327  1.00  0.00     0.135 A 
ATOM     94  C   UNL A   1      42.290  30.148  35.096  1.00  0.00     0.135 A 
ATOM     95  F   UNL A   1      41.620  28.310  32.030  1.00  0.00    -0.206 F 
ATOM     96  C   UNL A   1      41.589  27.592  34.257  1.00  0.00     0.059 A 
ATOM     97  C   UNL A   1      42.164  29.134  36.036  1.00  0.00     0.059 A 
ATOM     98  F   UNL A   1      42.661  31.363  35.532  1.00  0.00    -0.206 F 
ATOM     99  C   UNL A   1      41.798  27.859  35.611  1.00  0.00     0.060 A 
BRANCH  99 100
ATOM    100  S   UNL A   1      41.643  26.521  36.815  1.00  0.00     0.124 S 
ATOM    101  O   UNL A   1      40.416  26.882  37.517  1.00  0.00    -0.237 OA
ATOM    102  O   UNL A   1      41.563  25.338  35.964  1.00  0.00    -0.237 OA
ATOM    103  O   UNL A   1      42.868  26.629  37.604  1.00  0.00    -0.744 OA
ENDBRANCH  99 100
ENDBRANCH  67  92
ENDBRANCH  41  42
ENDBRANCH   2  36
TORSDOF 15
ENDMDL
MODEL 2
REMARK VINA RESULT:     -12.7      3.086      9.075
REMARK SMILES Cn1cc([C@@H]2CC(NCCCNC(=O)c3ccc(-c4c5nc(c(-c6c(F)cc(S(=O)(=O)[O-])cc6F)c6ccc([nH]6)c(-c6c(F)cc(S(=O)(=O)[O-])cc6F)c6nc(c(-c7c(F)cc(S(=O)(=O)[O-])cc7F)c7ccc4[nH]7)C=C6)C=C5)cc3)=[NH+]c3c2sc(C(=O)[O-])c3-c2ccc(Cl)cc2)cn1
REMARK SMILES IDX 12 1 13 2 14 3 11 5 10 6 9 7 8 8 5 9 6 10 83 11 7 12 82 13
REMARK SMILES IDX 84 14 81 15 89 16 85 17 4 20 1 21 2 22 3 23 98 24 97 25
REMARK SMILES IDX 90 26 91 27 96 28 92 29 95 30 93 31 94 32 86 33 87 34 88 35
REMARK SMILES IDX 15 36 16 37 80 38 17 39 79 40 18 41 19 42 20 43 73 44 21 45
REMARK SMILES IDX 78 46 72 47 74 48 22 49 77 50 71 51 70 52 23 54 57 55 36 56
REMARK SMILES IDX 56 57 37 58 40 59 55 60 75 61 38 62 39 63 54 65 76 66 41 67
REMARK SMILES IDX 24 68 25 69 34 70 26 71 27 72 33 73 35 74 28 75 29 76 30 77
REMARK SMILES IDX 31 78 32 79 58 80 59 81 68 82 60 83 61 84 67 85 69 86 62 87
REMARK SMILES IDX 63 88 64 89 65 90 66 91 42 92 43 93 52 94 44 95 45 96 51 97
REMARK SMILES IDX 53 98 46 99 47 100 48 101 49 102 50 103
REMARK H PARENT 12 4 8 18 81 19 74 53 40 64
REMARK Flexibility Score: inf
ROOT
ATOM      1  N   UNL A   1      33.935  31.692  28.484  1.00  0.00    -0.352 N 
ATOM      2  C   UNL A   1      34.813  31.830  29.550  1.00  0.00     0.251 C 
ATOM      3  O   UNL A   1      34.458  32.366  30.592  1.00  0.00    -0.269 OA
ATOM      4  H   UNL A   1      33.140  32.273  28.504  1.00  0.00     0.163 HD
ENDROOT
BRANCH   1   5
ATOM      5  C   UNL A   1      34.043  30.786  27.329  1.00  0.00     0.120 C 
BRANCH   5   6
ATOM      6  C   UNL A   1      32.704  30.426  26.715  1.00  0.00     0.067 C 
BRANCH   6   7
ATOM      7  C   UNL A   1      32.090  29.178  27.351  1.00  0.00     0.235 C 
BRANCH   7   8
ATOM      8  N   UNL A   1      33.027  28.061  27.394  1.00  0.00    -0.278 N 
ATOM      9  C   UNL A   1      34.708  25.327  25.245  1.00  0.00     0.079 C 
ATOM     10  C   UNL A   1      34.397  26.207  26.470  1.00  0.00     0.142 C 
ATOM     11  C   UNL A   1      33.813  25.673  24.103  1.00  0.00     0.061 A 
ATOM     12  C   UNL A   1      33.261  27.227  26.316  1.00  0.00     0.248 C 
ATOM     13  C   UNL A   1      32.816  26.598  24.145  1.00  0.00     0.147 A 
ATOM     14  S   UNL A   1      33.924  24.965  22.560  1.00  0.00    -0.133 S 
ATOM     15  N   UNL A   1      32.526  27.380  25.254  1.00  0.00    -0.243 N 
ATOM     16  C   UNL A   1      32.086  26.737  22.926  1.00  0.00     0.049 A 
ATOM     17  C   UNL A   1      32.583  25.878  21.950  1.00  0.00     0.062 A 
ATOM     18  H   UNL A   1      33.518  27.893  28.231  1.00  0.00     0.304 HD
ATOM     19  H   UNL A   1      31.787  28.031  25.238  1.00  0.00     0.312 HD
BRANCH   9  20
ATOM     20  C   UNL A   1      34.646  23.856  25.554  1.00  0.00    -0.001 A 
ATOM     21  C   UNL A   1      33.255  20.541  25.863  1.00  0.00     0.173 C 
ATOM     22  N   UNL A   1      34.019  21.763  25.811  1.00  0.00    -0.276 N 
ATOM     23  C   UNL A   1      33.543  23.022  25.590  1.00  0.00     0.112 A 
ATOM     24  N   UNL A   1      35.357  21.714  25.928  1.00  0.00    -0.182 NA
ATOM     25  C   UNL A   1      35.735  22.985  25.795  1.00  0.00     0.139 A 
ENDBRANCH   9  20
BRANCH  16  26
ATOM     26  C   UNL A   1      31.003  27.695  22.716  1.00  0.00    -0.012 A 
ATOM     27  C   UNL A   1      31.233  28.930  22.099  1.00  0.00     0.010 A 
ATOM     28  C   UNL A   1      29.698  27.349  23.100  1.00  0.00     0.010 A 
ATOM     29  C   UNL A   1      30.182  29.836  21.933  1.00  0.00     0.021 A 
ATOM     30  C   UNL A   1      28.646  28.247  22.920  1.00  0.00     0.021 A 
ATOM     31  C   UNL A   1      28.897  29.494  22.352  1.00  0.00     0.041 A 
ATOM     32  Cl  UNL A   1      27.609  30.621  22.172  1.00  0.00    -0.084 Cl
ENDBRANCH  16  26
BRANCH  17  33
ATOM     33  C   UNL A   1      32.220  25.634  20.568  1.00  0.00     0.082 C 
ATOM     34  O   UNL A   1      31.226  26.002  19.964  1.00  0.00    -0.544 OA
ATOM     35  O   UNL A   1      33.131  24.886  19.904  1.00  0.00    -0.544 OA
ENDBRANCH  17  33
ENDBRANCH   7   8
ENDBRANCH   6   7
ENDBRANCH   5   6
ENDBRANCH   1   5
BRANCH   2  36
ATOM     36  C   UNL A   1      36.187  31.327  29.385  1.00  0.00     0.039 A 
ATOM     37  C   UNL A   1      37.277  32.156  29.108  1.00  0.00     0.014 A 
ATOM     38  C   UNL A   1      36.368  29.967  29.592  1.00  0.00     0.014 A 
ATOM     39  C   UNL A   1      38.556  31.600  29.124  1.00  0.00     0.010 A 
ATOM     40  C   UNL A   1      37.614  29.492  29.869  1.00  0.00     0.010 A 
ATOM     41  C   UNL A   1      38.712  30.263  29.526  1.00  0.00    -0.014 A 
BRANCH  41  42
ATOM     42  C   UNL A   1      40.016  29.637  29.695  1.00  0.00     0.031 A 
ATOM     43  C   UNL A   1      40.381  29.417  31.116  1.00  0.00     0.074 A 
ATOM     44  C   UNL A   1      40.678  29.067  28.658  1.00  0.00     0.049 A 
ATOM     45  N   UNL A   1      41.236  30.078  31.822  1.00  0.00    -0.248 NA
ATOM     46  C   UNL A   1      39.557  28.488  31.912  1.00  0.00     0.031 C 
ATOM     47  C   UNL A   1      40.214  28.906  27.269  1.00  0.00     0.029 A 
ATOM     48  N   UNL A   1      41.869  28.406  28.642  1.00  0.00    -0.354 N 
ATOM     49  C   UNL A   1      41.268  29.436  33.059  1.00  0.00     0.074 A 
ATOM     50  C   UNL A   1      40.056  28.669  33.138  1.00  0.00     0.031 C 
ATOM     51  C   UNL A   1      40.984  28.002  26.625  1.00  0.00     0.029 A 
ATOM     52  C   UNL A   1      42.110  27.675  27.476  1.00  0.00     0.049 A 
ATOM     53  H   UNL A   1      42.507  28.440  29.390  1.00  0.00     0.167 HD
ATOM     54  C   UNL A   1      42.440  29.323  33.747  1.00  0.00     0.037 A 
ATOM     55  C   UNL A   1      43.175  26.876  27.222  1.00  0.00     0.037 A 
ATOM     56  C   UNL A   1      43.451  30.152  33.137  1.00  0.00     0.049 A 
ATOM     57  C   UNL A   1      44.254  27.300  28.144  1.00  0.00     0.074 A 
ATOM     58  C   UNL A   1      43.736  31.497  33.073  1.00  0.00     0.029 A 
ATOM     59  N   UNL A   1      44.102  29.542  32.094  1.00  0.00    -0.354 N 
ATOM     60  N   UNL A   1      44.808  28.483  28.101  1.00  0.00    -0.248 NA
ATOM     61  C   UNL A   1      44.456  26.562  29.385  1.00  0.00     0.031 C 
ATOM     62  C   UNL A   1      44.428  31.695  31.841  1.00  0.00     0.029 A 
ATOM     63  C   UNL A   1      44.604  30.463  31.215  1.00  0.00     0.049 A 
ATOM     64  H   UNL A   1      44.195  28.567  31.992  1.00  0.00     0.167 HD
ATOM     65  C   UNL A   1      45.053  28.799  29.424  1.00  0.00     0.074 A 
ATOM     66  C   UNL A   1      44.976  27.533  30.142  1.00  0.00     0.031 C 
ATOM     67  C   UNL A   1      44.968  30.089  29.862  1.00  0.00     0.037 A 
BRANCH  54  68
ATOM     68  C   UNL A   1      42.840  28.153  34.627  1.00  0.00     0.058 A 
ATOM     69  C   UNL A   1      43.098  28.384  35.997  1.00  0.00     0.135 A 
ATOM     70  C   UNL A   1      43.255  26.893  34.143  1.00  0.00     0.135 A 
ATOM     71  F   UNL A   1      42.758  29.551  36.569  1.00  0.00    -0.206 F 
ATOM     72  C   UNL A   1      43.767  27.459  36.805  1.00  0.00     0.059 A 
ATOM     73  C   UNL A   1      43.877  25.938  34.942  1.00  0.00     0.059 A 
ATOM     74  F   UNL A   1      43.171  26.554  32.853  1.00  0.00    -0.206 F 
ATOM     75  C   UNL A   1      44.160  26.241  36.262  1.00  0.00     0.060 A 
BRANCH  75  76
ATOM     76  S   UNL A   1      45.080  25.069  37.276  1.00  0.00     0.124 S 
ATOM     77  O   UNL A   1      44.543  25.343  38.603  1.00  0.00    -0.237 OA
ATOM     78  O   UNL A   1      44.700  23.793  36.681  1.00  0.00    -0.237 OA
ATOM     79  O   UNL A   1      46.470  25.463  37.064  1.00  0.00    -0.744 OA
ENDBRANCH  75  76
ENDBRANCH  54  68
BRANCH  55  80
ATOM     80  C   UNL A   1      43.235  25.610  26.446  1.00  0.00     0.058 A 
ATOM     81  C   UNL A   1      44.155  25.428  25.397  1.00  0.00     0.135 A 
ATOM     82  C   UNL A   1      42.595  24.448  26.921  1.00  0.00     0.135 A 
ATOM     83  F   UNL A   1      44.822  26.479  24.898  1.00  0.00    -0.206 F 
ATOM     84  C   UNL A   1      44.461  24.161  24.884  1.00  0.00     0.059 A 
ATOM     85  C   UNL A   1      42.883  23.176  26.425  1.00  0.00     0.059 A 
ATOM     86  F   UNL A   1      41.736  24.514  27.951  1.00  0.00    -0.206 F 
ATOM     87  C   UNL A   1      43.835  23.036  25.421  1.00  0.00     0.060 A 
BRANCH  87  88
ATOM     88  S   UNL A   1      44.356  21.387  24.881  1.00  0.00     0.124 S 
ATOM     89  O   UNL A   1      44.533  21.582  23.446  1.00  0.00    -0.237 OA
ATOM     90  O   UNL A   1      45.577  21.180  25.651  1.00  0.00    -0.237 OA
ATOM     91  O   UNL A   1      43.232  20.537  25.261  1.00  0.00    -0.744 OA
ENDBRANCH  87  88
ENDBRANCH  55  80
BRANCH  67  92
ATOM     92  C   UNL A   1      45.148  31.188  28.854  1.00  0.00     0.058 A 
ATOM     93  C   UNL A   1      46.372  31.595  28.299  1.00  0.00     0.135 A 
ATOM     94  C   UNL A   1      43.984  31.794  28.358  1.00  0.00     0.135 A 
ATOM     95  F   UNL A   1      47.523  31.012  28.663  1.00  0.00    -0.206 F 
ATOM     96  C   UNL A   1      46.436  32.584  27.314  1.00  0.00     0.059 A 
ATOM     97  C   UNL A   1      44.019  32.757  27.358  1.00  0.00     0.059 A 
ATOM     98  F   UNL A   1      42.781  31.412  28.818  1.00  0.00    -0.206 F 
ATOM     99  C   UNL A   1      45.252  33.159  26.850  1.00  0.00     0.060 A 
BRANCH  99 100
ATOM    100  S   UNL A   1      45.321  34.399  25.538  1.00  0.00     0.124 S 
ATOM    101  O   UNL A   1      44.664  35.542  26.163  1.00  0.00    -0.237 OA
ATOM    102  O   UNL A   1      46.756  34.538  25.309  1.00  0.00    -0.237 OA
ATOM    103  O   UNL A   1      44.581  33.777  24.442  1.00  0.00    -0.744 OA
ENDBRANCH  99 100
ENDBRANCH  67  92
ENDBRANCH  41  42
ENDBRANCH   2  36
TORSDOF 15
ENDMDL
MODEL 3
REMARK VINA RESULT:     -12.7      3.729      9.801
REMARK SMILES Cn1cc([C@@H]2CC(NCCCNC(=O)c3ccc(-c4c5nc(c(-c6c(F)cc(S(=O)(=O)[O-])cc6F)c6ccc([nH]6)c(-c6c(F)cc(S(=O)(=O)[O-])cc6F)c6nc(c(-c7c(F)cc(S(=O)(=O)[O-])cc7F)c7ccc4[nH]7)C=C6)C=C5)cc3)=[NH+]c3c2sc(C(=O)[O-])c3-c2ccc(Cl)cc2)cn1
REMARK SMILES IDX 12 1 13 2 14 3 11 5 10 6 9 7 8 8 5 9 6 10 83 11 7 12 82 13
REMARK SMILES IDX 84 14 81 15 89 16 85 17 4 20 1 21 2 22 3 23 98 24 97 25
REMARK SMILES IDX 90 26 91 27 96 28 92 29 95 30 93 31 94 32 86 33 87 34 88 35
REMARK SMILES IDX 15 36 16 37 80 38 17 39 79 40 18 41 19 42 20 43 73 44 21 45
REMARK SMILES IDX 78 46 72 47 74 48 22 49 77 50 71 51 70 52 23 54 57 55 36 56
REMARK SMILES IDX 56 57 37 58 40 59 55 60 75 61 38 62 39 63 54 65 76 66 41 67
REMARK SMILES IDX 24 68 25 69 34 70 26 71 27 72 33 73 35 74 28 75 29 76 30 77
REMARK SMILES IDX 31 78 32 79 58 80 59 81 68 82 60 83 61 84 67 85 69 86 62 87
REMARK SMILES IDX 63 88 64 89 65 90 66 91 42 92 43 93 52 94 44 95 45 96 51 97
REMARK SMILES IDX 53 98 46 99 47 100 48 101 49 102 50 103
REMARK H PARENT 12 4 8 18 81 19 74 53 40 64
REMARK Flexibility Score: inf
ROOT
ATOM      1  N   UNL A   1      35.444  31.790  29.462  1.00  0.00    -0.352 N 
ATOM      2  C   UNL A   1      35.839  31.473  30.754  1.00  0.00     0.251 C 
ATOM      3  O   UNL A   1      35.161  31.806  31.718  1.00  0.00    -0.269 OA
ATOM      4  H   UNL A   1      34.774  32.507  29.380  1.00  0.00     0.163 HD
ENDROOT
BRANCH   1   5
ATOM      5  C   UNL A   1      35.901  31.187  28.199  1.00  0.00     0.120 C 
BRANCH   5   6
ATOM      6  C   UNL A   1      35.608  29.703  28.095  1.00  0.00     0.067 C 
BRANCH   6   7
ATOM      7  C   UNL A   1      35.274  29.275  26.666  1.00  0.00     0.235 C 
BRANCH   7   8
ATOM      8  N   UNL A   1      34.026  29.862  26.190  1.00  0.00    -0.278 N 
ATOM      9  C   UNL A   1      30.529  29.019  24.784  1.00  0.00     0.079 C 
ATOM     10  C   UNL A   1      31.694  29.861  25.338  1.00  0.00     0.142 C 
ATOM     11  C   UNL A   1      30.924  27.586  24.657  1.00  0.00     0.061 A 
ATOM     12  C   UNL A   1      33.004  29.118  25.632  1.00  0.00     0.248 C 
ATOM     13  C   UNL A   1      32.161  27.090  24.935  1.00  0.00     0.147 A 
ATOM     14  S   UNL A   1      29.869  26.349  24.159  1.00  0.00    -0.133 S 
ATOM     15  N   UNL A   1      33.214  27.852  25.419  1.00  0.00    -0.243 N 
ATOM     16  C   UNL A   1      32.298  25.686  24.717  1.00  0.00     0.049 A 
ATOM     17  C   UNL A   1      31.100  25.135  24.270  1.00  0.00     0.062 A 
ATOM     18  H   UNL A   1      33.906  30.837  26.272  1.00  0.00     0.304 HD
ATOM     19  H   UNL A   1      34.095  27.448  25.596  1.00  0.00     0.312 HD
BRANCH   9  20
ATOM     20  C   UNL A   1      29.994  29.550  23.483  1.00  0.00    -0.001 A 
ATOM     21  C   UNL A   1      28.029  31.568  21.228  1.00  0.00     0.173 C 
ATOM     22  N   UNL A   1      28.916  30.671  21.928  1.00  0.00    -0.276 N 
ATOM     23  C   UNL A   1      28.931  30.407  23.266  1.00  0.00     0.112 A 
ATOM     24  N   UNL A   1      29.891  30.042  21.251  1.00  0.00    -0.182 NA
ATOM     25  C   UNL A   1      30.531  29.344  22.189  1.00  0.00     0.139 A 
ENDBRANCH   9  20
BRANCH  16  26
ATOM     26  C   UNL A   1      33.514  24.923  24.987  1.00  0.00    -0.012 A 
ATOM     27  C   UNL A   1      33.733  24.317  26.230  1.00  0.00     0.010 A 
ATOM     28  C   UNL A   1      34.459  24.756  23.963  1.00  0.00     0.010 A 
ATOM     29  C   UNL A   1      34.917  23.613  26.466  1.00  0.00     0.021 A 
ATOM     30  C   UNL A   1      35.634  24.039  24.194  1.00  0.00     0.021 A 
ATOM     31  C   UNL A   1      35.864  23.485  25.451  1.00  0.00     0.041 A 
ATOM     32  Cl  UNL A   1      37.333  22.641  25.752  1.00  0.00    -0.084 Cl
ENDBRANCH  16  26
BRANCH  17  33
ATOM     33  C   UNL A   1      30.701  23.786  23.919  1.00  0.00     0.082 C 
ATOM     34  O   UNL A   1      30.406  23.338  22.824  1.00  0.00    -0.544 OA
ATOM     35  O   UNL A   1      30.653  22.954  24.985  1.00  0.00    -0.544 OA
ENDBRANCH  17  33
ENDBRANCH   7   8
ENDBRANCH   6   7
ENDBRANCH   5   6
ENDBRANCH   1   5
BRANCH   2  36
ATOM     36  C   UNL A   1      37.103  30.739  30.932  1.00  0.00     0.039 A 
ATOM     37  C   UNL A   1      37.167  29.350  31.074  1.00  0.00     0.014 A 
ATOM     38  C   UNL A   1      38.263  31.499  30.883  1.00  0.00     0.014 A 
ATOM     39  C   UNL A   1      38.421  28.741  31.082  1.00  0.00     0.010 A 
ATOM     40  C   UNL A   1      39.453  30.888  30.625  1.00  0.00     0.010 A 
ATOM     41  C   UNL A   1      39.561  29.525  30.837  1.00  0.00    -0.014 A 
BRANCH  41  42
ATOM     42  C   UNL A   1      40.895  28.956  30.702  1.00  0.00     0.031 A 
ATOM     43  C   UNL A   1      41.590  28.777  32.001  1.00  0.00     0.074 A 
ATOM     44  C   UNL A   1      41.323  28.397  29.544  1.00  0.00     0.049 A 
ATOM     45  N   UNL A   1      42.555  29.486  32.483  1.00  0.00    -0.248 NA
ATOM     46  C   UNL A   1      41.016  27.828  32.973  1.00  0.00     0.031 C 
ATOM     47  C   UNL A   1      40.556  28.193  28.301  1.00  0.00     0.029 A 
ATOM     48  N   UNL A   1      42.506  27.787  29.255  1.00  0.00    -0.354 N 
ATOM     49  C   UNL A   1      42.903  28.867  33.683  1.00  0.00     0.074 A 
ATOM     50  C   UNL A   1      41.778  28.051  34.048  1.00  0.00     0.031 C 
ATOM     51  C   UNL A   1      41.195  27.310  27.502  1.00  0.00     0.029 A 
ATOM     52  C   UNL A   1      42.502  27.047  28.070  1.00  0.00     0.049 A 
ATOM     53  H   UNL A   1      43.298  27.860  29.833  1.00  0.00     0.167 HD
ATOM     54  C   UNL A   1      44.206  28.815  34.080  1.00  0.00     0.037 A 
ATOM     55  C   UNL A   1      43.513  26.288  27.581  1.00  0.00     0.037 A 
ATOM     56  C   UNL A   1      45.010  29.675  33.245  1.00  0.00     0.049 A 
ATOM     57  C   UNL A   1      44.757  26.773  28.223  1.00  0.00     0.074 A 
ATOM     58  C   UNL A   1      45.211  31.030  33.107  1.00  0.00     0.029 A 
ATOM     59  N   UNL A   1      45.427  29.075  32.084  1.00  0.00    -0.354 N 
ATOM     60  N   UNL A   1      45.232  27.977  28.044  1.00  0.00    -0.248 NA
ATOM     61  C   UNL A   1      45.275  26.066  29.388  1.00  0.00     0.031 C 
ATOM     62  C   UNL A   1      45.588  31.235  31.746  1.00  0.00     0.029 A 
ATOM     63  C   UNL A   1      45.669  30.001  31.105  1.00  0.00     0.049 A 
ATOM     64  H   UNL A   1      45.537  28.103  31.970  1.00  0.00     0.167 HD
ATOM     65  C   UNL A   1      45.763  28.326  29.270  1.00  0.00     0.074 A 
ATOM     66  C   UNL A   1      45.913  27.070  29.996  1.00  0.00     0.031 C 
ATOM     67  C   UNL A   1      45.726  29.619  29.708  1.00  0.00     0.037 A 
BRANCH  54  68
ATOM     68  C   UNL A   1      44.852  27.678  34.850  1.00  0.00     0.058 A 
ATOM     69  C   UNL A   1      44.840  26.380  34.293  1.00  0.00     0.135 A 
ATOM     70  C   UNL A   1      45.220  27.742  36.213  1.00  0.00     0.135 A 
ATOM     71  F   UNL A   1      44.497  26.191  33.008  1.00  0.00    -0.206 F 
ATOM     72  C   UNL A   1      45.116  25.234  35.045  1.00  0.00     0.059 A 
ATOM     73  C   UNL A   1      45.546  26.619  36.966  1.00  0.00     0.059 A 
ATOM     74  F   UNL A   1      45.189  28.880  36.913  1.00  0.00    -0.206 F 
ATOM     75  C   UNL A   1      45.459  25.366  36.386  1.00  0.00     0.060 A 
BRANCH  75  76
ATOM     76  S   UNL A   1      45.751  23.892  37.381  1.00  0.00     0.124 S 
ATOM     77  O   UNL A   1      45.279  22.838  36.491  1.00  0.00    -0.237 OA
ATOM     78  O   UNL A   1      47.193  23.953  37.594  1.00  0.00    -0.237 OA
ATOM     79  O   UNL A   1      44.938  24.124  38.571  1.00  0.00    -0.744 OA
ENDBRANCH  75  76
ENDBRANCH  54  68
BRANCH  55  80
ATOM     80  C   UNL A   1      43.448  25.012  26.821  1.00  0.00     0.058 A 
ATOM     81  C   UNL A   1      43.968  24.899  25.519  1.00  0.00     0.135 A 
ATOM     82  C   UNL A   1      43.146  23.803  27.477  1.00  0.00     0.135 A 
ATOM     83  F   UNL A   1      44.299  26.001  24.830  1.00  0.00    -0.206 F 
ATOM     84  C   UNL A   1      44.222  23.658  24.921  1.00  0.00     0.059 A 
ATOM     85  C   UNL A   1      43.390  22.555  26.903  1.00  0.00     0.059 A 
ATOM     86  F   UNL A   1      42.690  23.807  28.740  1.00  0.00    -0.206 F 
ATOM     87  C   UNL A   1      43.950  22.489  25.632  1.00  0.00     0.060 A 
BRANCH  87  88
ATOM     88  S   UNL A   1      44.439  20.891  24.932  1.00  0.00     0.124 S 
ATOM     89  O   UNL A   1      45.711  20.645  25.602  1.00  0.00    -0.237 OA
ATOM     90  O   UNL A   1      43.332  20.028  25.331  1.00  0.00    -0.237 OA
ATOM     91  O   UNL A   1      44.528  21.161  23.501  1.00  0.00    -0.744 OA
ENDBRANCH  87  88
ENDBRANCH  55  80
BRANCH  67  92
ATOM     92  C   UNL A   1      45.616  30.706  28.677  1.00  0.00     0.058 A 
ATOM     93  C   UNL A   1      46.660  31.160  27.854  1.00  0.00     0.135 A 
ATOM     94  C   UNL A   1      44.342  31.250  28.457  1.00  0.00     0.135 A 
ATOM     95  F   UNL A   1      47.890  30.636  27.949  1.00  0.00    -0.206 F 
ATOM     96  C   UNL A   1      46.449  32.133  26.874  1.00  0.00     0.059 A 
ATOM     97  C   UNL A   1      44.101  32.196  27.469  1.00  0.00     0.059 A 
ATOM     98  F   UNL A   1      43.295  30.822  29.183  1.00  0.00    -0.206 F 
ATOM     99  C   UNL A   1      45.164  32.645  26.689  1.00  0.00     0.060 A 
BRANCH  99 100
ATOM    100  S   UNL A   1      44.870  33.863  25.388  1.00  0.00     0.124 S 
ATOM    101  O   UNL A   1      43.980  34.810  26.050  1.00  0.00    -0.237 OA
ATOM    102  O   UNL A   1      46.216  34.351  25.102  1.00  0.00    -0.237 OA
ATOM    103  O   UNL A   1      44.261  33.078  24.317  1.00  0.00    -0.744 OA
ENDBRANCH  99 100
ENDBRANCH  67  92
ENDBRANCH  41  42
ENDBRANCH   2  36
TORSDOF 15
ENDMDL
