MODEL 1
REMARK VINA RESULT:      -9.3      0.000      0.000
REMARK SMILES Cc1cc(C[N@@H+]2C[C@@H](C(=O)NCCCNC(=O)c3ccc(-c4c5nc(c(-c6c(F)cc(S(=O)(=O)[O-])cc6F)c6ccc([nH]6)c(-c6c(F)cc(S(=O)(=O)[O-])cc6F)c6nc(c(-c7c(F)cc(S(=O)(=O)[O-])cc7F)c7ccc4[nH]7)C=C6)C=C5)cc3)[C@H](C3CC3)C2)on1
REMARK SMILES IDX 13 1 12 2 11 3 9 4 10 5 8 7 6 8 7 9 88 10 84 12 5 13 4 14
REMARK SMILES IDX 1 15 2 16 3 17 90 18 89 19 85 20 86 21 87 22 14 23 15 24
REMARK SMILES IDX 16 25 17 27 18 28 19 29 83 30 20 31 82 32 21 33 22 34 23 35
REMARK SMILES IDX 76 36 24 37 81 38 75 39 77 40 25 41 80 42 74 43 73 44 26 46
REMARK SMILES IDX 60 47 39 48 59 49 40 50 43 51 58 52 78 53 41 54 42 55 57 57
REMARK SMILES IDX 79 58 44 59 27 60 28 61 37 62 29 63 30 64 36 65 38 66 31 67
REMARK SMILES IDX 32 68 33 69 34 70 35 71 61 72 62 73 71 74 63 75 64 76 70 77
REMARK SMILES IDX 72 78 65 79 66 80 67 81 68 82 69 83 45 84 46 85 55 86 47 87
REMARK SMILES IDX 48 88 54 89 56 90 49 91 50 92 51 93 52 94 53 95
REMARK H PARENT 11 6 6 11 15 26 77 45 43 56
REMARK Flexibility Score: inf
ROOT
ATOM      1  C   UNL A   1      42.146  21.938  25.849  1.00  0.00     0.042 C 
ENDROOT
BRANCH   1   2
ATOM      2  C   UNL A   1      42.883  23.189  26.334  1.00  0.00     0.117 C 
BRANCH   2   3
ATOM      3  N   UNL A   1      44.141  23.339  25.630  1.00  0.00    -0.356 N 
ATOM      4  C   UNL A   1      44.846  24.451  25.282  1.00  0.00     0.229 C 
ATOM      5  O   UNL A   1      45.723  24.276  24.432  1.00  0.00    -0.275 OA
ATOM      6  H   UNL A   1      44.557  22.491  25.355  1.00  0.00     0.163 HD
BRANCH   4   7
ATOM      7  C   UNL A   1      44.650  25.794  25.991  1.00  0.00     0.142 C 
ATOM      8  N   UNL A   1      44.454  28.173  25.731  1.00  0.00    -0.328 N 
ATOM      9  C   UNL A   1      44.089  26.903  25.108  1.00  0.00     0.276 C 
ATOM     10  C   UNL A   1      45.759  27.950  26.349  1.00  0.00     0.267 C 
ATOM     11  H   UNL A   1      44.521  28.915  25.034  1.00  0.00     0.348 HD
ATOM     12  C   UNL A   1      45.979  26.419  26.471  1.00  0.00     0.065 C 
BRANCH   8  13
ATOM     13  C   UNL A   1      43.423  28.750  26.609  1.00  0.00     0.341 C 
BRANCH  13  14
ATOM     14  C   UNL A   1      43.672  30.119  27.134  1.00  0.00     0.191 A 
ATOM     15  C   UNL A   1      43.960  33.140  29.166  1.00  0.00     0.070 C 
ATOM     16  C   UNL A   1      43.937  32.043  28.172  1.00  0.00     0.081 A 
ATOM     17  C   UNL A   1      43.639  30.680  28.388  1.00  0.00     0.078 A 
ATOM     18  N   UNL A   1      44.182  32.289  26.881  1.00  0.00    -0.085 NA
ATOM     19  O   UNL A   1      44.033  31.074  26.232  1.00  0.00    -0.355 OA
ENDBRANCH  13  14
ENDBRANCH   8  13
BRANCH  12  20
ATOM     20  C   UNL A   1      46.502  26.081  27.851  1.00  0.00    -0.001 C 
ATOM     21  C   UNL A   1      46.339  24.751  28.544  1.00  0.00     0.004 C 
ATOM     22  C   UNL A   1      47.691  25.171  28.047  1.00  0.00     0.004 C 
ENDBRANCH  12  20
ENDBRANCH   4   7
ENDBRANCH   2   3
ENDBRANCH   1   2
BRANCH   1  23
ATOM     23  C   UNL A   1      40.861  21.668  26.626  1.00  0.00     0.118 C 
BRANCH  23  24
ATOM     24  N   UNL A   1      39.681  21.973  25.829  1.00  0.00    -0.352 N 
ATOM     25  C   UNL A   1      38.842  23.057  25.902  1.00  0.00     0.251 C 
ATOM     26  H   UNL A   1      39.454  21.308  25.141  1.00  0.00     0.163 HD
ATOM     27  O   UNL A   1      37.753  23.018  25.337  1.00  0.00    -0.269 OA
BRANCH  25  28
ATOM     28  C   UNL A   1      39.246  24.259  26.662  1.00  0.00     0.039 A 
ATOM     29  C   UNL A   1      38.828  24.397  27.989  1.00  0.00     0.014 A 
ATOM     30  C   UNL A   1      40.013  25.261  26.061  1.00  0.00     0.014 A 
ATOM     31  C   UNL A   1      39.219  25.517  28.726  1.00  0.00     0.010 A 
ATOM     32  C   UNL A   1      40.467  26.336  26.819  1.00  0.00     0.010 A 
ATOM     33  C   UNL A   1      40.066  26.481  28.155  1.00  0.00    -0.014 A 
BRANCH  33  34
ATOM     34  C   UNL A   1      40.535  27.658  28.930  1.00  0.00     0.031 A 
ATOM     35  C   UNL A   1      41.874  27.620  29.615  1.00  0.00     0.074 A 
ATOM     36  C   UNL A   1      39.724  28.725  29.078  1.00  0.00     0.049 A 
ATOM     37  N   UNL A   1      42.417  28.497  30.418  1.00  0.00    -0.248 NA
ATOM     38  C   UNL A   1      42.702  26.422  29.390  1.00  0.00     0.031 C 
ATOM     39  C   UNL A   1      38.384  28.856  28.499  1.00  0.00     0.029 A 
ATOM     40  N   UNL A   1      39.898  29.895  29.774  1.00  0.00    -0.354 N 
ATOM     41  C   UNL A   1      43.634  27.951  30.810  1.00  0.00     0.074 A 
ATOM     42  C   UNL A   1      43.729  26.644  30.197  1.00  0.00     0.031 C 
ATOM     43  C   UNL A   1      37.866  30.044  28.851  1.00  0.00     0.029 A 
ATOM     44  C   UNL A   1      38.815  30.740  29.714  1.00  0.00     0.049 A 
ATOM     45  H   UNL A   1      40.722  30.109  30.270  1.00  0.00     0.167 HD
ATOM     46  C   UNL A   1      44.595  28.499  31.592  1.00  0.00     0.037 A 
ATOM     47  C   UNL A   1      38.604  31.935  30.302  1.00  0.00     0.037 A 
ATOM     48  C   UNL A   1      44.503  29.814  32.171  1.00  0.00     0.049 A 
ATOM     49  C   UNL A   1      39.687  32.523  31.166  1.00  0.00     0.074 A 
ATOM     50  C   UNL A   1      45.446  30.489  32.925  1.00  0.00     0.029 A 
ATOM     51  N   UNL A   1      43.402  30.652  32.062  1.00  0.00    -0.354 N 
ATOM     52  N   UNL A   1      40.860  32.021  31.472  1.00  0.00    -0.248 NA
ATOM     53  C   UNL A   1      39.424  33.841  31.759  1.00  0.00     0.031 C 
ATOM     54  C   UNL A   1      44.897  31.716  33.313  1.00  0.00     0.029 A 
ATOM     55  C   UNL A   1      43.634  31.829  32.754  1.00  0.00     0.049 A 
ATOM     56  H   UNL A   1      42.578  30.442  31.566  1.00  0.00     0.167 HD
ATOM     57  C   UNL A   1      41.485  32.974  32.269  1.00  0.00     0.074 A 
ATOM     58  C   UNL A   1      40.565  34.086  32.388  1.00  0.00     0.031 C 
ATOM     59  C   UNL A   1      42.710  32.932  32.849  1.00  0.00     0.037 A 
BRANCH  46  60
ATOM     60  C   UNL A   1      45.831  27.685  31.862  1.00  0.00     0.058 A 
ATOM     61  C   UNL A   1      46.973  27.783  31.051  1.00  0.00     0.135 A 
ATOM     62  C   UNL A   1      45.892  26.829  32.975  1.00  0.00     0.135 A 
ATOM     63  F   UNL A   1      46.967  28.573  29.966  1.00  0.00    -0.206 F 
ATOM     64  C   UNL A   1      48.122  27.044  31.318  1.00  0.00     0.059 A 
ATOM     65  C   UNL A   1      47.042  26.103  33.277  1.00  0.00     0.059 A 
ATOM     66  F   UNL A   1      44.831  26.695  33.784  1.00  0.00    -0.206 F 
ATOM     67  C   UNL A   1      48.147  26.208  32.435  1.00  0.00     0.060 A 
BRANCH  67  68
ATOM     68  S   UNL A   1      49.651  25.271  32.774  1.00  0.00     0.124 S 
ATOM     69  O   UNL A   1      50.482  26.279  33.426  1.00  0.00    -0.237 OA
ATOM     70  O   UNL A   1      49.163  24.199  33.637  1.00  0.00    -0.237 OA
ATOM     71  O   UNL A   1      50.099  24.850  31.450  1.00  0.00    -0.744 OA
ENDBRANCH  67  68
ENDBRANCH  46  60
BRANCH  47  72
ATOM     72  C   UNL A   1      37.321  32.657  30.082  1.00  0.00     0.058 A 
ATOM     73  C   UNL A   1      37.219  33.673  29.120  1.00  0.00     0.135 A 
ATOM     74  C   UNL A   1      36.171  32.344  30.823  1.00  0.00     0.135 A 
ATOM     75  F   UNL A   1      38.291  34.014  28.389  1.00  0.00    -0.206 F 
ATOM     76  C   UNL A   1      36.030  34.366  28.913  1.00  0.00     0.059 A 
ATOM     77  C   UNL A   1      34.963  33.003  30.616  1.00  0.00     0.059 A 
ATOM     78  F   UNL A   1      36.210  31.367  31.744  1.00  0.00    -0.206 F 
ATOM     79  C   UNL A   1      34.907  34.022  29.667  1.00  0.00     0.060 A 
BRANCH  79  80
ATOM     80  S   UNL A   1      33.360  34.902  29.365  1.00  0.00     0.124 S 
ATOM     81  O   UNL A   1      32.704  34.025  28.403  1.00  0.00    -0.237 OA
ATOM     82  O   UNL A   1      32.767  34.947  30.698  1.00  0.00    -0.237 OA
ATOM     83  O   UNL A   1      33.803  36.192  28.843  1.00  0.00    -0.744 OA
ENDBRANCH  79  80
ENDBRANCH  47  72
BRANCH  59  84
ATOM     84  C   UNL A   1      43.151  34.139  33.631  1.00  0.00     0.058 A 
ATOM     85  C   UNL A   1      43.664  35.282  33.001  1.00  0.00     0.135 A 
ATOM     86  C   UNL A   1      42.992  34.172  35.027  1.00  0.00     0.135 A 
ATOM     87  F   UNL A   1      43.843  35.299  31.671  1.00  0.00    -0.206 F 
ATOM     88  C   UNL A   1      44.020  36.413  33.729  1.00  0.00     0.059 A 
ATOM     89  C   UNL A   1      43.314  35.302  35.770  1.00  0.00     0.059 A 
ATOM     90  F   UNL A   1      42.497  33.107  35.677  1.00  0.00    -0.206 F 
ATOM     91  C   UNL A   1      43.837  36.415  35.113  1.00  0.00     0.060 A 
BRANCH  91  92
ATOM     92  S   UNL A   1      44.258  37.906  36.039  1.00  0.00     0.124 S 
ATOM     93  O   UNL A   1      45.680  37.700  36.295  1.00  0.00    -0.237 OA
ATOM     94  O   UNL A   1      43.932  38.965  35.090  1.00  0.00    -0.237 OA
ATOM     95  O   UNL A   1      43.393  37.834  37.212  1.00  0.00    -0.744 OA
ENDBRANCH  91  92
ENDBRANCH  59  84
ENDBRANCH  33  34
ENDBRANCH  25  28
ENDBRANCH  23  24
ENDBRANCH   1  23
TORSDOF 16
ENDMDL
MODEL 2
REMARK VINA RESULT:      -9.2      4.034     10.818
REMARK SMILES Cc1cc(C[N@@H+]2C[C@@H](C(=O)NCCCNC(=O)c3ccc(-c4c5nc(c(-c6c(F)cc(S(=O)(=O)[O-])cc6F)c6ccc([nH]6)c(-c6c(F)cc(S(=O)(=O)[O-])cc6F)c6nc(c(-c7c(F)cc(S(=O)(=O)[O-])cc7F)c7ccc4[nH]7)C=C6)C=C5)cc3)[C@H](C3CC3)C2)on1
REMARK SMILES IDX 13 1 12 2 11 3 9 4 10 5 8 7 6 8 7 9 88 10 84 12 5 13 4 14
REMARK SMILES IDX 1 15 2 16 3 17 90 18 89 19 85 20 86 21 87 22 14 23 15 24
REMARK SMILES IDX 16 25 17 27 18 28 19 29 83 30 20 31 82 32 21 33 22 34 23 35
REMARK SMILES IDX 76 36 24 37 81 38 75 39 77 40 25 41 80 42 74 43 73 44 26 46
REMARK SMILES IDX 60 47 39 48 59 49 40 50 43 51 58 52 78 53 41 54 42 55 57 57
REMARK SMILES IDX 79 58 44 59 27 60 28 61 37 62 29 63 30 64 36 65 38 66 31 67
REMARK SMILES IDX 32 68 33 69 34 70 35 71 61 72 62 73 71 74 63 75 64 76 70 77
REMARK SMILES IDX 72 78 65 79 66 80 67 81 68 82 69 83 45 84 46 85 55 86 47 87
REMARK SMILES IDX 48 88 54 89 56 90 49 91 50 92 51 93 52 94 53 95
REMARK H PARENT 11 6 6 11 15 26 77 45 43 56
REMARK Flexibility Score: inf
ROOT
ATOM      1  C   UNL A   1      34.102  28.250  24.974  1.00  0.00     0.042 C 
ENDROOT
BRANCH   1   2
ATOM      2  C   UNL A   1      32.754  28.269  24.251  1.00  0.00     0.117 C 
BRANCH   2   3
ATOM      3  N   UNL A   1      32.891  27.731  22.912  1.00  0.00    -0.356 N 
ATOM      4  C   UNL A   1      33.241  26.489  22.477  1.00  0.00     0.229 C 
ATOM      5  O   UNL A   1      33.560  26.416  21.288  1.00  0.00    -0.275 OA
ATOM      6  H   UNL A   1      32.698  28.374  22.193  1.00  0.00     0.163 HD
BRANCH   4   7
ATOM      7  C   UNL A   1      33.121  25.250  23.370  1.00  0.00     0.142 C 
ATOM      8  N   UNL A   1      33.661  22.925  23.632  1.00  0.00    -0.328 N 
ATOM      9  C   UNL A   1      34.193  24.191  23.135  1.00  0.00     0.276 C 
ATOM     10  C   UNL A   1      32.225  22.969  23.370  1.00  0.00     0.267 C 
ATOM     11  H   UNL A   1      34.081  22.135  23.140  1.00  0.00     0.348 HD
ATOM     12  C   UNL A   1      31.827  24.446  23.111  1.00  0.00     0.065 C 
BRANCH   8  13
ATOM     13  C   UNL A   1      34.047  22.591  25.012  1.00  0.00     0.341 C 
BRANCH  13  14
ATOM     14  C   UNL A   1      35.480  22.281  25.258  1.00  0.00     0.191 A 
ATOM     15  C   UNL A   1      39.025  22.356  26.134  1.00  0.00     0.070 C 
ATOM     16  C   UNL A   1      37.626  22.104  25.722  1.00  0.00     0.081 A 
ATOM     17  C   UNL A   1      36.504  22.945  25.890  1.00  0.00     0.078 A 
ATOM     18  N   UNL A   1      37.299  20.981  25.073  1.00  0.00    -0.085 NA
ATOM     19  O   UNL A   1      35.945  21.087  24.799  1.00  0.00    -0.355 OA
ENDBRANCH  13  14
ENDBRANCH   8  13
BRANCH  12  20
ATOM     20  C   UNL A   1      30.575  24.788  23.889  1.00  0.00    -0.001 C 
ATOM     21  C   UNL A   1      30.493  25.786  25.017  1.00  0.00     0.004 C 
ATOM     22  C   UNL A   1      29.855  26.102  23.697  1.00  0.00     0.004 C 
ENDBRANCH  12  20
ENDBRANCH   4   7
ENDBRANCH   2   3
ENDBRANCH   1   2
BRANCH   1  23
ATOM     23  C   UNL A   1      33.960  28.263  26.493  1.00  0.00     0.118 C 
BRANCH  23  24
ATOM     24  N   UNL A   1      33.743  29.612  26.997  1.00  0.00    -0.352 N 
ATOM     25  C   UNL A   1      34.524  30.357  27.845  1.00  0.00     0.251 C 
ATOM     26  H   UNL A   1      32.920  30.051  26.685  1.00  0.00     0.163 HD
ATOM     27  O   UNL A   1      34.057  31.363  28.371  1.00  0.00    -0.269 OA
BRANCH  25  28
ATOM     28  C   UNL A   1      35.916  29.944  28.127  1.00  0.00     0.039 A 
ATOM     29  C   UNL A   1      36.874  30.052  27.115  1.00  0.00     0.014 A 
ATOM     30  C   UNL A   1      36.269  29.426  29.376  1.00  0.00     0.014 A 
ATOM     31  C   UNL A   1      38.197  29.686  27.373  1.00  0.00     0.010 A 
ATOM     32  C   UNL A   1      37.601  29.136  29.655  1.00  0.00     0.010 A 
ATOM     33  C   UNL A   1      38.577  29.251  28.654  1.00  0.00    -0.014 A 
BRANCH  33  34
ATOM     34  C   UNL A   1      39.985  28.898  28.968  1.00  0.00     0.031 A 
ATOM     35  C   UNL A   1      40.905  29.936  29.552  1.00  0.00     0.074 A 
ATOM     36  C   UNL A   1      40.451  27.672  28.657  1.00  0.00     0.049 A 
ATOM     37  N   UNL A   1      42.186  29.858  29.800  1.00  0.00    -0.248 NA
ATOM     38  C   UNL A   1      40.312  31.246  29.873  1.00  0.00     0.031 C 
ATOM     39  C   UNL A   1      39.663  26.598  28.044  1.00  0.00     0.029 A 
ATOM     40  N   UNL A   1      41.702  27.125  28.796  1.00  0.00    -0.354 N 
ATOM     41  C   UNL A   1      42.556  31.109  30.284  1.00  0.00     0.074 A 
ATOM     42  C   UNL A   1      41.374  31.942  30.248  1.00  0.00     0.031 C 
ATOM     43  C   UNL A   1      40.444  25.520  27.876  1.00  0.00     0.029 A 
ATOM     44  C   UNL A   1      41.796  25.836  28.325  1.00  0.00     0.049 A 
ATOM     45  H   UNL A   1      42.459  27.610  29.196  1.00  0.00     0.167 HD
ATOM     46  C   UNL A   1      43.765  31.517  30.738  1.00  0.00     0.037 A 
ATOM     47  C   UNL A   1      42.858  25.009  28.250  1.00  0.00     0.037 A 
ATOM     48  C   UNL A   1      44.926  30.667  30.797  1.00  0.00     0.049 A 
ATOM     49  C   UNL A   1      44.190  25.485  28.761  1.00  0.00     0.074 A 
ATOM     50  C   UNL A   1      46.182  30.962  31.299  1.00  0.00     0.029 A 
ATOM     51  N   UNL A   1      44.975  29.358  30.340  1.00  0.00    -0.354 N 
ATOM     52  N   UNL A   1      44.507  26.650  29.277  1.00  0.00    -0.248 NA
ATOM     53  C   UNL A   1      45.310  24.537  28.688  1.00  0.00     0.031 C 
ATOM     54  C   UNL A   1      47.003  29.848  31.100  1.00  0.00     0.029 A 
ATOM     55  C   UNL A   1      46.245  28.839  30.526  1.00  0.00     0.049 A 
ATOM     56  H   UNL A   1      44.218  28.870  29.941  1.00  0.00     0.167 HD
ATOM     57  C   UNL A   1      45.852  26.563  29.616  1.00  0.00     0.074 A 
ATOM     58  C   UNL A   1      46.288  25.229  29.257  1.00  0.00     0.031 C 
ATOM     59  C   UNL A   1      46.655  27.502  30.175  1.00  0.00     0.037 A 
BRANCH  46  60
ATOM     60  C   UNL A   1      43.896  32.939  31.211  1.00  0.00     0.058 A 
ATOM     61  C   UNL A   1      44.278  33.975  30.343  1.00  0.00     0.135 A 
ATOM     62  C   UNL A   1      43.589  33.280  32.539  1.00  0.00     0.135 A 
ATOM     63  F   UNL A   1      44.597  33.705  29.068  1.00  0.00    -0.206 F 
ATOM     64  C   UNL A   1      44.377  35.292  30.780  1.00  0.00     0.059 A 
ATOM     65  C   UNL A   1      43.653  34.596  32.989  1.00  0.00     0.059 A 
ATOM     66  F   UNL A   1      43.219  32.331  33.413  1.00  0.00    -0.206 F 
ATOM     67  C   UNL A   1      44.060  35.593  32.105  1.00  0.00     0.060 A 
BRANCH  67  68
ATOM     68  S   UNL A   1      44.177  37.310  32.649  1.00  0.00     0.124 S 
ATOM     69  O   UNL A   1      44.019  38.027  31.387  1.00  0.00    -0.237 OA
ATOM     70  O   UNL A   1      43.060  37.418  33.582  1.00  0.00    -0.237 OA
ATOM     71  O   UNL A   1      45.504  37.388  33.253  1.00  0.00    -0.744 OA
ENDBRANCH  67  68
ENDBRANCH  46  60
BRANCH  47  72
ATOM     72  C   UNL A   1      42.698  23.643  27.681  1.00  0.00     0.058 A 
ATOM     73  C   UNL A   1      42.462  22.537  28.510  1.00  0.00     0.135 A 
ATOM     74  C   UNL A   1      42.773  23.416  26.298  1.00  0.00     0.135 A 
ATOM     75  F   UNL A   1      42.387  22.700  29.840  1.00  0.00    -0.206 F 
ATOM     76  C   UNL A   1      42.325  21.252  27.993  1.00  0.00     0.059 A 
ATOM     77  C   UNL A   1      42.611  22.145  25.754  1.00  0.00     0.059 A 
ATOM     78  F   UNL A   1      42.980  24.443  25.458  1.00  0.00    -0.206 F 
ATOM     79  C   UNL A   1      42.400  21.068  26.612  1.00  0.00     0.060 A 
BRANCH  79  80
ATOM     80  S   UNL A   1      42.184  19.402  25.949  1.00  0.00     0.124 S 
ATOM     81  O   UNL A   1      43.001  19.457  24.743  1.00  0.00    -0.237 OA
ATOM     82  O   UNL A   1      42.699  18.571  27.033  1.00  0.00    -0.237 OA
ATOM     83  O   UNL A   1      40.743  19.311  25.732  1.00  0.00    -0.744 OA
ENDBRANCH  79  80
ENDBRANCH  47  72
BRANCH  59  84
ATOM     84  C   UNL A   1      48.077  27.113  30.474  1.00  0.00     0.058 A 
ATOM     85  C   UNL A   1      49.128  27.419  29.595  1.00  0.00     0.135 A 
ATOM     86  C   UNL A   1      48.397  26.486  31.689  1.00  0.00     0.135 A 
ATOM     87  F   UNL A   1      48.874  28.011  28.418  1.00  0.00    -0.206 F 
ATOM     88  C   UNL A   1      50.446  27.101  29.905  1.00  0.00     0.059 A 
ATOM     89  C   UNL A   1      49.711  26.187  32.031  1.00  0.00     0.059 A 
ATOM     90  F   UNL A   1      47.430  26.181  32.568  1.00  0.00    -0.206 F 
ATOM     91  C   UNL A   1      50.729  26.489  31.128  1.00  0.00     0.060 A 
BRANCH  91  92
ATOM     92  S   UNL A   1      52.449  26.127  31.536  1.00  0.00     0.124 S 
ATOM     93  O   UNL A   1      52.332  24.815  32.164  1.00  0.00    -0.237 OA
ATOM     94  O   UNL A   1      53.092  26.148  30.226  1.00  0.00    -0.237 OA
ATOM     95  O   UNL A   1      52.824  27.219  32.430  1.00  0.00    -0.744 OA
ENDBRANCH  91  92
ENDBRANCH  59  84
ENDBRANCH  33  34
ENDBRANCH  25  28
ENDBRANCH  23  24
ENDBRANCH   1  23
TORSDOF 16
ENDMDL
MODEL 3
REMARK VINA RESULT:      -9.1      4.483     11.096
REMARK SMILES Cc1cc(C[N@@H+]2C[C@@H](C(=O)NCCCNC(=O)c3ccc(-c4c5nc(c(-c6c(F)cc(S(=O)(=O)[O-])cc6F)c6ccc([nH]6)c(-c6c(F)cc(S(=O)(=O)[O-])cc6F)c6nc(c(-c7c(F)cc(S(=O)(=O)[O-])cc7F)c7ccc4[nH]7)C=C6)C=C5)cc3)[C@H](C3CC3)C2)on1
REMARK SMILES IDX 13 1 12 2 11 3 9 4 10 5 8 7 6 8 7 9 88 10 84 12 5 13 4 14
REMARK SMILES IDX 1 15 2 16 3 17 90 18 89 19 85 20 86 21 87 22 14 23 15 24
REMARK SMILES IDX 16 25 17 27 18 28 19 29 83 30 20 31 82 32 21 33 22 34 23 35
REMARK SMILES IDX 76 36 24 37 81 38 75 39 77 40 25 41 80 42 74 43 73 44 26 46
REMARK SMILES IDX 60 47 39 48 59 49 40 50 43 51 58 52 78 53 41 54 42 55 57 57
REMARK SMILES IDX 79 58 44 59 27 60 28 61 37 62 29 63 30 64 36 65 38 66 31 67
REMARK SMILES IDX 32 68 33 69 34 70 35 71 61 72 62 73 71 74 63 75 64 76 70 77
REMARK SMILES IDX 72 78 65 79 66 80 67 81 68 82 69 83 45 84 46 85 55 86 47 87
REMARK SMILES IDX 48 88 54 89 56 90 49 91 50 92 51 93 52 94 53 95
REMARK H PARENT 11 6 6 11 15 26 77 45 43 56
REMARK Flexibility Score: inf
ROOT
ATOM      1  C   UNL A   1      33.993  28.134  25.528  1.00  0.00     0.042 C 
ENDROOT
BRANCH   1   2
ATOM      2  C   UNL A   1      32.938  28.780  24.627  1.00  0.00     0.117 C 
BRANCH   2   3
ATOM      3  N   UNL A   1      33.155  28.405  23.244  1.00  0.00    -0.356 N 
ATOM      4  C   UNL A   1      33.405  27.194  22.673  1.00  0.00     0.229 C 
ATOM      5  O   UNL A   1      33.839  27.234  21.519  1.00  0.00    -0.275 OA
ATOM      6  H   UNL A   1      33.116  29.154  22.608  1.00  0.00     0.163 HD
BRANCH   4   7
ATOM      7  C   UNL A   1      33.047  25.877  23.368  1.00  0.00     0.142 C 
ATOM      8  N   UNL A   1      33.321  23.491  23.375  1.00  0.00    -0.328 N 
ATOM      9  C   UNL A   1      34.034  24.740  23.123  1.00  0.00     0.276 C 
ATOM     10  C   UNL A   1      31.944  23.729  22.950  1.00  0.00     0.267 C 
ATOM     11  H   UNL A   1      33.725  22.725  22.835  1.00  0.00     0.348 HD
ATOM     12  C   UNL A   1      31.729  25.262  22.848  1.00  0.00     0.065 C 
BRANCH   8  13
ATOM     13  C   UNL A   1      33.484  22.949  24.734  1.00  0.00     0.341 C 
BRANCH  13  14
ATOM     14  C   UNL A   1      32.317  23.057  25.649  1.00  0.00     0.191 A 
ATOM     15  C   UNL A   1      29.137  22.664  27.401  1.00  0.00     0.070 C 
ATOM     16  C   UNL A   1      30.470  22.989  26.847  1.00  0.00     0.081 A 
ATOM     17  C   UNL A   1      31.193  22.293  25.854  1.00  0.00     0.078 A 
ATOM     18  N   UNL A   1      31.130  24.078  27.255  1.00  0.00    -0.085 NA
ATOM     19  O   UNL A   1      32.300  24.108  26.513  1.00  0.00    -0.355 OA
ENDBRANCH  13  14
ENDBRANCH   8  13
BRANCH  12  20
ATOM     20  C   UNL A   1      30.422  25.645  23.509  1.00  0.00    -0.001 C 
ATOM     21  C   UNL A   1      30.286  26.497  24.747  1.00  0.00     0.004 C 
ATOM     22  C   UNL A   1      29.867  27.046  23.416  1.00  0.00     0.004 C 
ENDBRANCH  12  20
ENDBRANCH   4   7
ENDBRANCH   2   3
ENDBRANCH   1   2
BRANCH   1  23
ATOM     23  C   UNL A   1      33.714  28.341  27.013  1.00  0.00     0.118 C 
BRANCH  23  24
ATOM     24  N   UNL A   1      33.553  29.752  27.334  1.00  0.00    -0.352 N 
ATOM     25  C   UNL A   1      34.384  30.579  28.049  1.00  0.00     0.251 C 
ATOM     26  H   UNL A   1      32.734  30.173  26.988  1.00  0.00     0.163 HD
ATOM     27  O   UNL A   1      33.966  31.662  28.446  1.00  0.00    -0.269 OA
BRANCH  25  28
ATOM     28  C   UNL A   1      35.771  30.161  28.345  1.00  0.00     0.039 A 
ATOM     29  C   UNL A   1      36.731  30.225  27.331  1.00  0.00     0.014 A 
ATOM     30  C   UNL A   1      36.120  29.681  29.611  1.00  0.00     0.014 A 
ATOM     31  C   UNL A   1      38.050  29.853  27.601  1.00  0.00     0.010 A 
ATOM     32  C   UNL A   1      37.448  29.385  29.899  1.00  0.00     0.010 A 
ATOM     33  C   UNL A   1      38.425  29.457  28.895  1.00  0.00    -0.014 A 
BRANCH  33  34
ATOM     34  C   UNL A   1      39.829  29.100  29.221  1.00  0.00     0.031 A 
ATOM     35  C   UNL A   1      40.741  30.127  29.836  1.00  0.00     0.074 A 
ATOM     36  C   UNL A   1      40.300  27.879  28.894  1.00  0.00     0.049 A 
ATOM     37  N   UNL A   1      42.019  30.046  30.099  1.00  0.00    -0.248 NA
ATOM     38  C   UNL A   1      40.142  31.431  30.173  1.00  0.00     0.031 C 
ATOM     39  C   UNL A   1      39.521  26.816  28.252  1.00  0.00     0.029 A 
ATOM     40  N   UNL A   1      41.550  27.331  29.040  1.00  0.00    -0.354 N 
ATOM     41  C   UNL A   1      42.381  31.288  30.610  1.00  0.00     0.074 A 
ATOM     42  C   UNL A   1      41.199  32.121  30.574  1.00  0.00     0.031 C 
ATOM     43  C   UNL A   1      40.306  25.742  28.074  1.00  0.00     0.029 A 
ATOM     44  C   UNL A   1      41.652  26.051  28.547  1.00  0.00     0.049 A 
ATOM     45  H   UNL A   1      42.302  27.809  29.458  1.00  0.00     0.167 HD
ATOM     46  C   UNL A   1      43.583  31.689  31.087  1.00  0.00     0.037 A 
ATOM     47  C   UNL A   1      42.715  25.226  28.471  1.00  0.00     0.037 A 
ATOM     48  C   UNL A   1      44.744  30.840  31.146  1.00  0.00     0.049 A 
ATOM     49  C   UNL A   1      44.041  25.694  29.008  1.00  0.00     0.074 A 
ATOM     50  C   UNL A   1      45.993  31.127  31.669  1.00  0.00     0.029 A 
ATOM     51  N   UNL A   1      44.800  29.539  30.666  1.00  0.00    -0.354 N 
ATOM     52  N   UNL A   1      44.349  26.850  29.549  1.00  0.00    -0.248 NA
ATOM     53  C   UNL A   1      45.162  24.748  28.932  1.00  0.00     0.031 C 
ATOM     54  C   UNL A   1      46.818  30.017  31.461  1.00  0.00     0.029 A 
ATOM     55  C   UNL A   1      46.069  29.018  30.859  1.00  0.00     0.049 A 
ATOM     56  H   UNL A   1      44.050  29.057  30.249  1.00  0.00     0.167 HD
ATOM     57  C   UNL A   1      45.690  26.758  29.904  1.00  0.00     0.074 A 
ATOM     58  C   UNL A   1      46.131  25.431  29.526  1.00  0.00     0.031 C 
ATOM     59  C   UNL A   1      46.485  27.687  30.490  1.00  0.00     0.037 A 
BRANCH  46  60
ATOM     60  C   UNL A   1      43.706  33.103  31.587  1.00  0.00     0.058 A 
ATOM     61  C   UNL A   1      44.122  34.150  30.749  1.00  0.00     0.135 A 
ATOM     62  C   UNL A   1      43.359  33.424  32.910  1.00  0.00     0.135 A 
ATOM     63  F   UNL A   1      44.480  33.899  29.480  1.00  0.00    -0.206 F 
ATOM     64  C   UNL A   1      44.214  35.459  31.211  1.00  0.00     0.059 A 
ATOM     65  C   UNL A   1      43.415  34.732  33.384  1.00  0.00     0.059 A 
ATOM     66  F   UNL A   1      42.956  32.463  33.756  1.00  0.00    -0.206 F 
ATOM     67  C   UNL A   1      43.856  35.741  32.529  1.00  0.00     0.060 A 
BRANCH  67  68
ATOM     68  S   UNL A   1      43.965  37.448  33.105  1.00  0.00     0.124 S 
ATOM     69  O   UNL A   1      43.735  38.188  31.867  1.00  0.00    -0.237 OA
ATOM     70  O   UNL A   1      42.890  37.514  34.091  1.00  0.00    -0.237 OA
ATOM     71  O   UNL A   1      45.317  37.541  33.648  1.00  0.00    -0.744 OA
ENDBRANCH  67  68
ENDBRANCH  46  60
BRANCH  47  72
ATOM     72  C   UNL A   1      42.565  23.870  27.875  1.00  0.00     0.058 A 
ATOM     73  C   UNL A   1      42.477  22.729  28.687  1.00  0.00     0.135 A 
ATOM     74  C   UNL A   1      42.499  23.688  26.485  1.00  0.00     0.135 A 
ATOM     75  F   UNL A   1      42.540  22.850  30.022  1.00  0.00    -0.206 F 
ATOM     76  C   UNL A   1      42.350  21.455  28.143  1.00  0.00     0.059 A 
ATOM     77  C   UNL A   1      42.344  22.427  25.918  1.00  0.00     0.059 A 
ATOM     78  F   UNL A   1      42.560  24.748  25.664  1.00  0.00    -0.206 F 
ATOM     79  C   UNL A   1      42.283  21.314  26.756  1.00  0.00     0.060 A 
BRANCH  79  80
ATOM     80  S   UNL A   1      42.082  19.659  26.063  1.00  0.00     0.124 S 
ATOM     81  O   UNL A   1      43.035  19.684  24.960  1.00  0.00    -0.237 OA
ATOM     82  O   UNL A   1      42.435  18.808  27.195  1.00  0.00    -0.237 OA
ATOM     83  O   UNL A   1      40.673  19.624  25.680  1.00  0.00    -0.744 OA
ENDBRANCH  79  80
ENDBRANCH  47  72
BRANCH  59  84
ATOM     84  C   UNL A   1      47.903  27.294  30.800  1.00  0.00     0.058 A 
ATOM     85  C   UNL A   1      48.267  26.765  32.048  1.00  0.00     0.135 A 
ATOM     86  C   UNL A   1      48.895  27.388  29.810  1.00  0.00     0.135 A 
ATOM     87  F   UNL A   1      47.359  26.662  33.030  1.00  0.00    -0.206 F 
ATOM     88  C   UNL A   1      49.571  26.356  32.308  1.00  0.00     0.059 A 
ATOM     89  C   UNL A   1      50.197  26.958  30.040  1.00  0.00     0.059 A 
ATOM     90  F   UNL A   1      48.596  27.879  28.597  1.00  0.00    -0.206 F 
ATOM     91  C   UNL A   1      50.528  26.452  31.296  1.00  0.00     0.060 A 
BRANCH  91  92
ATOM     92  S   UNL A   1      52.204  25.872  31.633  1.00  0.00     0.124 S 
ATOM     93  O   UNL A   1      52.852  26.080  30.341  1.00  0.00    -0.237 OA
ATOM     94  O   UNL A   1      52.632  26.762  32.707  1.00  0.00    -0.237 OA
ATOM     95  O   UNL A   1      52.011  24.478  32.020  1.00  0.00    -0.744 OA
ENDBRANCH  91  92
ENDBRANCH  59  84
ENDBRANCH  33  34
ENDBRANCH  25  28
ENDBRANCH  23  24
ENDBRANCH   1  23
TORSDOF 16
ENDMDL
