MODEL 1
REMARK VINA RESULT:     -12.5      0.000      0.000
REMARK SMILES Cc1ccccc1N(CCC(=O)NCCCNC(=O)c1ccc(-c2c3nc(c(-c4c(F)cc(S(=O)(=O)[O-])cc4F)c4ccc([nH]4)c(-c4c(F)cc(S(=O)(=O)[O-])cc4F)c4nc(c(-c5c(F)cc(S(=O)(=O)[O-])cc5F)c5ccc2[nH]5)C=C4)C=C3)cc1)C(=O)[C@@H]1C=C[C@H]([NH3+])C1
REMARK SMILES IDX 14 1 13 2 11 3 12 4 10 6 9 7 8 8 7 9 1 10 2 11 3 12 4 13
REMARK SMILES IDX 6 14 5 15 86 16 87 17 88 18 89 19 93 20 90 21 91 22 92 23
REMARK SMILES IDX 15 27 16 28 17 29 18 30 19 32 20 33 21 34 85 35 22 36 84 37
REMARK SMILES IDX 23 38 24 39 25 40 78 41 26 42 83 43 77 44 79 45 27 46 82 47
REMARK SMILES IDX 76 48 75 49 28 51 62 52 41 53 61 54 42 55 45 56 60 57 80 58
REMARK SMILES IDX 43 59 44 60 59 62 81 63 46 64 29 65 30 66 39 67 31 68 32 69
REMARK SMILES IDX 38 70 40 71 33 72 34 73 35 74 36 75 37 76 63 77 64 78 73 79
REMARK SMILES IDX 65 80 66 81 72 82 74 83 67 84 68 85 69 86 70 87 71 88 47 89
REMARK SMILES IDX 48 90 57 91 49 92 50 93 56 94 58 95 51 96 52 97 53 98 54 99
REMARK SMILES IDX 55 100
REMARK H PARENT 13 5 92 24 92 25 92 26 17 31 79 50 45 61
REMARK Flexibility Score: inf
ROOT
ATOM      1  C   UNL A   1      37.597  21.334  25.718  1.00  0.00     0.117 C 
ENDROOT
BRANCH   1   2
ATOM      2  N   UNL A   1      36.655  21.967  24.795  1.00  0.00    -0.356 N 
ATOM      3  C   UNL A   1      35.712  22.928  25.007  1.00  0.00     0.221 C 
ATOM      4  O   UNL A   1      35.281  23.550  24.031  1.00  0.00    -0.275 OA
ATOM      5  H   UNL A   1      36.711  21.644  23.866  1.00  0.00     0.163 HD
BRANCH   3   6
ATOM      6  C   UNL A   1      35.113  23.176  26.371  1.00  0.00     0.122 C 
BRANCH   6   7
ATOM      7  C   UNL A   1      34.197  22.028  26.809  1.00  0.00     0.135 C 
BRANCH   7   8
ATOM      8  N   UNL A   1      32.889  22.010  26.108  1.00  0.00    -0.311 N 
BRANCH   8   9
ATOM      9  C   UNL A   1      32.650  20.860  25.177  1.00  0.00     0.047 A 
ATOM     10  C   UNL A   1      32.232  22.008  22.803  1.00  0.00     0.046 C 
ATOM     11  C   UNL A   1      32.411  20.865  23.773  1.00  0.00    -0.027 A 
ATOM     12  C   UNL A   1      32.435  19.622  23.049  1.00  0.00     0.005 A 
ATOM     13  C   UNL A   1      32.588  18.385  23.653  1.00  0.00     0.000 A 
ATOM     14  C   UNL A   1      32.750  19.550  25.742  1.00  0.00     0.026 A 
ATOM     15  C   UNL A   1      32.717  18.350  25.018  1.00  0.00     0.002 A 
ENDBRANCH   8   9
BRANCH   8  16
ATOM     16  C   UNL A   1      31.976  23.062  26.389  1.00  0.00     0.234 C 
ATOM     17  O   UNL A   1      31.198  23.051  27.344  1.00  0.00    -0.274 OA
BRANCH  16  18
ATOM     18  C   UNL A   1      31.994  24.350  25.470  1.00  0.00     0.108 C 
ATOM     19  C   UNL A   1      32.205  25.634  26.229  1.00  0.00    -0.012 C 
ATOM     20  C   UNL A   1      30.661  24.638  24.763  1.00  0.00     0.087 C 
ATOM     21  C   UNL A   1      31.089  26.374  26.269  1.00  0.00     0.033 C 
ATOM     22  C   UNL A   1      29.944  25.666  25.633  1.00  0.00     0.205 C 
BRANCH  22  23
ATOM     23  N   UNL A   1      29.177  25.007  26.674  1.00  0.00    -0.352 N 
ATOM     24  H   UNL A   1      29.664  24.161  26.972  1.00  0.00     0.345 HD
ATOM     25  H   UNL A   1      28.256  24.759  26.313  1.00  0.00     0.345 HD
ATOM     26  H   UNL A   1      29.073  25.637  27.470  1.00  0.00     0.345 HD
ENDBRANCH  22  23
ENDBRANCH  16  18
ENDBRANCH   8  16
ENDBRANCH   7   8
ENDBRANCH   6   7
ENDBRANCH   3   6
ENDBRANCH   1   2
BRANCH   1  27
ATOM     27  C   UNL A   1      39.005  21.930  25.803  1.00  0.00     0.042 C 
BRANCH  27  28
ATOM     28  C   UNL A   1      39.224  23.314  26.458  1.00  0.00     0.118 C 
BRANCH  28  29
ATOM     29  N   UNL A   1      40.649  23.695  26.570  1.00  0.00    -0.352 N 
ATOM     30  C   UNL A   1      41.259  24.906  26.859  1.00  0.00     0.251 C 
ATOM     31  H   UNL A   1      41.278  22.954  26.410  1.00  0.00     0.163 HD
ATOM     32  O   UNL A   1      42.474  25.072  26.878  1.00  0.00    -0.269 OA
BRANCH  30  33
ATOM     33  C   UNL A   1      40.410  26.029  27.246  1.00  0.00     0.039 A 
ATOM     34  C   UNL A   1      40.488  27.213  26.497  1.00  0.00     0.014 A 
ATOM     35  C   UNL A   1      39.760  25.967  28.467  1.00  0.00     0.014 A 
ATOM     36  C   UNL A   1      40.195  28.410  27.125  1.00  0.00     0.010 A 
ATOM     37  C   UNL A   1      39.486  27.156  29.084  1.00  0.00     0.010 A 
ATOM     38  C   UNL A   1      39.838  28.352  28.465  1.00  0.00    -0.014 A 
BRANCH  38  39
ATOM     39  C   UNL A   1      39.913  29.484  29.360  1.00  0.00     0.031 A 
ATOM     40  C   UNL A   1      38.840  30.462  29.253  1.00  0.00     0.074 A 
ATOM     41  C   UNL A   1      40.920  29.524  30.257  1.00  0.00     0.049 A 
ATOM     42  N   UNL A   1      39.008  31.732  29.218  1.00  0.00    -0.248 NA
ATOM     43  C   UNL A   1      37.459  30.047  29.036  1.00  0.00     0.031 C 
ATOM     44  C   UNL A   1      41.162  30.487  31.321  1.00  0.00     0.029 A 
ATOM     45  N   UNL A   1      42.075  28.726  30.238  1.00  0.00    -0.354 N 
ATOM     46  C   UNL A   1      37.750  32.282  29.352  1.00  0.00     0.074 A 
ATOM     47  C   UNL A   1      36.841  31.226  28.995  1.00  0.00     0.031 C 
ATOM     48  C   UNL A   1      42.471  30.446  31.635  1.00  0.00     0.029 A 
ATOM     49  C   UNL A   1      43.127  29.520  30.718  1.00  0.00     0.049 A 
ATOM     50  H   UNL A   1      42.135  27.788  29.945  1.00  0.00     0.167 HD
ATOM     51  C   UNL A   1      37.621  33.474  30.001  1.00  0.00     0.037 A 
ATOM     52  C   UNL A   1      44.128  29.860  29.854  1.00  0.00     0.037 A 
ATOM     53  C   UNL A   1      38.948  33.921  30.448  1.00  0.00     0.049 A 
ATOM     54  C   UNL A   1      44.081  31.330  29.476  1.00  0.00     0.074 A 
ATOM     55  C   UNL A   1      39.592  33.829  31.673  1.00  0.00     0.029 A 
ATOM     56  N   UNL A   1      39.944  34.165  29.506  1.00  0.00    -0.354 N 
ATOM     57  N   UNL A   1      43.014  32.083  29.587  1.00  0.00    -0.248 NA
ATOM     58  C   UNL A   1      45.245  32.091  29.036  1.00  0.00     0.031 C 
ATOM     59  C   UNL A   1      40.990  33.955  31.447  1.00  0.00     0.029 A 
ATOM     60  C   UNL A   1      41.199  34.136  30.090  1.00  0.00     0.049 A 
ATOM     61  H   UNL A   1      39.778  34.337  28.551  1.00  0.00     0.167 HD
ATOM     62  C   UNL A   1      43.318  33.384  29.259  1.00  0.00     0.074 A 
ATOM     63  C   UNL A   1      44.734  33.332  28.942  1.00  0.00     0.031 C 
ATOM     64  C   UNL A   1      42.393  34.398  29.289  1.00  0.00     0.037 A 
BRANCH  51  65
ATOM     65  C   UNL A   1      36.309  34.031  30.535  1.00  0.00     0.058 A 
ATOM     66  C   UNL A   1      35.288  34.436  29.648  1.00  0.00     0.135 A 
ATOM     67  C   UNL A   1      35.984  34.202  31.899  1.00  0.00     0.135 A 
ATOM     68  F   UNL A   1      35.404  34.264  28.324  1.00  0.00    -0.206 F 
ATOM     69  C   UNL A   1      34.091  35.022  30.072  1.00  0.00     0.059 A 
ATOM     70  C   UNL A   1      34.823  34.837  32.347  1.00  0.00     0.059 A 
ATOM     71  F   UNL A   1      36.737  33.692  32.879  1.00  0.00    -0.206 F 
ATOM     72  C   UNL A   1      33.872  35.235  31.425  1.00  0.00     0.060 A 
BRANCH  72  73
ATOM     73  S   UNL A   1      32.311  35.954  31.965  1.00  0.00     0.124 S 
ATOM     74  O   UNL A   1      32.756  37.097  32.757  1.00  0.00    -0.237 OA
ATOM     75  O   UNL A   1      31.668  36.271  30.694  1.00  0.00    -0.237 OA
ATOM     76  O   UNL A   1      31.684  34.878  32.728  1.00  0.00    -0.744 OA
ENDBRANCH  72  73
ENDBRANCH  51  65
BRANCH  52  77
ATOM     77  C   UNL A   1      44.657  28.691  29.076  1.00  0.00     0.058 A 
ATOM     78  C   UNL A   1      44.253  28.578  27.730  1.00  0.00     0.135 A 
ATOM     79  C   UNL A   1      45.789  27.945  29.443  1.00  0.00     0.135 A 
ATOM     80  F   UNL A   1      43.188  29.272  27.295  1.00  0.00    -0.206 F 
ATOM     81  C   UNL A   1      44.964  27.835  26.783  1.00  0.00     0.059 A 
ATOM     82  C   UNL A   1      46.540  27.212  28.499  1.00  0.00     0.059 A 
ATOM     83  F   UNL A   1      46.225  27.975  30.709  1.00  0.00    -0.206 F 
ATOM     84  C   UNL A   1      46.126  27.172  27.166  1.00  0.00     0.060 A 
BRANCH  84  85
ATOM     85  S   UNL A   1      47.113  26.346  25.879  1.00  0.00     0.124 S 
ATOM     86  O   UNL A   1      46.098  25.961  24.915  1.00  0.00    -0.237 OA
ATOM     87  O   UNL A   1      48.034  27.391  25.447  1.00  0.00    -0.237 OA
ATOM     88  O   UNL A   1      47.768  25.256  26.596  1.00  0.00    -0.744 OA
ENDBRANCH  84  85
ENDBRANCH  52  77
BRANCH  64  89
ATOM     89  C   UNL A   1      42.521  35.775  28.644  1.00  0.00     0.058 A 
ATOM     90  C   UNL A   1      41.996  36.122  27.388  1.00  0.00     0.135 A 
ATOM     91  C   UNL A   1      43.066  36.869  29.376  1.00  0.00     0.135 A 
ATOM     92  F   UNL A   1      41.345  35.237  26.624  1.00  0.00    -0.206 F 
ATOM     93  C   UNL A   1      42.068  37.420  26.871  1.00  0.00     0.059 A 
ATOM     94  C   UNL A   1      43.067  38.183  28.917  1.00  0.00     0.059 A 
ATOM     95  F   UNL A   1      43.615  36.712  30.589  1.00  0.00    -0.206 F 
ATOM     96  C   UNL A   1      42.599  38.445  27.645  1.00  0.00     0.060 A 
BRANCH  96  97
ATOM     97  S   UNL A   1      42.639  40.121  26.993  1.00  0.00     0.124 S 
ATOM     98  O   UNL A   1      42.753  40.904  28.219  1.00  0.00    -0.237 OA
ATOM     99  O   UNL A   1      43.825  40.102  26.143  1.00  0.00    -0.237 OA
ATOM    100  O   UNL A   1      41.370  40.240  26.282  1.00  0.00    -0.744 OA
ENDBRANCH  96  97
ENDBRANCH  64  89
ENDBRANCH  38  39
ENDBRANCH  30  33
ENDBRANCH  28  29
ENDBRANCH  27  28
ENDBRANCH   1  27
TORSDOF 19
ENDMDL
MODEL 2
REMARK VINA RESULT:     -12.4      3.796     10.465
REMARK SMILES Cc1ccccc1N(CCC(=O)NCCCNC(=O)c1ccc(-c2c3nc(c(-c4c(F)cc(S(=O)(=O)[O-])cc4F)c4ccc([nH]4)c(-c4c(F)cc(S(=O)(=O)[O-])cc4F)c4nc(c(-c5c(F)cc(S(=O)(=O)[O-])cc5F)c5ccc2[nH]5)C=C4)C=C3)cc1)C(=O)[C@@H]1C=C[C@H]([NH3+])C1
REMARK SMILES IDX 14 1 13 2 11 3 12 4 10 6 9 7 8 8 7 9 1 10 2 11 3 12 4 13
REMARK SMILES IDX 6 14 5 15 86 16 87 17 88 18 89 19 93 20 90 21 91 22 92 23
REMARK SMILES IDX 15 27 16 28 17 29 18 30 19 32 20 33 21 34 85 35 22 36 84 37
REMARK SMILES IDX 23 38 24 39 25 40 78 41 26 42 83 43 77 44 79 45 27 46 82 47
REMARK SMILES IDX 76 48 75 49 28 51 62 52 41 53 61 54 42 55 45 56 60 57 80 58
REMARK SMILES IDX 43 59 44 60 59 62 81 63 46 64 29 65 30 66 39 67 31 68 32 69
REMARK SMILES IDX 38 70 40 71 33 72 34 73 35 74 36 75 37 76 63 77 64 78 73 79
REMARK SMILES IDX 65 80 66 81 72 82 74 83 67 84 68 85 69 86 70 87 71 88 47 89
REMARK SMILES IDX 48 90 57 91 49 92 50 93 56 94 58 95 51 96 52 97 53 98 54 99
REMARK SMILES IDX 55 100
REMARK H PARENT 13 5 92 24 92 25 92 26 17 31 79 50 45 61
REMARK Flexibility Score: inf
ROOT
ATOM      1  C   UNL A   1      31.988  28.562  25.353  1.00  0.00     0.117 C 
ENDROOT
BRANCH   1   2
ATOM      2  N   UNL A   1      32.534  27.709  24.297  1.00  0.00    -0.356 N 
ATOM      3  C   UNL A   1      32.598  26.351  24.196  1.00  0.00     0.221 C 
ATOM      4  O   UNL A   1      32.780  25.856  23.079  1.00  0.00    -0.275 OA
ATOM      5  H   UNL A   1      32.920  28.197  23.534  1.00  0.00     0.163 HD
BRANCH   3   6
ATOM      6  C   UNL A   1      32.557  25.453  25.410  1.00  0.00     0.122 C 
BRANCH   6   7
ATOM      7  C   UNL A   1      32.122  24.029  25.050  1.00  0.00     0.135 C 
BRANCH   7   8
ATOM      8  N   UNL A   1      33.160  23.003  25.320  1.00  0.00    -0.311 N 
BRANCH   8   9
ATOM      9  C   UNL A   1      32.849  21.608  24.866  1.00  0.00     0.047 A 
ATOM     10  C   UNL A   1      32.185  21.885  22.294  1.00  0.00     0.046 C 
ATOM     11  C   UNL A   1      32.474  21.139  23.574  1.00  0.00    -0.027 A 
ATOM     12  C   UNL A   1      32.445  19.723  23.320  1.00  0.00     0.005 A 
ATOM     13  C   UNL A   1      32.673  18.764  24.293  1.00  0.00     0.000 A 
ATOM     14  C   UNL A   1      33.020  20.569  25.832  1.00  0.00     0.026 A 
ATOM     15  C   UNL A   1      32.934  19.194  25.569  1.00  0.00     0.002 A 
ENDBRANCH   8   9
BRANCH   8  16
ATOM     16  C   UNL A   1      34.354  23.426  25.963  1.00  0.00     0.234 C 
ATOM     17  O   UNL A   1      34.542  23.334  27.177  1.00  0.00    -0.274 OA
BRANCH  16  18
ATOM     18  C   UNL A   1      35.538  23.988  25.077  1.00  0.00     0.108 C 
ATOM     19  C   UNL A   1      35.485  23.540  23.640  1.00  0.00    -0.012 C 
ATOM     20  C   UNL A   1      36.929  23.487  25.493  1.00  0.00     0.087 C 
ATOM     21  C   UNL A   1      36.453  22.657  23.361  1.00  0.00     0.033 C 
ATOM     22  C   UNL A   1      37.236  22.307  24.577  1.00  0.00     0.205 C 
BRANCH  22  23
ATOM     23  N   UNL A   1      36.697  21.078  25.131  1.00  0.00    -0.352 N 
ATOM     24  H   UNL A   1      36.084  20.636  24.446  1.00  0.00     0.345 HD
ATOM     25  H   UNL A   1      36.167  21.290  25.976  1.00  0.00     0.345 HD
ATOM     26  H   UNL A   1      37.463  20.444  25.360  1.00  0.00     0.345 HD
ENDBRANCH  22  23
ENDBRANCH  16  18
ENDBRANCH   8  16
ENDBRANCH   7   8
ENDBRANCH   6   7
ENDBRANCH   3   6
ENDBRANCH   1   2
BRANCH   1  27
ATOM     27  C   UNL A   1      32.920  29.617  25.956  1.00  0.00     0.042 C 
BRANCH  27  28
ATOM     28  C   UNL A   1      33.060  29.744  27.491  1.00  0.00     0.118 C 
BRANCH  28  29
ATOM     29  N   UNL A   1      33.673  31.019  27.924  1.00  0.00    -0.352 N 
ATOM     30  C   UNL A   1      34.933  31.312  28.423  1.00  0.00     0.251 C 
ATOM     31  H   UNL A   1      33.079  31.800  27.843  1.00  0.00     0.163 HD
ATOM     32  O   UNL A   1      35.284  32.432  28.778  1.00  0.00    -0.269 OA
BRANCH  30  33
ATOM     33  C   UNL A   1      35.929  30.244  28.448  1.00  0.00     0.039 A 
ATOM     34  C   UNL A   1      36.235  29.647  29.681  1.00  0.00     0.014 A 
ATOM     35  C   UNL A   1      36.699  30.040  27.316  1.00  0.00     0.014 A 
ATOM     36  C   UNL A   1      37.496  29.108  29.857  1.00  0.00     0.010 A 
ATOM     37  C   UNL A   1      37.948  29.517  27.502  1.00  0.00     0.010 A 
ATOM     38  C   UNL A   1      38.377  29.194  28.787  1.00  0.00    -0.014 A 
BRANCH  38  39
ATOM     39  C   UNL A   1      39.811  29.079  28.923  1.00  0.00     0.031 A 
ATOM     40  C   UNL A   1      40.382  27.771  28.638  1.00  0.00     0.074 A 
ATOM     41  C   UNL A   1      40.514  30.186  29.239  1.00  0.00     0.049 A 
ATOM     42  N   UNL A   1      41.254  27.178  29.366  1.00  0.00    -0.248 NA
ATOM     43  C   UNL A   1      39.885  26.954  27.537  1.00  0.00     0.031 C 
ATOM     44  C   UNL A   1      41.956  30.359  29.337  1.00  0.00     0.029 A 
ATOM     45  N   UNL A   1      39.983  31.390  29.730  1.00  0.00    -0.354 N 
ATOM     46  C   UNL A   1      41.690  26.097  28.628  1.00  0.00     0.074 A 
ATOM     47  C   UNL A   1      40.661  25.876  27.647  1.00  0.00     0.031 C 
ATOM     48  C   UNL A   1      42.199  31.424  30.125  1.00  0.00     0.029 A 
ATOM     49  C   UNL A   1      40.920  31.910  30.634  1.00  0.00     0.049 A 
ATOM     50  H   UNL A   1      39.118  31.792  29.485  1.00  0.00     0.167 HD
ATOM     51  C   UNL A   1      42.983  25.689  28.763  1.00  0.00     0.037 A 
ATOM     52  C   UNL A   1      40.582  31.971  31.955  1.00  0.00     0.037 A 
ATOM     53  C   UNL A   1      43.664  26.567  29.726  1.00  0.00     0.049 A 
ATOM     54  C   UNL A   1      41.342  30.954  32.786  1.00  0.00     0.074 A 
ATOM     55  C   UNL A   1      44.494  27.664  29.552  1.00  0.00     0.029 A 
ATOM     56  N   UNL A   1      43.202  26.637  31.038  1.00  0.00    -0.354 N 
ATOM     57  N   UNL A   1      41.911  29.881  32.295  1.00  0.00    -0.248 NA
ATOM     58  C   UNL A   1      41.607  31.109  34.213  1.00  0.00     0.031 C 
ATOM     59  C   UNL A   1      44.474  28.428  30.751  1.00  0.00     0.029 A 
ATOM     60  C   UNL A   1      43.643  27.793  31.659  1.00  0.00     0.049 A 
ATOM     61  H   UNL A   1      42.637  25.954  31.467  1.00  0.00     0.167 HD
ATOM     62  C   UNL A   1      42.603  29.217  33.282  1.00  0.00     0.074 A 
ATOM     63  C   UNL A   1      42.393  30.044  34.458  1.00  0.00     0.031 C 
ATOM     64  C   UNL A   1      43.302  28.058  33.055  1.00  0.00     0.037 A 
BRANCH  51  65
ATOM     65  C   UNL A   1      43.706  24.767  27.791  1.00  0.00     0.058 A 
ATOM     66  C   UNL A   1      44.037  25.213  26.493  1.00  0.00     0.135 A 
ATOM     67  C   UNL A   1      44.100  23.437  28.059  1.00  0.00     0.135 A 
ATOM     68  F   UNL A   1      43.807  26.475  26.108  1.00  0.00    -0.206 F 
ATOM     69  C   UNL A   1      44.636  24.394  25.530  1.00  0.00     0.059 A 
ATOM     70  C   UNL A   1      44.645  22.581  27.098  1.00  0.00     0.059 A 
ATOM     71  F   UNL A   1      44.053  22.915  29.288  1.00  0.00    -0.206 F 
ATOM     72  C   UNL A   1      44.922  23.071  25.835  1.00  0.00     0.060 A 
BRANCH  72  73
ATOM     73  S   UNL A   1      45.728  22.035  24.601  1.00  0.00     0.124 S 
ATOM     74  O   UNL A   1      46.324  20.986  25.424  1.00  0.00    -0.237 OA
ATOM     75  O   UNL A   1      44.602  21.627  23.766  1.00  0.00    -0.237 OA
ATOM     76  O   UNL A   1      46.681  22.940  23.964  1.00  0.00    -0.744 OA
ENDBRANCH  72  73
ENDBRANCH  51  65
BRANCH  52  77
ATOM     77  C   UNL A   1      39.228  32.573  32.189  1.00  0.00     0.058 A 
ATOM     78  C   UNL A   1      38.197  31.701  32.596  1.00  0.00     0.135 A 
ATOM     79  C   UNL A   1      38.998  33.941  32.409  1.00  0.00     0.135 A 
ATOM     80  F   UNL A   1      38.345  30.376  32.435  1.00  0.00    -0.206 F 
ATOM     81  C   UNL A   1      37.043  32.142  33.251  1.00  0.00     0.059 A 
ATOM     82  C   UNL A   1      37.855  34.408  33.094  1.00  0.00     0.059 A 
ATOM     83  F   UNL A   1      39.914  34.841  32.027  1.00  0.00    -0.206 F 
ATOM     84  C   UNL A   1      36.886  33.498  33.523  1.00  0.00     0.060 A 
BRANCH  84  85
ATOM     85  S   UNL A   1      35.451  34.020  34.513  1.00  0.00     0.124 S 
ATOM     86  O   UNL A   1      35.922  33.807  35.869  1.00  0.00    -0.237 OA
ATOM     87  O   UNL A   1      35.265  35.412  34.117  1.00  0.00    -0.237 OA
ATOM     88  O   UNL A   1      34.380  33.139  34.056  1.00  0.00    -0.744 OA
ENDBRANCH  84  85
ENDBRANCH  52  77
BRANCH  64  89
ATOM     89  C   UNL A   1      43.814  27.076  34.105  1.00  0.00     0.058 A 
ATOM     90  C   UNL A   1      43.001  26.208  34.853  1.00  0.00     0.135 A 
ATOM     91  C   UNL A   1      45.213  26.869  34.279  1.00  0.00     0.135 A 
ATOM     92  F   UNL A   1      41.670  26.193  34.718  1.00  0.00    -0.206 F 
ATOM     93  C   UNL A   1      43.522  25.268  35.748  1.00  0.00     0.059 A 
ATOM     94  C   UNL A   1      45.752  25.879  35.097  1.00  0.00     0.059 A 
ATOM     95  F   UNL A   1      46.129  27.614  33.645  1.00  0.00    -0.206 F 
ATOM     96  C   UNL A   1      44.899  25.105  35.858  1.00  0.00     0.060 A 
BRANCH  96  97
ATOM     97  S   UNL A   1      45.559  23.857  36.972  1.00  0.00     0.124 S 
ATOM     98  O   UNL A   1      46.992  24.116  36.875  1.00  0.00    -0.237 OA
ATOM     99  O   UNL A   1      44.938  24.207  38.245  1.00  0.00    -0.237 OA
ATOM    100  O   UNL A   1      45.103  22.601  36.385  1.00  0.00    -0.744 OA
ENDBRANCH  96  97
ENDBRANCH  64  89
ENDBRANCH  38  39
ENDBRANCH  30  33
ENDBRANCH  28  29
ENDBRANCH  27  28
ENDBRANCH   1  27
TORSDOF 19
ENDMDL
MODEL 3
REMARK VINA RESULT:     -12.3      1.457      1.994
REMARK SMILES Cc1ccccc1N(CCC(=O)NCCCNC(=O)c1ccc(-c2c3nc(c(-c4c(F)cc(S(=O)(=O)[O-])cc4F)c4ccc([nH]4)c(-c4c(F)cc(S(=O)(=O)[O-])cc4F)c4nc(c(-c5c(F)cc(S(=O)(=O)[O-])cc5F)c5ccc2[nH]5)C=C4)C=C3)cc1)C(=O)[C@@H]1C=C[C@H]([NH3+])C1
REMARK SMILES IDX 14 1 13 2 11 3 12 4 10 6 9 7 8 8 7 9 1 10 2 11 3 12 4 13
REMARK SMILES IDX 6 14 5 15 86 16 87 17 88 18 89 19 93 20 90 21 91 22 92 23
REMARK SMILES IDX 15 27 16 28 17 29 18 30 19 32 20 33 21 34 85 35 22 36 84 37
REMARK SMILES IDX 23 38 24 39 25 40 78 41 26 42 83 43 77 44 79 45 27 46 82 47
REMARK SMILES IDX 76 48 75 49 28 51 62 52 41 53 61 54 42 55 45 56 60 57 80 58
REMARK SMILES IDX 43 59 44 60 59 62 81 63 46 64 29 65 30 66 39 67 31 68 32 69
REMARK SMILES IDX 38 70 40 71 33 72 34 73 35 74 36 75 37 76 63 77 64 78 73 79
REMARK SMILES IDX 65 80 66 81 72 82 74 83 67 84 68 85 69 86 70 87 71 88 47 89
REMARK SMILES IDX 48 90 57 91 49 92 50 93 56 94 58 95 51 96 52 97 53 98 54 99
REMARK SMILES IDX 55 100
REMARK H PARENT 13 5 92 24 92 25 92 26 17 31 79 50 45 61
REMARK Flexibility Score: inf
ROOT
ATOM      1  C   UNL A   1      37.878  21.539  24.996  1.00  0.00     0.117 C 
ENDROOT
BRANCH   1   2
ATOM      2  N   UNL A   1      36.461  21.330  25.295  1.00  0.00    -0.356 N 
ATOM      3  C   UNL A   1      35.344  21.713  24.615  1.00  0.00     0.221 C 
ATOM      4  O   UNL A   1      34.281  21.135  24.863  1.00  0.00    -0.275 OA
ATOM      5  H   UNL A   1      36.286  20.830  26.125  1.00  0.00     0.163 HD
BRANCH   3   6
ATOM      6  C   UNL A   1      35.349  22.879  23.655  1.00  0.00     0.122 C 
BRANCH   6   7
ATOM      7  C   UNL A   1      35.181  24.217  24.384  1.00  0.00     0.135 C 
BRANCH   7   8
ATOM      8  N   UNL A   1      33.851  24.844  24.178  1.00  0.00    -0.311 N 
BRANCH   8   9
ATOM      9  C   UNL A   1      32.723  24.292  24.996  1.00  0.00     0.047 A 
ATOM     10  C   UNL A   1      30.693  24.092  23.273  1.00  0.00     0.046 C 
ATOM     11  C   UNL A   1      31.401  23.941  24.597  1.00  0.00    -0.027 A 
ATOM     12  C   UNL A   1      30.559  23.217  25.511  1.00  0.00     0.005 A 
ATOM     13  C   UNL A   1      30.922  22.911  26.812  1.00  0.00     0.000 A 
ATOM     14  C   UNL A   1      33.014  23.993  26.364  1.00  0.00     0.026 A 
ATOM     15  C   UNL A   1      32.152  23.331  27.250  1.00  0.00     0.002 A 
ENDBRANCH   8   9
BRANCH   8  16
ATOM     16  C   UNL A   1      33.764  25.913  23.246  1.00  0.00     0.234 C 
ATOM     17  O   UNL A   1      33.638  25.748  22.032  1.00  0.00    -0.274 OA
BRANCH  16  18
ATOM     18  C   UNL A   1      33.763  27.398  23.790  1.00  0.00     0.108 C 
ATOM     19  C   UNL A   1      32.660  27.684  24.774  1.00  0.00    -0.012 C 
ATOM     20  C   UNL A   1      33.487  28.462  22.717  1.00  0.00     0.087 C 
ATOM     21  C   UNL A   1      31.720  28.480  24.247  1.00  0.00     0.033 C 
ATOM     22  C   UNL A   1      31.996  28.771  22.814  1.00  0.00     0.205 C 
BRANCH  22  23
ATOM     23  N   UNL A   1      31.230  27.843  22.002  1.00  0.00    -0.352 N 
ATOM     24  H   UNL A   1      31.173  26.942  22.477  1.00  0.00     0.345 HD
ATOM     25  H   UNL A   1      31.689  27.723  21.099  1.00  0.00     0.345 HD
ATOM     26  H   UNL A   1      30.290  28.213  21.859  1.00  0.00     0.345 HD
ENDBRANCH  22  23
ENDBRANCH  16  18
ENDBRANCH   8  16
ENDBRANCH   7   8
ENDBRANCH   6   7
ENDBRANCH   3   6
ENDBRANCH   1   2
BRANCH   1  27
ATOM     27  C   UNL A   1      38.787  21.957  26.155  1.00  0.00     0.042 C 
BRANCH  27  28
ATOM     28  C   UNL A   1      39.049  23.456  26.435  1.00  0.00     0.118 C 
BRANCH  28  29
ATOM     29  N   UNL A   1      40.486  23.794  26.542  1.00  0.00    -0.352 N 
ATOM     30  C   UNL A   1      41.132  24.983  26.840  1.00  0.00     0.251 C 
ATOM     31  H   UNL A   1      41.091  23.037  26.370  1.00  0.00     0.163 HD
ATOM     32  O   UNL A   1      42.351  25.114  26.853  1.00  0.00    -0.269 OA
BRANCH  30  33
ATOM     33  C   UNL A   1      40.319  26.126  27.246  1.00  0.00     0.039 A 
ATOM     34  C   UNL A   1      40.417  27.312  26.502  1.00  0.00     0.014 A 
ATOM     35  C   UNL A   1      39.684  26.074  28.475  1.00  0.00     0.014 A 
ATOM     36  C   UNL A   1      40.165  28.513  27.141  1.00  0.00     0.010 A 
ATOM     37  C   UNL A   1      39.450  27.266  29.102  1.00  0.00     0.010 A 
ATOM     38  C   UNL A   1      39.825  28.456  28.485  1.00  0.00    -0.014 A 
BRANCH  38  39
ATOM     39  C   UNL A   1      39.943  29.580  29.386  1.00  0.00     0.031 A 
ATOM     40  C   UNL A   1      38.873  30.565  29.329  1.00  0.00     0.074 A 
ATOM     41  C   UNL A   1      40.985  29.606  30.243  1.00  0.00     0.049 A 
ATOM     42  N   UNL A   1      39.048  31.835  29.297  1.00  0.00    -0.248 NA
ATOM     43  C   UNL A   1      37.482  30.161  29.163  1.00  0.00     0.031 C 
ATOM     44  C   UNL A   1      41.275  30.560  31.303  1.00  0.00     0.029 A 
ATOM     45  N   UNL A   1      42.133  28.801  30.172  1.00  0.00    -0.354 N 
ATOM     46  C   UNL A   1      37.800  32.392  29.485  1.00  0.00     0.074 A 
ATOM     47  C   UNL A   1      36.870  31.344  29.155  1.00  0.00     0.031 C 
ATOM     48  C   UNL A   1      42.595  30.508  31.566  1.00  0.00     0.029 A 
ATOM     49  C   UNL A   1      43.208  29.585  30.616  1.00  0.00     0.049 A 
ATOM     50  H   UNL A   1      42.176  27.866  29.870  1.00  0.00     0.167 HD
ATOM     51  C   UNL A   1      37.704  33.579  30.147  1.00  0.00     0.037 A 
ATOM     52  C   UNL A   1      44.177  29.926  29.717  1.00  0.00     0.037 A 
ATOM     53  C   UNL A   1      39.051  34.014  30.546  1.00  0.00     0.049 A 
ATOM     54  C   UNL A   1      44.124  31.399  29.352  1.00  0.00     0.074 A 
ATOM     55  C   UNL A   1      39.742  33.908  31.743  1.00  0.00     0.029 A 
ATOM     56  N   UNL A   1      40.011  34.260  29.567  1.00  0.00    -0.354 N 
ATOM     57  N   UNL A   1      43.068  32.157  29.511  1.00  0.00    -0.248 NA
ATOM     58  C   UNL A   1      45.275  32.156  28.873  1.00  0.00     0.031 C 
ATOM     59  C   UNL A   1      41.131  34.028  31.464  1.00  0.00     0.029 A 
ATOM     60  C   UNL A   1      41.287  34.218  30.101  1.00  0.00     0.049 A 
ATOM     61  H   UNL A   1      39.808  34.441  28.620  1.00  0.00     0.167 HD
ATOM     62  C   UNL A   1      43.367  33.460  29.182  1.00  0.00     0.074 A 
ATOM     63  C   UNL A   1      44.769  33.401  28.808  1.00  0.00     0.031 C 
ATOM     64  C   UNL A   1      42.451  34.479  29.256  1.00  0.00     0.037 A 
BRANCH  51  65
ATOM     65  C   UNL A   1      36.418  34.140  30.737  1.00  0.00     0.058 A 
ATOM     66  C   UNL A   1      35.352  34.526  29.896  1.00  0.00     0.135 A 
ATOM     67  C   UNL A   1      36.161  34.333  32.113  1.00  0.00     0.135 A 
ATOM     68  F   UNL A   1      35.402  34.331  28.571  1.00  0.00    -0.206 F 
ATOM     69  C   UNL A   1      34.174  35.114  30.369  1.00  0.00     0.059 A 
ATOM     70  C   UNL A   1      35.020  34.971  32.607  1.00  0.00     0.059 A 
ATOM     71  F   UNL A   1      36.965  33.843  33.062  1.00  0.00    -0.206 F 
ATOM     72  C   UNL A   1      34.023  35.350  31.728  1.00  0.00     0.060 A 
BRANCH  72  73
ATOM     73  S   UNL A   1      32.487  36.071  32.333  1.00  0.00     0.124 S 
ATOM     74  O   UNL A   1      32.947  36.864  33.469  1.00  0.00    -0.237 OA
ATOM     75  O   UNL A   1      32.031  36.828  31.172  1.00  0.00    -0.237 OA
ATOM     76  O   UNL A   1      31.674  34.908  32.677  1.00  0.00    -0.744 OA
ENDBRANCH  72  73
ENDBRANCH  51  65
BRANCH  52  77
ATOM     77  C   UNL A   1      44.667  28.760  28.910  1.00  0.00     0.058 A 
ATOM     78  C   UNL A   1      44.202  28.655  27.583  1.00  0.00     0.135 A 
ATOM     79  C   UNL A   1      45.813  28.010  29.220  1.00  0.00     0.135 A 
ATOM     80  F   UNL A   1      43.120  29.353  27.200  1.00  0.00    -0.206 F 
ATOM     81  C   UNL A   1      44.868  27.915  26.600  1.00  0.00     0.059 A 
ATOM     82  C   UNL A   1      46.518  27.279  28.239  1.00  0.00     0.059 A 
ATOM     83  F   UNL A   1      46.306  28.031  30.466  1.00  0.00    -0.206 F 
ATOM     84  C   UNL A   1      46.044  27.248  26.926  1.00  0.00     0.060 A 
BRANCH  84  85
ATOM     85  S   UNL A   1      46.969  26.426  25.592  1.00  0.00     0.124 S 
ATOM     86  O   UNL A   1      47.192  27.515  24.659  1.00  0.00    -0.237 OA
ATOM     87  O   UNL A   1      48.157  25.923  26.274  1.00  0.00    -0.237 OA
ATOM     88  O   UNL A   1      46.065  25.369  25.147  1.00  0.00    -0.744 OA
ENDBRANCH  84  85
ENDBRANCH  52  77
BRANCH  64  89
ATOM     89  C   UNL A   1      42.563  35.860  28.617  1.00  0.00     0.058 A 
ATOM     90  C   UNL A   1      41.987  36.222  27.388  1.00  0.00     0.135 A 
ATOM     91  C   UNL A   1      43.148  36.943  29.334  1.00  0.00     0.135 A 
ATOM     92  F   UNL A   1      41.297  35.349  26.645  1.00  0.00    -0.206 F 
ATOM     93  C   UNL A   1      42.048  37.523  26.878  1.00  0.00     0.059 A 
ATOM     94  C   UNL A   1      43.140  38.261  28.886  1.00  0.00     0.059 A 
ATOM     95  F   UNL A   1      43.746  36.772  30.521  1.00  0.00    -0.206 F 
ATOM     96  C   UNL A   1      42.620  38.538  27.637  1.00  0.00     0.060 A 
BRANCH  96  97
ATOM     97  S   UNL A   1      42.645  40.219  26.997  1.00  0.00     0.124 S 
ATOM     98  O   UNL A   1      42.983  40.978  28.198  1.00  0.00    -0.237 OA
ATOM     99  O   UNL A   1      43.687  40.154  25.977  1.00  0.00    -0.237 OA
ATOM    100  O   UNL A   1      41.291  40.411  26.489  1.00  0.00    -0.744 OA
ENDBRANCH  96  97
ENDBRANCH  64  89
ENDBRANCH  38  39
ENDBRANCH  30  33
ENDBRANCH  28  29
ENDBRANCH  27  28
ENDBRANCH   1  27
TORSDOF 19
ENDMDL
