MODEL 1
REMARK VINA RESULT:     -11.7      0.000      0.000
REMARK SMILES O=C(NCCCNC(=O)[C@H]1C[C@@H]2CCCC[C@H]2N1C(=O)CN1CSCC1=O)c1ccc(-c2c3nc(c(-c4c(F)cc(S(=O)(=O)[O-])cc4F)c4ccc([nH]4)c(-c4c(F)cc(S(=O)(=O)[O-])cc4F)c4nc(c(-c5c(F)cc(S(=O)(=O)[O-])cc5F)c5ccc2[nH]5)C=C4)C=C3)cc1
REMARK SMILES IDX 5 1 4 2 3 3 1 4 2 5 28 7 29 8 93 9 30 10 92 11 31 12 32 13
REMARK SMILES IDX 33 14 86 15 34 16 91 17 85 18 87 19 35 20 90 21 84 22 83 23
REMARK SMILES IDX 36 25 70 26 49 27 69 28 50 29 53 30 68 31 88 32 51 33 52 34
REMARK SMILES IDX 67 36 89 37 54 38 37 39 38 40 47 41 39 42 40 43 46 44 48 45
REMARK SMILES IDX 41 46 42 47 43 48 44 49 45 50 71 51 72 52 81 53 73 54 74 55
REMARK SMILES IDX 80 56 82 57 75 58 76 59 77 60 78 61 79 62 55 63 56 64 65 65
REMARK SMILES IDX 57 66 58 67 64 68 66 69 59 70 60 71 61 72 62 73 63 74 6 75
REMARK SMILES IDX 7 76 8 77 9 79 10 80 11 81 18 82 12 83 17 84 13 85 16 86
REMARK SMILES IDX 14 87 15 88 19 89 20 90 21 91 22 92 23 93 26 94 24 95 25 96
REMARK SMILES IDX 27 97
REMARK H PARENT 3 6 87 24 53 35 7 78
REMARK Flexibility Score: inf
ROOT
ATOM      1  C   UNL A   1      33.317  27.910  25.759  1.00  0.00     0.042 C 
ENDROOT
BRANCH   1   2
ATOM      2  C   UNL A   1      33.510  28.251  27.241  1.00  0.00     0.118 C 
BRANCH   2   3
ATOM      3  N   UNL A   1      33.481  29.687  27.485  1.00  0.00    -0.352 N 
ATOM      4  O   UNL A   1      34.097  31.637  28.415  1.00  0.00    -0.269 OA
ATOM      5  C   UNL A   1      34.419  30.506  28.062  1.00  0.00     0.251 C 
ATOM      6  H   UNL A   1      32.658  30.141  27.189  1.00  0.00     0.163 HD
BRANCH   5   7
ATOM      7  C   UNL A   1      35.810  30.038  28.253  1.00  0.00     0.039 A 
ATOM      8  C   UNL A   1      36.741  30.134  27.216  1.00  0.00     0.014 A 
ATOM      9  C   UNL A   1      36.210  29.573  29.510  1.00  0.00     0.014 A 
ATOM     10  C   UNL A   1      38.037  29.665  27.400  1.00  0.00     0.010 A 
ATOM     11  C   UNL A   1      37.536  29.179  29.718  1.00  0.00     0.010 A 
ATOM     12  C   UNL A   1      38.458  29.216  28.661  1.00  0.00    -0.014 A 
BRANCH  12  13
ATOM     13  C   UNL A   1      39.895  28.911  28.884  1.00  0.00     0.031 A 
ATOM     14  C   UNL A   1      40.481  27.585  28.493  1.00  0.00     0.074 A 
ATOM     15  C   UNL A   1      40.663  29.857  29.464  1.00  0.00     0.049 A 
ATOM     16  N   UNL A   1      41.704  27.150  28.656  1.00  0.00    -0.248 NA
ATOM     17  C   UNL A   1      39.583  26.617  27.844  1.00  0.00     0.031 C 
ATOM     18  C   UNL A   1      40.188  31.174  29.900  1.00  0.00     0.029 A 
ATOM     19  N   UNL A   1      41.995  29.865  29.790  1.00  0.00    -0.354 N 
ATOM     20  C   UNL A   1      41.721  25.854  28.155  1.00  0.00     0.074 A 
ATOM     21  C   UNL A   1      40.381  25.566  27.691  1.00  0.00     0.031 C 
ATOM     22  C   UNL A   1      41.213  31.867  30.414  1.00  0.00     0.029 A 
ATOM     23  C   UNL A   1      42.399  31.022  30.413  1.00  0.00     0.049 A 
ATOM     24  H   UNL A   1      42.602  29.115  29.595  1.00  0.00     0.167 HD
ATOM     25  C   UNL A   1      42.763  24.991  28.094  1.00  0.00     0.037 A 
ATOM     26  C   UNL A   1      43.581  31.354  30.966  1.00  0.00     0.037 A 
ATOM     27  C   UNL A   1      44.096  25.307  28.544  1.00  0.00     0.049 A 
ATOM     28  C   UNL A   1      44.708  30.362  30.911  1.00  0.00     0.074 A 
ATOM     29  C   UNL A   1      45.238  24.529  28.453  1.00  0.00     0.029 A 
ATOM     30  N   UNL A   1      44.463  26.481  29.184  1.00  0.00    -0.354 N 
ATOM     31  N   UNL A   1      44.725  29.169  30.363  1.00  0.00    -0.248 NA
ATOM     32  C   UNL A   1      45.970  30.749  31.554  1.00  0.00     0.031 C 
ATOM     33  C   UNL A   1      46.278  25.204  29.098  1.00  0.00     0.029 A 
ATOM     34  C   UNL A   1      45.802  26.429  29.538  1.00  0.00     0.049 A 
ATOM     35  H   UNL A   1      43.862  27.240  29.362  1.00  0.00     0.167 HD
ATOM     36  C   UNL A   1      46.002  28.669  30.587  1.00  0.00     0.074 A 
ATOM     37  C   UNL A   1      46.735  29.698  31.295  1.00  0.00     0.031 C 
ATOM     38  C   UNL A   1      46.517  27.464  30.243  1.00  0.00     0.037 A 
BRANCH  25  39
ATOM     39  C   UNL A   1      42.520  23.610  27.548  1.00  0.00     0.058 A 
ATOM     40  C   UNL A   1      42.578  23.330  26.174  1.00  0.00     0.135 A 
ATOM     41  C   UNL A   1      42.322  22.530  28.426  1.00  0.00     0.135 A 
ATOM     42  F   UNL A   1      42.752  24.324  25.288  1.00  0.00    -0.206 F 
ATOM     43  C   UNL A   1      42.441  22.032  25.690  1.00  0.00     0.059 A 
ATOM     44  C   UNL A   1      42.208  21.221  27.966  1.00  0.00     0.059 A 
ATOM     45  F   UNL A   1      42.257  22.741  29.750  1.00  0.00    -0.206 F 
ATOM     46  C   UNL A   1      42.263  20.983  26.595  1.00  0.00     0.060 A 
BRANCH  46  47
ATOM     47  S   UNL A   1      42.124  19.302  25.949  1.00  0.00     0.124 S 
ATOM     48  O   UNL A   1      42.616  18.515  27.075  1.00  0.00    -0.237 OA
ATOM     49  O   UNL A   1      40.694  19.191  25.676  1.00  0.00    -0.237 OA
ATOM     50  O   UNL A   1      42.985  19.316  24.771  1.00  0.00    -0.744 OA
ENDBRANCH  46  47
ENDBRANCH  25  39
BRANCH  26  51
ATOM     51  C   UNL A   1      43.737  32.660  31.661  1.00  0.00     0.058 A 
ATOM     52  C   UNL A   1      43.563  32.773  33.048  1.00  0.00     0.135 A 
ATOM     53  C   UNL A   1      44.066  33.824  30.947  1.00  0.00     0.135 A 
ATOM     54  F   UNL A   1      43.246  31.692  33.775  1.00  0.00    -0.206 F 
ATOM     55  C   UNL A   1      43.683  33.997  33.698  1.00  0.00     0.059 A 
ATOM     56  C   UNL A   1      44.224  35.052  31.579  1.00  0.00     0.059 A 
ATOM     57  F   UNL A   1      44.261  33.768  29.620  1.00  0.00    -0.206 F 
ATOM     58  C   UNL A   1      44.013  35.132  32.952  1.00  0.00     0.060 A 
BRANCH  58  59
ATOM     59  S   UNL A   1      44.180  36.713  33.807  1.00  0.00     0.124 S 
ATOM     60  O   UNL A   1      45.011  36.341  34.947  1.00  0.00    -0.237 OA
ATOM     61  O   UNL A   1      44.819  37.545  32.794  1.00  0.00    -0.237 OA
ATOM     62  O   UNL A   1      42.800  37.071  34.123  1.00  0.00    -0.744 OA
ENDBRANCH  58  59
ENDBRANCH  26  51
BRANCH  38  63
ATOM     63  C   UNL A   1      47.947  27.193  30.615  1.00  0.00     0.058 A 
ATOM     64  C   UNL A   1      48.281  26.514  31.797  1.00  0.00     0.135 A 
ATOM     65  C   UNL A   1      48.990  27.555  29.748  1.00  0.00     0.135 A 
ATOM     66  F   UNL A   1      47.321  26.159  32.666  1.00  0.00    -0.206 F 
ATOM     67  C   UNL A   1      49.600  26.209  32.111  1.00  0.00     0.059 A 
ATOM     68  C   UNL A   1      50.315  27.235  30.027  1.00  0.00     0.059 A 
ATOM     69  F   UNL A   1      48.724  28.203  28.602  1.00  0.00    -0.206 F 
ATOM     70  C   UNL A   1      50.609  26.565  31.214  1.00  0.00     0.060 A 
BRANCH  70  71
ATOM     71  S   UNL A   1      52.311  26.105  31.604  1.00  0.00     0.124 S 
ATOM     72  O   UNL A   1      52.673  27.120  32.588  1.00  0.00    -0.237 OA
ATOM     73  O   UNL A   1      52.155  24.749  32.120  1.00  0.00    -0.237 OA
ATOM     74  O   UNL A   1      52.994  26.206  30.318  1.00  0.00    -0.744 OA
ENDBRANCH  70  71
ENDBRANCH  38  63
ENDBRANCH  12  13
ENDBRANCH   5   7
ENDBRANCH   2   3
ENDBRANCH   1   2
BRANCH   1  75
ATOM     75  C   UNL A   1      32.094  27.029  25.477  1.00  0.00     0.117 C 
BRANCH  75  76
ATOM     76  N   UNL A   1      32.106  25.846  26.310  1.00  0.00    -0.354 N 
ATOM     77  C   UNL A   1      32.565  24.589  26.113  1.00  0.00     0.242 C 
ATOM     78  H   UNL A   1      31.698  25.983  27.197  1.00  0.00     0.163 HD
ATOM     79  O   UNL A   1      31.921  23.718  26.719  1.00  0.00    -0.273 OA
BRANCH  77  80
ATOM     80  C   UNL A   1      33.830  24.175  25.312  1.00  0.00     0.175 C 
ATOM     81  C   UNL A   1      35.244  24.587  25.781  1.00  0.00     0.041 C 
ATOM     82  N   UNL A   1      33.971  22.753  24.886  1.00  0.00    -0.326 N 
ATOM     83  C   UNL A   1      35.989  23.256  25.899  1.00  0.00     0.014 C 
ATOM     84  C   UNL A   1      35.381  22.441  24.753  1.00  0.00     0.089 C 
ATOM     85  C   UNL A   1      37.510  23.290  25.795  1.00  0.00     0.006 C 
ATOM     86  C   UNL A   1      35.857  20.999  24.888  1.00  0.00     0.025 C 
ATOM     87  C   UNL A   1      38.088  21.868  25.733  1.00  0.00     0.000 C 
ATOM     88  C   UNL A   1      37.380  20.977  24.706  1.00  0.00     0.002 C 
BRANCH  82  89
ATOM     89  C   UNL A   1      32.905  22.135  24.258  1.00  0.00     0.243 C 
ATOM     90  O   UNL A   1      32.391  22.659  23.265  1.00  0.00    -0.273 OA
BRANCH  89  91
ATOM     91  C   UNL A   1      32.180  20.939  24.902  1.00  0.00     0.220 C 
BRANCH  91  92
ATOM     92  N   UNL A   1      32.675  19.608  24.575  1.00  0.00    -0.323 N 
ATOM     93  C   UNL A   1      32.864  18.628  25.610  1.00  0.00     0.190 C 
ATOM     94  C   UNL A   1      32.490  19.091  23.301  1.00  0.00     0.233 C 
ATOM     95  S   UNL A   1      33.605  17.201  24.815  1.00  0.00    -0.130 SA
ATOM     96  C   UNL A   1      32.955  17.656  23.190  1.00  0.00     0.171 C 
ATOM     97  O   UNL A   1      32.018  19.717  22.360  1.00  0.00    -0.274 OA
ENDBRANCH  91  92
ENDBRANCH  89  91
ENDBRANCH  82  89
ENDBRANCH  77  80
ENDBRANCH  75  76
ENDBRANCH   1  75
TORSDOF 16
ENDMDL
MODEL 2
REMARK VINA RESULT:     -11.7      1.346      2.089
REMARK SMILES O=C(NCCCNC(=O)[C@H]1C[C@@H]2CCCC[C@H]2N1C(=O)CN1CSCC1=O)c1ccc(-c2c3nc(c(-c4c(F)cc(S(=O)(=O)[O-])cc4F)c4ccc([nH]4)c(-c4c(F)cc(S(=O)(=O)[O-])cc4F)c4nc(c(-c5c(F)cc(S(=O)(=O)[O-])cc5F)c5ccc2[nH]5)C=C4)C=C3)cc1
REMARK SMILES IDX 5 1 4 2 3 3 1 4 2 5 28 7 29 8 93 9 30 10 92 11 31 12 32 13
REMARK SMILES IDX 33 14 86 15 34 16 91 17 85 18 87 19 35 20 90 21 84 22 83 23
REMARK SMILES IDX 36 25 70 26 49 27 69 28 50 29 53 30 68 31 88 32 51 33 52 34
REMARK SMILES IDX 67 36 89 37 54 38 37 39 38 40 47 41 39 42 40 43 46 44 48 45
REMARK SMILES IDX 41 46 42 47 43 48 44 49 45 50 71 51 72 52 81 53 73 54 74 55
REMARK SMILES IDX 80 56 82 57 75 58 76 59 77 60 78 61 79 62 55 63 56 64 65 65
REMARK SMILES IDX 57 66 58 67 64 68 66 69 59 70 60 71 61 72 62 73 63 74 6 75
REMARK SMILES IDX 7 76 8 77 9 79 10 80 11 81 18 82 12 83 17 84 13 85 16 86
REMARK SMILES IDX 14 87 15 88 19 89 20 90 21 91 22 92 23 93 26 94 24 95 25 96
REMARK SMILES IDX 27 97
REMARK H PARENT 3 6 87 24 53 35 7 78
REMARK Flexibility Score: inf
ROOT
ATOM      1  C   UNL A   1      32.873  28.055  25.854  1.00  0.00     0.042 C 
ENDROOT
BRANCH   1   2
ATOM      2  C   UNL A   1      33.583  28.361  27.178  1.00  0.00     0.118 C 
BRANCH   2   3
ATOM      3  N   UNL A   1      33.543  29.780  27.509  1.00  0.00    -0.352 N 
ATOM      4  O   UNL A   1      34.139  31.671  28.566  1.00  0.00    -0.269 OA
ATOM      5  C   UNL A   1      34.471  30.566  28.147  1.00  0.00     0.251 C 
ATOM      6  H   UNL A   1      32.722  30.248  27.232  1.00  0.00     0.163 HD
BRANCH   5   7
ATOM      7  C   UNL A   1      35.862  30.093  28.326  1.00  0.00     0.039 A 
ATOM      8  C   UNL A   1      36.792  30.212  27.291  1.00  0.00     0.014 A 
ATOM      9  C   UNL A   1      36.262  29.598  29.572  1.00  0.00     0.014 A 
ATOM     10  C   UNL A   1      38.088  29.739  27.464  1.00  0.00     0.010 A 
ATOM     11  C   UNL A   1      37.588  29.198  29.770  1.00  0.00     0.010 A 
ATOM     12  C   UNL A   1      38.510  29.259  28.714  1.00  0.00    -0.014 A 
BRANCH  12  13
ATOM     13  C   UNL A   1      39.946  28.948  28.929  1.00  0.00     0.031 A 
ATOM     14  C   UNL A   1      40.526  27.622  28.532  1.00  0.00     0.074 A 
ATOM     15  C   UNL A   1      40.721  29.891  29.507  1.00  0.00     0.049 A 
ATOM     16  N   UNL A   1      41.747  27.182  28.687  1.00  0.00    -0.248 NA
ATOM     17  C   UNL A   1      39.621  26.658  27.885  1.00  0.00     0.031 C 
ATOM     18  C   UNL A   1      40.252  31.208  29.948  1.00  0.00     0.029 A 
ATOM     19  N   UNL A   1      42.054  29.893  29.826  1.00  0.00    -0.354 N 
ATOM     20  C   UNL A   1      41.757  25.887  28.183  1.00  0.00     0.074 A 
ATOM     21  C   UNL A   1      40.414  25.605  27.726  1.00  0.00     0.031 C 
ATOM     22  C   UNL A   1      41.283  31.896  30.459  1.00  0.00     0.029 A 
ATOM     23  C   UNL A   1      42.466  31.047  30.450  1.00  0.00     0.049 A 
ATOM     24  H   UNL A   1      42.658  29.141  29.626  1.00  0.00     0.167 HD
ATOM     25  C   UNL A   1      42.796  25.020  28.115  1.00  0.00     0.037 A 
ATOM     26  C   UNL A   1      43.652  31.373  30.997  1.00  0.00     0.037 A 
ATOM     27  C   UNL A   1      44.132  25.330  28.558  1.00  0.00     0.049 A 
ATOM     28  C   UNL A   1      44.775  30.377  30.935  1.00  0.00     0.074 A 
ATOM     29  C   UNL A   1      45.270  24.548  28.460  1.00  0.00     0.029 A 
ATOM     30  N   UNL A   1      44.507  26.501  29.200  1.00  0.00    -0.354 N 
ATOM     31  N   UNL A   1      44.785  29.186  30.384  1.00  0.00    -0.248 NA
ATOM     32  C   UNL A   1      46.041  30.758  31.572  1.00  0.00     0.031 C 
ATOM     33  C   UNL A   1      46.317  25.218  29.101  1.00  0.00     0.029 A 
ATOM     34  C   UNL A   1      45.848  26.444  29.546  1.00  0.00     0.049 A 
ATOM     35  H   UNL A   1      43.910  27.262  29.383  1.00  0.00     0.167 HD
ATOM     36  C   UNL A   1      46.061  28.681  30.600  1.00  0.00     0.074 A 
ATOM     37  C   UNL A   1      46.801  29.705  31.307  1.00  0.00     0.031 C 
ATOM     38  C   UNL A   1      46.570  27.474  30.250  1.00  0.00     0.037 A 
BRANCH  25  39
ATOM     39  C   UNL A   1      42.545  23.642  27.566  1.00  0.00     0.058 A 
ATOM     40  C   UNL A   1      42.588  23.366  26.192  1.00  0.00     0.135 A 
ATOM     41  C   UNL A   1      42.355  22.559  28.443  1.00  0.00     0.135 A 
ATOM     42  F   UNL A   1      42.754  24.362  25.307  1.00  0.00    -0.206 F 
ATOM     43  C   UNL A   1      42.444  22.070  25.705  1.00  0.00     0.059 A 
ATOM     44  C   UNL A   1      42.234  21.252  27.980  1.00  0.00     0.059 A 
ATOM     45  F   UNL A   1      42.304  22.765  29.769  1.00  0.00    -0.206 F 
ATOM     46  C   UNL A   1      42.274  21.018  26.607  1.00  0.00     0.060 A 
BRANCH  46  47
ATOM     47  S   UNL A   1      42.126  19.339  25.958  1.00  0.00     0.124 S 
ATOM     48  O   UNL A   1      42.953  19.416  24.758  1.00  0.00    -0.237 OA
ATOM     49  O   UNL A   1      42.667  18.535  27.050  1.00  0.00    -0.237 OA
ATOM     50  O   UNL A   1      40.693  19.189  25.723  1.00  0.00    -0.744 OA
ENDBRANCH  46  47
ENDBRANCH  25  39
BRANCH  26  51
ATOM     51  C   UNL A   1      43.816  32.677  31.695  1.00  0.00     0.058 A 
ATOM     52  C   UNL A   1      43.566  32.806  33.069  1.00  0.00     0.135 A 
ATOM     53  C   UNL A   1      44.229  33.824  30.996  1.00  0.00     0.135 A 
ATOM     54  F   UNL A   1      43.167  31.742  33.781  1.00  0.00    -0.206 F 
ATOM     55  C   UNL A   1      43.694  34.029  33.720  1.00  0.00     0.059 A 
ATOM     56  C   UNL A   1      44.397  35.049  31.631  1.00  0.00     0.059 A 
ATOM     57  F   UNL A   1      44.499  33.751  29.683  1.00  0.00    -0.206 F 
ATOM     58  C   UNL A   1      44.109  35.145  32.990  1.00  0.00     0.060 A 
BRANCH  58  59
ATOM     59  S   UNL A   1      44.286  36.725  33.846  1.00  0.00     0.124 S 
ATOM     60  O   UNL A   1      42.927  37.249  33.773  1.00  0.00    -0.237 OA
ATOM     61  O   UNL A   1      44.740  36.308  35.168  1.00  0.00    -0.237 OA
ATOM     62  O   UNL A   1      45.279  37.432  33.044  1.00  0.00    -0.744 OA
ENDBRANCH  58  59
ENDBRANCH  26  51
BRANCH  38  63
ATOM     63  C   UNL A   1      48.001  27.197  30.615  1.00  0.00     0.058 A 
ATOM     64  C   UNL A   1      48.335  26.438  31.747  1.00  0.00     0.135 A 
ATOM     65  C   UNL A   1      49.045  27.636  29.786  1.00  0.00     0.135 A 
ATOM     66  F   UNL A   1      47.374  26.007  32.579  1.00  0.00    -0.206 F 
ATOM     67  C   UNL A   1      49.656  26.130  32.050  1.00  0.00     0.059 A 
ATOM     68  C   UNL A   1      50.372  27.316  30.052  1.00  0.00     0.059 A 
ATOM     69  F   UNL A   1      48.779  28.363  28.688  1.00  0.00    -0.206 F 
ATOM     70  C   UNL A   1      50.667  26.565  31.190  1.00  0.00     0.060 A 
BRANCH  70  71
ATOM     71  S   UNL A   1      52.372  26.102  31.561  1.00  0.00     0.124 S 
ATOM     72  O   UNL A   1      52.971  26.090  30.230  1.00  0.00    -0.237 OA
ATOM     73  O   UNL A   1      52.803  27.185  32.440  1.00  0.00    -0.237 OA
ATOM     74  O   UNL A   1      52.239  24.797  32.201  1.00  0.00    -0.744 OA
ENDBRANCH  70  71
ENDBRANCH  38  63
ENDBRANCH  12  13
ENDBRANCH   5   7
ENDBRANCH   2   3
ENDBRANCH   1   2
BRANCH   1  75
ATOM     75  C   UNL A   1      31.523  27.348  26.021  1.00  0.00     0.117 C 
BRANCH  75  76
ATOM     76  N   UNL A   1      31.654  26.172  26.854  1.00  0.00    -0.354 N 
ATOM     77  C   UNL A   1      32.101  24.919  26.610  1.00  0.00     0.242 C 
ATOM     78  H   UNL A   1      31.359  26.311  27.784  1.00  0.00     0.163 HD
ATOM     79  O   UNL A   1      31.550  24.046  27.298  1.00  0.00    -0.273 OA
BRANCH  77  80
ATOM     80  C   UNL A   1      33.262  24.514  25.659  1.00  0.00     0.175 C 
ATOM     81  C   UNL A   1      34.725  24.903  25.972  1.00  0.00     0.041 C 
ATOM     82  N   UNL A   1      33.338  23.102  25.188  1.00  0.00    -0.326 N 
ATOM     83  C   UNL A   1      35.464  23.563  25.974  1.00  0.00     0.014 C 
ATOM     84  C   UNL A   1      34.720  22.781  24.887  1.00  0.00     0.089 C 
ATOM     85  C   UNL A   1      36.963  23.587  25.696  1.00  0.00     0.006 C 
ATOM     86  C   UNL A   1      35.192  21.333  24.934  1.00  0.00     0.025 C 
ATOM     87  C   UNL A   1      37.514  22.162  25.536  1.00  0.00     0.000 C 
ATOM     88  C   UNL A   1      36.684  21.302  24.577  1.00  0.00     0.002 C 
BRANCH  82  89
ATOM     89  C   UNL A   1      32.200  22.507  24.672  1.00  0.00     0.243 C 
ATOM     90  O   UNL A   1      31.737  21.498  25.211  1.00  0.00    -0.273 OA
BRANCH  89  91
ATOM     91  C   UNL A   1      31.634  22.918  23.299  1.00  0.00     0.220 C 
BRANCH  91  92
ATOM     92  N   UNL A   1      31.919  24.273  22.843  1.00  0.00    -0.323 N 
ATOM     93  C   UNL A   1      32.872  24.500  21.792  1.00  0.00     0.190 C 
ATOM     94  C   UNL A   1      30.972  25.274  23.007  1.00  0.00     0.233 C 
ATOM     95  S   UNL A   1      33.024  26.280  21.635  1.00  0.00    -0.130 SA
ATOM     96  C   UNL A   1      31.393  26.574  22.359  1.00  0.00     0.171 C 
ATOM     97  O   UNL A   1      29.918  25.139  23.617  1.00  0.00    -0.274 OA
ENDBRANCH  91  92
ENDBRANCH  89  91
ENDBRANCH  82  89
ENDBRANCH  77  80
ENDBRANCH  75  76
ENDBRANCH   1  75
TORSDOF 16
ENDMDL
MODEL 3
REMARK VINA RESULT:     -11.4      3.454      9.379
REMARK SMILES O=C(NCCCNC(=O)[C@H]1C[C@@H]2CCCC[C@H]2N1C(=O)CN1CSCC1=O)c1ccc(-c2c3nc(c(-c4c(F)cc(S(=O)(=O)[O-])cc4F)c4ccc([nH]4)c(-c4c(F)cc(S(=O)(=O)[O-])cc4F)c4nc(c(-c5c(F)cc(S(=O)(=O)[O-])cc5F)c5ccc2[nH]5)C=C4)C=C3)cc1
REMARK SMILES IDX 5 1 4 2 3 3 1 4 2 5 28 7 29 8 93 9 30 10 92 11 31 12 32 13
REMARK SMILES IDX 33 14 86 15 34 16 91 17 85 18 87 19 35 20 90 21 84 22 83 23
REMARK SMILES IDX 36 25 70 26 49 27 69 28 50 29 53 30 68 31 88 32 51 33 52 34
REMARK SMILES IDX 67 36 89 37 54 38 37 39 38 40 47 41 39 42 40 43 46 44 48 45
REMARK SMILES IDX 41 46 42 47 43 48 44 49 45 50 71 51 72 52 81 53 73 54 74 55
REMARK SMILES IDX 80 56 82 57 75 58 76 59 77 60 78 61 79 62 55 63 56 64 65 65
REMARK SMILES IDX 57 66 58 67 64 68 66 69 59 70 60 71 61 72 62 73 63 74 6 75
REMARK SMILES IDX 7 76 8 77 9 79 10 80 11 81 18 82 12 83 17 84 13 85 16 86
REMARK SMILES IDX 14 87 15 88 19 89 20 90 21 91 22 92 23 93 26 94 24 95 25 96
REMARK SMILES IDX 27 97
REMARK H PARENT 3 6 87 24 53 35 7 78
REMARK Flexibility Score: inf
ROOT
ATOM      1  C   UNL A   1      34.759  28.924  27.104  1.00  0.00     0.042 C 
ENDROOT
BRANCH   1   2
ATOM      2  C   UNL A   1      35.485  30.174  27.614  1.00  0.00     0.118 C 
BRANCH   2   3
ATOM      3  N   UNL A   1      35.357  30.336  29.056  1.00  0.00    -0.352 N 
ATOM      4  O   UNL A   1      35.868  30.029  31.223  1.00  0.00    -0.269 OA
ATOM      5  C   UNL A   1      36.258  30.077  30.059  1.00  0.00     0.251 C 
ATOM      6  H   UNL A   1      34.488  30.686  29.359  1.00  0.00     0.163 HD
BRANCH   5   7
ATOM      7  C   UNL A   1      37.690  29.864  29.748  1.00  0.00     0.039 A 
ATOM      8  C   UNL A   1      38.591  29.512  30.755  1.00  0.00     0.014 A 
ATOM      9  C   UNL A   1      38.121  29.938  28.419  1.00  0.00     0.014 A 
ATOM     10  C   UNL A   1      39.938  29.341  30.454  1.00  0.00     0.010 A 
ATOM     11  C   UNL A   1      39.460  29.685  28.105  1.00  0.00     0.010 A 
ATOM     12  C   UNL A   1      40.381  29.391  29.123  1.00  0.00    -0.014 A 
BRANCH  12  13
ATOM     13  C   UNL A   1      41.781  29.009  28.805  1.00  0.00     0.031 A 
ATOM     14  C   UNL A   1      42.888  30.023  28.813  1.00  0.00     0.074 A 
ATOM     15  C   UNL A   1      42.032  27.720  28.493  1.00  0.00     0.049 A 
ATOM     16  N   UNL A   1      44.151  29.858  28.521  1.00  0.00    -0.248 NA
ATOM     17  C   UNL A   1      42.535  31.402  29.187  1.00  0.00     0.031 C 
ATOM     18  C   UNL A   1      41.024  26.657  28.438  1.00  0.00     0.029 A 
ATOM     19  N   UNL A   1      43.200  27.082  28.163  1.00  0.00    -0.354 N 
ATOM     20  C   UNL A   1      44.743  31.109  28.651  1.00  0.00     0.074 A 
ATOM     21  C   UNL A   1      43.696  32.029  29.038  1.00  0.00     0.031 C 
ATOM     22  C   UNL A   1      41.617  25.500  28.116  1.00  0.00     0.029 A 
ATOM     23  C   UNL A   1      43.032  25.749  27.871  1.00  0.00     0.049 A 
ATOM     24  H   UNL A   1      44.074  27.535  28.138  1.00  0.00     0.167 HD
ATOM     25  C   UNL A   1      46.040  31.448  28.461  1.00  0.00     0.037 A 
ATOM     26  C   UNL A   1      43.906  24.834  27.413  1.00  0.00     0.037 A 
ATOM     27  C   UNL A   1      47.072  30.509  28.095  1.00  0.00     0.049 A 
ATOM     28  C   UNL A   1      45.331  25.250  27.181  1.00  0.00     0.074 A 
ATOM     29  C   UNL A   1      48.430  30.740  27.955  1.00  0.00     0.029 A 
ATOM     30  N   UNL A   1      46.861  29.172  27.792  1.00  0.00    -0.354 N 
ATOM     31  N   UNL A   1      45.887  26.421  27.384  1.00  0.00    -0.248 NA
ATOM     32  C   UNL A   1      46.245  24.231  26.649  1.00  0.00     0.031 C 
ATOM     33  C   UNL A   1      49.028  29.560  27.503  1.00  0.00     0.029 A 
ATOM     34  C   UNL A   1      48.055  28.577  27.419  1.00  0.00     0.049 A 
ATOM     35  H   UNL A   1      45.991  28.713  27.836  1.00  0.00     0.167 HD
ATOM     36  C   UNL A   1      47.219  26.275  27.015  1.00  0.00     0.074 A 
ATOM     37  C   UNL A   1      47.390  24.898  26.602  1.00  0.00     0.031 C 
ATOM     38  C   UNL A   1      48.208  27.202  27.012  1.00  0.00     0.037 A 
BRANCH  25  39
ATOM     39  C   UNL A   1      46.434  32.892  28.615  1.00  0.00     0.058 A 
ATOM     40  C   UNL A   1      46.383  33.797  27.545  1.00  0.00     0.135 A 
ATOM     41  C   UNL A   1      46.776  33.398  29.882  1.00  0.00     0.135 A 
ATOM     42  F   UNL A   1      46.076  33.369  26.310  1.00  0.00    -0.206 F 
ATOM     43  C   UNL A   1      46.664  35.149  27.722  1.00  0.00     0.059 A 
ATOM     44  C   UNL A   1      47.036  34.750  30.087  1.00  0.00     0.059 A 
ATOM     45  F   UNL A   1      46.841  32.576  30.941  1.00  0.00    -0.206 F 
ATOM     46  C   UNL A   1      46.983  35.618  28.999  1.00  0.00     0.060 A 
BRANCH  46  47
ATOM     47  S   UNL A   1      47.307  37.381  29.215  1.00  0.00     0.124 S 
ATOM     48  O   UNL A   1      48.445  37.580  28.323  1.00  0.00    -0.237 OA
ATOM     49  O   UNL A   1      46.050  37.984  28.782  1.00  0.00    -0.237 OA
ATOM     50  O   UNL A   1      47.600  37.503  30.640  1.00  0.00    -0.744 OA
ENDBRANCH  46  47
ENDBRANCH  25  39
BRANCH  26  51
ATOM     51  C   UNL A   1      43.444  23.456  27.096  1.00  0.00     0.058 A 
ATOM     52  C   UNL A   1      43.225  23.045  25.773  1.00  0.00     0.135 A 
ATOM     53  C   UNL A   1      43.212  22.518  28.117  1.00  0.00     0.135 A 
ATOM     54  F   UNL A   1      43.429  23.903  24.763  1.00  0.00    -0.206 F 
ATOM     55  C   UNL A   1      42.769  21.766  25.475  1.00  0.00     0.059 A 
ATOM     56  C   UNL A   1      42.788  21.224  27.842  1.00  0.00     0.059 A 
ATOM     57  F   UNL A   1      43.423  22.854  29.400  1.00  0.00    -0.206 F 
ATOM     58  C   UNL A   1      42.552  20.862  26.518  1.00  0.00     0.060 A 
BRANCH  58  59
ATOM     59  S   UNL A   1      41.973  19.200  26.119  1.00  0.00     0.124 S 
ATOM     60  O   UNL A   1      42.337  18.467  27.326  1.00  0.00    -0.237 OA
ATOM     61  O   UNL A   1      40.545  19.413  25.908  1.00  0.00    -0.237 OA
ATOM     62  O   UNL A   1      42.732  18.859  24.920  1.00  0.00    -0.744 OA
ENDBRANCH  58  59
ENDBRANCH  26  51
BRANCH  38  63
ATOM     63  C   UNL A   1      49.570  26.756  26.560  1.00  0.00     0.058 A 
ATOM     64  C   UNL A   1      50.457  26.110  27.435  1.00  0.00     0.135 A 
ATOM     65  C   UNL A   1      49.964  26.915  25.222  1.00  0.00     0.135 A 
ATOM     66  F   UNL A   1      50.132  25.947  28.727  1.00  0.00    -0.206 F 
ATOM     67  C   UNL A   1      51.692  25.643  27.001  1.00  0.00     0.059 A 
ATOM     68  C   UNL A   1      51.182  26.430  24.759  1.00  0.00     0.059 A 
ATOM     69  F   UNL A   1      49.150  27.523  24.344  1.00  0.00    -0.206 F 
ATOM     70  C   UNL A   1      52.041  25.799  25.658  1.00  0.00     0.060 A 
BRANCH  70  71
ATOM     71  S   UNL A   1      53.621  25.129  25.095  1.00  0.00     0.124 S 
ATOM     72  O   UNL A   1      53.648  25.569  23.704  1.00  0.00    -0.237 OA
ATOM     73  O   UNL A   1      54.571  25.787  25.986  1.00  0.00    -0.237 OA
ATOM     74  O   UNL A   1      53.472  23.691  25.296  1.00  0.00    -0.744 OA
ENDBRANCH  70  71
ENDBRANCH  38  63
ENDBRANCH  12  13
ENDBRANCH   5   7
ENDBRANCH   2   3
ENDBRANCH   1   2
BRANCH   1  75
ATOM     75  C   UNL A   1      33.350  29.199  26.566  1.00  0.00     0.117 C 
BRANCH  75  76
ATOM     76  N   UNL A   1      33.356  29.294  25.122  1.00  0.00    -0.354 N 
ATOM     77  C   UNL A   1      33.662  28.410  24.145  1.00  0.00     0.242 C 
ATOM     78  H   UNL A   1      33.082  30.178  24.783  1.00  0.00     0.163 HD
ATOM     79  O   UNL A   1      34.133  28.934  23.124  1.00  0.00    -0.273 OA
BRANCH  77  80
ATOM     80  C   UNL A   1      33.392  26.880  24.157  1.00  0.00     0.175 C 
ATOM     81  C   UNL A   1      34.162  25.938  25.111  1.00  0.00     0.041 C 
ATOM     82  N   UNL A   1      31.980  26.406  24.215  1.00  0.00    -0.326 N 
ATOM     83  C   UNL A   1      33.054  25.226  25.889  1.00  0.00     0.014 C 
ATOM     84  C   UNL A   1      31.950  25.096  24.836  1.00  0.00     0.089 C 
ATOM     85  C   UNL A   1      33.385  23.869  26.500  1.00  0.00     0.006 C 
ATOM     86  C   UNL A   1      30.682  24.613  25.530  1.00  0.00     0.025 C 
ATOM     87  C   UNL A   1      32.124  23.201  27.070  1.00  0.00     0.000 C 
ATOM     88  C   UNL A   1      30.947  23.209  26.090  1.00  0.00     0.002 C 
BRANCH  82  89
ATOM     89  C   UNL A   1      31.057  26.948  23.338  1.00  0.00     0.243 C 
ATOM     90  O   UNL A   1      31.350  27.086  22.146  1.00  0.00    -0.273 OA
BRANCH  89  91
ATOM     91  C   UNL A   1      29.764  27.613  23.847  1.00  0.00     0.220 C 
BRANCH  91  92
ATOM     92  N   UNL A   1      29.349  28.846  23.190  1.00  0.00    -0.323 N 
ATOM     93  C   UNL A   1      28.129  28.891  22.431  1.00  0.00     0.190 C 
ATOM     94  C   UNL A   1      29.790  30.071  23.670  1.00  0.00     0.233 C 
ATOM     95  S   UNL A   1      28.065  30.522  21.688  1.00  0.00    -0.130 SA
ATOM     96  C   UNL A   1      29.155  31.235  22.943  1.00  0.00     0.171 C 
ATOM     97  O   UNL A   1      30.610  30.208  24.570  1.00  0.00    -0.274 OA
ENDBRANCH  91  92
ENDBRANCH  89  91
ENDBRANCH  82  89
ENDBRANCH  77  80
ENDBRANCH  75  76
ENDBRANCH   1  75
TORSDOF 16
ENDMDL
