MODEL 1
REMARK VINA RESULT:     -11.7      0.000      0.000
REMARK SMILES CC(C)C[C@H](NC(=O)[C@H](C)NC(=O)[C@@H](NC(=O)CNC(=O)OCc1ccccc1)C(C)C)C(=O)NCCCNC(=O)c1ccc(-c2c3nc(c(-c4c(F)cc(S(=O)(=O)[O-])cc4F)c4ccc([nH]4)c(-c4c(F)cc(S(=O)(=O)[O-])cc4F)c4nc(c(-c5c(F)cc(S(=O)(=O)[O-])cc5F)c5ccc2[nH]5)C=C4)C=C3)cc1
REMARK SMILES IDX 6 1 7 2 8 3 5 5 4 6 2 7 1 8 3 9 33 10 34 11 35 12 36 14
REMARK SMILES IDX 37 15 38 16 39 17 40 18 41 20 42 21 43 22 107 23 44 24
REMARK SMILES IDX 106 25 45 26 46 27 47 28 100 29 48 30 105 31 99 32 101 33
REMARK SMILES IDX 49 34 104 35 98 36 97 37 50 39 84 40 63 41 83 42 64 43 67 44
REMARK SMILES IDX 82 45 102 46 65 47 66 48 81 50 103 51 68 52 51 53 52 54
REMARK SMILES IDX 61 55 53 56 54 57 60 58 62 59 55 60 56 61 57 62 58 63 59 64
REMARK SMILES IDX 85 65 86 66 95 67 87 68 88 69 94 70 96 71 89 72 90 73 91 74
REMARK SMILES IDX 92 75 93 76 69 77 70 78 79 79 71 80 72 81 78 82 80 83 73 84
REMARK SMILES IDX 74 85 75 86 76 87 77 88 9 89 10 90 11 91 12 92 13 94 14 95
REMARK SMILES IDX 15 96 16 97 17 99 18 100 19 101 20 102 21 104 22 105 23 106
REMARK SMILES IDX 24 107 25 108 29 109 26 110 28 111 27 112 30 113 31 114
REMARK SMILES IDX 32 115
REMARK H PARENT 6 4 35 13 39 19 101 38 67 49 11 93 15 98 19 103
REMARK Flexibility Score: inf
ROOT
ATOM      1  N   UNL A   1      33.272  21.366  26.588  1.00  0.00    -0.343 N 
ATOM      2  C   UNL A   1      32.538  22.454  26.158  1.00  0.00     0.242 C 
ATOM      3  O   UNL A   1      31.355  22.534  26.485  1.00  0.00    -0.273 OA
ATOM      4  H   UNL A   1      33.174  21.085  27.527  1.00  0.00     0.164 HD
ENDROOT
BRANCH   1   5
ATOM      5  C   UNL A   1      34.188  20.600  25.737  1.00  0.00     0.171 C 
BRANCH   5   6
ATOM      6  C   UNL A   1      33.360  20.098  24.465  1.00  0.00     0.038 C 
BRANCH   6   7
ATOM      7  C   UNL A   1      33.307  18.566  24.269  1.00  0.00    -0.015 C 
ATOM      8  C   UNL A   1      32.557  18.290  23.019  1.00  0.00     0.007 C 
ATOM      9  C   UNL A   1      34.544  17.671  24.286  1.00  0.00     0.007 C 
ENDBRANCH   6   7
ENDBRANCH   5   6
BRANCH   5  10
ATOM     10  C   UNL A   1      35.685  21.142  25.533  1.00  0.00     0.242 C 
ATOM     11  O   UNL A   1      36.474  20.572  24.777  1.00  0.00    -0.273 OA
ATOM     12  N   UNL A   1      36.138  22.264  26.244  1.00  0.00    -0.354 N 
ATOM     13  H   UNL A   1      35.897  22.373  27.193  1.00  0.00     0.163 HD
BRANCH  12  14
ATOM     14  C   UNL A   1      36.983  23.288  25.573  1.00  0.00     0.117 C 
BRANCH  14  15
ATOM     15  C   UNL A   1      38.049  24.062  26.433  1.00  0.00     0.042 C 
BRANCH  15  16
ATOM     16  C   UNL A   1      39.355  23.325  26.814  1.00  0.00     0.118 C 
BRANCH  16  17
ATOM     17  N   UNL A   1      40.619  23.885  26.266  1.00  0.00    -0.352 N 
ATOM     18  C   UNL A   1      41.404  25.009  26.461  1.00  0.00     0.251 C 
ATOM     19  H   UNL A   1      41.002  23.296  25.577  1.00  0.00     0.163 HD
ATOM     20  O   UNL A   1      42.386  25.132  25.725  1.00  0.00    -0.269 OA
BRANCH  18  21
ATOM     21  C   UNL A   1      41.170  26.044  27.505  1.00  0.00     0.039 A 
ATOM     22  C   UNL A   1      41.959  27.210  27.540  1.00  0.00     0.014 A 
ATOM     23  C   UNL A   1      40.266  25.846  28.538  1.00  0.00     0.014 A 
ATOM     24  C   UNL A   1      41.822  28.140  28.588  1.00  0.00     0.010 A 
ATOM     25  C   UNL A   1      40.024  26.832  29.489  1.00  0.00     0.010 A 
ATOM     26  C   UNL A   1      40.835  27.964  29.570  1.00  0.00    -0.014 A 
BRANCH  26  27
ATOM     27  C   UNL A   1      40.658  28.889  30.726  1.00  0.00     0.031 A 
ATOM     28  C   UNL A   1      41.533  28.744  31.958  1.00  0.00     0.074 A 
ATOM     29  C   UNL A   1      39.662  29.796  30.708  1.00  0.00     0.049 A 
ATOM     30  N   UNL A   1      41.477  29.387  33.096  1.00  0.00    -0.248 NA
ATOM     31  C   UNL A   1      42.570  27.697  31.929  1.00  0.00     0.031 C 
ATOM     32  C   UNL A   1      38.691  29.965  29.622  1.00  0.00     0.029 A 
ATOM     33  N   UNL A   1      39.295  30.748  31.625  1.00  0.00    -0.354 N 
ATOM     34  C   UNL A   1      42.437  28.797  33.917  1.00  0.00     0.074 A 
ATOM     35  C   UNL A   1      42.993  27.688  33.183  1.00  0.00     0.031 C 
ATOM     36  C   UNL A   1      37.884  30.999  29.907  1.00  0.00     0.029 A 
ATOM     37  C   UNL A   1      38.249  31.539  31.211  1.00  0.00     0.049 A 
ATOM     38  H   UNL A   1      39.740  30.854  32.497  1.00  0.00     0.167 HD
ATOM     39  C   UNL A   1      42.855  29.173  35.151  1.00  0.00     0.037 A 
ATOM     40  C   UNL A   1      37.662  32.593  31.811  1.00  0.00     0.037 A 
ATOM     41  C   UNL A   1      42.337  30.326  35.841  1.00  0.00     0.049 A 
ATOM     42  C   UNL A   1      38.193  33.043  33.145  1.00  0.00     0.074 A 
ATOM     43  C   UNL A   1      42.731  30.856  37.056  1.00  0.00     0.029 A 
ATOM     44  N   UNL A   1      41.320  31.138  35.359  1.00  0.00    -0.354 N 
ATOM     45  N   UNL A   1      39.147  32.512  33.875  1.00  0.00    -0.248 NA
ATOM     46  C   UNL A   1      37.582  34.242  33.728  1.00  0.00     0.031 C 
ATOM     47  C   UNL A   1      41.921  31.964  37.329  1.00  0.00     0.029 A 
ATOM     48  C   UNL A   1      41.063  32.158  36.258  1.00  0.00     0.049 A 
ATOM     49  H   UNL A   1      40.851  31.007  34.504  1.00  0.00     0.167 HD
ATOM     50  C   UNL A   1      39.268  33.330  34.994  1.00  0.00     0.074 A 
ATOM     51  C   UNL A   1      38.307  34.402  34.825  1.00  0.00     0.031 C 
ATOM     52  C   UNL A   1      40.094  33.208  36.064  1.00  0.00     0.037 A 
BRANCH  39  53
ATOM     53  C   UNL A   1      43.934  28.352  35.814  1.00  0.00     0.058 A 
ATOM     54  C   UNL A   1      45.300  28.615  35.609  1.00  0.00     0.135 A 
ATOM     55  C   UNL A   1      43.603  27.301  36.686  1.00  0.00     0.135 A 
ATOM     56  F   UNL A   1      45.683  29.597  34.777  1.00  0.00    -0.206 F 
ATOM     57  C   UNL A   1      46.294  27.845  36.208  1.00  0.00     0.059 A 
ATOM     58  C   UNL A   1      44.581  26.539  37.324  1.00  0.00     0.059 A 
ATOM     59  F   UNL A   1      42.318  26.999  36.924  1.00  0.00    -0.206 F 
ATOM     60  C   UNL A   1      45.924  26.809  37.065  1.00  0.00     0.060 A 
BRANCH  60  61
ATOM     61  S   UNL A   1      47.226  25.826  37.840  1.00  0.00     0.124 S 
ATOM     62  O   UNL A   1      48.174  26.862  38.239  1.00  0.00    -0.237 OA
ATOM     63  O   UNL A   1      46.513  25.167  38.928  1.00  0.00    -0.237 OA
ATOM     64  O   UNL A   1      47.676  24.948  36.764  1.00  0.00    -0.744 OA
ENDBRANCH  60  61
ENDBRANCH  39  53
BRANCH  40  65
ATOM     65  C   UNL A   1      36.561  33.323  31.125  1.00  0.00     0.058 A 
ATOM     66  C   UNL A   1      36.800  34.058  29.952  1.00  0.00     0.135 A 
ATOM     67  C   UNL A   1      35.242  33.278  31.605  1.00  0.00     0.135 A 
ATOM     68  F   UNL A   1      38.042  34.133  29.451  1.00  0.00    -0.206 F 
ATOM     69  C   UNL A   1      35.781  34.739  29.295  1.00  0.00     0.059 A 
ATOM     70  C   UNL A   1      34.200  33.926  30.947  1.00  0.00     0.059 A 
ATOM     71  F   UNL A   1      34.953  32.570  32.708  1.00  0.00    -0.206 F 
ATOM     72  C   UNL A   1      34.482  34.665  29.799  1.00  0.00     0.060 A 
BRANCH  72  73
ATOM     73  S   UNL A   1      33.158  35.518  28.913  1.00  0.00     0.124 S 
ATOM     74  O   UNL A   1      32.313  35.969  30.012  1.00  0.00    -0.237 OA
ATOM     75  O   UNL A   1      33.889  36.561  28.200  1.00  0.00    -0.237 OA
ATOM     76  O   UNL A   1      32.591  34.471  28.068  1.00  0.00    -0.744 OA
ENDBRANCH  72  73
ENDBRANCH  40  65
BRANCH  52  77
ATOM     77  C   UNL A   1      40.007  34.282  37.112  1.00  0.00     0.058 A 
ATOM     78  C   UNL A   1      39.119  34.189  38.194  1.00  0.00     0.135 A 
ATOM     79  C   UNL A   1      40.827  35.419  37.029  1.00  0.00     0.135 A 
ATOM     80  F   UNL A   1      38.315  33.120  38.320  1.00  0.00    -0.206 F 
ATOM     81  C   UNL A   1      39.005  35.213  39.127  1.00  0.00     0.059 A 
ATOM     82  C   UNL A   1      40.756  36.438  37.972  1.00  0.00     0.059 A 
ATOM     83  F   UNL A   1      41.708  35.548  36.025  1.00  0.00    -0.206 F 
ATOM     84  C   UNL A   1      39.823  36.337  39.003  1.00  0.00     0.060 A 
BRANCH  84  85
ATOM     85  S   UNL A   1      39.648  37.670  40.204  1.00  0.00     0.124 S 
ATOM     86  O   UNL A   1      40.688  38.595  39.766  1.00  0.00    -0.237 OA
ATOM     87  O   UNL A   1      38.273  38.111  39.984  1.00  0.00    -0.237 OA
ATOM     88  O   UNL A   1      39.892  37.010  41.482  1.00  0.00    -0.744 OA
ENDBRANCH  84  85
ENDBRANCH  52  77
ENDBRANCH  26  27
ENDBRANCH  18  21
ENDBRANCH  16  17
ENDBRANCH  15  16
ENDBRANCH  14  15
ENDBRANCH  12  14
ENDBRANCH   5  10
ENDBRANCH   1   5
BRANCH   2  89
ATOM     89  C   UNL A   1      33.293  23.594  25.396  1.00  0.00     0.168 C 
ATOM     90  C   UNL A   1      32.807  24.762  26.296  1.00  0.00     0.041 C 
BRANCH  89  91
ATOM     91  N   UNL A   1      33.178  23.851  23.915  1.00  0.00    -0.343 N 
ATOM     92  C   UNL A   1      32.818  24.793  22.970  1.00  0.00     0.243 C 
ATOM     93  H   UNL A   1      33.471  23.039  23.442  1.00  0.00     0.164 HD
ATOM     94  O   UNL A   1      33.158  24.392  21.834  1.00  0.00    -0.273 OA
BRANCH  92  95
ATOM     95  C   UNL A   1      32.123  26.366  22.972  1.00  0.00     0.174 C 
BRANCH  95  96
ATOM     96  N   UNL A   1      30.770  26.674  23.482  1.00  0.00    -0.343 N 
ATOM     97  C   UNL A   1      29.738  27.534  23.231  1.00  0.00     0.240 C 
ATOM     98  H   UNL A   1      30.542  26.077  24.231  1.00  0.00     0.164 HD
ATOM     99  O   UNL A   1      28.617  27.070  23.504  1.00  0.00    -0.273 OA
BRANCH  97 100
ATOM    100  C   UNL A   1      29.789  28.970  22.650  1.00  0.00     0.219 C 
BRANCH 100 101
ATOM    101  N   UNL A   1      29.360  30.092  23.443  1.00  0.00    -0.312 N 
ATOM    102  C   UNL A   1      30.058  30.872  24.318  1.00  0.00     0.407 C 
ATOM    103  H   UNL A   1      28.412  30.336  23.337  1.00  0.00     0.167 HD
ATOM    104  O   UNL A   1      29.639  31.982  24.582  1.00  0.00    -0.225 OA
BRANCH 102 105
ATOM    105  O   UNL A   1      31.118  30.253  24.885  1.00  0.00    -0.445 OA
BRANCH 105 106
ATOM    106  C   UNL A   1      31.387  30.259  26.328  1.00  0.00     0.270 C 
BRANCH 106 107
ATOM    107  C   UNL A   1      32.785  30.257  26.933  1.00  0.00    -0.011 A 
ATOM    108  C   UNL A   1      33.392  31.453  27.350  1.00  0.00     0.007 A 
ATOM    109  C   UNL A   1      33.501  29.077  27.144  1.00  0.00     0.007 A 
ATOM    110  C   UNL A   1      34.732  31.490  27.759  1.00  0.00     0.000 A 
ATOM    111  C   UNL A   1      34.840  29.106  27.550  1.00  0.00     0.000 A 
ATOM    112  C   UNL A   1      35.469  30.316  27.823  1.00  0.00     0.000 A 
ENDBRANCH 106 107
ENDBRANCH 105 106
ENDBRANCH 102 105
ENDBRANCH 100 101
ENDBRANCH  97 100
ENDBRANCH  95  96
BRANCH  95 113
ATOM    113  C   UNL A   1      33.038  27.662  23.013  1.00  0.00     0.015 C 
ATOM    114  C   UNL A   1      33.963  27.769  24.228  1.00  0.00     0.010 C 
ATOM    115  C   UNL A   1      33.904  27.899  21.746  1.00  0.00     0.010 C 
ENDBRANCH  95 113
ENDBRANCH  92  95
ENDBRANCH  89  91
ENDBRANCH   2  89
TORSDOF 26
ENDMDL
MODEL 2
REMARK VINA RESULT:     -11.0      1.021      7.728
REMARK SMILES CC(C)C[C@H](NC(=O)[C@H](C)NC(=O)[C@@H](NC(=O)CNC(=O)OCc1ccccc1)C(C)C)C(=O)NCCCNC(=O)c1ccc(-c2c3nc(c(-c4c(F)cc(S(=O)(=O)[O-])cc4F)c4ccc([nH]4)c(-c4c(F)cc(S(=O)(=O)[O-])cc4F)c4nc(c(-c5c(F)cc(S(=O)(=O)[O-])cc5F)c5ccc2[nH]5)C=C4)C=C3)cc1
REMARK SMILES IDX 6 1 7 2 8 3 5 5 4 6 2 7 1 8 3 9 33 10 34 11 35 12 36 14
REMARK SMILES IDX 37 15 38 16 39 17 40 18 41 20 42 21 43 22 107 23 44 24
REMARK SMILES IDX 106 25 45 26 46 27 47 28 100 29 48 30 105 31 99 32 101 33
REMARK SMILES IDX 49 34 104 35 98 36 97 37 50 39 84 40 63 41 83 42 64 43 67 44
REMARK SMILES IDX 82 45 102 46 65 47 66 48 81 50 103 51 68 52 51 53 52 54
REMARK SMILES IDX 61 55 53 56 54 57 60 58 62 59 55 60 56 61 57 62 58 63 59 64
REMARK SMILES IDX 85 65 86 66 95 67 87 68 88 69 94 70 96 71 89 72 90 73 91 74
REMARK SMILES IDX 92 75 93 76 69 77 70 78 79 79 71 80 72 81 78 82 80 83 73 84
REMARK SMILES IDX 74 85 75 86 76 87 77 88 9 89 10 90 11 91 12 92 13 94 14 95
REMARK SMILES IDX 15 96 16 97 17 99 18 100 19 101 20 102 21 104 22 105 23 106
REMARK SMILES IDX 24 107 25 108 29 109 26 110 28 111 27 112 30 113 31 114
REMARK SMILES IDX 32 115
REMARK H PARENT 6 4 35 13 39 19 101 38 67 49 11 93 15 98 19 103
REMARK Flexibility Score: inf
ROOT
ATOM      1  N   UNL A   1      33.934  21.355  27.247  1.00  0.00    -0.343 N 
ATOM      2  C   UNL A   1      32.914  22.284  27.286  1.00  0.00     0.242 C 
ATOM      3  O   UNL A   1      32.186  22.320  28.277  1.00  0.00    -0.273 OA
ATOM      4  H   UNL A   1      34.482  21.236  28.057  1.00  0.00     0.164 HD
ENDROOT
BRANCH   1   5
ATOM      5  C   UNL A   1      34.257  20.532  26.077  1.00  0.00     0.171 C 
BRANCH   5   6
ATOM      6  C   UNL A   1      32.886  19.927  25.519  1.00  0.00     0.038 C 
BRANCH   6   7
ATOM      7  C   UNL A   1      33.031  18.688  24.606  1.00  0.00    -0.015 C 
ATOM      8  C   UNL A   1      32.541  19.058  23.254  1.00  0.00     0.007 C 
ATOM      9  C   UNL A   1      34.333  17.910  24.440  1.00  0.00     0.007 C 
ENDBRANCH   6   7
ENDBRANCH   5   6
BRANCH   5  10
ATOM     10  C   UNL A   1      35.358  21.067  25.038  1.00  0.00     0.242 C 
ATOM     11  O   UNL A   1      35.032  21.683  24.021  1.00  0.00    -0.273 OA
ATOM     12  N   UNL A   1      36.721  20.811  25.252  1.00  0.00    -0.354 N 
ATOM     13  H   UNL A   1      37.008  19.927  25.579  1.00  0.00     0.163 HD
BRANCH  12  14
ATOM     14  C   UNL A   1      37.735  21.867  24.987  1.00  0.00     0.117 C 
BRANCH  14  15
ATOM     15  C   UNL A   1      37.578  23.255  25.709  1.00  0.00     0.042 C 
BRANCH  15  16
ATOM     16  C   UNL A   1      38.731  23.739  26.621  1.00  0.00     0.118 C 
BRANCH  16  17
ATOM     17  N   UNL A   1      39.874  24.411  25.948  1.00  0.00    -0.352 N 
ATOM     18  C   UNL A   1      40.712  25.486  26.195  1.00  0.00     0.251 C 
ATOM     19  H   UNL A   1      40.096  23.972  25.096  1.00  0.00     0.163 HD
ATOM     20  O   UNL A   1      41.530  25.762  25.314  1.00  0.00    -0.269 OA
BRANCH  18  21
ATOM     21  C   UNL A   1      40.719  26.295  27.444  1.00  0.00     0.039 A 
ATOM     22  C   UNL A   1      39.829  25.991  28.493  1.00  0.00     0.014 A 
ATOM     23  C   UNL A   1      41.500  27.434  27.570  1.00  0.00     0.014 A 
ATOM     24  C   UNL A   1      39.749  26.817  29.630  1.00  0.00     0.010 A 
ATOM     25  C   UNL A   1      41.529  28.164  28.753  1.00  0.00     0.010 A 
ATOM     26  C   UNL A   1      40.616  27.910  29.777  1.00  0.00    -0.014 A 
BRANCH  26  27
ATOM     27  C   UNL A   1      40.562  28.846  30.936  1.00  0.00     0.031 A 
ATOM     28  C   UNL A   1      39.512  29.942  30.982  1.00  0.00     0.074 A 
ATOM     29  C   UNL A   1      41.502  28.771  31.898  1.00  0.00     0.049 A 
ATOM     30  N   UNL A   1      39.355  30.906  31.852  1.00  0.00    -0.248 NA
ATOM     31  C   UNL A   1      38.547  29.998  29.869  1.00  0.00     0.031 C 
ATOM     32  C   UNL A   1      42.622  27.825  31.915  1.00  0.00     0.029 A 
ATOM     33  N   UNL A   1      41.671  29.498  33.049  1.00  0.00    -0.354 N 
ATOM     34  C   UNL A   1      38.310  31.691  31.371  1.00  0.00     0.074 A 
ATOM     35  C   UNL A   1      37.932  31.149  30.089  1.00  0.00     0.031 C 
ATOM     36  C   UNL A   1      43.321  27.986  33.049  1.00  0.00     0.029 A 
ATOM     37  C   UNL A   1      42.728  29.073  33.820  1.00  0.00     0.049 A 
ATOM     38  H   UNL A   1      41.090  30.253  33.299  1.00  0.00     0.167 HD
ATOM     39  C   UNL A   1      37.684  32.739  31.962  1.00  0.00     0.037 A 
ATOM     40  C   UNL A   1      43.160  29.503  35.021  1.00  0.00     0.037 A 
ATOM     41  C   UNL A   1      38.028  33.224  33.273  1.00  0.00     0.049 A 
ATOM     42  C   UNL A   1      42.403  30.615  35.697  1.00  0.00     0.074 A 
ATOM     43  C   UNL A   1      37.421  34.223  34.012  1.00  0.00     0.029 A 
ATOM     44  N   UNL A   1      39.066  32.725  34.047  1.00  0.00    -0.354 N 
ATOM     45  N   UNL A   1      41.374  31.301  35.254  1.00  0.00    -0.248 NA
ATOM     46  C   UNL A   1      42.854  31.000  37.039  1.00  0.00     0.031 C 
ATOM     47  C   UNL A   1      38.122  34.357  35.217  1.00  0.00     0.029 A 
ATOM     48  C   UNL A   1      39.127  33.404  35.251  1.00  0.00     0.049 A 
ATOM     49  H   UNL A   1      39.671  31.996  33.779  1.00  0.00     0.167 HD
ATOM     50  C   UNL A   1      41.037  32.181  36.276  1.00  0.00     0.074 A 
ATOM     51  C   UNL A   1      41.958  31.920  37.365  1.00  0.00     0.031 C 
ATOM     52  C   UNL A   1      40.061  33.123  36.314  1.00  0.00     0.037 A 
BRANCH  39  53
ATOM     53  C   UNL A   1      36.556  33.406  31.212  1.00  0.00     0.058 A 
ATOM     54  C   UNL A   1      36.780  34.151  30.040  1.00  0.00     0.135 A 
ATOM     55  C   UNL A   1      35.228  33.283  31.654  1.00  0.00     0.135 A 
ATOM     56  F   UNL A   1      38.028  34.318  29.573  1.00  0.00    -0.206 F 
ATOM     57  C   UNL A   1      35.740  34.780  29.361  1.00  0.00     0.059 A 
ATOM     58  C   UNL A   1      34.168  33.875  30.971  1.00  0.00     0.059 A 
ATOM     59  F   UNL A   1      34.947  32.586  32.765  1.00  0.00    -0.206 F 
ATOM     60  C   UNL A   1      34.436  34.636  29.834  1.00  0.00     0.060 A 
BRANCH  60  61
ATOM     61  S   UNL A   1      33.099  35.452  28.935  1.00  0.00     0.124 S 
ATOM     62  O   UNL A   1      32.245  35.903  30.029  1.00  0.00    -0.237 OA
ATOM     63  O   UNL A   1      33.807  36.501  28.210  1.00  0.00    -0.237 OA
ATOM     64  O   UNL A   1      32.544  34.385  28.107  1.00  0.00    -0.744 OA
ENDBRANCH  60  61
ENDBRANCH  39  53
BRANCH  40  65
ATOM     65  C   UNL A   1      44.317  28.837  35.680  1.00  0.00     0.058 A 
ATOM     66  C   UNL A   1      45.630  29.280  35.456  1.00  0.00     0.135 A 
ATOM     67  C   UNL A   1      44.136  27.767  36.571  1.00  0.00     0.135 A 
ATOM     68  F   UNL A   1      45.859  30.299  34.614  1.00  0.00    -0.206 F 
ATOM     69  C   UNL A   1      46.722  28.674  36.070  1.00  0.00     0.059 A 
ATOM     70  C   UNL A   1      45.209  27.165  37.222  1.00  0.00     0.059 A 
ATOM     71  F   UNL A   1      42.899  27.320  36.841  1.00  0.00    -0.206 F 
ATOM     72  C   UNL A   1      46.500  27.617  36.954  1.00  0.00     0.060 A 
BRANCH  72  73
ATOM     73  S   UNL A   1      47.921  26.866  37.779  1.00  0.00     0.124 S 
ATOM     74  O   UNL A   1      47.974  27.625  39.023  1.00  0.00    -0.237 OA
ATOM     75  O   UNL A   1      47.505  25.472  37.899  1.00  0.00    -0.237 OA
ATOM     76  O   UNL A   1      49.017  27.107  36.846  1.00  0.00    -0.744 OA
ENDBRANCH  72  73
ENDBRANCH  40  65
BRANCH  52  77
ATOM     77  C   UNL A   1      39.927  33.909  37.588  1.00  0.00     0.058 A 
ATOM     78  C   UNL A   1      39.008  33.550  38.586  1.00  0.00     0.135 A 
ATOM     79  C   UNL A   1      40.735  35.036  37.812  1.00  0.00     0.135 A 
ATOM     80  F   UNL A   1      38.214  32.479  38.420  1.00  0.00    -0.206 F 
ATOM     81  C   UNL A   1      38.852  34.315  39.735  1.00  0.00     0.059 A 
ATOM     82  C   UNL A   1      40.622  35.793  38.972  1.00  0.00     0.059 A 
ATOM     83  F   UNL A   1      41.645  35.411  36.900  1.00  0.00    -0.206 F 
ATOM     84  C   UNL A   1      39.658  35.440  39.916  1.00  0.00     0.060 A 
BRANCH  84  85
ATOM     85  S   UNL A   1      39.429  36.438  41.399  1.00  0.00     0.124 S 
ATOM     86  O   UNL A   1      40.808  36.641  41.830  1.00  0.00    -0.237 OA
ATOM     87  O   UNL A   1      38.748  37.620  40.878  1.00  0.00    -0.237 OA
ATOM     88  O   UNL A   1      38.619  35.585  42.263  1.00  0.00    -0.744 OA
ENDBRANCH  84  85
ENDBRANCH  52  77
ENDBRANCH  26  27
ENDBRANCH  18  21
ENDBRANCH  16  17
ENDBRANCH  15  16
ENDBRANCH  14  15
ENDBRANCH  12  14
ENDBRANCH   5  10
ENDBRANCH   1   5
BRANCH   2  89
ATOM     89  C   UNL A   1      32.830  23.332  26.126  1.00  0.00     0.168 C 
ATOM     90  C   UNL A   1      31.891  24.330  26.854  1.00  0.00     0.041 C 
BRANCH  89  91
ATOM     91  N   UNL A   1      32.427  23.007  24.710  1.00  0.00    -0.343 N 
ATOM     92  C   UNL A   1      31.831  23.520  23.573  1.00  0.00     0.243 C 
ATOM     93  H   UNL A   1      32.687  22.076  24.525  1.00  0.00     0.164 HD
ATOM     94  O   UNL A   1      31.984  22.718  22.626  1.00  0.00    -0.273 OA
BRANCH  92  95
ATOM     95  C   UNL A   1      31.033  24.977  23.126  1.00  0.00     0.174 C 
BRANCH  95  96
ATOM     96  N   UNL A   1      29.869  25.539  23.845  1.00  0.00    -0.343 N 
ATOM     97  C   UNL A   1      28.972  26.564  23.724  1.00  0.00     0.240 C 
ATOM     98  H   UNL A   1      29.684  25.017  24.659  1.00  0.00     0.164 HD
ATOM     99  O   UNL A   1      27.858  26.318  24.219  1.00  0.00    -0.273 OA
BRANCH  97 100
ATOM    100  C   UNL A   1      29.161  27.948  23.054  1.00  0.00     0.219 C 
BRANCH 100 101
ATOM    101  N   UNL A   1      28.135  28.952  23.155  1.00  0.00    -0.312 N 
ATOM    102  C   UNL A   1      28.205  30.304  22.987  1.00  0.00     0.407 C 
ATOM    103  H   UNL A   1      27.240  28.609  23.380  1.00  0.00     0.167 HD
ATOM    104  O   UNL A   1      27.188  30.919  22.730  1.00  0.00    -0.225 OA
BRANCH 102 105
ATOM    105  O   UNL A   1      29.425  30.829  23.237  1.00  0.00    -0.445 OA
BRANCH 105 106
ATOM    106  C   UNL A   1      29.828  31.364  24.544  1.00  0.00     0.270 C 
BRANCH 106 107
ATOM    107  C   UNL A   1      31.007  30.837  25.352  1.00  0.00    -0.011 A 
ATOM    108  C   UNL A   1      31.611  29.610  25.031  1.00  0.00     0.007 A 
ATOM    109  C   UNL A   1      31.566  31.560  26.407  1.00  0.00     0.007 A 
ATOM    110  C   UNL A   1      32.587  29.036  25.857  1.00  0.00     0.000 A 
ATOM    111  C   UNL A   1      32.540  30.994  27.237  1.00  0.00     0.000 A 
ATOM    112  C   UNL A   1      33.025  29.715  26.985  1.00  0.00     0.000 A 
ENDBRANCH 106 107
ENDBRANCH 105 106
ENDBRANCH 102 105
ENDBRANCH 100 101
ENDBRANCH  97 100
ENDBRANCH  95  96
BRANCH  95 113
ATOM    113  C   UNL A   1      31.804  26.120  22.340  1.00  0.00     0.015 C 
ATOM    114  C   UNL A   1      32.973  26.756  23.096  1.00  0.00     0.010 C 
ATOM    115  C   UNL A   1      32.321  25.720  20.932  1.00  0.00     0.010 C 
ENDBRANCH  95 113
ENDBRANCH  92  95
ENDBRANCH  89  91
ENDBRANCH   2  89
TORSDOF 26
ENDMDL
MODEL 3
REMARK VINA RESULT:      -9.4      4.296      9.319
REMARK SMILES CC(C)C[C@H](NC(=O)[C@H](C)NC(=O)[C@@H](NC(=O)CNC(=O)OCc1ccccc1)C(C)C)C(=O)NCCCNC(=O)c1ccc(-c2c3nc(c(-c4c(F)cc(S(=O)(=O)[O-])cc4F)c4ccc([nH]4)c(-c4c(F)cc(S(=O)(=O)[O-])cc4F)c4nc(c(-c5c(F)cc(S(=O)(=O)[O-])cc5F)c5ccc2[nH]5)C=C4)C=C3)cc1
REMARK SMILES IDX 6 1 7 2 8 3 5 5 4 6 2 7 1 8 3 9 33 10 34 11 35 12 36 14
REMARK SMILES IDX 37 15 38 16 39 17 40 18 41 20 42 21 43 22 107 23 44 24
REMARK SMILES IDX 106 25 45 26 46 27 47 28 100 29 48 30 105 31 99 32 101 33
REMARK SMILES IDX 49 34 104 35 98 36 97 37 50 39 84 40 63 41 83 42 64 43 67 44
REMARK SMILES IDX 82 45 102 46 65 47 66 48 81 50 103 51 68 52 51 53 52 54
REMARK SMILES IDX 61 55 53 56 54 57 60 58 62 59 55 60 56 61 57 62 58 63 59 64
REMARK SMILES IDX 85 65 86 66 95 67 87 68 88 69 94 70 96 71 89 72 90 73 91 74
REMARK SMILES IDX 92 75 93 76 69 77 70 78 79 79 71 80 72 81 78 82 80 83 73 84
REMARK SMILES IDX 74 85 75 86 76 87 77 88 9 89 10 90 11 91 12 92 13 94 14 95
REMARK SMILES IDX 15 96 16 97 17 99 18 100 19 101 20 102 21 104 22 105 23 106
REMARK SMILES IDX 24 107 25 108 29 109 26 110 28 111 27 112 30 113 31 114
REMARK SMILES IDX 32 115
REMARK H PARENT 6 4 35 13 39 19 101 38 67 49 11 93 15 98 19 103
REMARK Flexibility Score: inf
ROOT
ATOM      1  N   UNL A   1      32.059  22.336  27.013  1.00  0.00    -0.343 N 
ATOM      2  C   UNL A   1      31.003  23.186  26.750  1.00  0.00     0.242 C 
ATOM      3  O   UNL A   1      29.968  23.059  27.402  1.00  0.00    -0.273 OA
ATOM      4  H   UNL A   1      32.287  22.160  27.955  1.00  0.00     0.164 HD
ENDROOT
BRANCH   1   5
ATOM      5  C   UNL A   1      32.865  21.677  25.980  1.00  0.00     0.171 C 
BRANCH   5   6
ATOM      6  C   UNL A   1      31.942  21.501  24.686  1.00  0.00     0.038 C 
BRANCH   6   7
ATOM      7  C   UNL A   1      32.621  21.829  23.337  1.00  0.00    -0.015 C 
ATOM      8  C   UNL A   1      31.954  21.025  22.283  1.00  0.00     0.007 C 
ATOM      9  C   UNL A   1      32.799  23.249  22.806  1.00  0.00     0.007 C 
ENDBRANCH   6   7
ENDBRANCH   5   6
BRANCH   5  10
ATOM     10  C   UNL A   1      34.396  22.122  25.795  1.00  0.00     0.242 C 
ATOM     11  O   UNL A   1      34.820  23.171  26.285  1.00  0.00    -0.273 OA
ATOM     12  N   UNL A   1      35.279  21.336  25.039  1.00  0.00    -0.354 N 
ATOM     13  H   UNL A   1      34.973  20.927  24.197  1.00  0.00     0.163 HD
BRANCH  12  14
ATOM     14  C   UNL A   1      36.676  21.117  25.502  1.00  0.00     0.117 C 
BRANCH  14  15
ATOM     15  C   UNL A   1      37.734  22.256  25.258  1.00  0.00     0.042 C 
BRANCH  15  16
ATOM     16  C   UNL A   1      38.938  22.354  26.223  1.00  0.00     0.118 C 
BRANCH  16  17
ATOM     17  N   UNL A   1      40.173  21.626  25.824  1.00  0.00    -0.352 N 
ATOM     18  C   UNL A   1      41.522  21.666  26.132  1.00  0.00     0.251 C 
ATOM     19  H   UNL A   1      39.976  20.925  25.162  1.00  0.00     0.163 HD
ATOM     20  O   UNL A   1      42.254  20.896  25.504  1.00  0.00    -0.269 OA
BRANCH  18  21
ATOM     21  C   UNL A   1      42.136  22.533  27.175  1.00  0.00     0.039 A 
ATOM     22  C   UNL A   1      41.322  23.304  28.027  1.00  0.00     0.014 A 
ATOM     23  C   UNL A   1      43.509  22.704  27.263  1.00  0.00     0.014 A 
ATOM     24  C   UNL A   1      41.894  24.211  28.939  1.00  0.00     0.010 A 
ATOM     25  C   UNL A   1      44.078  23.485  28.263  1.00  0.00     0.010 A 
ATOM     26  C   UNL A   1      43.288  24.298  29.076  1.00  0.00    -0.014 A 
BRANCH  26  27
ATOM     27  C   UNL A   1      43.960  25.260  29.995  1.00  0.00     0.031 A 
ATOM     28  C   UNL A   1      44.171  26.702  29.568  1.00  0.00     0.074 A 
ATOM     29  C   UNL A   1      44.458  24.824  31.169  1.00  0.00     0.049 A 
ATOM     30  N   UNL A   1      44.809  27.665  30.182  1.00  0.00    -0.248 NA
ATOM     31  C   UNL A   1      43.646  27.097  28.248  1.00  0.00     0.031 C 
ATOM     32  C   UNL A   1      44.407  23.440  31.648  1.00  0.00     0.029 A 
ATOM     33  N   UNL A   1      45.105  25.495  32.176  1.00  0.00    -0.354 N 
ATOM     34  C   UNL A   1      44.791  28.753  29.310  1.00  0.00     0.074 A 
ATOM     35  C   UNL A   1      44.164  28.305  28.091  1.00  0.00     0.031 C 
ATOM     36  C   UNL A   1      44.937  23.377  32.879  1.00  0.00     0.029 A 
ATOM     37  C   UNL A   1      45.405  24.704  33.261  1.00  0.00     0.049 A 
ATOM     38  H   UNL A   1      45.331  26.452  32.127  1.00  0.00     0.167 HD
ATOM     39  C   UNL A   1      45.213  30.024  29.520  1.00  0.00     0.037 A 
ATOM     40  C   UNL A   1      45.979  25.020  34.438  1.00  0.00     0.037 A 
ATOM     41  C   UNL A   1      45.772  30.472  30.768  1.00  0.00     0.049 A 
ATOM     42  C   UNL A   1      46.367  26.453  34.682  1.00  0.00     0.074 A 
ATOM     43  C   UNL A   1      46.163  31.748  31.133  1.00  0.00     0.029 A 
ATOM     44  N   UNL A   1      46.003  29.653  31.865  1.00  0.00    -0.354 N 
ATOM     45  N   UNL A   1      46.281  27.482  33.870  1.00  0.00    -0.248 NA
ATOM     46  C   UNL A   1      46.914  26.773  36.005  1.00  0.00     0.031 C 
ATOM     47  C   UNL A   1      46.671  31.691  32.436  1.00  0.00     0.029 A 
ATOM     48  C   UNL A   1      46.543  30.392  32.902  1.00  0.00     0.049 A 
ATOM     49  H   UNL A   1      45.811  28.688  31.898  1.00  0.00     0.167 HD
ATOM     50  C   UNL A   1      46.738  28.577  34.595  1.00  0.00     0.074 A 
ATOM     51  C   UNL A   1      47.074  28.085  35.916  1.00  0.00     0.031 C 
ATOM     52  C   UNL A   1      46.873  29.871  34.206  1.00  0.00     0.037 A 
BRANCH  39  53
ATOM     53  C   UNL A   1      45.058  31.017  28.394  1.00  0.00     0.058 A 
ATOM     54  C   UNL A   1      45.993  31.106  27.347  1.00  0.00     0.135 A 
ATOM     55  C   UNL A   1      43.950  31.879  28.343  1.00  0.00     0.135 A 
ATOM     56  F   UNL A   1      47.082  30.320  27.344  1.00  0.00    -0.206 F 
ATOM     57  C   UNL A   1      45.858  32.036  26.319  1.00  0.00     0.059 A 
ATOM     58  C   UNL A   1      43.776  32.793  27.305  1.00  0.00     0.059 A 
ATOM     59  F   UNL A   1      43.021  31.845  29.311  1.00  0.00    -0.206 F 
ATOM     60  C   UNL A   1      44.745  32.875  26.306  1.00  0.00     0.060 A 
BRANCH  60  61
ATOM     61  S   UNL A   1      44.581  34.068  24.960  1.00  0.00     0.124 S 
ATOM     62  O   UNL A   1      44.427  33.186  23.807  1.00  0.00    -0.237 OA
ATOM     63  O   UNL A   1      43.390  34.814  25.349  1.00  0.00    -0.237 OA
ATOM     64  O   UNL A   1      45.833  34.816  25.014  1.00  0.00    -0.744 OA
ENDBRANCH  60  61
ENDBRANCH  39  53
BRANCH  40  65
ATOM     65  C   UNL A   1      46.154  23.977  35.486  1.00  0.00     0.058 A 
ATOM     66  C   UNL A   1      47.279  23.136  35.488  1.00  0.00     0.135 A 
ATOM     67  C   UNL A   1      45.222  23.818  36.524  1.00  0.00     0.135 A 
ATOM     68  F   UNL A   1      48.200  23.246  34.520  1.00  0.00    -0.206 F 
ATOM     69  C   UNL A   1      47.461  22.162  36.465  1.00  0.00     0.059 A 
ATOM     70  C   UNL A   1      45.399  22.872  37.530  1.00  0.00     0.059 A 
ATOM     71  F   UNL A   1      44.142  24.612  36.584  1.00  0.00    -0.206 F 
ATOM     72  C   UNL A   1      46.516  22.039  37.484  1.00  0.00     0.060 A 
BRANCH  72  73
ATOM     73  S   UNL A   1      46.786  20.800  38.771  1.00  0.00     0.124 S 
ATOM     74  O   UNL A   1      46.697  19.560  38.008  1.00  0.00    -0.237 OA
ATOM     75  O   UNL A   1      48.114  21.153  39.263  1.00  0.00    -0.237 OA
ATOM     76  O   UNL A   1      45.693  21.044  39.707  1.00  0.00    -0.744 OA
ENDBRANCH  72  73
ENDBRANCH  40  65
BRANCH  52  77
ATOM     77  C   UNL A   1      47.376  30.839  35.240  1.00  0.00     0.058 A 
ATOM     78  C   UNL A   1      46.501  31.532  36.090  1.00  0.00     0.135 A 
ATOM     79  C   UNL A   1      48.753  31.071  35.381  1.00  0.00     0.135 A 
ATOM     80  F   UNL A   1      45.174  31.343  35.996  1.00  0.00    -0.206 F 
ATOM     81  C   UNL A   1      46.970  32.468  37.005  1.00  0.00     0.059 A 
ATOM     82  C   UNL A   1      49.247  31.974  36.315  1.00  0.00     0.059 A 
ATOM     83  F   UNL A   1      49.634  30.419  34.607  1.00  0.00    -0.206 F 
ATOM     84  C   UNL A   1      48.345  32.687  37.104  1.00  0.00     0.060 A 
BRANCH  84  85
ATOM     85  S   UNL A   1      48.940  33.921  38.276  1.00  0.00     0.124 S 
ATOM     86  O   UNL A   1      48.753  33.230  39.547  1.00  0.00    -0.237 OA
ATOM     87  O   UNL A   1      50.326  34.109  37.855  1.00  0.00    -0.237 OA
ATOM     88  O   UNL A   1      48.061  35.063  38.045  1.00  0.00    -0.744 OA
ENDBRANCH  84  85
ENDBRANCH  52  77
ENDBRANCH  26  27
ENDBRANCH  18  21
ENDBRANCH  16  17
ENDBRANCH  15  16
ENDBRANCH  14  15
ENDBRANCH  12  14
ENDBRANCH   5  10
ENDBRANCH   1   5
BRANCH   2  89
ATOM     89  C   UNL A   1      31.236  24.354  25.734  1.00  0.00     0.168 C 
ATOM     90  C   UNL A   1      32.186  25.188  26.635  1.00  0.00     0.041 C 
BRANCH  89  91
ATOM     91  N   UNL A   1      30.132  25.147  25.079  1.00  0.00    -0.343 N 
ATOM     92  C   UNL A   1      29.815  26.375  24.531  1.00  0.00     0.243 C 
ATOM     93  H   UNL A   1      29.338  24.570  25.019  1.00  0.00     0.164 HD
ATOM     94  O   UNL A   1      28.700  26.302  23.967  1.00  0.00    -0.273 OA
BRANCH  92  95
ATOM     95  C   UNL A   1      30.581  27.906  24.360  1.00  0.00     0.174 C 
BRANCH  95  96
ATOM     96  N   UNL A   1      31.000  28.755  25.495  1.00  0.00    -0.343 N 
ATOM     97  C   UNL A   1      32.039  29.569  25.852  1.00  0.00     0.240 C 
ATOM     98  H   UNL A   1      30.326  28.725  26.212  1.00  0.00     0.164 HD
ATOM     99  O   UNL A   1      31.712  30.498  26.612  1.00  0.00    -0.273 OA
BRANCH  97 100
ATOM    100  C   UNL A   1      33.527  29.488  25.430  1.00  0.00     0.219 C 
BRANCH 100 101
ATOM    101  N   UNL A   1      34.551  29.242  26.411  1.00  0.00    -0.312 N 
ATOM    102  C   UNL A   1      34.947  29.991  27.480  1.00  0.00     0.407 C 
ATOM    103  H   UNL A   1      35.043  28.397  26.293  1.00  0.00     0.167 HD
ATOM    104  O   UNL A   1      35.537  29.448  28.394  1.00  0.00    -0.225 OA
BRANCH 102 105
ATOM    105  O   UNL A   1      34.715  31.316  27.342  1.00  0.00    -0.445 OA
BRANCH 105 106
ATOM    106  C   UNL A   1      34.294  32.187  28.446  1.00  0.00     0.270 C 
BRANCH 106 107
ATOM    107  C   UNL A   1      35.220  32.655  29.561  1.00  0.00    -0.011 A 
ATOM    108  C   UNL A   1      36.382  33.389  29.274  1.00  0.00     0.007 A 
ATOM    109  C   UNL A   1      34.936  32.421  30.908  1.00  0.00     0.007 A 
ATOM    110  C   UNL A   1      37.323  33.689  30.268  1.00  0.00     0.000 A 
ATOM    111  C   UNL A   1      35.872  32.716  31.907  1.00  0.00     0.000 A 
ATOM    112  C   UNL A   1      37.084  33.316  31.583  1.00  0.00     0.000 A 
ENDBRANCH 106 107
ENDBRANCH 105 106
ENDBRANCH 102 105
ENDBRANCH 100 101
ENDBRANCH  97 100
ENDBRANCH  95  96
BRANCH  95 113
ATOM    113  C   UNL A   1      31.433  28.249  23.066  1.00  0.00     0.015 C 
ATOM    114  C   UNL A   1      31.867  27.042  22.231  1.00  0.00     0.010 C 
ATOM    115  C   UNL A   1      30.781  29.275  22.099  1.00  0.00     0.010 C 
ENDBRANCH  95 113
ENDBRANCH  92  95
ENDBRANCH  89  91
ENDBRANCH   2  89
TORSDOF 26
ENDMDL
