MODEL 1
REMARK VINA RESULT:     -11.4      0.000      0.000
REMARK SMILES CC[NH+](CC)C[C@H](C)NC(=O)N[C@H]1C=C[C@@H](C(=O)NCCCNC(=O)c2ccc(-c3c4nc(c(-c5c(F)cc(S(=O)(=O)[O-])cc5F)c5ccc([nH]5)c(-c5c(F)cc(S(=O)(=O)[O-])cc5F)c5nc(c(-c6c(F)cc(S(=O)(=O)[O-])cc6F)c6ccc3[nH]6)C=C5)C=C4)cc2)C1
REMARK SMILES IDX 20 1 19 2 17 3 18 4 16 6 13 7 14 8 92 9 15 10 12 11 9 12
REMARK SMILES IDX 10 13 11 15 7 17 8 18 6 19 3 20 2 22 1 23 4 24 5 25 21 26
REMARK SMILES IDX 22 27 23 28 24 29 25 31 26 32 27 33 91 34 28 35 90 36 29 37
REMARK SMILES IDX 30 38 31 39 84 40 32 41 89 42 83 43 85 44 33 45 88 46 82 47
REMARK SMILES IDX 81 48 34 50 68 51 47 52 67 53 48 54 51 55 66 56 86 57 49 58
REMARK SMILES IDX 50 59 65 61 87 62 52 63 35 64 36 65 45 66 37 67 38 68 44 69
REMARK SMILES IDX 46 70 39 71 40 72 41 73 42 74 43 75 69 76 70 77 79 78 71 79
REMARK SMILES IDX 72 80 78 81 80 82 73 83 74 84 75 85 76 86 77 87 53 88 54 89
REMARK SMILES IDX 63 90 55 91 56 92 62 93 64 94 57 95 58 96 59 97 60 98 61 99
REMARK H PARENT 19 5 9 14 12 16 3 21 23 30 85 49 51 60
REMARK Flexibility Score: inf
ROOT
ATOM      1  C   UNL A   1      33.736  31.598  27.974  1.00  0.00     0.117 C 
ENDROOT
BRANCH   1   2
ATOM      2  N   UNL A   1      33.448  30.186  27.568  1.00  0.00    -0.356 N 
ATOM      3  C   UNL A   1      33.490  29.329  26.520  1.00  0.00     0.227 C 
ATOM      4  O   UNL A   1      34.080  28.278  26.860  1.00  0.00    -0.274 OA
ATOM      5  H   UNL A   1      33.100  29.701  28.352  1.00  0.00     0.163 HD
BRANCH   3   6
ATOM      6  C   UNL A   1      32.901  29.301  25.051  1.00  0.00     0.103 C 
ATOM      7  C   UNL A   1      32.574  28.597  22.694  1.00  0.00     0.107 C 
ATOM      8  C   UNL A   1      31.296  28.601  23.461  1.00  0.00    -0.006 C 
ATOM      9  C   UNL A   1      33.647  28.983  23.740  1.00  0.00     0.047 C 
ATOM     10  C   UNL A   1      31.478  28.912  24.758  1.00  0.00    -0.016 C 
BRANCH   7  11
ATOM     11  N   UNL A   1      32.796  27.421  21.843  1.00  0.00    -0.332 N 
ATOM     12  N   UNL A   1      33.131  25.328  22.928  1.00  0.00    -0.330 N 
ATOM     13  C   UNL A   1      33.039  26.105  21.852  1.00  0.00     0.315 C 
ATOM     14  H   UNL A   1      33.174  24.363  22.736  1.00  0.00     0.165 HD
ATOM     15  O   UNL A   1      33.176  25.558  20.752  1.00  0.00    -0.249 OA
ATOM     16  H   UNL A   1      32.748  27.713  20.905  1.00  0.00     0.165 HD
BRANCH  12  17
ATOM     17  C   UNL A   1      33.177  25.661  24.318  1.00  0.00     0.135 C 
ATOM     18  C   UNL A   1      31.900  25.289  25.065  1.00  0.00     0.037 C 
BRANCH  17  19
ATOM     19  C   UNL A   1      34.484  25.265  25.028  1.00  0.00     0.287 C 
BRANCH  19  20
ATOM     20  N   UNL A   1      34.810  23.865  25.252  1.00  0.00    -0.334 N 
ATOM     21  H   UNL A   1      35.298  24.736  25.462  1.00  0.00     0.348 HD
BRANCH  20  22
ATOM     22  C   UNL A   1      35.436  23.060  24.230  1.00  0.00     0.258 C 
ATOM     23  C   UNL A   1      36.928  22.838  24.427  1.00  0.00     0.071 C 
ENDBRANCH  20  22
BRANCH  20  24
ATOM     24  C   UNL A   1      34.451  23.179  26.480  1.00  0.00     0.258 C 
ATOM     25  C   UNL A   1      33.824  21.806  26.325  1.00  0.00     0.071 C 
ENDBRANCH  20  24
ENDBRANCH  19  20
ENDBRANCH  17  19
ENDBRANCH  12  17
ENDBRANCH   7  11
ENDBRANCH   3   6
ENDBRANCH   1   2
BRANCH   1  26
ATOM     26  C   UNL A   1      35.244  31.874  28.104  1.00  0.00     0.042 C 
BRANCH  26  27
ATOM     27  C   UNL A   1      35.860  32.236  29.463  1.00  0.00     0.118 C 
BRANCH  27  28
ATOM     28  N   UNL A   1      35.824  31.177  30.468  1.00  0.00    -0.352 N 
ATOM     29  C   UNL A   1      36.712  30.202  30.883  1.00  0.00     0.251 C 
ATOM     30  H   UNL A   1      34.972  31.151  30.963  1.00  0.00     0.163 HD
ATOM     31  O   UNL A   1      36.324  29.449  31.781  1.00  0.00    -0.269 OA
BRANCH  29  32
ATOM     32  C   UNL A   1      38.079  29.976  30.318  1.00  0.00     0.039 A 
ATOM     33  C   UNL A   1      38.253  30.072  28.922  1.00  0.00     0.014 A 
ATOM     34  C   UNL A   1      39.177  29.586  31.078  1.00  0.00     0.014 A 
ATOM     35  C   UNL A   1      39.502  29.826  28.318  1.00  0.00     0.010 A 
ATOM     36  C   UNL A   1      40.442  29.446  30.492  1.00  0.00     0.010 A 
ATOM     37  C   UNL A   1      40.624  29.533  29.103  1.00  0.00    -0.014 A 
BRANCH  37  38
ATOM     38  C   UNL A   1      41.975  29.237  28.529  1.00  0.00     0.031 A 
ATOM     39  C   UNL A   1      42.283  27.840  28.032  1.00  0.00     0.074 A 
ATOM     40  C   UNL A   1      42.960  30.158  28.542  1.00  0.00     0.049 A 
ATOM     41  N   UNL A   1      43.432  27.299  27.712  1.00  0.00    -0.248 NA
ATOM     42  C   UNL A   1      41.143  26.916  27.933  1.00  0.00     0.031 C 
ATOM     43  C   UNL A   1      42.825  31.540  29.003  1.00  0.00     0.029 A 
ATOM     44  N   UNL A   1      44.283  30.063  28.174  1.00  0.00    -0.354 N 
ATOM     45  C   UNL A   1      43.159  25.961  27.440  1.00  0.00     0.074 A 
ATOM     46  C   UNL A   1      41.746  25.765  27.682  1.00  0.00     0.031 C 
ATOM     47  C   UNL A   1      44.007  32.167  28.873  1.00  0.00     0.029 A 
ATOM     48  C   UNL A   1      44.999  31.221  28.368  1.00  0.00     0.049 A 
ATOM     49  H   UNL A   1      44.680  29.240  27.807  1.00  0.00     0.167 HD
ATOM     50  C   UNL A   1      43.999  24.986  27.009  1.00  0.00     0.037 A 
ATOM     51  C   UNL A   1      46.306  31.493  28.173  1.00  0.00     0.037 A 
ATOM     52  C   UNL A   1      45.389  25.202  26.701  1.00  0.00     0.049 A 
ATOM     53  C   UNL A   1      47.221  30.409  27.669  1.00  0.00     0.074 A 
ATOM     54  C   UNL A   1      46.307  24.305  26.181  1.00  0.00     0.029 A 
ATOM     55  N   UNL A   1      46.060  26.403  26.875  1.00  0.00    -0.354 N 
ATOM     56  N   UNL A   1      46.942  29.157  27.392  1.00  0.00    -0.248 NA
ATOM     57  C   UNL A   1      48.629  30.772  27.451  1.00  0.00     0.031 C 
ATOM     58  C   UNL A   1      47.542  24.954  26.076  1.00  0.00     0.029 A 
ATOM     59  C   UNL A   1      47.384  26.269  26.486  1.00  0.00     0.049 A 
ATOM     60  H   UNL A   1      45.656  27.231  27.224  1.00  0.00     0.167 HD
ATOM     61  C   UNL A   1      48.129  28.593  26.935  1.00  0.00     0.074 A 
ATOM     62  C   UNL A   1      49.129  29.641  26.972  1.00  0.00     0.031 C 
ATOM     63  C   UNL A   1      48.367  27.324  26.518  1.00  0.00     0.037 A 
BRANCH  50  64
ATOM     64  C   UNL A   1      43.430  23.596  26.853  1.00  0.00     0.058 A 
ATOM     65  C   UNL A   1      43.199  22.757  27.956  1.00  0.00     0.135 A 
ATOM     66  C   UNL A   1      43.125  23.089  25.578  1.00  0.00     0.135 A 
ATOM     67  F   UNL A   1      43.474  23.182  29.199  1.00  0.00    -0.206 F 
ATOM     68  C   UNL A   1      42.758  21.447  27.797  1.00  0.00     0.059 A 
ATOM     69  C   UNL A   1      42.647  21.794  25.398  1.00  0.00     0.059 A 
ATOM     70  F   UNL A   1      43.311  23.848  24.486  1.00  0.00    -0.206 F 
ATOM     71  C   UNL A   1      42.497  20.970  26.512  1.00  0.00     0.060 A 
BRANCH  71  72
ATOM     72  S   UNL A   1      41.977  19.252  26.316  1.00  0.00     0.124 S 
ATOM     73  O   UNL A   1      42.189  18.732  27.664  1.00  0.00    -0.237 OA
ATOM     74  O   UNL A   1      40.583  19.390  25.904  1.00  0.00    -0.237 OA
ATOM     75  O   UNL A   1      42.882  18.736  25.295  1.00  0.00    -0.744 OA
ENDBRANCH  71  72
ENDBRANCH  50  64
BRANCH  51  76
ATOM     76  C   UNL A   1      46.815  32.872  28.409  1.00  0.00     0.058 A 
ATOM     77  C   UNL A   1      47.385  33.216  29.644  1.00  0.00     0.135 A 
ATOM     78  C   UNL A   1      46.789  33.854  27.406  1.00  0.00     0.135 A 
ATOM     79  F   UNL A   1      47.420  32.317  30.639  1.00  0.00    -0.206 F 
ATOM     80  C   UNL A   1      47.919  34.479  29.877  1.00  0.00     0.059 A 
ATOM     81  C   UNL A   1      47.337  35.119  27.608  1.00  0.00     0.059 A 
ATOM     82  F   UNL A   1      46.263  33.575  26.205  1.00  0.00    -0.206 F 
ATOM     83  C   UNL A   1      47.901  35.421  28.847  1.00  0.00     0.060 A 
BRANCH  83  84
ATOM     84  S   UNL A   1      48.672  37.029  29.143  1.00  0.00     0.124 S 
ATOM     85  O   UNL A   1      48.945  37.485  27.800  1.00  0.00    -0.237 OA
ATOM     86  O   UNL A   1      47.616  37.741  29.868  1.00  0.00    -0.237 OA
ATOM     87  O   UNL A   1      49.846  36.689  29.955  1.00  0.00    -0.744 OA
ENDBRANCH  83  84
ENDBRANCH  51  76
BRANCH  63  88
ATOM     88  C   UNL A   1      49.751  27.001  26.022  1.00  0.00     0.058 A 
ATOM     89  C   UNL A   1      50.722  26.428  26.858  1.00  0.00     0.135 A 
ATOM     90  C   UNL A   1      50.085  27.208  24.674  1.00  0.00     0.135 A 
ATOM     91  F   UNL A   1      50.457  26.214  28.155  1.00  0.00    -0.206 F 
ATOM     92  C   UNL A   1      51.983  26.089  26.377  1.00  0.00     0.059 A 
ATOM     93  C   UNL A   1      51.331  26.854  24.166  1.00  0.00     0.059 A 
ATOM     94  F   UNL A   1      49.188  27.743  23.830  1.00  0.00    -0.206 F 
ATOM     95  C   UNL A   1      52.278  26.303  25.028  1.00  0.00     0.060 A 
BRANCH  95  96
ATOM     96  S   UNL A   1      53.903  25.820  24.409  1.00  0.00     0.124 S 
ATOM     97  O   UNL A   1      53.714  25.932  22.967  1.00  0.00    -0.237 OA
ATOM     98  O   UNL A   1      54.778  26.819  25.014  1.00  0.00    -0.237 OA
ATOM     99  O   UNL A   1      54.070  24.461  24.918  1.00  0.00    -0.744 OA
ENDBRANCH  95  96
ENDBRANCH  63  88
ENDBRANCH  37  38
ENDBRANCH  29  32
ENDBRANCH  27  28
ENDBRANCH  26  27
ENDBRANCH   1  26
TORSDOF 19
ENDMDL
MODEL 2
REMARK VINA RESULT:     -11.3      1.424      2.199
REMARK SMILES CC[NH+](CC)C[C@H](C)NC(=O)N[C@H]1C=C[C@@H](C(=O)NCCCNC(=O)c2ccc(-c3c4nc(c(-c5c(F)cc(S(=O)(=O)[O-])cc5F)c5ccc([nH]5)c(-c5c(F)cc(S(=O)(=O)[O-])cc5F)c5nc(c(-c6c(F)cc(S(=O)(=O)[O-])cc6F)c6ccc3[nH]6)C=C5)C=C4)cc2)C1
REMARK SMILES IDX 20 1 19 2 17 3 18 4 16 6 13 7 14 8 92 9 15 10 12 11 9 12
REMARK SMILES IDX 10 13 11 15 7 17 8 18 6 19 3 20 2 22 1 23 4 24 5 25 21 26
REMARK SMILES IDX 22 27 23 28 24 29 25 31 26 32 27 33 91 34 28 35 90 36 29 37
REMARK SMILES IDX 30 38 31 39 84 40 32 41 89 42 83 43 85 44 33 45 88 46 82 47
REMARK SMILES IDX 81 48 34 50 68 51 47 52 67 53 48 54 51 55 66 56 86 57 49 58
REMARK SMILES IDX 50 59 65 61 87 62 52 63 35 64 36 65 45 66 37 67 38 68 44 69
REMARK SMILES IDX 46 70 39 71 40 72 41 73 42 74 43 75 69 76 70 77 79 78 71 79
REMARK SMILES IDX 72 80 78 81 80 82 73 83 74 84 75 85 76 86 77 87 53 88 54 89
REMARK SMILES IDX 63 90 55 91 56 92 62 93 64 94 57 95 58 96 59 97 60 98 61 99
REMARK H PARENT 19 5 9 14 12 16 3 21 23 30 85 49 51 60
REMARK Flexibility Score: inf
ROOT
ATOM      1  C   UNL A   1      32.729  30.714  26.895  1.00  0.00     0.117 C 
ENDROOT
BRANCH   1   2
ATOM      2  N   UNL A   1      32.146  30.306  25.577  1.00  0.00    -0.356 N 
ATOM      3  C   UNL A   1      31.397  29.355  24.971  1.00  0.00     0.227 C 
ATOM      4  O   UNL A   1      30.479  29.899  24.315  1.00  0.00    -0.274 OA
ATOM      5  H   UNL A   1      32.403  30.976  24.903  1.00  0.00     0.163 HD
BRANCH   3   6
ATOM      6  C   UNL A   1      31.466  27.781  24.817  1.00  0.00     0.103 C 
ATOM      7  C   UNL A   1      31.262  25.380  25.407  1.00  0.00     0.107 C 
ATOM      8  C   UNL A   1      30.545  25.710  24.144  1.00  0.00    -0.006 C 
ATOM      9  C   UNL A   1      31.810  26.740  25.901  1.00  0.00     0.047 C 
ATOM     10  C   UNL A   1      30.591  27.024  23.856  1.00  0.00    -0.016 C 
BRANCH   7  11
ATOM     11  N   UNL A   1      30.526  24.523  26.347  1.00  0.00    -0.332 N 
ATOM     12  N   UNL A   1      31.381  22.336  26.741  1.00  0.00    -0.330 N 
ATOM     13  C   UNL A   1      30.493  23.313  26.914  1.00  0.00     0.315 C 
ATOM     14  H   UNL A   1      31.270  21.568  27.347  1.00  0.00     0.165 HD
ATOM     15  O   UNL A   1      29.555  23.086  27.686  1.00  0.00    -0.249 OA
ATOM     16  H   UNL A   1      29.763  25.040  26.692  1.00  0.00     0.165 HD
BRANCH  12  17
ATOM     17  C   UNL A   1      32.469  22.218  25.820  1.00  0.00     0.135 C 
ATOM     18  C   UNL A   1      32.013  21.971  24.385  1.00  0.00     0.037 C 
BRANCH  17  19
ATOM     19  C   UNL A   1      33.562  23.290  25.979  1.00  0.00     0.287 C 
BRANCH  19  20
ATOM     20  N   UNL A   1      34.968  22.936  25.871  1.00  0.00    -0.334 N 
ATOM     21  H   UNL A   1      34.380  23.224  26.654  1.00  0.00     0.348 HD
BRANCH  20  22
ATOM     22  C   UNL A   1      35.966  23.905  25.484  1.00  0.00     0.258 C 
ATOM     23  C   UNL A   1      37.330  23.697  26.125  1.00  0.00     0.071 C 
ENDBRANCH  20  22
BRANCH  20  24
ATOM     24  C   UNL A   1      35.435  21.575  26.064  1.00  0.00     0.258 C 
ATOM     25  C   UNL A   1      35.823  20.813  24.811  1.00  0.00     0.071 C 
ENDBRANCH  20  24
ENDBRANCH  19  20
ENDBRANCH  17  19
ENDBRANCH  12  17
ENDBRANCH   7  11
ENDBRANCH   3   6
ENDBRANCH   1   2
BRANCH   1  26
ATOM     26  C   UNL A   1      34.014  29.937  27.234  1.00  0.00     0.042 C 
BRANCH  26  27
ATOM     27  C   UNL A   1      35.183  30.630  27.947  1.00  0.00     0.118 C 
BRANCH  27  28
ATOM     28  N   UNL A   1      35.323  30.319  29.366  1.00  0.00    -0.352 N 
ATOM     29  C   UNL A   1      36.376  29.935  30.176  1.00  0.00     0.251 C 
ATOM     30  H   UNL A   1      34.475  30.400  29.860  1.00  0.00     0.163 HD
ATOM     31  O   UNL A   1      36.113  29.742  31.367  1.00  0.00    -0.269 OA
BRANCH  29  32
ATOM     32  C   UNL A   1      37.785  29.713  29.723  1.00  0.00     0.039 A 
ATOM     33  C   UNL A   1      38.074  29.833  28.348  1.00  0.00     0.014 A 
ATOM     34  C   UNL A   1      38.815  29.307  30.564  1.00  0.00     0.014 A 
ATOM     35  C   UNL A   1      39.368  29.593  27.845  1.00  0.00     0.010 A 
ATOM     36  C   UNL A   1      40.124  29.172  30.083  1.00  0.00     0.010 A 
ATOM     37  C   UNL A   1      40.421  29.283  28.715  1.00  0.00    -0.014 A 
BRANCH  37  38
ATOM     38  C   UNL A   1      41.815  28.992  28.249  1.00  0.00     0.031 A 
ATOM     39  C   UNL A   1      42.174  27.588  27.811  1.00  0.00     0.074 A 
ATOM     40  C   UNL A   1      42.784  29.926  28.313  1.00  0.00     0.049 A 
ATOM     41  N   UNL A   1      43.350  27.055  27.589  1.00  0.00    -0.248 NA
ATOM     42  C   UNL A   1      41.056  26.646  27.650  1.00  0.00     0.031 C 
ATOM     43  C   UNL A   1      42.599  31.317  28.729  1.00  0.00     0.029 A 
ATOM     44  N   UNL A   1      44.132  29.841  28.047  1.00  0.00    -0.354 N 
ATOM     45  C   UNL A   1      43.115  25.707  27.331  1.00  0.00     0.074 A 
ATOM     46  C   UNL A   1      41.690  25.499  27.472  1.00  0.00     0.031 C 
ATOM     47  C   UNL A   1      43.779  31.956  28.672  1.00  0.00     0.029 A 
ATOM     48  C   UNL A   1      44.817  31.013  28.265  1.00  0.00     0.049 A 
ATOM     49  H   UNL A   1      44.565  29.015  27.730  1.00  0.00     0.167 HD
ATOM     50  C   UNL A   1      43.995  24.734  26.987  1.00  0.00     0.037 A 
ATOM     51  C   UNL A   1      46.132  31.297  28.161  1.00  0.00     0.037 A 
ATOM     52  C   UNL A   1      45.402  24.962  26.777  1.00  0.00     0.049 A 
ATOM     53  C   UNL A   1      47.095  30.215  27.753  1.00  0.00     0.074 A 
ATOM     54  C   UNL A   1      46.366  24.066  26.348  1.00  0.00     0.029 A 
ATOM     55  N   UNL A   1      46.044  26.176  26.972  1.00  0.00    -0.354 N 
ATOM     56  N   UNL A   1      46.852  28.953  27.485  1.00  0.00    -0.248 NA
ATOM     57  C   UNL A   1      48.511  30.592  27.630  1.00  0.00     0.031 C 
ATOM     58  C   UNL A   1      47.598  24.729  26.320  1.00  0.00     0.029 A 
ATOM     59  C   UNL A   1      47.394  26.051  26.684  1.00  0.00     0.049 A 
ATOM     60  H   UNL A   1      45.606  27.006  27.270  1.00  0.00     0.167 HD
ATOM     61  C   UNL A   1      48.077  28.395  27.131  1.00  0.00     0.074 A 
ATOM     62  C   UNL A   1      49.059  29.457  27.217  1.00  0.00     0.031 C 
ATOM     63  C   UNL A   1      48.360  27.120  26.764  1.00  0.00     0.037 A 
BRANCH  50  64
ATOM     64  C   UNL A   1      43.456  23.334  26.823  1.00  0.00     0.058 A 
ATOM     65  C   UNL A   1      43.133  22.526  27.926  1.00  0.00     0.135 A 
ATOM     66  C   UNL A   1      43.274  22.785  25.542  1.00  0.00     0.135 A 
ATOM     67  F   UNL A   1      43.290  22.991  29.175  1.00  0.00    -0.206 F 
ATOM     68  C   UNL A   1      42.722  21.206  27.768  1.00  0.00     0.059 A 
ATOM     69  C   UNL A   1      42.826  21.480  25.359  1.00  0.00     0.059 A 
ATOM     70  F   UNL A   1      43.551  23.513  24.449  1.00  0.00    -0.206 F 
ATOM     71  C   UNL A   1      42.583  20.687  26.480  1.00  0.00     0.060 A 
BRANCH  71  72
ATOM     72  S   UNL A   1      42.099  18.959  26.291  1.00  0.00     0.124 S 
ATOM     73  O   UNL A   1      42.242  18.468  27.659  1.00  0.00    -0.237 OA
ATOM     74  O   UNL A   1      40.729  19.067  25.798  1.00  0.00    -0.237 OA
ATOM     75  O   UNL A   1      43.068  18.436  25.333  1.00  0.00    -0.744 OA
ENDBRANCH  71  72
ENDBRANCH  50  64
BRANCH  51  76
ATOM     76  C   UNL A   1      46.606  32.688  28.401  1.00  0.00     0.058 A 
ATOM     77  C   UNL A   1      46.606  33.628  27.359  1.00  0.00     0.135 A 
ATOM     78  C   UNL A   1      47.021  33.122  29.670  1.00  0.00     0.135 A 
ATOM     79  F   UNL A   1      46.233  33.258  26.124  1.00  0.00    -0.206 F 
ATOM     80  C   UNL A   1      46.990  34.949  27.565  1.00  0.00     0.059 A 
ATOM     81  C   UNL A   1      47.389  34.445  29.906  1.00  0.00     0.059 A 
ATOM     82  F   UNL A   1      47.032  32.266  30.703  1.00  0.00    -0.206 F 
ATOM     83  C   UNL A   1      47.369  35.351  28.847  1.00  0.00     0.060 A 
BRANCH  83  84
ATOM     84  S   UNL A   1      47.788  37.089  29.110  1.00  0.00     0.124 S 
ATOM     85  O   UNL A   1      47.065  37.394  30.323  1.00  0.00    -0.237 OA
ATOM     86  O   UNL A   1      49.248  37.035  29.221  1.00  0.00    -0.237 OA
ATOM     87  O   UNL A   1      47.293  37.738  27.890  1.00  0.00    -0.744 OA
ENDBRANCH  83  84
ENDBRANCH  51  76
BRANCH  63  88
ATOM     88  C   UNL A   1      49.780  26.804  26.380  1.00  0.00     0.058 A 
ATOM     89  C   UNL A   1      50.665  26.173  27.268  1.00  0.00     0.135 A 
ATOM     90  C   UNL A   1      50.239  27.079  25.081  1.00  0.00     0.135 A 
ATOM     91  F   UNL A   1      50.279  25.893  28.522  1.00  0.00    -0.206 F 
ATOM     92  C   UNL A   1      51.962  25.843  26.886  1.00  0.00     0.059 A 
ATOM     93  C   UNL A   1      51.523  26.735  24.671  1.00  0.00     0.059 A 
ATOM     94  F   UNL A   1      49.430  27.672  24.189  1.00  0.00    -0.206 F 
ATOM     95  C   UNL A   1      52.381  26.125  25.584  1.00  0.00     0.060 A 
BRANCH  95  96
ATOM     96  S   UNL A   1      54.053  25.652  25.090  1.00  0.00     0.124 S 
ATOM     97  O   UNL A   1      54.120  24.273  25.561  1.00  0.00    -0.237 OA
ATOM     98  O   UNL A   1      54.011  25.827  23.641  1.00  0.00    -0.237 OA
ATOM     99  O   UNL A   1      54.899  26.604  25.805  1.00  0.00    -0.744 OA
ENDBRANCH  95  96
ENDBRANCH  63  88
ENDBRANCH  37  38
ENDBRANCH  29  32
ENDBRANCH  27  28
ENDBRANCH  26  27
ENDBRANCH   1  26
TORSDOF 19
ENDMDL
MODEL 3
REMARK VINA RESULT:     -11.3      6.843     12.188
REMARK SMILES CC[NH+](CC)C[C@H](C)NC(=O)N[C@H]1C=C[C@@H](C(=O)NCCCNC(=O)c2ccc(-c3c4nc(c(-c5c(F)cc(S(=O)(=O)[O-])cc5F)c5ccc([nH]5)c(-c5c(F)cc(S(=O)(=O)[O-])cc5F)c5nc(c(-c6c(F)cc(S(=O)(=O)[O-])cc6F)c6ccc3[nH]6)C=C5)C=C4)cc2)C1
REMARK SMILES IDX 20 1 19 2 17 3 18 4 16 6 13 7 14 8 92 9 15 10 12 11 9 12
REMARK SMILES IDX 10 13 11 15 7 17 8 18 6 19 3 20 2 22 1 23 4 24 5 25 21 26
REMARK SMILES IDX 22 27 23 28 24 29 25 31 26 32 27 33 91 34 28 35 90 36 29 37
REMARK SMILES IDX 30 38 31 39 84 40 32 41 89 42 83 43 85 44 33 45 88 46 82 47
REMARK SMILES IDX 81 48 34 50 68 51 47 52 67 53 48 54 51 55 66 56 86 57 49 58
REMARK SMILES IDX 50 59 65 61 87 62 52 63 35 64 36 65 45 66 37 67 38 68 44 69
REMARK SMILES IDX 46 70 39 71 40 72 41 73 42 74 43 75 69 76 70 77 79 78 71 79
REMARK SMILES IDX 72 80 78 81 80 82 73 83 74 84 75 85 76 86 77 87 53 88 54 89
REMARK SMILES IDX 63 90 55 91 56 92 62 93 64 94 57 95 58 96 59 97 60 98 61 99
REMARK H PARENT 19 5 9 14 12 16 3 21 23 30 85 49 51 60
REMARK Flexibility Score: inf
ROOT
ATOM      1  C   UNL A   1      37.788  23.571  25.873  1.00  0.00     0.117 C 
ENDROOT
BRANCH   1   2
ATOM      2  N   UNL A   1      36.919  23.017  24.787  1.00  0.00    -0.356 N 
ATOM      3  C   UNL A   1      35.965  23.349  23.886  1.00  0.00     0.227 C 
ATOM      4  O   UNL A   1      36.294  22.932  22.752  1.00  0.00    -0.274 OA
ATOM      5  H   UNL A   1      37.113  22.055  24.694  1.00  0.00     0.163 HD
BRANCH   3   6
ATOM      6  C   UNL A   1      34.535  24.027  23.943  1.00  0.00     0.103 C 
ATOM      7  C   UNL A   1      32.159  24.384  24.561  1.00  0.00     0.107 C 
ATOM      8  C   UNL A   1      32.999  25.582  24.845  1.00  0.00    -0.006 C 
ATOM      9  C   UNL A   1      33.164  23.329  24.038  1.00  0.00     0.047 C 
ATOM     10  C   UNL A   1      34.301  25.369  24.578  1.00  0.00    -0.016 C 
BRANCH   7  11
ATOM     11  N   UNL A   1      31.217  24.008  25.624  1.00  0.00    -0.332 N 
ATOM     12  N   UNL A   1      31.994  22.505  27.300  1.00  0.00    -0.330 N 
ATOM     13  C   UNL A   1      31.065  23.265  26.726  1.00  0.00     0.315 C 
ATOM     14  H   UNL A   1      31.743  22.143  28.180  1.00  0.00     0.165 HD
ATOM     15  O   UNL A   1      29.956  23.301  27.271  1.00  0.00    -0.249 OA
ATOM     16  H   UNL A   1      30.373  24.487  25.463  1.00  0.00     0.165 HD
BRANCH  12  17
ATOM     17  C   UNL A   1      33.299  22.128  26.849  1.00  0.00     0.135 C 
ATOM     18  C   UNL A   1      34.410  22.977  27.459  1.00  0.00     0.037 C 
BRANCH  17  19
ATOM     19  C   UNL A   1      33.563  20.612  26.851  1.00  0.00     0.287 C 
BRANCH  19  20
ATOM     20  N   UNL A   1      33.712  19.884  25.601  1.00  0.00    -0.334 N 
ATOM     21  H   UNL A   1      33.923  19.651  26.572  1.00  0.00     0.348 HD
BRANCH  20  22
ATOM     22  C   UNL A   1      34.874  20.052  24.760  1.00  0.00     0.258 C 
ATOM     23  C   UNL A   1      35.841  18.877  24.778  1.00  0.00     0.071 C 
ENDBRANCH  20  22
BRANCH  20  24
ATOM     24  C   UNL A   1      32.668  19.015  25.088  1.00  0.00     0.258 C 
ATOM     25  C   UNL A   1      32.581  18.885  23.579  1.00  0.00     0.071 C 
ENDBRANCH  20  24
ENDBRANCH  19  20
ENDBRANCH  17  19
ENDBRANCH  12  17
ENDBRANCH   7  11
ENDBRANCH   3   6
ENDBRANCH   1   2
BRANCH   1  26
ATOM     26  C   UNL A   1      38.928  22.611  26.258  1.00  0.00     0.042 C 
BRANCH  26  27
ATOM     27  C   UNL A   1      40.257  23.152  26.803  1.00  0.00     0.118 C 
BRANCH  27  28
ATOM     28  N   UNL A   1      40.928  24.134  25.956  1.00  0.00    -0.352 N 
ATOM     29  C   UNL A   1      41.296  25.458  26.109  1.00  0.00     0.251 C 
ATOM     30  H   UNL A   1      41.173  23.772  25.073  1.00  0.00     0.163 HD
ATOM     31  O   UNL A   1      41.854  25.990  25.144  1.00  0.00    -0.269 OA
BRANCH  29  32
ATOM     32  C   UNL A   1      41.051  26.293  27.327  1.00  0.00     0.039 A 
ATOM     33  C   UNL A   1      41.856  27.432  27.532  1.00  0.00     0.014 A 
ATOM     34  C   UNL A   1      40.136  25.965  28.321  1.00  0.00     0.014 A 
ATOM     35  C   UNL A   1      41.713  28.237  28.679  1.00  0.00     0.010 A 
ATOM     36  C   UNL A   1      39.918  26.822  29.408  1.00  0.00     0.010 A 
ATOM     37  C   UNL A   1      40.718  27.955  29.624  1.00  0.00    -0.014 A 
BRANCH  37  38
ATOM     38  C   UNL A   1      40.524  28.752  30.877  1.00  0.00     0.031 A 
ATOM     39  C   UNL A   1      39.438  29.805  30.928  1.00  0.00     0.074 A 
ATOM     40  C   UNL A   1      41.363  28.626  31.925  1.00  0.00     0.049 A 
ATOM     41  N   UNL A   1      39.234  30.757  31.805  1.00  0.00    -0.248 NA
ATOM     42  C   UNL A   1      38.484  29.816  29.808  1.00  0.00     0.031 C 
ATOM     43  C   UNL A   1      42.466  27.670  32.021  1.00  0.00     0.029 A 
ATOM     44  N   UNL A   1      41.432  29.326  33.108  1.00  0.00    -0.354 N 
ATOM     45  C   UNL A   1      38.176  31.513  31.307  1.00  0.00     0.074 A 
ATOM     46  C   UNL A   1      37.817  30.937  30.029  1.00  0.00     0.031 C 
ATOM     47  C   UNL A   1      43.087  27.829  33.201  1.00  0.00     0.029 A 
ATOM     48  C   UNL A   1      42.463  28.931  33.928  1.00  0.00     0.049 A 
ATOM     49  H   UNL A   1      40.802  30.045  33.344  1.00  0.00     0.167 HD
ATOM     50  C   UNL A   1      37.544  32.575  31.866  1.00  0.00     0.037 A 
ATOM     51  C   UNL A   1      42.870  29.406  35.124  1.00  0.00     0.037 A 
ATOM     52  C   UNL A   1      37.858  33.101  33.170  1.00  0.00     0.049 A 
ATOM     53  C   UNL A   1      42.143  30.569  35.746  1.00  0.00     0.074 A 
ATOM     54  C   UNL A   1      37.228  34.119  33.864  1.00  0.00     0.029 A 
ATOM     55  N   UNL A   1      38.885  32.641  33.981  1.00  0.00    -0.354 N 
ATOM     56  N   UNL A   1      41.128  31.255  35.274  1.00  0.00    -0.248 NA
ATOM     57  C   UNL A   1      42.615  31.024  37.061  1.00  0.00     0.031 C 
ATOM     58  C   UNL A   1      37.898  34.301  35.079  1.00  0.00     0.029 A 
ATOM     59  C   UNL A   1      38.915  33.363  35.164  1.00  0.00     0.049 A 
ATOM     60  H   UNL A   1      39.502  31.909  33.752  1.00  0.00     0.167 HD
ATOM     61  C   UNL A   1      40.819  32.198  36.249  1.00  0.00     0.074 A 
ATOM     62  C   UNL A   1      41.754  31.994  37.337  1.00  0.00     0.031 C 
ATOM     63  C   UNL A   1      39.846  33.144  36.244  1.00  0.00     0.037 A 
BRANCH  50  64
ATOM     64  C   UNL A   1      36.454  33.240  31.060  1.00  0.00     0.058 A 
ATOM     65  C   UNL A   1      36.737  34.031  29.934  1.00  0.00     0.135 A 
ATOM     66  C   UNL A   1      35.106  33.097  31.431  1.00  0.00     0.135 A 
ATOM     67  F   UNL A   1      38.005  34.209  29.533  1.00  0.00    -0.206 F 
ATOM     68  C   UNL A   1      35.734  34.712  29.250  1.00  0.00     0.059 A 
ATOM     69  C   UNL A   1      34.083  33.739  30.738  1.00  0.00     0.059 A 
ATOM     70  F   UNL A   1      34.771  32.344  32.490  1.00  0.00    -0.206 F 
ATOM     71  C   UNL A   1      34.410  34.570  29.668  1.00  0.00     0.060 A 
BRANCH  71  72
ATOM     72  S   UNL A   1      33.126  35.500  28.806  1.00  0.00     0.124 S 
ATOM     73  O   UNL A   1      32.370  36.054  29.926  1.00  0.00    -0.237 OA
ATOM     74  O   UNL A   1      33.902  36.463  28.030  1.00  0.00    -0.237 OA
ATOM     75  O   UNL A   1      32.434  34.482  28.024  1.00  0.00    -0.744 OA
ENDBRANCH  71  72
ENDBRANCH  50  64
BRANCH  51  76
ATOM     76  C   UNL A   1      43.997  28.742  35.836  1.00  0.00     0.058 A 
ATOM     77  C   UNL A   1      45.312  29.198  35.662  1.00  0.00     0.135 A 
ATOM     78  C   UNL A   1      43.786  27.682  36.731  1.00  0.00     0.135 A 
ATOM     79  F   UNL A   1      45.566  30.199  34.806  1.00  0.00    -0.206 F 
ATOM     80  C   UNL A   1      46.379  28.635  36.355  1.00  0.00     0.059 A 
ATOM     81  C   UNL A   1      44.835  27.116  37.453  1.00  0.00     0.059 A 
ATOM     82  F   UNL A   1      42.547  27.213  36.940  1.00  0.00    -0.206 F 
ATOM     83  C   UNL A   1      46.128  27.600  37.258  1.00  0.00     0.060 A 
BRANCH  83  84
ATOM     84  S   UNL A   1      47.515  26.937  38.207  1.00  0.00     0.124 S 
ATOM     85  O   UNL A   1      48.531  26.785  37.193  1.00  0.00    -0.237 OA
ATOM     86  O   UNL A   1      47.738  27.995  39.196  1.00  0.00    -0.237 OA
ATOM     87  O   UNL A   1      46.972  25.690  38.761  1.00  0.00    -0.744 OA
ENDBRANCH  83  84
ENDBRANCH  51  76
BRANCH  63  88
ATOM     88  C   UNL A   1      39.706  34.006  37.470  1.00  0.00     0.058 A 
ATOM     89  C   UNL A   1      38.932  33.608  38.570  1.00  0.00     0.135 A 
ATOM     90  C   UNL A   1      40.412  35.217  37.567  1.00  0.00     0.135 A 
ATOM     91  F   UNL A   1      38.234  32.464  38.528  1.00  0.00    -0.206 F 
ATOM     92  C   UNL A   1      38.848  34.391  39.718  1.00  0.00     0.059 A 
ATOM     93  C   UNL A   1      40.362  36.002  38.714  1.00  0.00     0.059 A 
ATOM     94  F   UNL A   1      41.175  35.638  36.546  1.00  0.00    -0.206 F 
ATOM     95  C   UNL A   1      39.569  35.585  39.782  1.00  0.00     0.060 A 
BRANCH  95  96
ATOM     96  S   UNL A   1      39.484  36.570  41.293  1.00  0.00     0.124 S 
ATOM     97  O   UNL A   1      38.972  37.840  40.789  1.00  0.00    -0.237 OA
ATOM     98  O   UNL A   1      38.561  35.796  42.118  1.00  0.00    -0.237 OA
ATOM     99  O   UNL A   1      40.867  36.590  41.763  1.00  0.00    -0.744 OA
ENDBRANCH  95  96
ENDBRANCH  63  88
ENDBRANCH  37  38
ENDBRANCH  29  32
ENDBRANCH  27  28
ENDBRANCH  26  27
ENDBRANCH   1  26
TORSDOF 19
ENDMDL
