MODEL 1
REMARK VINA RESULT:     -12.7      0.000      0.000
REMARK SMILES Cc1cn2c(=O)cc(CSc3ccccc3C(=O)NCCCNC(=O)c3ccc(-c4c5nc(c(-c6c(F)cc(S(=O)(=O)[O-])cc6F)c6ccc([nH]6)c(-c6c(F)cc(S(=O)(=O)[O-])cc6F)c6nc(c(-c7c(F)cc(S(=O)(=O)[O-])cc7F)c7ccc4[nH]7)C=C6)C=C5)cc3)nc2s1
REMARK SMILES IDX 21 1 20 2 19 3 17 4 18 5 16 7 11 8 12 9 13 10 15 11 14 12
REMARK SMILES IDX 10 13 9 14 8 15 1 16 2 17 3 18 94 19 4 20 93 21 5 22 92 23
REMARK SMILES IDX 6 24 7 25 22 26 23 27 24 28 25 30 26 31 27 32 91 33 28 34
REMARK SMILES IDX 90 35 29 36 30 37 31 38 84 39 32 40 89 41 83 42 85 43 33 44
REMARK SMILES IDX 88 45 82 46 81 47 34 49 68 50 47 51 67 52 48 53 51 54 66 55
REMARK SMILES IDX 86 56 49 57 50 58 65 60 87 61 52 62 35 63 36 64 45 65 37 66
REMARK SMILES IDX 38 67 44 68 46 69 39 70 40 71 41 72 42 73 43 74 69 75 70 76
REMARK SMILES IDX 79 77 71 78 72 79 78 80 80 81 73 82 74 83 75 84 76 85 77 86
REMARK SMILES IDX 53 87 54 88 63 89 55 90 56 91 62 92 64 93 57 94 58 95 59 96
REMARK SMILES IDX 60 97 61 98
REMARK H PARENT 19 6 23 29 85 48 51 59
REMARK Flexibility Score: inf
ROOT
ATOM      1  C   UNL A   1      34.034  29.852  27.515  1.00  0.00     0.042 C 
ENDROOT
BRANCH   1   2
ATOM      2  C   UNL A   1      33.077  29.896  26.326  1.00  0.00     0.118 C 
BRANCH   2   3
ATOM      3  N   UNL A   1      33.629  29.384  25.085  1.00  0.00    -0.352 N 
ATOM      4  C   UNL A   1      33.001  28.813  24.002  1.00  0.00     0.252 C 
ATOM      5  O   UNL A   1      33.671  28.497  23.016  1.00  0.00    -0.269 OA
ATOM      6  H   UNL A   1      34.608  29.456  25.007  1.00  0.00     0.163 HD
BRANCH   4   7
ATOM      7  C   UNL A   1      31.574  28.428  24.011  1.00  0.00     0.053 A 
ATOM      8  C   UNL A   1      30.988  27.293  24.589  1.00  0.00     0.020 A 
ATOM      9  C   UNL A   1      29.694  26.953  24.131  1.00  0.00     0.016 A 
ATOM     10  C   UNL A   1      28.958  27.782  23.272  1.00  0.00     0.001 A 
ATOM     11  C   UNL A   1      30.780  29.321  23.252  1.00  0.00     0.015 A 
ATOM     12  C   UNL A   1      29.478  29.005  22.887  1.00  0.00     0.001 A 
BRANCH   8  13
ATOM     13  S   UNL A   1      31.689  26.081  25.706  1.00  0.00    -0.119 SA
BRANCH  13  14
ATOM     14  C   UNL A   1      31.102  24.402  25.280  1.00  0.00     0.131 C 
BRANCH  14  15
ATOM     15  C   UNL A   1      32.084  23.258  25.189  1.00  0.00     0.059 A 
ATOM     16  C   UNL A   1      37.483  20.305  24.837  1.00  0.00     0.058 C 
ATOM     17  C   UNL A   1      36.139  20.943  24.834  1.00  0.00     0.022 A 
ATOM     18  C   UNL A   1      34.946  20.345  24.960  1.00  0.00     0.111 A 
ATOM     19  S   UNL A   1      35.960  22.674  24.697  1.00  0.00    -0.102 S 
ATOM     20  N   UNL A   1      33.877  21.217  24.992  1.00  0.00    -0.258 N 
ATOM     21  C   UNL A   1      34.209  22.541  24.853  1.00  0.00     0.197 A 
ATOM     22  C   UNL A   1      32.572  20.858  25.194  1.00  0.00     0.258 A 
ATOM     23  N   UNL A   1      33.398  23.552  24.879  1.00  0.00    -0.224 NA
ATOM     24  O   UNL A   1      32.136  19.713  25.282  1.00  0.00    -0.269 OA
ATOM     25  C   UNL A   1      31.636  21.998  25.321  1.00  0.00     0.097 A 
ENDBRANCH  14  15
ENDBRANCH  13  14
ENDBRANCH   8  13
ENDBRANCH   4   7
ENDBRANCH   2   3
ENDBRANCH   1   2
BRANCH   1  26
ATOM     26  C   UNL A   1      34.891  31.119  27.629  1.00  0.00     0.118 C 
BRANCH  26  27
ATOM     27  N   UNL A   1      34.480  32.034  28.694  1.00  0.00    -0.352 N 
ATOM     28  C   UNL A   1      34.952  32.079  30.001  1.00  0.00     0.251 C 
ATOM     29  H   UNL A   1      33.791  32.696  28.458  1.00  0.00     0.163 HD
ATOM     30  O   UNL A   1      34.379  32.724  30.855  1.00  0.00    -0.269 OA
BRANCH  28  31
ATOM     31  C   UNL A   1      36.173  31.308  30.327  1.00  0.00     0.039 A 
ATOM     32  C   UNL A   1      36.106  29.957  30.666  1.00  0.00     0.014 A 
ATOM     33  C   UNL A   1      37.403  31.949  30.237  1.00  0.00     0.014 A 
ATOM     34  C   UNL A   1      37.293  29.227  30.787  1.00  0.00     0.010 A 
ATOM     35  C   UNL A   1      38.570  31.211  30.288  1.00  0.00     0.010 A 
ATOM     36  C   UNL A   1      38.532  29.844  30.553  1.00  0.00    -0.014 A 
BRANCH  36  37
ATOM     37  C   UNL A   1      39.757  29.037  30.462  1.00  0.00     0.031 A 
ATOM     38  C   UNL A   1      40.490  28.788  31.744  1.00  0.00     0.074 A 
ATOM     39  C   UNL A   1      40.143  28.317  29.386  1.00  0.00     0.049 A 
ATOM     40  N   UNL A   1      41.668  29.194  32.091  1.00  0.00    -0.248 NA
ATOM     41  C   UNL A   1      39.796  28.022  32.791  1.00  0.00     0.031 C 
ATOM     42  C   UNL A   1      39.425  28.078  28.129  1.00  0.00     0.029 A 
ATOM     43  N   UNL A   1      41.266  27.554  29.242  1.00  0.00    -0.354 N 
ATOM     44  C   UNL A   1      41.953  28.587  33.317  1.00  0.00     0.074 A 
ATOM     45  C   UNL A   1      40.718  27.987  33.756  1.00  0.00     0.031 C 
ATOM     46  C   UNL A   1      40.026  27.077  27.448  1.00  0.00     0.029 A 
ATOM     47  C   UNL A   1      41.263  26.734  28.125  1.00  0.00     0.049 A 
ATOM     48  H   UNL A   1      42.016  27.584  29.880  1.00  0.00     0.167 HD
ATOM     49  C   UNL A   1      43.228  28.472  33.792  1.00  0.00     0.037 A 
ATOM     50  C   UNL A   1      42.208  25.833  27.773  1.00  0.00     0.037 A 
ATOM     51  C   UNL A   1      44.134  29.341  33.083  1.00  0.00     0.049 A 
ATOM     52  C   UNL A   1      43.471  26.228  28.444  1.00  0.00     0.074 A 
ATOM     53  C   UNL A   1      44.219  30.702  32.865  1.00  0.00     0.029 A 
ATOM     54  N   UNL A   1      44.990  28.773  32.172  1.00  0.00    -0.354 N 
ATOM     55  N   UNL A   1      44.127  27.327  28.186  1.00  0.00    -0.248 NA
ATOM     56  C   UNL A   1      43.839  25.559  29.680  1.00  0.00     0.031 C 
ATOM     57  C   UNL A   1      44.717  30.834  31.533  1.00  0.00     0.029 A 
ATOM     58  C   UNL A   1      44.936  29.546  31.041  1.00  0.00     0.049 A 
ATOM     59  H   UNL A   1      45.537  27.965  32.305  1.00  0.00     0.167 HD
ATOM     60  C   UNL A   1      44.687  27.701  29.398  1.00  0.00     0.074 A 
ATOM     61  C   UNL A   1      44.584  26.515  30.240  1.00  0.00     0.031 C 
ATOM     62  C   UNL A   1      44.936  29.012  29.694  1.00  0.00     0.037 A 
BRANCH  49  63
ATOM     63  C   UNL A   1      43.742  27.351  34.678  1.00  0.00     0.058 A 
ATOM     64  C   UNL A   1      44.352  27.666  35.915  1.00  0.00     0.135 A 
ATOM     65  C   UNL A   1      43.925  26.021  34.241  1.00  0.00     0.135 A 
ATOM     66  F   UNL A   1      44.241  28.897  36.441  1.00  0.00    -0.206 F 
ATOM     67  C   UNL A   1      45.163  26.765  36.608  1.00  0.00     0.059 A 
ATOM     68  C   UNL A   1      44.685  25.088  34.946  1.00  0.00     0.059 A 
ATOM     69  F   UNL A   1      43.461  25.588  33.064  1.00  0.00    -0.206 F 
ATOM     70  C   UNL A   1      45.346  25.484  36.098  1.00  0.00     0.060 A 
BRANCH  70  71
ATOM     71  S   UNL A   1      46.516  24.370  36.896  1.00  0.00     0.124 S 
ATOM     72  O   UNL A   1      47.613  24.370  35.935  1.00  0.00    -0.237 OA
ATOM     73  O   UNL A   1      46.775  25.052  38.160  1.00  0.00    -0.237 OA
ATOM     74  O   UNL A   1      45.769  23.122  37.006  1.00  0.00    -0.744 OA
ENDBRANCH  70  71
ENDBRANCH  49  63
BRANCH  50  75
ATOM     75  C   UNL A   1      42.014  24.513  27.125  1.00  0.00     0.058 A 
ATOM     76  C   UNL A   1      42.992  23.972  26.273  1.00  0.00     0.135 A 
ATOM     77  C   UNL A   1      41.001  23.632  27.553  1.00  0.00     0.135 A 
ATOM     78  F   UNL A   1      44.002  24.739  25.831  1.00  0.00    -0.206 F 
ATOM     79  C   UNL A   1      43.002  22.621  25.915  1.00  0.00     0.059 A 
ATOM     80  C   UNL A   1      40.982  22.284  27.199  1.00  0.00     0.059 A 
ATOM     81  F   UNL A   1      40.048  24.033  28.409  1.00  0.00    -0.206 F 
ATOM     82  C   UNL A   1      42.004  21.779  26.405  1.00  0.00     0.060 A 
BRANCH  82  83
ATOM     83  S   UNL A   1      42.124  20.000  26.109  1.00  0.00     0.124 S 
ATOM     84  O   UNL A   1      42.491  19.497  27.428  1.00  0.00    -0.237 OA
ATOM     85  O   UNL A   1      40.777  19.675  25.654  1.00  0.00    -0.237 OA
ATOM     86  O   UNL A   1      43.165  19.896  25.089  1.00  0.00    -0.744 OA
ENDBRANCH  82  83
ENDBRANCH  50  75
BRANCH  62  87
ATOM     87  C   UNL A   1      44.936  30.016  28.569  1.00  0.00     0.058 A 
ATOM     88  C   UNL A   1      43.775  30.546  27.981  1.00  0.00     0.135 A 
ATOM     89  C   UNL A   1      46.162  30.586  28.189  1.00  0.00     0.135 A 
ATOM     90  F   UNL A   1      42.559  30.132  28.360  1.00  0.00    -0.206 F 
ATOM     91  C   UNL A   1      43.831  31.571  27.034  1.00  0.00     0.059 A 
ATOM     92  C   UNL A   1      46.240  31.629  27.269  1.00  0.00     0.059 A 
ATOM     93  F   UNL A   1      47.304  30.166  28.758  1.00  0.00    -0.206 F 
ATOM     94  C   UNL A   1      45.069  32.112  26.688  1.00  0.00     0.060 A 
BRANCH  94  95
ATOM     95  S   UNL A   1      45.128  33.505  25.540  1.00  0.00     0.124 S 
ATOM     96  O   UNL A   1      46.561  33.757  25.434  1.00  0.00    -0.237 OA
ATOM     97  O   UNL A   1      44.490  32.958  24.345  1.00  0.00    -0.237 OA
ATOM     98  O   UNL A   1      44.361  34.544  26.222  1.00  0.00    -0.744 OA
ENDBRANCH  94  95
ENDBRANCH  62  87
ENDBRANCH  36  37
ENDBRANCH  28  31
ENDBRANCH  26  27
ENDBRANCH   1  26
TORSDOF 16
ENDMDL
MODEL 2
REMARK VINA RESULT:     -12.6      2.865      9.603
REMARK SMILES Cc1cn2c(=O)cc(CSc3ccccc3C(=O)NCCCNC(=O)c3ccc(-c4c5nc(c(-c6c(F)cc(S(=O)(=O)[O-])cc6F)c6ccc([nH]6)c(-c6c(F)cc(S(=O)(=O)[O-])cc6F)c6nc(c(-c7c(F)cc(S(=O)(=O)[O-])cc7F)c7ccc4[nH]7)C=C6)C=C5)cc3)nc2s1
REMARK SMILES IDX 21 1 20 2 19 3 17 4 18 5 16 7 11 8 12 9 13 10 15 11 14 12
REMARK SMILES IDX 10 13 9 14 8 15 1 16 2 17 3 18 94 19 4 20 93 21 5 22 92 23
REMARK SMILES IDX 6 24 7 25 22 26 23 27 24 28 25 30 26 31 27 32 91 33 28 34
REMARK SMILES IDX 90 35 29 36 30 37 31 38 84 39 32 40 89 41 83 42 85 43 33 44
REMARK SMILES IDX 88 45 82 46 81 47 34 49 68 50 47 51 67 52 48 53 51 54 66 55
REMARK SMILES IDX 86 56 49 57 50 58 65 60 87 61 52 62 35 63 36 64 45 65 37 66
REMARK SMILES IDX 38 67 44 68 46 69 39 70 40 71 41 72 42 73 43 74 69 75 70 76
REMARK SMILES IDX 79 77 71 78 72 79 78 80 80 81 73 82 74 83 75 84 76 85 77 86
REMARK SMILES IDX 53 87 54 88 63 89 55 90 56 91 62 92 64 93 57 94 58 95 59 96
REMARK SMILES IDX 60 97 61 98
REMARK H PARENT 19 6 23 29 85 48 51 59
REMARK Flexibility Score: inf
ROOT
ATOM      1  C   UNL A   1      37.081  22.806  24.536  1.00  0.00     0.042 C 
ENDROOT
BRANCH   1   2
ATOM      2  C   UNL A   1      36.331  21.481  24.651  1.00  0.00     0.118 C 
BRANCH   2   3
ATOM      3  N   UNL A   1      35.186  21.509  25.543  1.00  0.00    -0.352 N 
ATOM      4  C   UNL A   1      34.047  20.738  25.552  1.00  0.00     0.252 C 
ATOM      5  O   UNL A   1      33.218  20.898  26.450  1.00  0.00    -0.269 OA
ATOM      6  H   UNL A   1      35.232  22.189  26.254  1.00  0.00     0.163 HD
BRANCH   4   7
ATOM      7  C   UNL A   1      33.695  19.812  24.454  1.00  0.00     0.053 A 
ATOM      8  C   UNL A   1      32.823  20.037  23.380  1.00  0.00     0.020 A 
ATOM      9  C   UNL A   1      32.355  18.888  22.701  1.00  0.00     0.016 A 
ATOM     10  C   UNL A   1      32.852  17.604  22.964  1.00  0.00     0.001 A 
ATOM     11  C   UNL A   1      34.286  18.537  24.626  1.00  0.00     0.015 A 
ATOM     12  C   UNL A   1      33.872  17.439  23.885  1.00  0.00     0.001 A 
BRANCH   8  13
ATOM     13  S   UNL A   1      32.052  21.556  22.825  1.00  0.00    -0.119 SA
BRANCH  13  14
ATOM     14  C   UNL A   1      33.310  22.860  22.581  1.00  0.00     0.131 C 
BRANCH  14  15
ATOM     15  C   UNL A   1      33.119  24.223  23.203  1.00  0.00     0.059 A 
ATOM     16  C   UNL A   1      31.671  28.490  27.410  1.00  0.00     0.058 C 
ATOM     17  C   UNL A   1      31.962  27.528  26.312  1.00  0.00     0.022 A 
ATOM     18  C   UNL A   1      32.528  27.785  25.125  1.00  0.00     0.111 A 
ATOM     19  S   UNL A   1      31.607  25.828  26.481  1.00  0.00    -0.102 S 
ATOM     20  N   UNL A   1      32.733  26.666  24.343  1.00  0.00    -0.258 N 
ATOM     21  C   UNL A   1      32.291  25.490  24.893  1.00  0.00     0.197 A 
ATOM     22  C   UNL A   1      33.366  26.658  23.129  1.00  0.00     0.258 A 
ATOM     23  N   UNL A   1      32.392  24.306  24.376  1.00  0.00    -0.224 NA
ATOM     24  O   UNL A   1      33.762  27.640  22.507  1.00  0.00    -0.269 OA
ATOM     25  C   UNL A   1      33.578  25.309  22.559  1.00  0.00     0.097 A 
ENDBRANCH  14  15
ENDBRANCH  13  14
ENDBRANCH   8  13
ENDBRANCH   4   7
ENDBRANCH   2   3
ENDBRANCH   1   2
BRANCH   1  26
ATOM     26  C   UNL A   1      37.785  23.200  25.841  1.00  0.00     0.118 C 
BRANCH  26  27
ATOM     27  N   UNL A   1      38.723  22.200  26.350  1.00  0.00    -0.352 N 
ATOM     28  C   UNL A   1      39.977  22.420  26.906  1.00  0.00     0.251 C 
ATOM     29  H   UNL A   1      38.433  21.261  26.292  1.00  0.00     0.163 HD
ATOM     30  O   UNL A   1      40.758  21.508  27.081  1.00  0.00    -0.269 OA
BRANCH  28  31
ATOM     31  C   UNL A   1      40.341  23.808  27.274  1.00  0.00     0.039 A 
ATOM     32  C   UNL A   1      39.643  24.899  26.758  1.00  0.00     0.014 A 
ATOM     33  C   UNL A   1      41.368  24.000  28.191  1.00  0.00     0.014 A 
ATOM     34  C   UNL A   1      39.901  26.175  27.271  1.00  0.00     0.010 A 
ATOM     35  C   UNL A   1      41.571  25.250  28.745  1.00  0.00     0.010 A 
ATOM     36  C   UNL A   1      40.838  26.349  28.303  1.00  0.00    -0.014 A 
BRANCH  36  37
ATOM     37  C   UNL A   1      40.951  27.642  28.992  1.00  0.00     0.031 A 
ATOM     38  C   UNL A   1      42.019  28.569  28.499  1.00  0.00     0.074 A 
ATOM     39  C   UNL A   1      40.043  28.153  29.852  1.00  0.00     0.049 A 
ATOM     40  N   UNL A   1      43.074  28.984  29.121  1.00  0.00    -0.248 NA
ATOM     41  C   UNL A   1      41.914  29.062  27.118  1.00  0.00     0.031 C 
ATOM     42  C   UNL A   1      38.726  27.627  30.224  1.00  0.00     0.029 A 
ATOM     43  N   UNL A   1      40.095  29.342  30.522  1.00  0.00    -0.354 N 
ATOM     44  C   UNL A   1      43.676  29.935  28.293  1.00  0.00     0.074 A 
ATOM     45  C   UNL A   1      42.993  29.843  27.026  1.00  0.00     0.031 C 
ATOM     46  C   UNL A   1      38.027  28.581  30.879  1.00  0.00     0.029 A 
ATOM     47  C   UNL A   1      38.907  29.707  31.133  1.00  0.00     0.049 A 
ATOM     48  H   UNL A   1      40.910  29.893  30.566  1.00  0.00     0.167 HD
ATOM     49  C   UNL A   1      44.572  30.850  28.766  1.00  0.00     0.037 A 
ATOM     50  C   UNL A   1      38.654  30.855  31.802  1.00  0.00     0.037 A 
ATOM     51  C   UNL A   1      45.062  30.479  30.070  1.00  0.00     0.049 A 
ATOM     52  C   UNL A   1      39.958  31.407  32.245  1.00  0.00     0.074 A 
ATOM     53  C   UNL A   1      45.730  29.388  30.593  1.00  0.00     0.029 A 
ATOM     54  N   UNL A   1      44.589  31.170  31.158  1.00  0.00    -0.354 N 
ATOM     55  N   UNL A   1      40.744  30.830  33.113  1.00  0.00    -0.248 NA
ATOM     56  C   UNL A   1      40.573  32.456  31.450  1.00  0.00     0.031 C 
ATOM     57  C   UNL A   1      45.193  29.219  31.905  1.00  0.00     0.029 A 
ATOM     58  C   UNL A   1      44.261  30.239  32.109  1.00  0.00     0.049 A 
ATOM     59  H   UNL A   1      44.501  32.148  31.239  1.00  0.00     0.167 HD
ATOM     60  C   UNL A   1      42.028  31.150  32.700  1.00  0.00     0.074 A 
ATOM     61  C   UNL A   1      41.856  32.250  31.758  1.00  0.00     0.031 C 
ATOM     62  C   UNL A   1      43.085  30.321  32.952  1.00  0.00     0.037 A 
BRANCH  49  63
ATOM     63  C   UNL A   1      44.780  32.250  28.215  1.00  0.00     0.058 A 
ATOM     64  C   UNL A   1      46.045  32.612  27.695  1.00  0.00     0.135 A 
ATOM     65  C   UNL A   1      43.894  33.326  28.441  1.00  0.00     0.135 A 
ATOM     66  F   UNL A   1      46.971  31.675  27.430  1.00  0.00    -0.206 F 
ATOM     67  C   UNL A   1      46.434  33.940  27.513  1.00  0.00     0.059 A 
ATOM     68  C   UNL A   1      44.243  34.657  28.212  1.00  0.00     0.059 A 
ATOM     69  F   UNL A   1      42.685  33.152  28.985  1.00  0.00    -0.206 F 
ATOM     70  C   UNL A   1      45.532  34.959  27.802  1.00  0.00     0.060 A 
BRANCH  70  71
ATOM     71  S   UNL A   1      46.077  36.675  27.725  1.00  0.00     0.124 S 
ATOM     72  O   UNL A   1      45.589  37.188  29.000  1.00  0.00    -0.237 OA
ATOM     73  O   UNL A   1      47.525  36.531  27.606  1.00  0.00    -0.237 OA
ATOM     74  O   UNL A   1      45.404  37.187  26.536  1.00  0.00    -0.744 OA
ENDBRANCH  70  71
ENDBRANCH  49  63
BRANCH  50  75
ATOM     75  C   UNL A   1      37.391  31.632  31.838  1.00  0.00     0.058 A 
ATOM     76  C   UNL A   1      36.750  31.920  33.055  1.00  0.00     0.135 A 
ATOM     77  C   UNL A   1      36.945  32.351  30.710  1.00  0.00     0.135 A 
ATOM     78  F   UNL A   1      37.124  31.291  34.180  1.00  0.00    -0.206 F 
ATOM     79  C   UNL A   1      35.766  32.907  33.161  1.00  0.00     0.059 A 
ATOM     80  C   UNL A   1      35.957  33.330  30.789  1.00  0.00     0.059 A 
ATOM     81  F   UNL A   1      37.526  32.191  29.510  1.00  0.00    -0.206 F 
ATOM     82  C   UNL A   1      35.395  33.625  32.025  1.00  0.00     0.060 A 
BRANCH  82  83
ATOM     83  S   UNL A   1      34.271  35.030  32.195  1.00  0.00     0.124 S 
ATOM     84  O   UNL A   1      34.015  35.383  30.803  1.00  0.00    -0.237 OA
ATOM     85  O   UNL A   1      33.151  34.441  32.921  1.00  0.00    -0.237 OA
ATOM     86  O   UNL A   1      35.058  36.003  32.951  1.00  0.00    -0.744 OA
ENDBRANCH  82  83
ENDBRANCH  50  75
BRANCH  62  87
ATOM     87  C   UNL A   1      42.919  29.236  33.986  1.00  0.00     0.058 A 
ATOM     88  C   UNL A   1      43.137  29.415  35.363  1.00  0.00     0.135 A 
ATOM     89  C   UNL A   1      42.355  28.015  33.582  1.00  0.00     0.135 A 
ATOM     90  F   UNL A   1      43.577  30.584  35.846  1.00  0.00    -0.206 F 
ATOM     91  C   UNL A   1      42.842  28.414  36.291  1.00  0.00     0.059 A 
ATOM     92  C   UNL A   1      42.024  27.014  34.493  1.00  0.00     0.059 A 
ATOM     93  F   UNL A   1      42.066  27.804  32.287  1.00  0.00    -0.206 F 
ATOM     94  C   UNL A   1      42.278  27.219  35.848  1.00  0.00     0.060 A 
BRANCH  94  95
ATOM     95  S   UNL A   1      41.803  25.969  37.062  1.00  0.00     0.124 S 
ATOM     96  O   UNL A   1      41.920  24.733  36.295  1.00  0.00    -0.237 OA
ATOM     97  O   UNL A   1      42.797  26.157  38.116  1.00  0.00    -0.237 OA
ATOM     98  O   UNL A   1      40.442  26.348  37.430  1.00  0.00    -0.744 OA
ENDBRANCH  94  95
ENDBRANCH  62  87
ENDBRANCH  36  37
ENDBRANCH  28  31
ENDBRANCH  26  27
ENDBRANCH   1  26
TORSDOF 16
ENDMDL
MODEL 3
REMARK VINA RESULT:     -12.6      1.443      2.104
REMARK SMILES Cc1cn2c(=O)cc(CSc3ccccc3C(=O)NCCCNC(=O)c3ccc(-c4c5nc(c(-c6c(F)cc(S(=O)(=O)[O-])cc6F)c6ccc([nH]6)c(-c6c(F)cc(S(=O)(=O)[O-])cc6F)c6nc(c(-c7c(F)cc(S(=O)(=O)[O-])cc7F)c7ccc4[nH]7)C=C6)C=C5)cc3)nc2s1
REMARK SMILES IDX 21 1 20 2 19 3 17 4 18 5 16 7 11 8 12 9 13 10 15 11 14 12
REMARK SMILES IDX 10 13 9 14 8 15 1 16 2 17 3 18 94 19 4 20 93 21 5 22 92 23
REMARK SMILES IDX 6 24 7 25 22 26 23 27 24 28 25 30 26 31 27 32 91 33 28 34
REMARK SMILES IDX 90 35 29 36 30 37 31 38 84 39 32 40 89 41 83 42 85 43 33 44
REMARK SMILES IDX 88 45 82 46 81 47 34 49 68 50 47 51 67 52 48 53 51 54 66 55
REMARK SMILES IDX 86 56 49 57 50 58 65 60 87 61 52 62 35 63 36 64 45 65 37 66
REMARK SMILES IDX 38 67 44 68 46 69 39 70 40 71 41 72 42 73 43 74 69 75 70 76
REMARK SMILES IDX 79 77 71 78 72 79 78 80 80 81 73 82 74 83 75 84 76 85 77 86
REMARK SMILES IDX 53 87 54 88 63 89 55 90 56 91 62 92 64 93 57 94 58 95 59 96
REMARK SMILES IDX 60 97 61 98
REMARK H PARENT 19 6 23 29 85 48 51 59
REMARK Flexibility Score: inf
ROOT
ATOM      1  C   UNL A   1      32.715  30.611  27.196  1.00  0.00     0.042 C 
ENDROOT
BRANCH   1   2
ATOM      2  C   UNL A   1      33.054  29.135  26.997  1.00  0.00     0.118 C 
BRANCH   2   3
ATOM      3  N   UNL A   1      33.668  28.822  25.720  1.00  0.00    -0.352 N 
ATOM      4  C   UNL A   1      33.100  28.407  24.538  1.00  0.00     0.252 C 
ATOM      5  O   UNL A   1      33.817  28.253  23.547  1.00  0.00    -0.269 OA
ATOM      6  H   UNL A   1      34.648  28.923  25.696  1.00  0.00     0.163 HD
BRANCH   4   7
ATOM      7  C   UNL A   1      31.683  28.000  24.427  1.00  0.00     0.053 A 
ATOM      8  C   UNL A   1      31.072  26.847  24.939  1.00  0.00     0.020 A 
ATOM      9  C   UNL A   1      29.825  26.495  24.374  1.00  0.00     0.016 A 
ATOM     10  C   UNL A   1      29.145  27.327  23.472  1.00  0.00     0.001 A 
ATOM     11  C   UNL A   1      30.937  28.894  23.621  1.00  0.00     0.015 A 
ATOM     12  C   UNL A   1      29.674  28.564  23.149  1.00  0.00     0.001 A 
BRANCH   8  13
ATOM     13  S   UNL A   1      31.702  25.628  26.090  1.00  0.00    -0.119 SA
BRANCH  13  14
ATOM     14  C   UNL A   1      31.210  23.944  25.572  1.00  0.00     0.131 C 
BRANCH  14  15
ATOM     15  C   UNL A   1      32.254  22.864  25.418  1.00  0.00     0.059 A 
ATOM     16  C   UNL A   1      34.712  17.363  24.112  1.00  0.00     0.058 C 
ATOM     17  C   UNL A   1      34.184  18.690  24.531  1.00  0.00     0.022 A 
ATOM     18  C   UNL A   1      34.883  19.776  24.891  1.00  0.00     0.111 A 
ATOM     19  S   UNL A   1      32.469  19.014  24.560  1.00  0.00    -0.102 S 
ATOM     20  N   UNL A   1      34.108  20.885  25.158  1.00  0.00    -0.258 N 
ATOM     21  C   UNL A   1      32.755  20.683  25.046  1.00  0.00     0.197 A 
ATOM     22  C   UNL A   1      34.590  22.129  25.465  1.00  0.00     0.258 A 
ATOM     23  N   UNL A   1      31.822  21.567  25.214  1.00  0.00    -0.224 NA
ATOM     24  O   UNL A   1      35.767  22.431  25.644  1.00  0.00    -0.269 OA
ATOM     25  C   UNL A   1      33.552  23.178  25.571  1.00  0.00     0.097 A 
ENDBRANCH  14  15
ENDBRANCH  13  14
ENDBRANCH   8  13
ENDBRANCH   4   7
ENDBRANCH   2   3
ENDBRANCH   1   2
BRANCH   1  26
ATOM     26  C   UNL A   1      33.950  31.461  27.521  1.00  0.00     0.118 C 
BRANCH  26  27
ATOM     27  N   UNL A   1      33.887  32.155  28.808  1.00  0.00    -0.352 N 
ATOM     28  C   UNL A   1      34.806  32.095  29.848  1.00  0.00     0.251 C 
ATOM     29  H   UNL A   1      33.102  32.732  28.954  1.00  0.00     0.163 HD
ATOM     30  O   UNL A   1      34.539  32.528  30.950  1.00  0.00    -0.269 OA
BRANCH  28  31
ATOM     31  C   UNL A   1      36.125  31.479  29.577  1.00  0.00     0.039 A 
ATOM     32  C   UNL A   1      37.286  32.250  29.519  1.00  0.00     0.014 A 
ATOM     33  C   UNL A   1      36.190  30.098  29.431  1.00  0.00     0.014 A 
ATOM     34  C   UNL A   1      38.525  31.606  29.443  1.00  0.00     0.010 A 
ATOM     35  C   UNL A   1      37.419  29.463  29.427  1.00  0.00     0.010 A 
ATOM     36  C   UNL A   1      38.598  30.204  29.443  1.00  0.00    -0.014 A 
BRANCH  36  37
ATOM     37  C   UNL A   1      39.896  29.529  29.585  1.00  0.00     0.031 A 
ATOM     38  C   UNL A   1      40.326  29.197  30.981  1.00  0.00     0.074 A 
ATOM     39  C   UNL A   1      40.607  28.978  28.577  1.00  0.00     0.049 A 
ATOM     40  N   UNL A   1      41.332  29.665  31.646  1.00  0.00    -0.248 NA
ATOM     41  C   UNL A   1      39.498  28.253  31.747  1.00  0.00     0.031 C 
ATOM     42  C   UNL A   1      40.242  28.826  27.165  1.00  0.00     0.029 A 
ATOM     43  N   UNL A   1      41.814  28.343  28.648  1.00  0.00    -0.354 N 
ATOM     44  C   UNL A   1      41.387  28.946  32.843  1.00  0.00     0.074 A 
ATOM     45  C   UNL A   1      40.162  28.189  32.903  1.00  0.00     0.031 C 
ATOM     46  C   UNL A   1      41.101  27.971  26.566  1.00  0.00     0.029 A 
ATOM     47  C   UNL A   1      42.173  27.665  27.495  1.00  0.00     0.049 A 
ATOM     48  H   UNL A   1      42.382  28.366  29.453  1.00  0.00     0.167 HD
ATOM     49  C   UNL A   1      42.516  28.892  33.608  1.00  0.00     0.037 A 
ATOM     50  C   UNL A   1      43.273  26.901  27.307  1.00  0.00     0.037 A 
ATOM     51  C   UNL A   1      43.457  29.917  33.230  1.00  0.00     0.049 A 
ATOM     52  C   UNL A   1      44.285  27.328  28.305  1.00  0.00     0.074 A 
ATOM     53  C   UNL A   1      43.431  31.297  33.166  1.00  0.00     0.029 A 
ATOM     54  N   UNL A   1      44.566  29.541  32.512  1.00  0.00    -0.354 N 
ATOM     55  N   UNL A   1      44.850  28.505  28.322  1.00  0.00    -0.248 NA
ATOM     56  C   UNL A   1      44.425  26.554  29.526  1.00  0.00     0.031 C 
ATOM     57  C   UNL A   1      44.212  31.630  32.018  1.00  0.00     0.029 A 
ATOM     58  C   UNL A   1      44.692  30.434  31.480  1.00  0.00     0.049 A 
ATOM     59  H   UNL A   1      45.156  28.777  32.703  1.00  0.00     0.167 HD
ATOM     60  C   UNL A   1      45.058  28.782  29.664  1.00  0.00     0.074 A 
ATOM     61  C   UNL A   1      44.898  27.500  30.340  1.00  0.00     0.031 C 
ATOM     62  C   UNL A   1      45.075  30.066  30.132  1.00  0.00     0.037 A 
BRANCH  49  63
ATOM     63  C   UNL A   1      42.933  27.725  34.487  1.00  0.00     0.058 A 
ATOM     64  C   UNL A   1      43.098  27.926  35.877  1.00  0.00     0.135 A 
ATOM     65  C   UNL A   1      43.455  26.511  33.990  1.00  0.00     0.135 A 
ATOM     66  F   UNL A   1      42.636  29.040  36.469  1.00  0.00    -0.206 F 
ATOM     67  C   UNL A   1      43.814  27.043  36.687  1.00  0.00     0.059 A 
ATOM     68  C   UNL A   1      44.123  25.588  34.793  1.00  0.00     0.059 A 
ATOM     69  F   UNL A   1      43.430  26.204  32.689  1.00  0.00    -0.206 F 
ATOM     70  C   UNL A   1      44.347  25.887  36.127  1.00  0.00     0.060 A 
BRANCH  70  71
ATOM     71  S   UNL A   1      45.407  24.825  37.126  1.00  0.00     0.124 S 
ATOM     72  O   UNL A   1      44.967  25.167  38.474  1.00  0.00    -0.237 OA
ATOM     73  O   UNL A   1      45.040  23.494  36.654  1.00  0.00    -0.237 OA
ATOM     74  O   UNL A   1      46.752  25.262  36.768  1.00  0.00    -0.744 OA
ENDBRANCH  70  71
ENDBRANCH  49  63
BRANCH  50  75
ATOM     75  C   UNL A   1      43.395  25.655  26.512  1.00  0.00     0.058 A 
ATOM     76  C   UNL A   1      44.325  25.551  25.463  1.00  0.00     0.135 A 
ATOM     77  C   UNL A   1      42.808  24.450  26.949  1.00  0.00     0.135 A 
ATOM     78  F   UNL A   1      44.943  26.648  24.998  1.00  0.00    -0.206 F 
ATOM     79  C   UNL A   1      44.698  24.319  24.920  1.00  0.00     0.059 A 
ATOM     80  C   UNL A   1      43.154  23.211  26.413  1.00  0.00     0.059 A 
ATOM     81  F   UNL A   1      41.946  24.431  27.979  1.00  0.00    -0.206 F 
ATOM     82  C   UNL A   1      44.124  23.151  25.421  1.00  0.00     0.060 A 
BRANCH  82  83
ATOM     83  S   UNL A   1      44.746  21.549  24.861  1.00  0.00     0.124 S 
ATOM     84  O   UNL A   1      44.492  21.611  23.426  1.00  0.00    -0.237 OA
ATOM     85  O   UNL A   1      46.147  21.607  25.265  1.00  0.00    -0.237 OA
ATOM     86  O   UNL A   1      43.926  20.591  25.600  1.00  0.00    -0.744 OA
ENDBRANCH  82  83
ENDBRANCH  50  75
BRANCH  62  87
ATOM     87  C   UNL A   1      45.224  31.192  29.140  1.00  0.00     0.058 A 
ATOM     88  C   UNL A   1      46.453  31.632  28.621  1.00  0.00     0.135 A 
ATOM     89  C   UNL A   1      44.060  31.732  28.571  1.00  0.00     0.135 A 
ATOM     90  F   UNL A   1      47.609  31.097  29.036  1.00  0.00    -0.206 F 
ATOM     91  C   UNL A   1      46.524  32.590  27.608  1.00  0.00     0.059 A 
ATOM     92  C   UNL A   1      44.106  32.666  27.538  1.00  0.00     0.059 A 
ATOM     93  F   UNL A   1      42.852  31.309  28.980  1.00  0.00    -0.206 F 
ATOM     94  C   UNL A   1      45.344  33.097  27.066  1.00  0.00     0.060 A 
BRANCH  94  95
ATOM     95  S   UNL A   1      45.440  34.258  25.686  1.00  0.00     0.124 S 
ATOM     96  O   UNL A   1      44.857  35.468  26.259  1.00  0.00    -0.237 OA
ATOM     97  O   UNL A   1      46.874  34.313  25.416  1.00  0.00    -0.237 OA
ATOM     98  O   UNL A   1      44.644  33.617  24.642  1.00  0.00    -0.744 OA
ENDBRANCH  94  95
ENDBRANCH  62  87
ENDBRANCH  36  37
ENDBRANCH  28  31
ENDBRANCH  26  27
ENDBRANCH   1  26
TORSDOF 16
ENDMDL
