MODEL 1
REMARK VINA RESULT:     -12.3      0.000      0.000
REMARK SMILES C[C@@H](C(=O)NCCCNC(=O)c1ccc(-c2c3nc(c(-c4c(F)cc(S(=O)(=O)[O-])cc4F)c4ccc([nH]4)c(-c4c(F)cc(S(=O)(=O)[O-])cc4F)c4nc(c(-c5c(F)cc(S(=O)(=O)[O-])cc5F)c5ccc2[nH]5)C=C4)C=C3)cc1)c1ccc(-c2cccc(OC(=O)NCCC3CCCCC3)c2)c(F)c1
REMARK SMILES IDX 3 1 4 2 5 3 2 5 1 6 78 7 79 8 102 9 80 10 100 11 81 12
REMARK SMILES IDX 101 13 82 14 83 15 99 16 84 17 86 18 85 19 87 20 88 21 89 22
REMARK SMILES IDX 90 23 91 25 92 26 93 27 94 28 98 29 95 30 97 31 96 32 6 33
REMARK SMILES IDX 7 34 8 35 9 36 10 37 11 39 12 40 13 41 77 42 14 43 76 44
REMARK SMILES IDX 15 45 16 46 17 47 70 48 18 49 75 50 69 51 71 52 19 53 74 54
REMARK SMILES IDX 68 55 67 56 20 58 54 59 33 60 53 61 34 62 37 63 52 64 72 65
REMARK SMILES IDX 35 66 36 67 51 69 73 70 38 71 21 72 22 73 31 74 23 75 24 76
REMARK SMILES IDX 30 77 32 78 25 79 26 80 27 81 28 82 29 83 55 84 56 85 65 86
REMARK SMILES IDX 57 87 58 88 64 89 66 90 59 91 60 92 61 93 62 94 63 95 39 96
REMARK SMILES IDX 40 97 49 98 41 99 42 100 48 101 50 102 43 103 44 104 45 105
REMARK SMILES IDX 46 106 47 107
REMARK H PARENT 5 4 90 24 9 38 71 57 37 68
REMARK Flexibility Score: inf
ROOT
ATOM      1  C   UNL A   1      43.145  20.619  26.052  1.00  0.00     0.227 C 
ATOM      2  O   UNL A   1      43.370  19.929  25.057  1.00  0.00    -0.274 OA
ATOM      3  N   UNL A   1      43.934  21.721  26.224  1.00  0.00    -0.356 N 
ATOM      4  H   UNL A   1      44.510  21.944  25.457  1.00  0.00     0.163 HD
ENDROOT
BRANCH   1   5
ATOM      5  C   UNL A   1      42.011  20.320  27.053  1.00  0.00     0.105 C 
ATOM      6  C   UNL A   1      42.117  18.873  27.549  1.00  0.00     0.023 C 
BRANCH   5   7
ATOM      7  C   UNL A   1      40.630  20.661  26.486  1.00  0.00    -0.033 A 
ATOM      8  C   UNL A   1      39.866  19.738  25.753  1.00  0.00     0.005 A 
ATOM      9  C   UNL A   1      40.087  21.939  26.691  1.00  0.00     0.044 A 
ATOM     10  C   UNL A   1      38.630  20.093  25.207  1.00  0.00     0.012 A 
ATOM     11  C   UNL A   1      38.859  22.291  26.129  1.00  0.00     0.131 A 
ATOM     12  C   UNL A   1      38.114  21.385  25.365  1.00  0.00     0.018 A 
ATOM     13  F   UNL A   1      38.410  23.543  26.318  1.00  0.00    -0.206 F 
BRANCH  12  14
ATOM     14  C   UNL A   1      36.895  21.773  24.649  1.00  0.00    -0.012 A 
ATOM     15  C   UNL A   1      36.839  22.928  23.854  1.00  0.00     0.009 A 
ATOM     16  C   UNL A   1      35.718  21.031  24.840  1.00  0.00     0.056 A 
ATOM     17  C   UNL A   1      35.636  23.338  23.275  1.00  0.00     0.004 A 
ATOM     18  C   UNL A   1      34.512  21.456  24.289  1.00  0.00     0.133 A 
ATOM     19  C   UNL A   1      34.470  22.605  23.497  1.00  0.00     0.047 A 
BRANCH  18  20
ATOM     20  O   UNL A   1      33.271  20.802  24.491  1.00  0.00    -0.410 OA
BRANCH  20  21
ATOM     21  C   UNL A   1      32.905  20.150  25.666  1.00  0.00     0.412 C 
ATOM     22  O   UNL A   1      32.746  18.943  25.818  1.00  0.00    -0.224 OA
ATOM     23  N   UNL A   1      32.744  20.984  26.732  1.00  0.00    -0.321 N 
ATOM     24  H   UNL A   1      32.501  20.553  27.584  1.00  0.00     0.167 HD
BRANCH  23  25
ATOM     25  C   UNL A   1      32.885  22.420  26.766  1.00  0.00     0.119 C 
BRANCH  25  26
ATOM     26  C   UNL A   1      31.717  23.112  26.060  1.00  0.00     0.025 C 
BRANCH  26  27
ATOM     27  C   UNL A   1      31.991  24.578  25.659  1.00  0.00    -0.009 C 
ATOM     28  C   UNL A   1      30.986  25.550  26.300  1.00  0.00     0.003 C 
ATOM     29  C   UNL A   1      33.432  24.961  26.035  1.00  0.00     0.003 C 
ATOM     30  C   UNL A   1      31.310  27.008  25.979  1.00  0.00     0.000 C 
ATOM     31  C   UNL A   1      33.739  26.417  25.692  1.00  0.00     0.000 C 
ATOM     32  C   UNL A   1      32.745  27.365  26.350  1.00  0.00     0.000 C 
ENDBRANCH  26  27
ENDBRANCH  25  26
ENDBRANCH  23  25
ENDBRANCH  20  21
ENDBRANCH  18  20
ENDBRANCH  12  14
ENDBRANCH   5   7
ENDBRANCH   1   5
BRANCH   3  33
ATOM     33  C   UNL A   1      44.052  22.612  27.360  1.00  0.00     0.117 C 
BRANCH  33  34
ATOM     34  C   UNL A   1      45.294  23.494  27.240  1.00  0.00     0.042 C 
BRANCH  34  35
ATOM     35  C   UNL A   1      44.988  24.950  26.915  1.00  0.00     0.118 C 
BRANCH  35  36
ATOM     36  N   UNL A   1      43.985  25.080  25.873  1.00  0.00    -0.352 N 
ATOM     37  C   UNL A   1      42.736  25.643  25.923  1.00  0.00     0.251 C 
ATOM     38  H   UNL A   1      44.241  24.708  24.998  1.00  0.00     0.163 HD
ATOM     39  O   UNL A   1      41.956  25.445  24.995  1.00  0.00    -0.269 OA
BRANCH  37  40
ATOM     40  C   UNL A   1      42.325  26.474  27.078  1.00  0.00     0.039 A 
ATOM     41  C   UNL A   1      42.896  27.740  27.228  1.00  0.00     0.014 A 
ATOM     42  C   UNL A   1      41.433  25.996  28.042  1.00  0.00     0.014 A 
ATOM     43  C   UNL A   1      42.558  28.529  28.329  1.00  0.00     0.010 A 
ATOM     44  C   UNL A   1      41.022  26.821  29.086  1.00  0.00     0.010 A 
ATOM     45  C   UNL A   1      41.609  28.081  29.262  1.00  0.00    -0.014 A 
BRANCH  45  46
ATOM     46  C   UNL A   1      41.273  28.895  30.459  1.00  0.00     0.031 A 
ATOM     47  C   UNL A   1      42.066  28.730  31.730  1.00  0.00     0.074 A 
ATOM     48  C   UNL A   1      40.243  29.763  30.412  1.00  0.00     0.049 A 
ATOM     49  N   UNL A   1      41.921  29.337  32.880  1.00  0.00    -0.248 NA
ATOM     50  C   UNL A   1      43.149  27.732  31.714  1.00  0.00     0.031 C 
ATOM     51  C   UNL A   1      39.366  29.972  29.259  1.00  0.00     0.029 A 
ATOM     52  N   UNL A   1      39.760  30.630  31.358  1.00  0.00    -0.354 N 
ATOM     53  C   UNL A   1      42.885  28.791  33.721  1.00  0.00     0.074 A 
ATOM     54  C   UNL A   1      43.556  27.752  32.974  1.00  0.00     0.031 C 
ATOM     55  C   UNL A   1      38.468  30.924  29.556  1.00  0.00     0.029 A 
ATOM     56  C   UNL A   1      38.683  31.370  30.931  1.00  0.00     0.049 A 
ATOM     57  H   UNL A   1      40.147  30.715  32.260  1.00  0.00     0.167 HD
ATOM     58  C   UNL A   1      43.209  29.146  34.987  1.00  0.00     0.037 A 
ATOM     59  C   UNL A   1      37.950  32.300  31.573  1.00  0.00     0.037 A 
ATOM     60  C   UNL A   1      42.544  30.191  35.721  1.00  0.00     0.049 A 
ATOM     61  C   UNL A   1      38.328  32.685  32.977  1.00  0.00     0.074 A 
ATOM     62  C   UNL A   1      42.811  30.654  36.998  1.00  0.00     0.029 A 
ATOM     63  N   UNL A   1      41.475  30.938  35.242  1.00  0.00    -0.354 N 
ATOM     64  N   UNL A   1      39.279  32.198  33.739  1.00  0.00    -0.248 NA
ATOM     65  C   UNL A   1      37.546  33.759  33.604  1.00  0.00     0.031 C 
ATOM     66  C   UNL A   1      41.876  31.647  37.308  1.00  0.00     0.029 A 
ATOM     67  C   UNL A   1      41.065  31.849  36.202  1.00  0.00     0.049 A 
ATOM     68  H   UNL A   1      41.069  30.835  34.352  1.00  0.00     0.167 HD
ATOM     69  C   UNL A   1      39.232  32.928  34.922  1.00  0.00     0.074 A 
ATOM     70  C   UNL A   1      38.166  33.898  34.767  1.00  0.00     0.031 C 
ATOM     71  C   UNL A   1      40.004  32.812  36.032  1.00  0.00     0.037 A 
BRANCH  58  72
ATOM     72  C   UNL A   1      44.337  28.399  35.651  1.00  0.00     0.058 A 
ATOM     73  C   UNL A   1      44.102  27.273  36.460  1.00  0.00     0.135 A 
ATOM     74  C   UNL A   1      45.670  28.804  35.474  1.00  0.00     0.135 A 
ATOM     75  F   UNL A   1      42.847  26.848  36.679  1.00  0.00    -0.206 F 
ATOM     76  C   UNL A   1      45.140  26.606  37.102  1.00  0.00     0.059 A 
ATOM     77  C   UNL A   1      46.728  28.130  36.079  1.00  0.00     0.059 A 
ATOM     78  F   UNL A   1      45.957  29.871  34.712  1.00  0.00    -0.206 F 
ATOM     79  C   UNL A   1      46.450  27.044  36.907  1.00  0.00     0.060 A 
BRANCH  79  80
ATOM     80  S   UNL A   1      47.783  26.173  37.757  1.00  0.00     0.124 S 
ATOM     81  O   UNL A   1      47.954  25.000  36.906  1.00  0.00    -0.237 OA
ATOM     82  O   UNL A   1      48.868  27.148  37.717  1.00  0.00    -0.237 OA
ATOM     83  O   UNL A   1      47.228  25.911  39.082  1.00  0.00    -0.744 OA
ENDBRANCH  79  80
ENDBRANCH  58  72
BRANCH  59  84
ATOM     84  C   UNL A   1      36.806  32.947  30.875  1.00  0.00     0.058 A 
ATOM     85  C   UNL A   1      35.479  32.614  31.187  1.00  0.00     0.135 A 
ATOM     86  C   UNL A   1      37.018  33.936  29.902  1.00  0.00     0.135 A 
ATOM     87  F   UNL A   1      35.223  31.671  32.107  1.00  0.00    -0.206 F 
ATOM     88  C   UNL A   1      34.405  33.227  30.551  1.00  0.00     0.059 A 
ATOM     89  C   UNL A   1      35.960  34.584  29.272  1.00  0.00     0.059 A 
ATOM     90  F   UNL A   1      38.268  34.306  29.580  1.00  0.00    -0.206 F 
ATOM     91  C   UNL A   1      34.656  34.215  29.598  1.00  0.00     0.060 A 
BRANCH  91  92
ATOM     92  S   UNL A   1      33.252  35.049  28.824  1.00  0.00     0.124 S 
ATOM     93  O   UNL A   1      32.730  34.001  27.954  1.00  0.00    -0.237 OA
ATOM     94  O   UNL A   1      32.428  35.392  29.978  1.00  0.00    -0.237 OA
ATOM     95  O   UNL A   1      33.870  36.184  28.144  1.00  0.00    -0.744 OA
ENDBRANCH  91  92
ENDBRANCH  59  84
BRANCH  71  96
ATOM     96  C   UNL A   1      39.762  33.792  37.148  1.00  0.00     0.058 A 
ATOM     97  C   UNL A   1      38.943  33.486  38.247  1.00  0.00     0.135 A 
ATOM     98  C   UNL A   1      40.390  35.049  37.132  1.00  0.00     0.135 A 
ATOM     99  F   UNL A   1      38.317  32.299  38.314  1.00  0.00    -0.206 F 
ATOM    100  C   UNL A   1      38.721  34.405  39.266  1.00  0.00     0.059 A 
ATOM    101  C   UNL A   1      40.209  35.971  38.158  1.00  0.00     0.059 A 
ATOM    102  F   UNL A   1      41.196  35.390  36.114  1.00  0.00    -0.206 F 
ATOM    103  C   UNL A   1      39.357  35.647  39.212  1.00  0.00     0.060 A 
BRANCH 103 104
ATOM    104  S   UNL A   1      39.064  36.829  40.543  1.00  0.00     0.124 S 
ATOM    105  O   UNL A   1      38.151  36.084  41.403  1.00  0.00    -0.237 OA
ATOM    106  O   UNL A   1      40.407  37.040  41.075  1.00  0.00    -0.237 OA
ATOM    107  O   UNL A   1      38.482  37.979  39.856  1.00  0.00    -0.744 OA
ENDBRANCH 103 104
ENDBRANCH  71  96
ENDBRANCH  45  46
ENDBRANCH  37  40
ENDBRANCH  35  36
ENDBRANCH  34  35
ENDBRANCH  33  34
ENDBRANCH   3  33
TORSDOF 20
ENDMDL
MODEL 2
REMARK VINA RESULT:     -12.2      5.618     12.394
REMARK SMILES C[C@@H](C(=O)NCCCNC(=O)c1ccc(-c2c3nc(c(-c4c(F)cc(S(=O)(=O)[O-])cc4F)c4ccc([nH]4)c(-c4c(F)cc(S(=O)(=O)[O-])cc4F)c4nc(c(-c5c(F)cc(S(=O)(=O)[O-])cc5F)c5ccc2[nH]5)C=C4)C=C3)cc1)c1ccc(-c2cccc(OC(=O)NCCC3CCCCC3)c2)c(F)c1
REMARK SMILES IDX 3 1 4 2 5 3 2 5 1 6 78 7 79 8 102 9 80 10 100 11 81 12
REMARK SMILES IDX 101 13 82 14 83 15 99 16 84 17 86 18 85 19 87 20 88 21 89 22
REMARK SMILES IDX 90 23 91 25 92 26 93 27 94 28 98 29 95 30 97 31 96 32 6 33
REMARK SMILES IDX 7 34 8 35 9 36 10 37 11 39 12 40 13 41 77 42 14 43 76 44
REMARK SMILES IDX 15 45 16 46 17 47 70 48 18 49 75 50 69 51 71 52 19 53 74 54
REMARK SMILES IDX 68 55 67 56 20 58 54 59 33 60 53 61 34 62 37 63 52 64 72 65
REMARK SMILES IDX 35 66 36 67 51 69 73 70 38 71 21 72 22 73 31 74 23 75 24 76
REMARK SMILES IDX 30 77 32 78 25 79 26 80 27 81 28 82 29 83 55 84 56 85 65 86
REMARK SMILES IDX 57 87 58 88 64 89 66 90 59 91 60 92 61 93 62 94 63 95 39 96
REMARK SMILES IDX 40 97 49 98 41 99 42 100 48 101 50 102 43 103 44 104 45 105
REMARK SMILES IDX 46 106 47 107
REMARK H PARENT 5 4 90 24 9 38 71 57 37 68
REMARK Flexibility Score: inf
ROOT
ATOM      1  C   UNL A   1      34.658  33.911  29.212  1.00  0.00     0.227 C 
ATOM      2  O   UNL A   1      34.026  34.510  28.340  1.00  0.00    -0.274 OA
ATOM      3  N   UNL A   1      34.496  34.347  30.496  1.00  0.00    -0.356 N 
ATOM      4  H   UNL A   1      33.773  35.004  30.623  1.00  0.00     0.163 HD
ENDROOT
BRANCH   1   5
ATOM      5  C   UNL A   1      35.560  32.694  28.921  1.00  0.00     0.105 C 
ATOM      6  C   UNL A   1      36.758  33.122  28.065  1.00  0.00     0.023 C 
BRANCH   5   7
ATOM      7  C   UNL A   1      34.778  31.523  28.317  1.00  0.00    -0.033 A 
ATOM      8  C   UNL A   1      35.322  30.234  28.197  1.00  0.00     0.005 A 
ATOM      9  C   UNL A   1      33.466  31.721  27.859  1.00  0.00     0.044 A 
ATOM     10  C   UNL A   1      34.603  29.197  27.598  1.00  0.00     0.012 A 
ATOM     11  C   UNL A   1      32.760  30.685  27.247  1.00  0.00     0.131 A 
ATOM     12  C   UNL A   1      33.316  29.410  27.091  1.00  0.00     0.018 A 
ATOM     13  F   UNL A   1      31.526  30.945  26.784  1.00  0.00    -0.206 F 
BRANCH  12  14
ATOM     14  C   UNL A   1      32.651  28.348  26.329  1.00  0.00    -0.012 A 
ATOM     15  C   UNL A   1      31.729  27.474  26.927  1.00  0.00     0.009 A 
ATOM     16  C   UNL A   1      33.015  28.127  24.991  1.00  0.00     0.056 A 
ATOM     17  C   UNL A   1      31.196  26.401  26.210  1.00  0.00     0.004 A 
ATOM     18  C   UNL A   1      32.509  27.039  24.286  1.00  0.00     0.133 A 
ATOM     19  C   UNL A   1      31.590  26.179  24.890  1.00  0.00     0.047 A 
BRANCH  18  20
ATOM     20  O   UNL A   1      32.879  26.709  22.959  1.00  0.00    -0.410 OA
BRANCH  20  21
ATOM     21  C   UNL A   1      32.001  26.222  21.992  1.00  0.00     0.412 C 
ATOM     22  O   UNL A   1      31.007  26.787  21.550  1.00  0.00    -0.224 OA
ATOM     23  N   UNL A   1      32.345  24.997  21.504  1.00  0.00    -0.321 N 
ATOM     24  H   UNL A   1      31.755  24.629  20.806  1.00  0.00     0.167 HD
BRANCH  23  25
ATOM     25  C   UNL A   1      33.467  24.171  21.885  1.00  0.00     0.119 C 
BRANCH  25  26
ATOM     26  C   UNL A   1      33.120  23.274  23.075  1.00  0.00     0.025 C 
BRANCH  26  27
ATOM     27  C   UNL A   1      34.313  22.954  24.003  1.00  0.00    -0.009 C 
ATOM     28  C   UNL A   1      34.148  21.598  24.708  1.00  0.00     0.003 C 
ATOM     29  C   UNL A   1      35.624  22.992  23.198  1.00  0.00     0.003 C 
ATOM     30  C   UNL A   1      35.368  21.237  25.554  1.00  0.00     0.000 C 
ATOM     31  C   UNL A   1      36.831  22.643  24.066  1.00  0.00     0.000 C 
ATOM     32  C   UNL A   1      36.657  21.289  24.742  1.00  0.00     0.000 C 
ENDBRANCH  26  27
ENDBRANCH  25  26
ENDBRANCH  23  25
ENDBRANCH  20  21
ENDBRANCH  18  20
ENDBRANCH  12  14
ENDBRANCH   5   7
ENDBRANCH   1   5
BRANCH   3  33
ATOM     33  C   UNL A   1      35.221  33.992  31.698  1.00  0.00     0.117 C 
BRANCH  33  34
ATOM     34  C   UNL A   1      36.713  34.281  31.547  1.00  0.00     0.042 C 
BRANCH  34  35
ATOM     35  C   UNL A   1      37.606  33.082  31.837  1.00  0.00     0.118 C 
BRANCH  35  36
ATOM     36  N   UNL A   1      36.840  31.901  32.194  1.00  0.00    -0.352 N 
ATOM     37  C   UNL A   1      37.019  30.595  31.820  1.00  0.00     0.251 C 
ATOM     38  H   UNL A   1      36.078  32.064  32.795  1.00  0.00     0.163 HD
ATOM     39  O   UNL A   1      36.125  29.783  32.046  1.00  0.00    -0.269 OA
BRANCH  37  40
ATOM     40  C   UNL A   1      38.266  30.161  31.149  1.00  0.00     0.039 A 
ATOM     41  C   UNL A   1      39.291  29.619  31.929  1.00  0.00     0.014 A 
ATOM     42  C   UNL A   1      38.458  30.340  29.777  1.00  0.00     0.014 A 
ATOM     43  C   UNL A   1      40.493  29.240  31.329  1.00  0.00     0.010 A 
ATOM     44  C   UNL A   1      39.618  29.871  29.165  1.00  0.00     0.010 A 
ATOM     45  C   UNL A   1      40.663  29.352  29.940  1.00  0.00    -0.014 A 
BRANCH  45  46
ATOM     46  C   UNL A   1      41.953  28.990  29.297  1.00  0.00     0.031 A 
ATOM     47  C   UNL A   1      43.041  30.024  29.154  1.00  0.00     0.074 A 
ATOM     48  C   UNL A   1      42.139  27.742  28.823  1.00  0.00     0.049 A 
ATOM     49  N   UNL A   1      44.227  29.907  28.614  1.00  0.00    -0.248 NA
ATOM     50  C   UNL A   1      42.746  31.375  29.660  1.00  0.00     0.031 C 
ATOM     51  C   UNL A   1      41.143  26.670  28.852  1.00  0.00     0.029 A 
ATOM     52  N   UNL A   1      43.230  27.166  28.222  1.00  0.00    -0.354 N 
ATOM     53  C   UNL A   1      44.812  31.165  28.711  1.00  0.00     0.074 A 
ATOM     54  C   UNL A   1      43.824  32.047  29.289  1.00  0.00     0.031 C 
ATOM     55  C   UNL A   1      41.676  25.560  28.318  1.00  0.00     0.029 A 
ATOM     56  C   UNL A   1      43.039  25.849  27.878  1.00  0.00     0.049 A 
ATOM     57  H   UNL A   1      44.070  27.650  28.053  1.00  0.00     0.167 HD
ATOM     58  C   UNL A   1      46.071  31.545  28.384  1.00  0.00     0.037 A 
ATOM     59  C   UNL A   1      43.866  24.975  27.274  1.00  0.00     0.037 A 
ATOM     60  C   UNL A   1      47.055  30.657  27.820  1.00  0.00     0.049 A 
ATOM     61  C   UNL A   1      45.261  25.413  26.922  1.00  0.00     0.074 A 
ATOM     62  C   UNL A   1      48.368  30.929  27.480  1.00  0.00     0.029 A 
ATOM     63  N   UNL A   1      46.832  29.321  27.512  1.00  0.00    -0.354 N 
ATOM     64  N   UNL A   1      45.818  26.592  27.071  1.00  0.00    -0.248 NA
ATOM     65  C   UNL A   1      46.148  24.399  26.338  1.00  0.00     0.031 C 
ATOM     66  C   UNL A   1      48.925  29.772  26.923  1.00  0.00     0.029 A 
ATOM     67  C   UNL A   1      47.979  28.760  26.975  1.00  0.00     0.049 A 
ATOM     68  H   UNL A   1      45.983  28.844  27.654  1.00  0.00     0.167 HD
ATOM     69  C   UNL A   1      47.130  26.453  26.631  1.00  0.00     0.074 A 
ATOM     70  C   UNL A   1      47.285  25.071  26.221  1.00  0.00     0.031 C 
ATOM     71  C   UNL A   1      48.119  27.381  26.576  1.00  0.00     0.037 A 
BRANCH  58  72
ATOM     72  C   UNL A   1      46.450  32.981  28.636  1.00  0.00     0.058 A 
ATOM     73  C   UNL A   1      46.999  33.396  29.862  1.00  0.00     0.135 A 
ATOM     74  C   UNL A   1      46.272  33.957  27.642  1.00  0.00     0.135 A 
ATOM     75  F   UNL A   1      47.178  32.512  30.857  1.00  0.00    -0.206 F 
ATOM     76  C   UNL A   1      47.314  34.728  30.108  1.00  0.00     0.059 A 
ATOM     77  C   UNL A   1      46.613  35.290  27.853  1.00  0.00     0.059 A 
ATOM     78  F   UNL A   1      45.753  33.621  26.450  1.00  0.00    -0.206 F 
ATOM     79  C   UNL A   1      47.115  35.669  29.097  1.00  0.00     0.060 A 
BRANCH  79  80
ATOM     80  S   UNL A   1      47.519  37.395  29.437  1.00  0.00     0.124 S 
ATOM     81  O   UNL A   1      47.933  37.327  30.835  1.00  0.00    -0.237 OA
ATOM     82  O   UNL A   1      48.583  37.662  28.475  1.00  0.00    -0.237 OA
ATOM     83  O   UNL A   1      46.263  38.095  29.189  1.00  0.00    -0.744 OA
ENDBRANCH  79  80
ENDBRANCH  58  72
BRANCH  59  84
ATOM     84  C   UNL A   1      43.397  23.590  26.994  1.00  0.00     0.058 A 
ATOM     85  C   UNL A   1      43.077  23.178  25.692  1.00  0.00     0.135 A 
ATOM     86  C   UNL A   1      43.291  22.641  28.023  1.00  0.00     0.135 A 
ATOM     87  F   UNL A   1      43.158  24.048  24.674  1.00  0.00    -0.206 F 
ATOM     88  C   UNL A   1      42.654  21.880  25.421  1.00  0.00     0.059 A 
ATOM     89  C   UNL A   1      42.898  21.330  27.774  1.00  0.00     0.059 A 
ATOM     90  F   UNL A   1      43.605  22.978  29.284  1.00  0.00    -0.206 F 
ATOM     91  C   UNL A   1      42.574  20.962  26.469  1.00  0.00     0.060 A 
BRANCH  91  92
ATOM     92  S   UNL A   1      42.084  19.263  26.096  1.00  0.00     0.124 S 
ATOM     93  O   UNL A   1      42.933  18.955  24.952  1.00  0.00    -0.237 OA
ATOM     94  O   UNL A   1      42.411  18.573  27.340  1.00  0.00    -0.237 OA
ATOM     95  O   UNL A   1      40.657  19.380  25.810  1.00  0.00    -0.744 OA
ENDBRANCH  91  92
ENDBRANCH  59  84
BRANCH  71  96
ATOM     96  C   UNL A   1      49.473  26.923  26.105  1.00  0.00     0.058 A 
ATOM     97  C   UNL A   1      50.414  26.354  26.978  1.00  0.00     0.135 A 
ATOM     98  C   UNL A   1      49.820  27.026  24.747  1.00  0.00     0.135 A 
ATOM     99  F   UNL A   1      50.136  26.232  28.286  1.00  0.00    -0.206 F 
ATOM    100  C   UNL A   1      51.666  25.943  26.530  1.00  0.00     0.059 A 
ATOM    101  C   UNL A   1      51.053  26.591  24.272  1.00  0.00     0.059 A 
ATOM    102  F   UNL A   1      48.953  27.548  23.865  1.00  0.00    -0.206 F 
ATOM    103  C   UNL A   1      51.976  26.068  25.175  1.00  0.00     0.060 A 
BRANCH 103 104
ATOM    104  S   UNL A   1      53.601  25.528  24.605  1.00  0.00     0.124 S 
ATOM    105  O   UNL A   1      53.623  26.047  23.242  1.00  0.00    -0.237 OA
ATOM    106  O   UNL A   1      54.498  26.187  25.549  1.00  0.00    -0.237 OA
ATOM    107  O   UNL A   1      53.538  24.073  24.722  1.00  0.00    -0.744 OA
ENDBRANCH 103 104
ENDBRANCH  71  96
ENDBRANCH  45  46
ENDBRANCH  37  40
ENDBRANCH  35  36
ENDBRANCH  34  35
ENDBRANCH  33  34
ENDBRANCH   3  33
TORSDOF 20
ENDMDL
MODEL 3
REMARK VINA RESULT:     -12.0      6.128     12.518
REMARK SMILES C[C@@H](C(=O)NCCCNC(=O)c1ccc(-c2c3nc(c(-c4c(F)cc(S(=O)(=O)[O-])cc4F)c4ccc([nH]4)c(-c4c(F)cc(S(=O)(=O)[O-])cc4F)c4nc(c(-c5c(F)cc(S(=O)(=O)[O-])cc5F)c5ccc2[nH]5)C=C4)C=C3)cc1)c1ccc(-c2cccc(OC(=O)NCCC3CCCCC3)c2)c(F)c1
REMARK SMILES IDX 3 1 4 2 5 3 2 5 1 6 78 7 79 8 102 9 80 10 100 11 81 12
REMARK SMILES IDX 101 13 82 14 83 15 99 16 84 17 86 18 85 19 87 20 88 21 89 22
REMARK SMILES IDX 90 23 91 25 92 26 93 27 94 28 98 29 95 30 97 31 96 32 6 33
REMARK SMILES IDX 7 34 8 35 9 36 10 37 11 39 12 40 13 41 77 42 14 43 76 44
REMARK SMILES IDX 15 45 16 46 17 47 70 48 18 49 75 50 69 51 71 52 19 53 74 54
REMARK SMILES IDX 68 55 67 56 20 58 54 59 33 60 53 61 34 62 37 63 52 64 72 65
REMARK SMILES IDX 35 66 36 67 51 69 73 70 38 71 21 72 22 73 31 74 23 75 24 76
REMARK SMILES IDX 30 77 32 78 25 79 26 80 27 81 28 82 29 83 55 84 56 85 65 86
REMARK SMILES IDX 57 87 58 88 64 89 66 90 59 91 60 92 61 93 62 94 63 95 39 96
REMARK SMILES IDX 40 97 49 98 41 99 42 100 48 101 50 102 43 103 44 104 45 105
REMARK SMILES IDX 46 106 47 107
REMARK H PARENT 5 4 90 24 9 38 71 57 37 68
REMARK Flexibility Score: inf
ROOT
ATOM      1  C   UNL A   1      33.689  35.288  29.790  1.00  0.00     0.227 C 
ATOM      2  O   UNL A   1      32.995  36.305  29.727  1.00  0.00    -0.274 OA
ATOM      3  N   UNL A   1      33.744  34.659  31.001  1.00  0.00    -0.356 N 
ATOM      4  H   UNL A   1      33.106  34.993  31.673  1.00  0.00     0.163 HD
ENDROOT
BRANCH   1   5
ATOM      5  C   UNL A   1      34.432  34.693  28.578  1.00  0.00     0.105 C 
ATOM      6  C   UNL A   1      34.401  35.681  27.406  1.00  0.00     0.023 C 
BRANCH   5   7
ATOM      7  C   UNL A   1      33.914  33.301  28.204  1.00  0.00    -0.033 A 
ATOM      8  C   UNL A   1      34.674  32.135  28.393  1.00  0.00     0.005 A 
ATOM      9  C   UNL A   1      32.632  33.160  27.647  1.00  0.00     0.044 A 
ATOM     10  C   UNL A   1      34.192  30.885  27.998  1.00  0.00     0.012 A 
ATOM     11  C   UNL A   1      32.166  31.910  27.239  1.00  0.00     0.131 A 
ATOM     12  C   UNL A   1      32.938  30.752  27.392  1.00  0.00     0.018 A 
ATOM     13  F   UNL A   1      30.951  31.841  26.669  1.00  0.00    -0.206 F 
BRANCH  12  14
ATOM     14  C   UNL A   1      32.529  29.454  26.845  1.00  0.00    -0.012 A 
ATOM     15  C   UNL A   1      31.775  28.539  27.597  1.00  0.00     0.009 A 
ATOM     16  C   UNL A   1      32.986  29.066  25.576  1.00  0.00     0.056 A 
ATOM     17  C   UNL A   1      31.496  27.266  27.097  1.00  0.00     0.004 A 
ATOM     18  C   UNL A   1      32.735  27.786  25.090  1.00  0.00     0.133 A 
ATOM     19  C   UNL A   1      31.981  26.885  25.845  1.00  0.00     0.047 A 
BRANCH  18  20
ATOM     20  O   UNL A   1      33.219  27.296  23.852  1.00  0.00    -0.410 OA
BRANCH  20  21
ATOM     21  C   UNL A   1      33.167  27.998  22.650  1.00  0.00     0.412 C 
ATOM     22  O   UNL A   1      34.004  28.785  22.222  1.00  0.00    -0.224 OA
ATOM     23  N   UNL A   1      32.062  27.727  21.900  1.00  0.00    -0.321 N 
ATOM     24  H   UNL A   1      32.001  28.194  21.035  1.00  0.00     0.167 HD
BRANCH  23  25
ATOM     25  C   UNL A   1      30.968  26.839  22.219  1.00  0.00     0.119 C 
BRANCH  25  26
ATOM     26  C   UNL A   1      29.967  27.504  23.165  1.00  0.00     0.025 C 
BRANCH  26  27
ATOM     27  C   UNL A   1      29.564  28.940  22.762  1.00  0.00    -0.009 C 
ATOM     28  C   UNL A   1      28.076  29.037  22.385  1.00  0.00     0.003 C 
ATOM     29  C   UNL A   1      29.900  29.914  23.904  1.00  0.00     0.003 C 
ATOM     30  C   UNL A   1      27.654  30.472  22.077  1.00  0.00     0.000 C 
ATOM     31  C   UNL A   1      29.484  31.345  23.568  1.00  0.00     0.000 C 
ATOM     32  C   UNL A   1      28.004  31.425  23.214  1.00  0.00     0.000 C 
ENDBRANCH  26  27
ENDBRANCH  25  26
ENDBRANCH  23  25
ENDBRANCH  20  21
ENDBRANCH  18  20
ENDBRANCH  12  14
ENDBRANCH   5   7
ENDBRANCH   1   5
BRANCH   3  33
ATOM     33  C   UNL A   1      34.596  33.576  31.449  1.00  0.00     0.117 C 
BRANCH  33  34
ATOM     34  C   UNL A   1      36.070  33.973  31.384  1.00  0.00     0.042 C 
BRANCH  34  35
ATOM     35  C   UNL A   1      37.019  32.794  31.214  1.00  0.00     0.118 C 
BRANCH  35  36
ATOM     36  N   UNL A   1      36.344  31.519  31.378  1.00  0.00    -0.352 N 
ATOM     37  C   UNL A   1      36.720  30.268  30.962  1.00  0.00     0.251 C 
ATOM     38  H   UNL A   1      35.487  31.559  31.861  1.00  0.00     0.163 HD
ATOM     39  O   UNL A   1      35.898  29.356  30.997  1.00  0.00    -0.269 OA
BRANCH  37  40
ATOM     40  C   UNL A   1      38.094  30.014  30.470  1.00  0.00     0.039 A 
ATOM     41  C   UNL A   1      38.339  30.097  29.098  1.00  0.00     0.014 A 
ATOM     42  C   UNL A   1      39.124  29.639  31.338  1.00  0.00     0.014 A 
ATOM     43  C   UNL A   1      39.615  29.822  28.602  1.00  0.00     0.010 A 
ATOM     44  C   UNL A   1      40.418  29.462  30.855  1.00  0.00     0.010 A 
ATOM     45  C   UNL A   1      40.669  29.514  29.477  1.00  0.00    -0.014 A 
BRANCH  45  46
ATOM     46  C   UNL A   1      42.020  29.180  28.957  1.00  0.00     0.031 A 
ATOM     47  C   UNL A   1      42.322  27.781  28.485  1.00  0.00     0.074 A 
ATOM     48  C   UNL A   1      42.980  30.126  28.929  1.00  0.00     0.049 A 
ATOM     49  N   UNL A   1      43.439  27.291  28.011  1.00  0.00    -0.248 NA
ATOM     50  C   UNL A   1      41.233  26.795  28.586  1.00  0.00     0.031 C 
ATOM     51  C   UNL A   1      42.827  31.500  29.410  1.00  0.00     0.029 A 
ATOM     52  N   UNL A   1      44.276  30.073  28.480  1.00  0.00    -0.354 N 
ATOM     53  C   UNL A   1      43.188  25.946  27.763  1.00  0.00     0.074 A 
ATOM     54  C   UNL A   1      41.840  25.679  28.212  1.00  0.00     0.031 C 
ATOM     55  C   UNL A   1      43.974  32.167  29.206  1.00  0.00     0.029 A 
ATOM     56  C   UNL A   1      44.954  31.261  28.613  1.00  0.00     0.049 A 
ATOM     57  H   UNL A   1      44.681  29.261  28.099  1.00  0.00     0.167 HD
ATOM     58  C   UNL A   1      43.991  25.023  27.182  1.00  0.00     0.037 A 
ATOM     59  C   UNL A   1      46.223  31.583  28.296  1.00  0.00     0.037 A 
ATOM     60  C   UNL A   1      45.328  25.299  26.725  1.00  0.00     0.049 A 
ATOM     61  C   UNL A   1      47.099  30.547  27.646  1.00  0.00     0.074 A 
ATOM     62  C   UNL A   1      46.218  24.447  26.095  1.00  0.00     0.029 A 
ATOM     63  N   UNL A   1      45.971  26.524  26.852  1.00  0.00    -0.354 N 
ATOM     64  N   UNL A   1      46.827  29.294  27.368  1.00  0.00    -0.248 NA
ATOM     65  C   UNL A   1      48.447  30.973  27.248  1.00  0.00     0.031 C 
ATOM     66  C   UNL A   1      47.414  25.143  25.882  1.00  0.00     0.029 A 
ATOM     67  C   UNL A   1      47.249  26.447  26.322  1.00  0.00     0.049 A 
ATOM     68  H   UNL A   1      45.576  27.329  27.259  1.00  0.00     0.167 HD
ATOM     69  C   UNL A   1      47.958  28.790  26.733  1.00  0.00     0.074 A 
ATOM     70  C   UNL A   1      48.910  29.880  26.659  1.00  0.00     0.031 C 
ATOM     71  C   UNL A   1      48.184  27.542  26.250  1.00  0.00     0.037 A 
BRANCH  58  72
ATOM     72  C   UNL A   1      43.437  23.633  27.003  1.00  0.00     0.058 A 
ATOM     73  C   UNL A   1      43.372  22.721  28.071  1.00  0.00     0.135 A 
ATOM     74  C   UNL A   1      42.957  23.206  25.754  1.00  0.00     0.135 A 
ATOM     75  F   UNL A   1      43.830  23.067  29.285  1.00  0.00    -0.206 F 
ATOM     76  C   UNL A   1      42.894  21.426  27.898  1.00  0.00     0.059 A 
ATOM     77  C   UNL A   1      42.442  21.926  25.566  1.00  0.00     0.059 A 
ATOM     78  F   UNL A   1      42.991  24.032  24.697  1.00  0.00    -0.206 F 
ATOM     79  C   UNL A   1      42.434  21.037  26.640  1.00  0.00     0.060 A 
BRANCH  79  80
ATOM     80  S   UNL A   1      41.828  19.349  26.431  1.00  0.00     0.124 S 
ATOM     81  O   UNL A   1      40.434  19.584  26.067  1.00  0.00    -0.237 OA
ATOM     82  O   UNL A   1      42.684  18.840  25.364  1.00  0.00    -0.237 OA
ATOM     83  O   UNL A   1      42.040  18.746  27.743  1.00  0.00    -0.744 OA
ENDBRANCH  79  80
ENDBRANCH  58  72
BRANCH  59  84
ATOM     84  C   UNL A   1      46.722  32.959  28.565  1.00  0.00     0.058 A 
ATOM     85  C   UNL A   1      46.558  33.991  27.629  1.00  0.00     0.135 A 
ATOM     86  C   UNL A   1      47.348  33.276  29.781  1.00  0.00     0.135 A 
ATOM     87  F   UNL A   1      45.970  33.738  26.449  1.00  0.00    -0.206 F 
ATOM     88  C   UNL A   1      47.007  35.283  27.881  1.00  0.00     0.059 A 
ATOM     89  C   UNL A   1      47.780  34.567  30.069  1.00  0.00     0.059 A 
ATOM     90  F   UNL A   1      47.513  32.331  30.719  1.00  0.00    -0.206 F 
ATOM     91  C   UNL A   1      47.612  35.563  29.107  1.00  0.00     0.060 A 
BRANCH  91  92
ATOM     92  S   UNL A   1      48.135  37.258  29.449  1.00  0.00     0.124 S 
ATOM     93  O   UNL A   1      49.518  37.238  28.989  1.00  0.00    -0.237 OA
ATOM     94  O   UNL A   1      47.202  38.033  28.637  1.00  0.00    -0.237 OA
ATOM     95  O   UNL A   1      47.950  37.381  30.892  1.00  0.00    -0.744 OA
ENDBRANCH  91  92
ENDBRANCH  59  84
BRANCH  71  96
ATOM     96  C   UNL A   1      49.494  27.300  25.549  1.00  0.00     0.058 A 
ATOM     97  C   UNL A   1      50.659  26.939  26.244  1.00  0.00     0.135 A 
ATOM     98  C   UNL A   1      49.574  27.401  24.149  1.00  0.00     0.135 A 
ATOM     99  F   UNL A   1      50.641  26.829  27.583  1.00  0.00    -0.206 F 
ATOM    100  C   UNL A   1      51.864  26.727  25.584  1.00  0.00     0.059 A 
ATOM    101  C   UNL A   1      50.761  27.160  23.465  1.00  0.00     0.059 A 
ATOM    102  F   UNL A   1      48.488  27.728  23.432  1.00  0.00    -0.206 F 
ATOM    103  C   UNL A   1      51.906  26.842  24.193  1.00  0.00     0.060 A 
BRANCH 103 104
ATOM    104  S   UNL A   1      53.475  26.561  23.347  1.00  0.00     0.124 S 
ATOM    105  O   UNL A   1      53.026  26.027  22.066  1.00  0.00    -0.237 OA
ATOM    106  O   UNL A   1      54.053  27.901  23.307  1.00  0.00    -0.237 OA
ATOM    107  O   UNL A   1      54.166  25.612  24.216  1.00  0.00    -0.744 OA
ENDBRANCH 103 104
ENDBRANCH  71  96
ENDBRANCH  45  46
ENDBRANCH  37  40
ENDBRANCH  35  36
ENDBRANCH  34  35
ENDBRANCH  33  34
ENDBRANCH   3  33
TORSDOF 20
ENDMDL
