MODEL 1
REMARK VINA RESULT:     -10.6      0.000      0.000
REMARK SMILES O=C(NCCCNC(=O)[C@@H]1C=C[C@H](NC(=O)[C@@H]2Cc3ccccc3O2)C1)c1ccc(-c2c3nc(c(-c4c(F)cc(S(=O)(=O)[O-])cc4F)c4ccc([nH]4)c(-c4c(F)cc(S(=O)(=O)[O-])cc4F)c4nc(c(-c5c(F)cc(S(=O)(=O)[O-])cc5F)c5ccc2[nH]5)C=C4)C=C3)cc1
REMARK SMILES IDX 4 1 3 2 1 3 2 4 27 6 28 7 92 8 29 9 91 10 30 11 31 12 32 13
REMARK SMILES IDX 85 14 33 15 90 16 84 17 86 18 34 19 89 20 83 21 82 22 35 24
REMARK SMILES IDX 69 25 48 26 68 27 49 28 52 29 67 30 87 31 50 32 51 33 66 35
REMARK SMILES IDX 88 36 53 37 36 38 37 39 46 40 38 41 39 42 45 43 47 44 40 45
REMARK SMILES IDX 41 46 42 47 43 48 44 49 70 50 71 51 80 52 72 53 73 54 79 55
REMARK SMILES IDX 81 56 74 57 75 58 76 59 77 60 78 61 54 62 55 63 64 64 56 65
REMARK SMILES IDX 57 66 63 67 65 68 58 69 59 70 60 71 61 72 62 73 5 74 6 75
REMARK SMILES IDX 7 76 8 77 9 79 10 80 11 81 26 82 12 83 13 84 14 85 15 86
REMARK SMILES IDX 16 88 17 89 18 90 25 91 19 92 24 93 20 94 23 95 21 96 22 97
REMARK H PARENT 3 5 86 23 52 34 7 78 14 87
REMARK Flexibility Score: inf
ROOT
ATOM      1  C   UNL A   1      34.822  32.748  28.425  1.00  0.00     0.118 C 
ENDROOT
BRANCH   1   2
ATOM      2  N   UNL A   1      34.048  31.538  28.189  1.00  0.00    -0.352 N 
ATOM      3  O   UNL A   1      33.684  29.421  27.528  1.00  0.00    -0.269 OA
ATOM      4  C   UNL A   1      34.479  30.258  27.952  1.00  0.00     0.251 C 
ATOM      5  H   UNL A   1      33.070  31.656  28.200  1.00  0.00     0.163 HD
BRANCH   4   6
ATOM      6  C   UNL A   1      35.890  29.891  28.201  1.00  0.00     0.039 A 
ATOM      7  C   UNL A   1      36.857  30.085  27.212  1.00  0.00     0.014 A 
ATOM      8  C   UNL A   1      36.258  29.391  29.453  1.00  0.00     0.014 A 
ATOM      9  C   UNL A   1      38.162  29.661  27.428  1.00  0.00     0.010 A 
ATOM     10  C   UNL A   1      37.591  29.049  29.700  1.00  0.00     0.010 A 
ATOM     11  C   UNL A   1      38.551  29.166  28.683  1.00  0.00    -0.014 A 
BRANCH  11  12
ATOM     12  C   UNL A   1      39.984  28.870  28.930  1.00  0.00     0.031 A 
ATOM     13  C   UNL A   1      40.584  27.546  28.552  1.00  0.00     0.074 A 
ATOM     14  C   UNL A   1      40.747  29.832  29.490  1.00  0.00     0.049 A 
ATOM     15  N   UNL A   1      41.818  27.134  28.696  1.00  0.00    -0.248 NA
ATOM     16  C   UNL A   1      39.689  26.552  27.940  1.00  0.00     0.031 C 
ATOM     17  C   UNL A   1      40.262  31.150  29.914  1.00  0.00     0.029 A 
ATOM     18  N   UNL A   1      42.083  29.862  29.791  1.00  0.00    -0.354 N 
ATOM     19  C   UNL A   1      41.846  25.832  28.211  1.00  0.00     0.074 A 
ATOM     20  C   UNL A   1      40.499  25.512  27.787  1.00  0.00     0.031 C 
ATOM     21  C   UNL A   1      41.291  31.871  30.380  1.00  0.00     0.029 A 
ATOM     22  C   UNL A   1      42.494  31.048  30.352  1.00  0.00     0.049 A 
ATOM     23  H   UNL A   1      42.692  29.107  29.619  1.00  0.00     0.167 HD
ATOM     24  C   UNL A   1      42.903  24.989  28.121  1.00  0.00     0.037 A 
ATOM     25  C   UNL A   1      43.699  31.426  30.820  1.00  0.00     0.037 A 
ATOM     26  C   UNL A   1      44.243  25.328  28.535  1.00  0.00     0.049 A 
ATOM     27  C   UNL A   1      44.845  30.460  30.728  1.00  0.00     0.074 A 
ATOM     28  C   UNL A   1      45.389  24.557  28.448  1.00  0.00     0.029 A 
ATOM     29  N   UNL A   1      44.616  26.532  29.116  1.00  0.00    -0.354 N 
ATOM     30  N   UNL A   1      44.860  29.248  30.227  1.00  0.00    -0.248 NA
ATOM     31  C   UNL A   1      46.134  30.908  31.266  1.00  0.00     0.031 C 
ATOM     32  C   UNL A   1      46.444  25.274  29.023  1.00  0.00     0.029 A 
ATOM     33  C   UNL A   1      45.969  26.514  29.417  1.00  0.00     0.049 A 
ATOM     34  H   UNL A   1      44.009  27.287  29.289  1.00  0.00     0.167 HD
ATOM     35  C   UNL A   1      46.167  28.797  30.371  1.00  0.00     0.074 A 
ATOM     36  C   UNL A   1      46.914  29.873  30.987  1.00  0.00     0.031 C 
ATOM     37  C   UNL A   1      46.699  27.598  30.025  1.00  0.00     0.037 A 
BRANCH  24  38
ATOM     38  C   UNL A   1      42.667  23.608  27.569  1.00  0.00     0.058 A 
ATOM     39  C   UNL A   1      42.774  23.333  26.197  1.00  0.00     0.135 A 
ATOM     40  C   UNL A   1      42.411  22.531  28.435  1.00  0.00     0.135 A 
ATOM     41  F   UNL A   1      43.001  24.326  25.323  1.00  0.00    -0.206 F 
ATOM     42  C   UNL A   1      42.626  22.040  25.701  1.00  0.00     0.059 A 
ATOM     43  C   UNL A   1      42.284  21.227  27.964  1.00  0.00     0.059 A 
ATOM     44  F   UNL A   1      42.297  22.739  29.756  1.00  0.00    -0.206 F 
ATOM     45  C   UNL A   1      42.387  20.993  26.593  1.00  0.00     0.060 A 
BRANCH  45  46
ATOM     46  S   UNL A   1      42.228  19.319  25.935  1.00  0.00     0.124 S 
ATOM     47  O   UNL A   1      43.083  19.389  24.753  1.00  0.00    -0.237 OA
ATOM     48  O   UNL A   1      42.733  18.503  27.033  1.00  0.00    -0.237 OA
ATOM     49  O   UNL A   1      40.799  19.191  25.668  1.00  0.00    -0.744 OA
ENDBRANCH  45  46
ENDBRANCH  24  38
BRANCH  25  50
ATOM     50  C   UNL A   1      43.870  32.770  31.432  1.00  0.00     0.058 A 
ATOM     51  C   UNL A   1      44.150  33.897  30.646  1.00  0.00     0.135 A 
ATOM     52  C   UNL A   1      43.756  32.952  32.820  1.00  0.00     0.135 A 
ATOM     53  F   UNL A   1      44.271  33.773  29.316  1.00  0.00    -0.206 F 
ATOM     54  C   UNL A   1      44.337  35.152  31.215  1.00  0.00     0.059 A 
ATOM     55  C   UNL A   1      43.906  34.203  33.408  1.00  0.00     0.059 A 
ATOM     56  F   UNL A   1      43.468  31.909  33.615  1.00  0.00    -0.206 F 
ATOM     57  C   UNL A   1      44.214  35.293  32.599  1.00  0.00     0.060 A 
BRANCH  57  58
ATOM     58  S   UNL A   1      44.438  36.930  33.328  1.00  0.00     0.124 S 
ATOM     59  O   UNL A   1      43.058  37.329  33.579  1.00  0.00    -0.237 OA
ATOM     60  O   UNL A   1      45.244  36.633  34.508  1.00  0.00    -0.237 OA
ATOM     61  O   UNL A   1      45.129  37.673  32.277  1.00  0.00    -0.744 OA
ENDBRANCH  57  58
ENDBRANCH  25  50
BRANCH  37  62
ATOM     62  C   UNL A   1      48.168  27.402  30.276  1.00  0.00     0.058 A 
ATOM     63  C   UNL A   1      48.646  26.869  31.482  1.00  0.00     0.135 A 
ATOM     64  C   UNL A   1      49.105  27.718  29.279  1.00  0.00     0.135 A 
ATOM     65  F   UNL A   1      47.792  26.559  32.471  1.00  0.00    -0.206 F 
ATOM     66  C   UNL A   1      50.007  26.680  31.703  1.00  0.00     0.059 A 
ATOM     67  C   UNL A   1      50.467  27.509  29.466  1.00  0.00     0.059 A 
ATOM     68  F   UNL A   1      48.698  28.223  28.104  1.00  0.00    -0.206 F 
ATOM     69  C   UNL A   1      50.910  27.002  30.688  1.00  0.00     0.060 A 
BRANCH  69  70
ATOM     70  S   UNL A   1      52.669  26.723  30.974  1.00  0.00     0.124 S 
ATOM     71  O   UNL A   1      53.212  26.863  29.627  1.00  0.00    -0.237 OA
ATOM     72  O   UNL A   1      53.007  27.793  31.909  1.00  0.00    -0.237 OA
ATOM     73  O   UNL A   1      52.714  25.375  31.533  1.00  0.00    -0.744 OA
ENDBRANCH  69  70
ENDBRANCH  37  62
ENDBRANCH  11  12
ENDBRANCH   4   6
ENDBRANCH   1   2
BRANCH   1  74
ATOM     74  C   UNL A   1      33.929  33.951  28.699  1.00  0.00     0.042 C 
BRANCH  74  75
ATOM     75  C   UNL A   1      34.273  34.669  30.001  1.00  0.00     0.117 C 
BRANCH  75  76
ATOM     76  N   UNL A   1      33.757  33.942  31.144  1.00  0.00    -0.356 N 
ATOM     77  C   UNL A   1      34.429  33.446  32.224  1.00  0.00     0.227 C 
ATOM     78  H   UNL A   1      32.785  33.784  31.141  1.00  0.00     0.163 HD
ATOM     79  O   UNL A   1      33.806  32.724  33.000  1.00  0.00    -0.274 OA
BRANCH  77  80
ATOM     80  C   UNL A   1      35.881  33.880  32.464  1.00  0.00     0.103 C 
ATOM     81  C   UNL A   1      36.828  33.489  31.367  1.00  0.00    -0.016 C 
ATOM     82  C   UNL A   1      36.496  33.181  33.692  1.00  0.00     0.047 C 
ATOM     83  C   UNL A   1      37.687  32.539  31.743  1.00  0.00    -0.006 C 
ATOM     84  C   UNL A   1      37.488  32.137  33.158  1.00  0.00     0.106 C 
BRANCH  84  85
ATOM     85  N   UNL A   1      36.988  30.785  33.184  1.00  0.00    -0.347 N 
ATOM     86  C   UNL A   1      37.724  29.630  33.269  1.00  0.00     0.261 C 
ATOM     87  H   UNL A   1      36.011  30.678  33.135  1.00  0.00     0.164 HD
ATOM     88  O   UNL A   1      37.140  28.548  33.290  1.00  0.00    -0.271 OA
BRANCH  86  89
ATOM     89  C   UNL A   1      39.250  29.758  33.312  1.00  0.00     0.266 C 
ATOM     90  C   UNL A   1      39.906  28.608  32.535  1.00  0.00     0.095 C 
ATOM     91  O   UNL A   1      39.808  29.760  34.645  1.00  0.00    -0.480 OA
ATOM     92  C   UNL A   1      41.219  28.625  33.219  1.00  0.00    -0.002 A 
ATOM     93  C   UNL A   1      41.076  29.279  34.435  1.00  0.00     0.123 A 
ATOM     94  C   UNL A   1      42.434  28.093  32.834  1.00  0.00     0.008 A 
ATOM     95  C   UNL A   1      42.126  29.428  35.313  1.00  0.00     0.047 A 
ATOM     96  C   UNL A   1      43.519  28.252  33.698  1.00  0.00     0.001 A 
ATOM     97  C   UNL A   1      43.367  28.913  34.931  1.00  0.00     0.004 A 
ENDBRANCH  86  89
ENDBRANCH  84  85
ENDBRANCH  77  80
ENDBRANCH  75  76
ENDBRANCH  74  75
ENDBRANCH   1  74
TORSDOF 15
ENDMDL
MODEL 2
REMARK VINA RESULT:     -10.4      3.659     10.028
REMARK SMILES O=C(NCCCNC(=O)[C@@H]1C=C[C@H](NC(=O)[C@@H]2Cc3ccccc3O2)C1)c1ccc(-c2c3nc(c(-c4c(F)cc(S(=O)(=O)[O-])cc4F)c4ccc([nH]4)c(-c4c(F)cc(S(=O)(=O)[O-])cc4F)c4nc(c(-c5c(F)cc(S(=O)(=O)[O-])cc5F)c5ccc2[nH]5)C=C4)C=C3)cc1
REMARK SMILES IDX 4 1 3 2 1 3 2 4 27 6 28 7 92 8 29 9 91 10 30 11 31 12 32 13
REMARK SMILES IDX 85 14 33 15 90 16 84 17 86 18 34 19 89 20 83 21 82 22 35 24
REMARK SMILES IDX 69 25 48 26 68 27 49 28 52 29 67 30 87 31 50 32 51 33 66 35
REMARK SMILES IDX 88 36 53 37 36 38 37 39 46 40 38 41 39 42 45 43 47 44 40 45
REMARK SMILES IDX 41 46 42 47 43 48 44 49 70 50 71 51 80 52 72 53 73 54 79 55
REMARK SMILES IDX 81 56 74 57 75 58 76 59 77 60 78 61 54 62 55 63 64 64 56 65
REMARK SMILES IDX 57 66 63 67 65 68 58 69 59 70 60 71 61 72 62 73 5 74 6 75
REMARK SMILES IDX 7 76 8 77 9 79 10 80 11 81 26 82 12 83 13 84 14 85 15 86
REMARK SMILES IDX 16 88 17 89 18 90 25 91 19 92 24 93 20 94 23 95 21 96 22 97
REMARK H PARENT 3 5 86 23 52 34 7 78 14 87
REMARK Flexibility Score: inf
ROOT
ATOM      1  C   UNL A   1      35.678  31.025  27.963  1.00  0.00     0.118 C 
ENDROOT
BRANCH   1   2
ATOM      2  N   UNL A   1      35.557  30.820  29.400  1.00  0.00    -0.352 N 
ATOM      3  O   UNL A   1      36.028  29.905  31.398  1.00  0.00    -0.269 OA
ATOM      4  C   UNL A   1      36.418  30.202  30.269  1.00  0.00     0.251 C 
ATOM      5  H   UNL A   1      34.734  31.177  29.806  1.00  0.00     0.163 HD
BRANCH   4   6
ATOM      6  C   UNL A   1      37.801  29.891  29.851  1.00  0.00     0.039 A 
ATOM      7  C   UNL A   1      38.763  29.527  30.796  1.00  0.00     0.014 A 
ATOM      8  C   UNL A   1      38.129  29.919  28.492  1.00  0.00     0.014 A 
ATOM      9  C   UNL A   1      40.078  29.317  30.401  1.00  0.00     0.010 A 
ATOM     10  C   UNL A   1      39.433  29.618  28.086  1.00  0.00     0.010 A 
ATOM     11  C   UNL A   1      40.422  29.331  29.040  1.00  0.00    -0.014 A 
BRANCH  11  12
ATOM     12  C   UNL A   1      41.799  28.948  28.640  1.00  0.00     0.031 A 
ATOM     13  C   UNL A   1      42.915  29.953  28.624  1.00  0.00     0.074 A 
ATOM     14  C   UNL A   1      42.031  27.662  28.303  1.00  0.00     0.049 A 
ATOM     15  N   UNL A   1      44.172  29.778  28.305  1.00  0.00    -0.248 NA
ATOM     16  C   UNL A   1      42.583  31.334  29.010  1.00  0.00     0.031 C 
ATOM     17  C   UNL A   1      41.015  26.605  28.266  1.00  0.00     0.029 A 
ATOM     18  N   UNL A   1      43.186  27.019  27.942  1.00  0.00    -0.354 N 
ATOM     19  C   UNL A   1      44.778  31.022  28.433  1.00  0.00     0.074 A 
ATOM     20  C   UNL A   1      43.745  31.952  28.839  1.00  0.00     0.031 C 
ATOM     21  C   UNL A   1      41.597  25.443  27.943  1.00  0.00     0.029 A 
ATOM     22  C   UNL A   1      43.012  25.680  27.684  1.00  0.00     0.049 A 
ATOM     23  H   UNL A   1      44.058  27.473  27.875  1.00  0.00     0.167 HD
ATOM     24  C   UNL A   1      46.077  31.351  28.238  1.00  0.00     0.037 A 
ATOM     25  C   UNL A   1      43.887  24.748  27.260  1.00  0.00     0.037 A 
ATOM     26  C   UNL A   1      47.098  30.408  27.848  1.00  0.00     0.049 A 
ATOM     27  C   UNL A   1      45.315  25.149  27.029  1.00  0.00     0.074 A 
ATOM     28  C   UNL A   1      48.451  30.636  27.663  1.00  0.00     0.029 A 
ATOM     29  N   UNL A   1      46.880  29.065  27.577  1.00  0.00    -0.354 N 
ATOM     30  N   UNL A   1      45.877  26.323  27.197  1.00  0.00    -0.248 NA
ATOM     31  C   UNL A   1      46.228  24.105  26.550  1.00  0.00     0.031 C 
ATOM     32  C   UNL A   1      49.041  29.443  27.232  1.00  0.00     0.029 A 
ATOM     33  C   UNL A   1      48.068  28.457  27.202  1.00  0.00     0.049 A 
ATOM     34  H   UNL A   1      46.009  28.610  27.643  1.00  0.00     0.167 HD
ATOM     35  C   UNL A   1      47.215  26.152  26.864  1.00  0.00     0.074 A 
ATOM     36  C   UNL A   1      47.380  24.758  26.505  1.00  0.00     0.031 C 
ATOM     37  C   UNL A   1      48.216  27.067  26.854  1.00  0.00     0.037 A 
BRANCH  24  38
ATOM     38  C   UNL A   1      46.484  32.788  28.426  1.00  0.00     0.058 A 
ATOM     39  C   UNL A   1      46.329  33.740  27.407  1.00  0.00     0.135 A 
ATOM     40  C   UNL A   1      46.959  33.235  29.671  1.00  0.00     0.135 A 
ATOM     41  F   UNL A   1      45.893  33.366  26.193  1.00  0.00    -0.206 F 
ATOM     42  C   UNL A   1      46.639  35.082  27.611  1.00  0.00     0.059 A 
ATOM     43  C   UNL A   1      47.252  34.576  29.905  1.00  0.00     0.059 A 
ATOM     44  F   UNL A   1      47.128  32.366  30.680  1.00  0.00    -0.206 F 
ATOM     45  C   UNL A   1      47.095  35.490  28.865  1.00  0.00     0.060 A 
BRANCH  45  46
ATOM     46  S   UNL A   1      47.463  37.240  29.120  1.00  0.00     0.124 S 
ATOM     47  O   UNL A   1      46.306  37.875  28.495  1.00  0.00    -0.237 OA
ATOM     48  O   UNL A   1      47.527  37.336  30.574  1.00  0.00    -0.237 OA
ATOM     49  O   UNL A   1      48.732  37.427  28.425  1.00  0.00    -0.744 OA
ENDBRANCH  45  46
ENDBRANCH  24  38
BRANCH  25  50
ATOM     50  C   UNL A   1      43.426  23.357  27.008  1.00  0.00     0.058 A 
ATOM     51  C   UNL A   1      43.170  22.473  28.066  1.00  0.00     0.135 A 
ATOM     52  C   UNL A   1      43.231  22.885  25.700  1.00  0.00     0.135 A 
ATOM     53  F   UNL A   1      43.344  22.876  29.334  1.00  0.00    -0.206 F 
ATOM     54  C   UNL A   1      42.764  21.163  27.837  1.00  0.00     0.059 A 
ATOM     55  C   UNL A   1      42.795  21.590  25.447  1.00  0.00     0.059 A 
ATOM     56  F   UNL A   1      43.442  23.698  24.652  1.00  0.00    -0.206 F 
ATOM     57  C   UNL A   1      42.581  20.730  26.522  1.00  0.00     0.060 A 
BRANCH  57  58
ATOM     58  S   UNL A   1      42.034  19.035  26.233  1.00  0.00     0.124 S 
ATOM     59  O   UNL A   1      42.941  18.611  25.173  1.00  0.00    -0.237 OA
ATOM     60  O   UNL A   1      42.244  18.417  27.539  1.00  0.00    -0.237 OA
ATOM     61  O   UNL A   1      40.636  19.196  25.842  1.00  0.00    -0.744 OA
ENDBRANCH  57  58
ENDBRANCH  25  50
BRANCH  37  62
ATOM     62  C   UNL A   1      49.586  26.580  26.474  1.00  0.00     0.058 A 
ATOM     63  C   UNL A   1      50.441  25.977  27.410  1.00  0.00     0.135 A 
ATOM     64  C   UNL A   1      50.034  26.685  25.148  1.00  0.00     0.135 A 
ATOM     65  F   UNL A   1      50.065  25.860  28.693  1.00  0.00    -0.206 F 
ATOM     66  C   UNL A   1      51.704  25.518  27.049  1.00  0.00     0.059 A 
ATOM     67  C   UNL A   1      51.280  26.207  24.758  1.00  0.00     0.059 A 
ATOM     68  F   UNL A   1      49.251  27.247  24.213  1.00  0.00    -0.206 F 
ATOM     69  C   UNL A   1      52.114  25.636  25.719  1.00  0.00     0.060 A 
BRANCH  69  70
ATOM     70  S   UNL A   1      53.741  25.009  25.257  1.00  0.00     0.124 S 
ATOM     71  O   UNL A   1      54.002  25.749  24.027  1.00  0.00    -0.237 OA
ATOM     72  O   UNL A   1      54.559  25.383  26.408  1.00  0.00    -0.237 OA
ATOM     73  O   UNL A   1      53.520  23.576  25.092  1.00  0.00    -0.744 OA
ENDBRANCH  69  70
ENDBRANCH  37  62
ENDBRANCH  11  12
ENDBRANCH   4   6
ENDBRANCH   1   2
BRANCH   1  74
ATOM     74  C   UNL A   1      34.860  30.012  27.173  1.00  0.00     0.042 C 
BRANCH  74  75
ATOM     75  C   UNL A   1      33.383  30.385  27.072  1.00  0.00     0.117 C 
BRANCH  75  76
ATOM     76  N   UNL A   1      32.555  29.405  27.747  1.00  0.00    -0.356 N 
ATOM     77  C   UNL A   1      31.865  28.352  27.219  1.00  0.00     0.227 C 
ATOM     78  H   UNL A   1      32.480  29.514  28.722  1.00  0.00     0.163 HD
ATOM     79  O   UNL A   1      31.099  27.742  27.963  1.00  0.00    -0.274 OA
BRANCH  77  80
ATOM     80  C   UNL A   1      32.140  27.928  25.770  1.00  0.00     0.103 C 
ATOM     81  C   UNL A   1      30.930  27.434  25.034  1.00  0.00    -0.016 C 
ATOM     82  C   UNL A   1      33.087  26.715  25.694  1.00  0.00     0.047 C 
ATOM     83  C   UNL A   1      30.976  26.123  24.787  1.00  0.00    -0.006 C 
ATOM     84  C   UNL A   1      32.229  25.507  25.290  1.00  0.00     0.106 C 
BRANCH  84  85
ATOM     85  N   UNL A   1      31.899  24.629  26.387  1.00  0.00    -0.347 N 
ATOM     86  C   UNL A   1      32.547  23.474  26.747  1.00  0.00     0.261 C 
ATOM     87  H   UNL A   1      31.125  24.886  26.937  1.00  0.00     0.164 HD
ATOM     88  O   UNL A   1      32.143  22.840  27.721  1.00  0.00    -0.271 OA
BRANCH  86  89
ATOM     89  C   UNL A   1      33.735  23.024  25.891  1.00  0.00     0.266 C 
ATOM     90  C   UNL A   1      33.838  21.493  25.880  1.00  0.00     0.095 C 
ATOM     91  O   UNL A   1      35.010  23.546  26.327  1.00  0.00    -0.480 OA
ATOM     92  C   UNL A   1      35.280  21.390  25.558  1.00  0.00    -0.002 A 
ATOM     93  C   UNL A   1      35.889  22.598  25.867  1.00  0.00     0.123 A 
ATOM     94  C   UNL A   1      36.010  20.327  25.063  1.00  0.00     0.008 A 
ATOM     95  C   UNL A   1      37.242  22.797  25.702  1.00  0.00     0.047 A 
ATOM     96  C   UNL A   1      37.380  20.515  24.865  1.00  0.00     0.001 A 
ATOM     97  C   UNL A   1      37.993  21.741  25.184  1.00  0.00     0.004 A 
ENDBRANCH  86  89
ENDBRANCH  84  85
ENDBRANCH  77  80
ENDBRANCH  75  76
ENDBRANCH  74  75
ENDBRANCH   1  74
TORSDOF 15
ENDMDL
MODEL 3
REMARK VINA RESULT:     -10.4      4.999     11.302
REMARK SMILES O=C(NCCCNC(=O)[C@@H]1C=C[C@H](NC(=O)[C@@H]2Cc3ccccc3O2)C1)c1ccc(-c2c3nc(c(-c4c(F)cc(S(=O)(=O)[O-])cc4F)c4ccc([nH]4)c(-c4c(F)cc(S(=O)(=O)[O-])cc4F)c4nc(c(-c5c(F)cc(S(=O)(=O)[O-])cc5F)c5ccc2[nH]5)C=C4)C=C3)cc1
REMARK SMILES IDX 4 1 3 2 1 3 2 4 27 6 28 7 92 8 29 9 91 10 30 11 31 12 32 13
REMARK SMILES IDX 85 14 33 15 90 16 84 17 86 18 34 19 89 20 83 21 82 22 35 24
REMARK SMILES IDX 69 25 48 26 68 27 49 28 52 29 67 30 87 31 50 32 51 33 66 35
REMARK SMILES IDX 88 36 53 37 36 38 37 39 46 40 38 41 39 42 45 43 47 44 40 45
REMARK SMILES IDX 41 46 42 47 43 48 44 49 70 50 71 51 80 52 72 53 73 54 79 55
REMARK SMILES IDX 81 56 74 57 75 58 76 59 77 60 78 61 54 62 55 63 64 64 56 65
REMARK SMILES IDX 57 66 63 67 65 68 58 69 59 70 60 71 61 72 62 73 5 74 6 75
REMARK SMILES IDX 7 76 8 77 9 79 10 80 11 81 26 82 12 83 13 84 14 85 15 86
REMARK SMILES IDX 16 88 17 89 18 90 25 91 19 92 24 93 20 94 23 95 21 96 22 97
REMARK H PARENT 3 5 86 23 52 34 7 78 14 87
REMARK Flexibility Score: inf
ROOT
ATOM      1  C   UNL A   1      40.317  23.209  27.082  1.00  0.00     0.118 C 
ENDROOT
BRANCH   1   2
ATOM      2  N   UNL A   1      41.113  23.916  26.089  1.00  0.00    -0.352 N 
ATOM      3  O   UNL A   1      41.945  25.701  25.005  1.00  0.00    -0.269 OA
ATOM      4  C   UNL A   1      41.487  25.234  26.047  1.00  0.00     0.251 C 
ATOM      5  H   UNL A   1      41.429  23.366  25.335  1.00  0.00     0.163 HD
BRANCH   4   6
ATOM      6  C   UNL A   1      41.336  26.087  27.245  1.00  0.00     0.039 A 
ATOM      7  C   UNL A   1      42.278  27.079  27.532  1.00  0.00     0.014 A 
ATOM      8  C   UNL A   1      40.217  25.925  28.067  1.00  0.00     0.014 A 
ATOM      9  C   UNL A   1      42.169  27.819  28.703  1.00  0.00     0.010 A 
ATOM     10  C   UNL A   1      40.062  26.734  29.197  1.00  0.00     0.010 A 
ATOM     11  C   UNL A   1      41.046  27.676  29.533  1.00  0.00    -0.014 A 
BRANCH  11  12
ATOM     12  C   UNL A   1      40.883  28.591  30.690  1.00  0.00     0.031 A 
ATOM     13  C   UNL A   1      41.757  28.475  31.906  1.00  0.00     0.074 A 
ATOM     14  C   UNL A   1      39.936  29.549  30.618  1.00  0.00     0.049 A 
ATOM     15  N   UNL A   1      41.746  29.198  32.997  1.00  0.00    -0.248 NA
ATOM     16  C   UNL A   1      42.772  27.409  31.906  1.00  0.00     0.031 C 
ATOM     17  C   UNL A   1      39.018  29.740  29.490  1.00  0.00     0.029 A 
ATOM     18  N   UNL A   1      39.591  30.544  31.494  1.00  0.00    -0.354 N 
ATOM     19  C   UNL A   1      42.734  28.669  33.819  1.00  0.00     0.074 A 
ATOM     20  C   UNL A   1      43.313  27.547  33.110  1.00  0.00     0.031 C 
ATOM     21  C   UNL A   1      38.245  30.809  29.725  1.00  0.00     0.029 A 
ATOM     22  C   UNL A   1      38.563  31.340  31.045  1.00  0.00     0.049 A 
ATOM     23  H   UNL A   1      40.037  30.678  32.361  1.00  0.00     0.167 HD
ATOM     24  C   UNL A   1      43.123  29.090  35.046  1.00  0.00     0.037 A 
ATOM     25  C   UNL A   1      37.927  32.367  31.639  1.00  0.00     0.037 A 
ATOM     26  C   UNL A   1      42.545  30.220  35.732  1.00  0.00     0.049 A 
ATOM     27  C   UNL A   1      38.366  32.794  33.010  1.00  0.00     0.074 A 
ATOM     28  C   UNL A   1      42.898  30.749  36.962  1.00  0.00     0.029 A 
ATOM     29  N   UNL A   1      41.494  30.989  35.254  1.00  0.00    -0.354 N 
ATOM     30  N   UNL A   1      39.331  32.307  33.753  1.00  0.00    -0.248 NA
ATOM     31  C   UNL A   1      37.631  33.906  33.625  1.00  0.00     0.031 C 
ATOM     32  C   UNL A   1      42.028  31.806  37.250  1.00  0.00     0.029 A 
ATOM     33  C   UNL A   1      41.168  31.972  36.175  1.00  0.00     0.049 A 
ATOM     34  H   UNL A   1      41.046  30.856  34.388  1.00  0.00     0.167 HD
ATOM     35  C   UNL A   1      39.332  33.068  34.916  1.00  0.00     0.074 A 
ATOM     36  C   UNL A   1      38.286  34.058  34.767  1.00  0.00     0.031 C 
ATOM     37  C   UNL A   1      40.128  32.955  36.009  1.00  0.00     0.037 A 
BRANCH  24  38
ATOM     38  C   UNL A   1      44.217  28.327  35.745  1.00  0.00     0.058 A 
ATOM     39  C   UNL A   1      43.936  27.254  36.604  1.00  0.00     0.135 A 
ATOM     40  C   UNL A   1      45.566  28.624  35.488  1.00  0.00     0.135 A 
ATOM     41  F   UNL A   1      42.666  26.936  36.897  1.00  0.00    -0.206 F 
ATOM     42  C   UNL A   1      44.954  26.507  37.191  1.00  0.00     0.059 A 
ATOM     43  C   UNL A   1      46.600  27.876  36.045  1.00  0.00     0.059 A 
ATOM     44  F   UNL A   1      45.891  29.642  34.676  1.00  0.00    -0.206 F 
ATOM     45  C   UNL A   1      46.283  26.822  36.901  1.00  0.00     0.060 A 
BRANCH  45  46
ATOM     46  S   UNL A   1      47.589  25.824  37.648  1.00  0.00     0.124 S 
ATOM     47  O   UNL A   1      48.217  25.236  36.467  1.00  0.00    -0.237 OA
ATOM     48  O   UNL A   1      48.382  26.824  38.353  1.00  0.00    -0.237 OA
ATOM     49  O   UNL A   1      46.860  24.889  38.500  1.00  0.00    -0.744 OA
ENDBRANCH  45  46
ENDBRANCH  24  38
BRANCH  25  50
ATOM     50  C   UNL A   1      36.797  33.041  30.946  1.00  0.00     0.058 A 
ATOM     51  C   UNL A   1      35.466  32.783  31.304  1.00  0.00     0.135 A 
ATOM     52  C   UNL A   1      37.029  33.961  29.911  1.00  0.00     0.135 A 
ATOM     53  F   UNL A   1      35.193  31.910  32.286  1.00  0.00    -0.206 F 
ATOM     54  C   UNL A   1      34.404  33.390  30.643  1.00  0.00     0.059 A 
ATOM     55  C   UNL A   1      35.985  34.605  29.257  1.00  0.00     0.059 A 
ATOM     56  F   UNL A   1      38.285  34.259  29.543  1.00  0.00    -0.206 F 
ATOM     57  C   UNL A   1      34.675  34.300  29.618  1.00  0.00     0.060 A 
BRANCH  57  58
ATOM     58  S   UNL A   1      33.292  35.100  28.779  1.00  0.00     0.124 S 
ATOM     59  O   UNL A   1      32.492  35.561  29.908  1.00  0.00    -0.237 OA
ATOM     60  O   UNL A   1      33.962  36.139  28.003  1.00  0.00    -0.237 OA
ATOM     61  O   UNL A   1      32.707  34.018  27.991  1.00  0.00    -0.744 OA
ENDBRANCH  57  58
ENDBRANCH  25  50
BRANCH  37  62
ATOM     62  C   UNL A   1      39.917  33.950  37.115  1.00  0.00     0.058 A 
ATOM     63  C   UNL A   1      40.458  35.244  37.057  1.00  0.00     0.135 A 
ATOM     64  C   UNL A   1      39.133  33.616  38.230  1.00  0.00     0.135 A 
ATOM     65  F   UNL A   1      41.224  35.611  36.017  1.00  0.00    -0.206 F 
ATOM     66  C   UNL A   1      40.250  36.164  38.079  1.00  0.00     0.059 A 
ATOM     67  C   UNL A   1      38.887  34.529  39.250  1.00  0.00     0.059 A 
ATOM     68  F   UNL A   1      38.586  32.394  38.330  1.00  0.00    -0.206 F 
ATOM     69  C   UNL A   1      39.462  35.797  39.172  1.00  0.00     0.060 A 
BRANCH  69  70
ATOM     70  S   UNL A   1      39.173  37.010  40.477  1.00  0.00     0.124 S 
ATOM     71  O   UNL A   1      38.535  38.092  39.735  1.00  0.00    -0.237 OA
ATOM     72  O   UNL A   1      38.310  36.277  41.399  1.00  0.00    -0.237 OA
ATOM     73  O   UNL A   1      40.514  37.297  40.977  1.00  0.00    -0.744 OA
ENDBRANCH  69  70
ENDBRANCH  37  62
ENDBRANCH  11  12
ENDBRANCH   4   6
ENDBRANCH   1   2
BRANCH   1  74
ATOM     74  C   UNL A   1      39.170  22.436  26.445  1.00  0.00     0.042 C 
BRANCH  74  75
ATOM     75  C   UNL A   1      37.966  23.314  26.116  1.00  0.00     0.117 C 
BRANCH  75  76
ATOM     76  N   UNL A   1      37.751  23.382  24.684  1.00  0.00    -0.356 N 
ATOM     77  C   UNL A   1      36.620  23.113  23.969  1.00  0.00     0.227 C 
ATOM     78  H   UNL A   1      38.531  23.661  24.152  1.00  0.00     0.163 HD
ATOM     79  O   UNL A   1      36.712  23.086  22.743  1.00  0.00    -0.274 OA
BRANCH  77  80
ATOM     80  C   UNL A   1      35.287  22.950  24.713  1.00  0.00     0.103 C 
ATOM     81  C   UNL A   1      34.234  22.219  23.933  1.00  0.00    -0.016 C 
ATOM     82  C   UNL A   1      34.609  24.306  24.987  1.00  0.00     0.047 C 
ATOM     83  C   UNL A   1      33.230  23.012  23.553  1.00  0.00    -0.006 C 
ATOM     84  C   UNL A   1      33.415  24.407  24.026  1.00  0.00     0.106 C 
BRANCH  84  85
ATOM     85  N   UNL A   1      33.653  25.251  22.881  1.00  0.00    -0.347 N 
ATOM     86  C   UNL A   1      33.482  26.611  22.803  1.00  0.00     0.261 C 
ATOM     87  H   UNL A   1      33.975  24.804  22.065  1.00  0.00     0.164 HD
ATOM     88  O   UNL A   1      33.741  27.187  21.748  1.00  0.00    -0.271 OA
BRANCH  86  89
ATOM     89  C   UNL A   1      32.950  27.336  24.044  1.00  0.00     0.266 C 
ATOM     90  C   UNL A   1      32.032  28.495  23.634  1.00  0.00     0.095 C 
ATOM     91  O   UNL A   1      33.980  27.874  24.902  1.00  0.00    -0.480 OA
ATOM     92  C   UNL A   1      32.179  29.312  24.860  1.00  0.00    -0.002 A 
ATOM     93  C   UNL A   1      33.334  28.916  25.520  1.00  0.00     0.123 A 
ATOM     94  C   UNL A   1      31.392  30.335  25.351  1.00  0.00     0.008 A 
ATOM     95  C   UNL A   1      33.753  29.518  26.685  1.00  0.00     0.047 A 
ATOM     96  C   UNL A   1      31.785  30.945  26.544  1.00  0.00     0.001 A 
ATOM     97  C   UNL A   1      32.959  30.541  27.206  1.00  0.00     0.004 A 
ENDBRANCH  86  89
ENDBRANCH  84  85
ENDBRANCH  77  80
ENDBRANCH  75  76
ENDBRANCH  74  75
ENDBRANCH   1  74
TORSDOF 15
ENDMDL
