MODEL 1
REMARK VINA RESULT:     -13.2      0.000      0.000
REMARK SMILES O=C(C[C@H](NC(=O)[C@]12C[C@H]3C[C@H](C[C@H](C3)C1)C2)c1cccc([N+](=O)[O-])c1)NCCCNC(=O)c1ccc(-c2c3nc(c(-c4c(F)cc(S(=O)(=O)[O-])cc4F)c4ccc([nH]4)c(-c4c(F)cc(S(=O)(=O)[O-])cc4F)c4nc(c(-c5c(F)cc(S(=O)(=O)[O-])cc5F)c5ccc2[nH]5)C=C4)C=C3)cc1
REMARK SMILES IDX 29 1 28 2 27 3 1 4 2 5 3 7 4 8 18 9 19 10 26 11 20 12 22 13
REMARK SMILES IDX 21 14 23 15 24 16 25 17 5 18 6 19 7 21 8 22 9 23 16 24 17 25
REMARK SMILES IDX 10 26 14 27 12 28 11 29 15 30 13 31 30 32 31 33 32 34 33 36
REMARK SMILES IDX 34 37 35 38 99 39 36 40 98 41 37 42 38 43 39 44 92 45 40 46
REMARK SMILES IDX 97 47 91 48 93 49 41 50 96 51 90 52 89 53 42 55 76 56 55 57
REMARK SMILES IDX 75 58 56 59 59 60 74 61 94 62 57 63 58 64 73 66 95 67 60 68
REMARK SMILES IDX 43 69 44 70 53 71 45 72 46 73 52 74 54 75 47 76 48 77 49 78
REMARK SMILES IDX 50 79 51 80 77 81 78 82 87 83 79 84 80 85 86 86 88 87 81 88
REMARK SMILES IDX 82 89 83 90 84 91 85 92 61 93 62 94 71 95 63 96 64 97 70 98
REMARK SMILES IDX 72 99 65 100 66 101 67 102 68 103 69 104
REMARK H PARENT 27 6 5 20 31 35 93 54 59 65
REMARK Flexibility Score: inf
ROOT
ATOM      1  C   UNL A   1      31.605  32.011  26.901  1.00  0.00     0.042 C 
ENDROOT
BRANCH   1   2
ATOM      2  C   UNL A   1      31.845  30.536  26.601  1.00  0.00     0.117 C 
BRANCH   2   3
ATOM      3  N   UNL A   1      31.932  30.246  25.182  1.00  0.00    -0.356 N 
ATOM      4  O   UNL A   1      33.817  28.979  25.380  1.00  0.00    -0.275 OA
ATOM      5  C   UNL A   1      32.890  29.392  24.689  1.00  0.00     0.222 C 
ATOM      6  H   UNL A   1      31.295  30.668  24.562  1.00  0.00     0.163 HD
BRANCH   5   7
ATOM      7  C   UNL A   1      32.796  29.056  23.213  1.00  0.00     0.129 C 
BRANCH   7   8
ATOM      8  C   UNL A   1      31.777  27.961  22.848  1.00  0.00     0.122 C 
BRANCH   8   9
ATOM      9  C   UNL A   1      30.356  28.490  22.616  1.00  0.00    -0.018 A 
ATOM     10  C   UNL A   1      29.248  27.797  23.144  1.00  0.00     0.006 A 
ATOM     11  C   UNL A   1      30.094  29.678  21.917  1.00  0.00     0.091 A 
ATOM     12  C   UNL A   1      27.957  28.337  23.100  1.00  0.00     0.007 A 
ATOM     13  C   UNL A   1      28.822  30.271  21.973  1.00  0.00     0.269 A 
ATOM     14  C   UNL A   1      27.747  29.601  22.558  1.00  0.00     0.085 A 
BRANCH  13  15
ATOM     15  N   UNL A   1      28.652  31.659  21.522  1.00  0.00     0.062 N 
ATOM     16  O   UNL A   1      29.001  32.561  22.297  1.00  0.00    -0.258 OA
ATOM     17  O   UNL A   1      28.206  31.846  20.381  1.00  0.00    -0.258 OA
ENDBRANCH  13  15
ENDBRANCH   8   9
BRANCH   8  18
ATOM     18  N   UNL A   1      32.244  26.991  21.845  1.00  0.00    -0.348 N 
ATOM     19  C   UNL A   1      32.753  25.741  21.757  1.00  0.00     0.226 C 
ATOM     20  H   UNL A   1      32.156  27.377  20.944  1.00  0.00     0.164 HD
ATOM     21  O   UNL A   1      32.962  25.393  20.584  1.00  0.00    -0.274 OA
BRANCH  19  22
ATOM     22  C   UNL A   1      33.044  24.749  22.909  1.00  0.00     0.050 C 
ATOM     23  C   UNL A   1      31.831  24.383  23.779  1.00  0.00     0.020 C 
ATOM     24  C   UNL A   1      34.083  25.428  23.863  1.00  0.00     0.020 C 
ATOM     25  C   UNL A   1      33.705  23.459  22.384  1.00  0.00     0.020 C 
ATOM     26  C   UNL A   1      32.200  23.436  24.926  1.00  0.00    -0.010 C 
ATOM     27  C   UNL A   1      34.463  24.506  25.035  1.00  0.00    -0.010 C 
ATOM     28  C   UNL A   1      34.085  22.517  23.543  1.00  0.00    -0.010 C 
ATOM     29  C   UNL A   1      32.820  22.162  24.341  1.00  0.00     0.007 C 
ATOM     30  C   UNL A   1      33.206  24.149  25.838  1.00  0.00     0.007 C 
ATOM     31  C   UNL A   1      35.086  23.219  24.474  1.00  0.00     0.007 C 
ENDBRANCH  19  22
ENDBRANCH   8  18
ENDBRANCH   7   8
ENDBRANCH   5   7
ENDBRANCH   2   3
ENDBRANCH   1   2
BRANCH   1  32
ATOM     32  C   UNL A   1      32.830  32.757  27.414  1.00  0.00     0.118 C 
BRANCH  32  33
ATOM     33  N   UNL A   1      32.560  34.150  27.747  1.00  0.00    -0.352 N 
ATOM     34  C   UNL A   1      33.142  34.957  28.693  1.00  0.00     0.251 C 
ATOM     35  H   UNL A   1      31.853  34.578  27.211  1.00  0.00     0.163 HD
ATOM     36  O   UNL A   1      32.676  36.077  28.897  1.00  0.00    -0.269 OA
BRANCH  34  37
ATOM     37  C   UNL A   1      34.298  34.480  29.480  1.00  0.00     0.039 A 
ATOM     38  C   UNL A   1      34.070  33.897  30.730  1.00  0.00     0.014 A 
ATOM     39  C   UNL A   1      35.604  34.608  28.997  1.00  0.00     0.014 A 
ATOM     40  C   UNL A   1      35.141  33.381  31.463  1.00  0.00     0.010 A 
ATOM     41  C   UNL A   1      36.660  34.024  29.692  1.00  0.00     0.010 A 
ATOM     42  C   UNL A   1      36.442  33.406  30.933  1.00  0.00    -0.014 A 
BRANCH  42  43
ATOM     43  C   UNL A   1      37.589  32.798  31.657  1.00  0.00     0.031 A 
ATOM     44  C   UNL A   1      38.272  31.579  31.098  1.00  0.00     0.074 A 
ATOM     45  C   UNL A   1      37.969  33.296  32.850  1.00  0.00     0.049 A 
ATOM     46  N   UNL A   1      39.217  30.845  31.626  1.00  0.00    -0.248 NA
ATOM     47  C   UNL A   1      37.812  31.106  29.782  1.00  0.00     0.031 C 
ATOM     48  C   UNL A   1      37.362  34.450  33.519  1.00  0.00     0.029 A 
ATOM     49  N   UNL A   1      38.947  32.887  33.724  1.00  0.00    -0.354 N 
ATOM     50  C   UNL A   1      39.453  29.818  30.719  1.00  0.00     0.074 A 
ATOM     51  C   UNL A   1      38.513  29.992  29.632  1.00  0.00     0.031 C 
ATOM     52  C   UNL A   1      37.991  34.666  34.685  1.00  0.00     0.029 A 
ATOM     53  C   UNL A   1      39.013  33.641  34.873  1.00  0.00     0.049 A 
ATOM     54  H   UNL A   1      39.543  32.124  33.545  1.00  0.00     0.167 HD
ATOM     55  C   UNL A   1      40.382  28.834  30.775  1.00  0.00     0.037 A 
ATOM     56  C   UNL A   1      39.796  33.512  35.961  1.00  0.00     0.037 A 
ATOM     57  C   UNL A   1      41.328  28.680  31.849  1.00  0.00     0.049 A 
ATOM     58  C   UNL A   1      40.809  32.399  36.010  1.00  0.00     0.074 A 
ATOM     59  C   UNL A   1      42.343  27.746  31.974  1.00  0.00     0.029 A 
ATOM     60  N   UNL A   1      41.375  29.474  32.987  1.00  0.00    -0.354 N 
ATOM     61  N   UNL A   1      41.057  31.471  35.116  1.00  0.00    -0.248 NA
ATOM     62  C   UNL A   1      41.653  32.318  37.210  1.00  0.00     0.031 C 
ATOM     63  C   UNL A   1      42.968  27.942  33.209  1.00  0.00     0.029 A 
ATOM     64  C   UNL A   1      42.385  29.037  33.828  1.00  0.00     0.049 A 
ATOM     65  H   UNL A   1      40.778  30.235  33.168  1.00  0.00     0.167 HD
ATOM     66  C   UNL A   1      42.106  30.716  35.632  1.00  0.00     0.074 A 
ATOM     67  C   UNL A   1      42.452  31.303  36.909  1.00  0.00     0.031 C 
ATOM     68  C   UNL A   1      42.727  29.637  35.094  1.00  0.00     0.037 A 
BRANCH  55  69
ATOM     69  C   UNL A   1      40.420  27.842  29.641  1.00  0.00     0.058 A 
ATOM     70  C   UNL A   1      39.522  26.765  29.572  1.00  0.00     0.135 A 
ATOM     71  C   UNL A   1      41.341  27.994  28.591  1.00  0.00     0.135 A 
ATOM     72  F   UNL A   1      38.630  26.562  30.554  1.00  0.00    -0.206 F 
ATOM     73  C   UNL A   1      39.559  25.854  28.521  1.00  0.00     0.059 A 
ATOM     74  C   UNL A   1      41.374  27.113  27.514  1.00  0.00     0.059 A 
ATOM     75  F   UNL A   1      42.223  29.006  28.605  1.00  0.00    -0.206 F 
ATOM     76  C   UNL A   1      40.488  26.036  27.496  1.00  0.00     0.060 A 
BRANCH  76  77
ATOM     77  S   UNL A   1      40.520  24.845  26.141  1.00  0.00     0.124 S 
ATOM     78  O   UNL A   1      39.111  24.477  26.044  1.00  0.00    -0.237 OA
ATOM     79  O   UNL A   1      41.045  25.642  25.038  1.00  0.00    -0.237 OA
ATOM     80  O   UNL A   1      41.408  23.795  26.630  1.00  0.00    -0.744 OA
ENDBRANCH  76  77
ENDBRANCH  55  69
BRANCH  56  81
ATOM     81  C   UNL A   1      39.665  34.472  37.092  1.00  0.00     0.058 A 
ATOM     82  C   UNL A   1      40.248  35.747  37.028  1.00  0.00     0.135 A 
ATOM     83  C   UNL A   1      38.950  34.140  38.253  1.00  0.00     0.135 A 
ATOM     84  F   UNL A   1      40.950  36.110  35.944  1.00  0.00    -0.206 F 
ATOM     85  C   UNL A   1      40.145  36.650  38.082  1.00  0.00     0.059 A 
ATOM     86  C   UNL A   1      38.807  35.037  39.308  1.00  0.00     0.059 A 
ATOM     87  F   UNL A   1      38.358  32.940  38.359  1.00  0.00    -0.206 F 
ATOM     88  C   UNL A   1      39.418  36.286  39.216  1.00  0.00     0.060 A 
BRANCH  88  89
ATOM     89  S   UNL A   1      39.254  37.484  40.558  1.00  0.00     0.124 S 
ATOM     90  O   UNL A   1      38.779  36.641  41.649  1.00  0.00    -0.237 OA
ATOM     91  O   UNL A   1      40.618  37.987  40.686  1.00  0.00    -0.237 OA
ATOM     92  O   UNL A   1      38.286  38.444  40.034  1.00  0.00    -0.744 OA
ENDBRANCH  88  89
ENDBRANCH  56  81
BRANCH  68  93
ATOM     93  C   UNL A   1      43.877  29.042  35.860  1.00  0.00     0.058 A 
ATOM     94  C   UNL A   1      43.710  27.948  36.724  1.00  0.00     0.135 A 
ATOM     95  C   UNL A   1      45.180  29.541  35.682  1.00  0.00     0.135 A 
ATOM     96  F   UNL A   1      42.487  27.437  36.936  1.00  0.00    -0.206 F 
ATOM     97  C   UNL A   1      44.787  27.385  37.402  1.00  0.00     0.059 A 
ATOM     98  C   UNL A   1      46.275  28.973  36.324  1.00  0.00     0.059 A 
ATOM     99  F   UNL A   1      45.399  30.579  34.860  1.00  0.00    -0.206 F 
ATOM    100  C   UNL A   1      46.067  27.902  37.192  1.00  0.00     0.060 A 
BRANCH 100 101
ATOM    101  S   UNL A   1      47.460  27.136  38.047  1.00  0.00     0.124 S 
ATOM    102  O   UNL A   1      48.500  27.192  37.026  1.00  0.00    -0.237 OA
ATOM    103  O   UNL A   1      47.646  28.020  39.192  1.00  0.00    -0.237 OA
ATOM    104  O   UNL A   1      46.968  25.799  38.368  1.00  0.00    -0.744 OA
ENDBRANCH 100 101
ENDBRANCH  68  93
ENDBRANCH  42  43
ENDBRANCH  34  37
ENDBRANCH  32  33
ENDBRANCH   1  32
TORSDOF 18
ENDMDL
MODEL 2
REMARK VINA RESULT:     -13.0      3.290      9.330
REMARK SMILES O=C(C[C@H](NC(=O)[C@]12C[C@H]3C[C@H](C[C@H](C3)C1)C2)c1cccc([N+](=O)[O-])c1)NCCCNC(=O)c1ccc(-c2c3nc(c(-c4c(F)cc(S(=O)(=O)[O-])cc4F)c4ccc([nH]4)c(-c4c(F)cc(S(=O)(=O)[O-])cc4F)c4nc(c(-c5c(F)cc(S(=O)(=O)[O-])cc5F)c5ccc2[nH]5)C=C4)C=C3)cc1
REMARK SMILES IDX 29 1 28 2 27 3 1 4 2 5 3 7 4 8 18 9 19 10 26 11 20 12 22 13
REMARK SMILES IDX 21 14 23 15 24 16 25 17 5 18 6 19 7 21 8 22 9 23 16 24 17 25
REMARK SMILES IDX 10 26 14 27 12 28 11 29 15 30 13 31 30 32 31 33 32 34 33 36
REMARK SMILES IDX 34 37 35 38 99 39 36 40 98 41 37 42 38 43 39 44 92 45 40 46
REMARK SMILES IDX 97 47 91 48 93 49 41 50 96 51 90 52 89 53 42 55 76 56 55 57
REMARK SMILES IDX 75 58 56 59 59 60 74 61 94 62 57 63 58 64 73 66 95 67 60 68
REMARK SMILES IDX 43 69 44 70 53 71 45 72 46 73 52 74 54 75 47 76 48 77 49 78
REMARK SMILES IDX 50 79 51 80 77 81 78 82 87 83 79 84 80 85 86 86 88 87 81 88
REMARK SMILES IDX 82 89 83 90 84 91 85 92 61 93 62 94 71 95 63 96 64 97 70 98
REMARK SMILES IDX 72 99 65 100 66 101 67 102 68 103 69 104
REMARK H PARENT 27 6 5 20 31 35 93 54 59 65
REMARK Flexibility Score: inf
ROOT
ATOM      1  C   UNL A   1      38.932  22.288  26.304  1.00  0.00     0.042 C 
ENDROOT
BRANCH   1   2
ATOM      2  C   UNL A   1      37.762  23.102  25.768  1.00  0.00     0.117 C 
BRANCH   2   3
ATOM      3  N   UNL A   1      36.489  22.736  26.361  1.00  0.00    -0.356 N 
ATOM      4  O   UNL A   1      35.982  21.202  24.752  1.00  0.00    -0.275 OA
ATOM      5  C   UNL A   1      35.724  21.723  25.835  1.00  0.00     0.222 C 
ATOM      6  H   UNL A   1      36.167  23.223  27.154  1.00  0.00     0.163 HD
BRANCH   5   7
ATOM      7  C   UNL A   1      34.485  21.337  26.618  1.00  0.00     0.129 C 
BRANCH   7   8
ATOM      8  C   UNL A   1      33.159  21.414  25.840  1.00  0.00     0.122 C 
BRANCH   8   9
ATOM      9  C   UNL A   1      32.813  20.129  25.077  1.00  0.00    -0.018 A 
ATOM     10  C   UNL A   1      32.442  20.191  23.719  1.00  0.00     0.006 A 
ATOM     11  C   UNL A   1      32.880  18.857  25.665  1.00  0.00     0.091 A 
ATOM     12  C   UNL A   1      32.287  19.032  22.948  1.00  0.00     0.007 A 
ATOM     13  C   UNL A   1      32.835  17.701  24.869  1.00  0.00     0.269 A 
ATOM     14  C   UNL A   1      32.532  17.782  23.509  1.00  0.00     0.085 A 
BRANCH  13  15
ATOM     15  N   UNL A   1      33.233  16.410  25.447  1.00  0.00     0.062 N 
ATOM     16  O   UNL A   1      34.446  16.179  25.555  1.00  0.00    -0.258 OA
ATOM     17  O   UNL A   1      32.335  15.644  25.825  1.00  0.00    -0.258 OA
ENDBRANCH  13  15
ENDBRANCH   8   9
BRANCH   8  18
ATOM     18  N   UNL A   1      32.039  22.009  26.585  1.00  0.00    -0.348 N 
ATOM     19  C   UNL A   1      31.256  23.112  26.591  1.00  0.00     0.226 C 
ATOM     20  H   UNL A   1      31.770  21.407  27.316  1.00  0.00     0.164 HD
ATOM     21  O   UNL A   1      30.400  23.084  27.489  1.00  0.00    -0.274 OA
BRANCH  19  22
ATOM     22  C   UNL A   1      31.300  24.315  25.618  1.00  0.00     0.050 C 
ATOM     23  C   UNL A   1      32.621  25.099  25.606  1.00  0.00     0.020 C 
ATOM     24  C   UNL A   1      30.190  25.324  26.066  1.00  0.00     0.020 C 
ATOM     25  C   UNL A   1      30.948  23.883  24.180  1.00  0.00     0.020 C 
ATOM     26  C   UNL A   1      32.578  26.302  24.657  1.00  0.00    -0.010 C 
ATOM     27  C   UNL A   1      30.131  26.550  25.138  1.00  0.00    -0.010 C 
ATOM     28  C   UNL A   1      30.894  25.098  23.232  1.00  0.00    -0.010 C 
ATOM     29  C   UNL A   1      32.259  25.807  23.241  1.00  0.00     0.007 C 
ATOM     30  C   UNL A   1      31.489  27.265  25.144  1.00  0.00     0.007 C 
ATOM     31  C   UNL A   1      29.815  26.081  23.711  1.00  0.00     0.007 C 
ENDBRANCH  19  22
ENDBRANCH   8  18
ENDBRANCH   7   8
ENDBRANCH   5   7
ENDBRANCH   2   3
ENDBRANCH   1   2
BRANCH   1  32
ATOM     32  C   UNL A   1      39.982  23.107  27.045  1.00  0.00     0.118 C 
BRANCH  32  33
ATOM     33  N   UNL A   1      41.097  23.516  26.200  1.00  0.00    -0.352 N 
ATOM     34  C   UNL A   1      41.805  24.692  26.187  1.00  0.00     0.251 C 
ATOM     35  H   UNL A   1      41.387  22.847  25.538  1.00  0.00     0.163 HD
ATOM     36  O   UNL A   1      42.636  24.884  25.301  1.00  0.00    -0.269 OA
BRANCH  34  37
ATOM     37  C   UNL A   1      41.556  25.731  27.209  1.00  0.00     0.039 A 
ATOM     38  C   UNL A   1      40.546  25.522  28.152  1.00  0.00     0.014 A 
ATOM     39  C   UNL A   1      42.306  26.910  27.239  1.00  0.00     0.014 A 
ATOM     40  C   UNL A   1      40.336  26.460  29.166  1.00  0.00     0.010 A 
ATOM     41  C   UNL A   1      42.148  27.805  28.294  1.00  0.00     0.010 A 
ATOM     42  C   UNL A   1      41.160  27.592  29.268  1.00  0.00    -0.014 A 
BRANCH  42  43
ATOM     43  C   UNL A   1      41.008  28.569  30.378  1.00  0.00     0.031 A 
ATOM     44  C   UNL A   1      41.876  28.459  31.602  1.00  0.00     0.074 A 
ATOM     45  C   UNL A   1      40.041  29.507  30.318  1.00  0.00     0.049 A 
ATOM     46  N   UNL A   1      41.828  29.146  32.715  1.00  0.00    -0.248 NA
ATOM     47  C   UNL A   1      42.920  27.421  31.585  1.00  0.00     0.031 C 
ATOM     48  C   UNL A   1      39.109  29.692  29.204  1.00  0.00     0.029 A 
ATOM     49  N   UNL A   1      39.670  30.472  31.222  1.00  0.00    -0.354 N 
ATOM     50  C   UNL A   1      42.819  28.614  33.532  1.00  0.00     0.074 A 
ATOM     51  C   UNL A   1      43.416  27.512  32.809  1.00  0.00     0.031 C 
ATOM     52  C   UNL A   1      38.287  30.717  29.482  1.00  0.00     0.029 A 
ATOM     53  C   UNL A   1      38.600  31.233  30.811  1.00  0.00     0.049 A 
ATOM     54  H   UNL A   1      40.127  30.606  32.084  1.00  0.00     0.167 HD
ATOM     55  C   UNL A   1      43.212  29.022  34.763  1.00  0.00     0.037 A 
ATOM     56  C   UNL A   1      37.935  32.222  31.439  1.00  0.00     0.037 A 
ATOM     57  C   UNL A   1      42.627  30.133  35.468  1.00  0.00     0.049 A 
ATOM     58  C   UNL A   1      38.378  32.645  32.815  1.00  0.00     0.074 A 
ATOM     59  C   UNL A   1      42.989  30.658  36.697  1.00  0.00     0.029 A 
ATOM     60  N   UNL A   1      41.557  30.889  35.011  1.00  0.00    -0.354 N 
ATOM     61  N   UNL A   1      39.354  32.168  33.550  1.00  0.00    -0.248 NA
ATOM     62  C   UNL A   1      37.633  33.744  33.445  1.00  0.00     0.031 C 
ATOM     63  C   UNL A   1      42.105  31.695  37.007  1.00  0.00     0.029 A 
ATOM     64  C   UNL A   1      41.231  31.860  35.944  1.00  0.00     0.049 A 
ATOM     65  H   UNL A   1      41.099  30.756  34.151  1.00  0.00     0.167 HD
ATOM     66  C   UNL A   1      39.361  32.931  34.714  1.00  0.00     0.074 A 
ATOM     67  C   UNL A   1      38.299  33.905  34.581  1.00  0.00     0.031 C 
ATOM     68  C   UNL A   1      40.176  32.832  35.794  1.00  0.00     0.037 A 
BRANCH  55  69
ATOM     69  C   UNL A   1      44.326  28.259  35.430  1.00  0.00     0.058 A 
ATOM     70  C   UNL A   1      45.674  28.613  35.254  1.00  0.00     0.135 A 
ATOM     71  C   UNL A   1      44.041  27.183  36.289  1.00  0.00     0.135 A 
ATOM     72  F   UNL A   1      46.006  29.623  34.434  1.00  0.00    -0.206 F 
ATOM     73  C   UNL A   1      46.699  27.908  35.874  1.00  0.00     0.059 A 
ATOM     74  C   UNL A   1      45.050  26.484  36.945  1.00  0.00     0.059 A 
ATOM     75  F   UNL A   1      42.772  26.801  36.495  1.00  0.00    -0.206 F 
ATOM     76  C   UNL A   1      46.377  26.845  36.719  1.00  0.00     0.060 A 
BRANCH  76  77
ATOM     77  S   UNL A   1      47.721  25.942  37.517  1.00  0.00     0.124 S 
ATOM     78  O   UNL A   1      47.892  26.705  38.750  1.00  0.00    -0.237 OA
ATOM     79  O   UNL A   1      47.151  24.608  37.672  1.00  0.00    -0.237 OA
ATOM     80  O   UNL A   1      48.818  26.046  36.560  1.00  0.00    -0.744 OA
ENDBRANCH  76  77
ENDBRANCH  55  69
BRANCH  56  81
ATOM     81  C   UNL A   1      36.787  32.893  30.768  1.00  0.00     0.058 A 
ATOM     82  C   UNL A   1      35.465  32.588  31.124  1.00  0.00     0.135 A 
ATOM     83  C   UNL A   1      36.988  33.854  29.766  1.00  0.00     0.135 A 
ATOM     84  F   UNL A   1      35.220  31.669  32.071  1.00  0.00    -0.206 F 
ATOM     85  C   UNL A   1      34.382  33.196  30.498  1.00  0.00     0.059 A 
ATOM     86  C   UNL A   1      35.921  34.499  29.146  1.00  0.00     0.059 A 
ATOM     87  F   UNL A   1      38.233  34.195  29.399  1.00  0.00    -0.206 F 
ATOM     88  C   UNL A   1      34.622  34.155  29.511  1.00  0.00     0.060 A 
BRANCH  88  89
ATOM     89  S   UNL A   1      33.208  34.970  28.738  1.00  0.00     0.124 S 
ATOM     90  O   UNL A   1      32.358  35.243  29.891  1.00  0.00    -0.237 OA
ATOM     91  O   UNL A   1      33.831  36.132  28.112  1.00  0.00    -0.237 OA
ATOM     92  O   UNL A   1      32.707  33.961  27.808  1.00  0.00    -0.744 OA
ENDBRANCH  88  89
ENDBRANCH  56  81
BRANCH  68  93
ATOM     93  C   UNL A   1      39.985  33.832  36.903  1.00  0.00     0.058 A 
ATOM     94  C   UNL A   1      40.665  35.060  36.922  1.00  0.00     0.135 A 
ATOM     95  C   UNL A   1      39.062  33.578  37.932  1.00  0.00     0.135 A 
ATOM     96  F   UNL A   1      41.561  35.351  35.968  1.00  0.00    -0.206 F 
ATOM     97  C   UNL A   1      40.454  35.992  37.935  1.00  0.00     0.059 A 
ATOM     98  C   UNL A   1      38.813  34.508  38.936  1.00  0.00     0.059 A 
ATOM     99  F   UNL A   1      38.377  32.424  37.957  1.00  0.00    -0.206 F 
ATOM    100  C   UNL A   1      39.522  35.708  38.936  1.00  0.00     0.060 A 
BRANCH 100 101
ATOM    101  S   UNL A   1      39.231  36.942  40.220  1.00  0.00     0.124 S 
ATOM    102  O   UNL A   1      38.399  36.198  41.161  1.00  0.00    -0.237 OA
ATOM    103  O   UNL A   1      40.584  37.245  40.673  1.00  0.00    -0.237 OA
ATOM    104  O   UNL A   1      38.557  38.023  39.507  1.00  0.00    -0.744 OA
ENDBRANCH 100 101
ENDBRANCH  68  93
ENDBRANCH  42  43
ENDBRANCH  34  37
ENDBRANCH  32  33
ENDBRANCH   1  32
TORSDOF 18
ENDMDL
MODEL 3
REMARK VINA RESULT:     -12.9      6.046     10.566
REMARK SMILES O=C(C[C@H](NC(=O)[C@]12C[C@H]3C[C@H](C[C@H](C3)C1)C2)c1cccc([N+](=O)[O-])c1)NCCCNC(=O)c1ccc(-c2c3nc(c(-c4c(F)cc(S(=O)(=O)[O-])cc4F)c4ccc([nH]4)c(-c4c(F)cc(S(=O)(=O)[O-])cc4F)c4nc(c(-c5c(F)cc(S(=O)(=O)[O-])cc5F)c5ccc2[nH]5)C=C4)C=C3)cc1
REMARK SMILES IDX 29 1 28 2 27 3 1 4 2 5 3 7 4 8 18 9 19 10 26 11 20 12 22 13
REMARK SMILES IDX 21 14 23 15 24 16 25 17 5 18 6 19 7 21 8 22 9 23 16 24 17 25
REMARK SMILES IDX 10 26 14 27 12 28 11 29 15 30 13 31 30 32 31 33 32 34 33 36
REMARK SMILES IDX 34 37 35 38 99 39 36 40 98 41 37 42 38 43 39 44 92 45 40 46
REMARK SMILES IDX 97 47 91 48 93 49 41 50 96 51 90 52 89 53 42 55 76 56 55 57
REMARK SMILES IDX 75 58 56 59 59 60 74 61 94 62 57 63 58 64 73 66 95 67 60 68
REMARK SMILES IDX 43 69 44 70 53 71 45 72 46 73 52 74 54 75 47 76 48 77 49 78
REMARK SMILES IDX 50 79 51 80 77 81 78 82 87 83 79 84 80 85 86 86 88 87 81 88
REMARK SMILES IDX 82 89 83 90 84 91 85 92 61 93 62 94 71 95 63 96 64 97 70 98
REMARK SMILES IDX 72 99 65 100 66 101 67 102 68 103 69 104
REMARK H PARENT 27 6 5 20 31 35 93 54 59 65
REMARK Flexibility Score: inf
ROOT
ATOM      1  C   UNL A   1      34.386  31.041  27.623  1.00  0.00     0.042 C 
ENDROOT
BRANCH   1   2
ATOM      2  C   UNL A   1      34.240  29.589  27.187  1.00  0.00     0.117 C 
BRANCH   2   3
ATOM      3  N   UNL A   1      34.020  29.436  25.761  1.00  0.00    -0.356 N 
ATOM      4  O   UNL A   1      31.797  28.979  25.975  1.00  0.00    -0.275 OA
ATOM      5  C   UNL A   1      32.760  29.225  25.254  1.00  0.00     0.222 C 
ATOM      6  H   UNL A   1      34.787  29.485  25.145  1.00  0.00     0.163 HD
BRANCH   5   7
ATOM      7  C   UNL A   1      32.634  29.222  23.743  1.00  0.00     0.129 C 
BRANCH   7   8
ATOM      8  C   UNL A   1      31.719  28.131  23.159  1.00  0.00     0.122 C 
BRANCH   8   9
ATOM      9  C   UNL A   1      30.305  28.623  22.821  1.00  0.00    -0.018 A 
ATOM     10  C   UNL A   1      29.180  27.902  23.267  1.00  0.00     0.006 A 
ATOM     11  C   UNL A   1      30.066  29.802  22.099  1.00  0.00     0.091 A 
ATOM     12  C   UNL A   1      27.882  28.409  23.126  1.00  0.00     0.007 A 
ATOM     13  C   UNL A   1      28.779  30.363  22.058  1.00  0.00     0.269 A 
ATOM     14  C   UNL A   1      27.681  29.667  22.565  1.00  0.00     0.085 A 
BRANCH  13  15
ATOM     15  N   UNL A   1      28.608  31.744  21.590  1.00  0.00     0.062 N 
ATOM     16  O   UNL A   1      29.051  32.653  22.308  1.00  0.00    -0.258 OA
ATOM     17  O   UNL A   1      28.065  31.921  20.490  1.00  0.00    -0.258 OA
ENDBRANCH  13  15
ENDBRANCH   8   9
BRANCH   8  18
ATOM     18  N   UNL A   1      32.341  27.289  22.125  1.00  0.00    -0.348 N 
ATOM     19  C   UNL A   1      32.886  26.061  21.964  1.00  0.00     0.226 C 
ATOM     20  H   UNL A   1      32.371  27.779  21.272  1.00  0.00     0.164 HD
ATOM     21  O   UNL A   1      33.263  25.856  20.799  1.00  0.00    -0.274 OA
BRANCH  19  22
ATOM     22  C   UNL A   1      33.037  24.942  23.022  1.00  0.00     0.050 C 
ATOM     23  C   UNL A   1      31.743  24.556  23.755  1.00  0.00     0.020 C 
ATOM     24  C   UNL A   1      34.028  25.460  24.117  1.00  0.00     0.020 C 
ATOM     25  C   UNL A   1      33.676  23.679  22.412  1.00  0.00     0.020 C 
ATOM     26  C   UNL A   1      31.974  23.478  24.819  1.00  0.00    -0.010 C 
ATOM     27  C   UNL A   1      34.270  24.403  25.208  1.00  0.00    -0.010 C 
ATOM     28  C   UNL A   1      33.918  22.602  23.489  1.00  0.00    -0.010 C 
ATOM     29  C   UNL A   1      32.578  22.238  24.148  1.00  0.00     0.007 C 
ATOM     30  C   UNL A   1      32.937  24.036  25.873  1.00  0.00     0.007 C 
ATOM     31  C   UNL A   1      34.873  23.148  24.561  1.00  0.00     0.007 C 
ENDBRANCH  19  22
ENDBRANCH   8  18
ENDBRANCH   7   8
ENDBRANCH   5   7
ENDBRANCH   2   3
ENDBRANCH   1   2
BRANCH   1  32
ATOM     32  C   UNL A   1      35.643  31.333  28.433  1.00  0.00     0.118 C 
BRANCH  32  33
ATOM     33  N   UNL A   1      35.518  30.977  29.840  1.00  0.00    -0.352 N 
ATOM     34  C   UNL A   1      36.427  30.382  30.681  1.00  0.00     0.251 C 
ATOM     35  H   UNL A   1      34.650  31.195  30.251  1.00  0.00     0.163 HD
ATOM     36  O   UNL A   1      36.073  30.052  31.812  1.00  0.00    -0.269 OA
BRANCH  34  37
ATOM     37  C   UNL A   1      37.808  30.115  30.228  1.00  0.00     0.039 A 
ATOM     38  C   UNL A   1      38.800  29.884  31.185  1.00  0.00     0.014 A 
ATOM     39  C   UNL A   1      38.132  30.096  28.868  1.00  0.00     0.014 A 
ATOM     40  C   UNL A   1      40.099  29.565  30.779  1.00  0.00     0.010 A 
ATOM     41  C   UNL A   1      39.405  29.702  28.464  1.00  0.00     0.010 A 
ATOM     42  C   UNL A   1      40.404  29.435  29.414  1.00  0.00    -0.014 A 
BRANCH  42  43
ATOM     43  C   UNL A   1      41.757  29.025  28.954  1.00  0.00     0.031 A 
ATOM     44  C   UNL A   1      42.859  30.045  28.852  1.00  0.00     0.074 A 
ATOM     45  C   UNL A   1      41.975  27.755  28.560  1.00  0.00     0.049 A 
ATOM     46  N   UNL A   1      44.071  29.909  28.379  1.00  0.00    -0.248 NA
ATOM     47  C   UNL A   1      42.548  31.407  29.319  1.00  0.00     0.031 C 
ATOM     48  C   UNL A   1      40.978  26.681  28.573  1.00  0.00     0.029 A 
ATOM     49  N   UNL A   1      43.101  27.153  28.054  1.00  0.00    -0.354 N 
ATOM     50  C   UNL A   1      44.659  31.165  28.475  1.00  0.00     0.074 A 
ATOM     51  C   UNL A   1      43.653  32.063  29.001  1.00  0.00     0.031 C 
ATOM     52  C   UNL A   1      41.541  25.551  28.117  1.00  0.00     0.029 A 
ATOM     53  C   UNL A   1      42.922  25.827  27.732  1.00  0.00     0.049 A 
ATOM     54  H   UNL A   1      43.955  27.626  27.933  1.00  0.00     0.167 HD
ATOM     55  C   UNL A   1      45.928  31.532  28.175  1.00  0.00     0.037 A 
ATOM     56  C   UNL A   1      43.768  24.938  27.177  1.00  0.00     0.037 A 
ATOM     57  C   UNL A   1      46.930  30.628  27.673  1.00  0.00     0.049 A 
ATOM     58  C   UNL A   1      45.169  25.374  26.834  1.00  0.00     0.074 A 
ATOM     59  C   UNL A   1      48.259  30.890  27.387  1.00  0.00     0.029 A 
ATOM     60  N   UNL A   1      46.715  29.289  27.376  1.00  0.00    -0.354 N 
ATOM     61  N   UNL A   1      45.726  26.552  26.985  1.00  0.00    -0.248 NA
ATOM     62  C   UNL A   1      46.057  24.359  26.251  1.00  0.00     0.031 C 
ATOM     63  C   UNL A   1      48.833  29.725  26.868  1.00  0.00     0.029 A 
ATOM     64  C   UNL A   1      47.881  28.719  26.889  1.00  0.00     0.049 A 
ATOM     65  H   UNL A   1      45.862  28.815  27.496  1.00  0.00     0.167 HD
ATOM     66  C   UNL A   1      47.038  26.411  26.546  1.00  0.00     0.074 A 
ATOM     67  C   UNL A   1      47.194  25.032  26.134  1.00  0.00     0.031 C 
ATOM     68  C   UNL A   1      48.026  27.341  26.492  1.00  0.00     0.037 A 
BRANCH  55  69
ATOM     69  C   UNL A   1      46.306  32.976  28.379  1.00  0.00     0.058 A 
ATOM     70  C   UNL A   1      46.138  33.934  27.367  1.00  0.00     0.135 A 
ATOM     71  C   UNL A   1      46.808  33.414  29.616  1.00  0.00     0.135 A 
ATOM     72  F   UNL A   1      45.676  33.570  26.160  1.00  0.00    -0.206 F 
ATOM     73  C   UNL A   1      46.485  35.267  27.561  1.00  0.00     0.059 A 
ATOM     74  C   UNL A   1      47.131  34.749  29.843  1.00  0.00     0.059 A 
ATOM     75  F   UNL A   1      46.989  32.542  30.620  1.00  0.00    -0.206 F 
ATOM     76  C   UNL A   1      46.981  35.665  28.803  1.00  0.00     0.060 A 
BRANCH  76  77
ATOM     77  S   UNL A   1      47.425  37.399  29.037  1.00  0.00     0.124 S 
ATOM     78  O   UNL A   1      46.755  38.026  27.902  1.00  0.00    -0.237 OA
ATOM     79  O   UNL A   1      46.857  37.691  30.349  1.00  0.00    -0.237 OA
ATOM     80  O   UNL A   1      48.883  37.389  28.975  1.00  0.00    -0.744 OA
ENDBRANCH  76  77
ENDBRANCH  55  69
BRANCH  56  81
ATOM     81  C   UNL A   1      43.321  23.541  26.921  1.00  0.00     0.058 A 
ATOM     82  C   UNL A   1      43.180  22.625  27.974  1.00  0.00     0.135 A 
ATOM     83  C   UNL A   1      43.018  23.097  25.625  1.00  0.00     0.135 A 
ATOM     84  F   UNL A   1      43.465  22.998  29.231  1.00  0.00    -0.206 F 
ATOM     85  C   UNL A   1      42.775  21.313  27.750  1.00  0.00     0.059 A 
ATOM     86  C   UNL A   1      42.582  21.798  25.379  1.00  0.00     0.059 A 
ATOM     87  F   UNL A   1      43.120  23.939  24.584  1.00  0.00    -0.206 F 
ATOM     88  C   UNL A   1      42.474  20.911  26.447  1.00  0.00     0.060 A 
BRANCH  88  89
ATOM     89  S   UNL A   1      41.907  19.218  26.175  1.00  0.00     0.124 S 
ATOM     90  O   UNL A   1      42.681  18.833  25.001  1.00  0.00    -0.237 OA
ATOM     91  O   UNL A   1      42.278  18.567  27.428  1.00  0.00    -0.237 OA
ATOM     92  O   UNL A   1      40.471  19.376  25.961  1.00  0.00    -0.744 OA
ENDBRANCH  88  89
ENDBRANCH  56  81
BRANCH  68  93
ATOM     93  C   UNL A   1      49.379  26.891  26.012  1.00  0.00     0.058 A 
ATOM     94  C   UNL A   1      49.796  27.075  24.684  1.00  0.00     0.135 A 
ATOM     95  C   UNL A   1      50.295  26.318  26.912  1.00  0.00     0.135 A 
ATOM     96  F   UNL A   1      48.960  27.610  23.782  1.00  0.00    -0.206 F 
ATOM     97  C   UNL A   1      51.063  26.686  24.260  1.00  0.00     0.059 A 
ATOM     98  C   UNL A   1      51.577  25.952  26.517  1.00  0.00     0.059 A 
ATOM     99  F   UNL A   1      49.952  26.129  28.196  1.00  0.00    -0.206 F 
ATOM    100  C   UNL A   1      51.949  26.129  25.185  1.00  0.00     0.060 A 
BRANCH 100 101
ATOM    101  S   UNL A   1      53.602  25.665  24.629  1.00  0.00     0.124 S 
ATOM    102  O   UNL A   1      53.673  24.269  25.046  1.00  0.00    -0.237 OA
ATOM    103  O   UNL A   1      53.522  25.893  23.190  1.00  0.00    -0.237 OA
ATOM    104  O   UNL A   1      54.475  26.582  25.356  1.00  0.00    -0.744 OA
ENDBRANCH 100 101
ENDBRANCH  68  93
ENDBRANCH  42  43
ENDBRANCH  34  37
ENDBRANCH  32  33
ENDBRANCH   1  32
TORSDOF 18
ENDMDL
