MODEL 1
REMARK VINA RESULT:     -14.1      0.000      0.000
REMARK SMILES CC1=Nc2c(c(C)nn2-c2ccc(F)cc2)[C@H](c2ccc(C(=O)NCCCNC(=O)c3ccc(-c4c5nc(c(-c6c(F)cc(S(=O)(=O)[O-])cc6F)c6ccc([nH]6)c(-c6c(F)cc(S(=O)(=O)[O-])cc6F)c6nc(c(-c7c(F)cc(S(=O)(=O)[O-])cc7F)c7ccc4[nH]7)C=C6)C=C5)cc3)cc2)S1
REMARK SMILES IDX 26 1 25 2 24 3 22 4 23 5 21 7 18 8 19 9 98 10 20 11 97 12
REMARK SMILES IDX 17 13 1 14 2 15 3 16 99 17 4 18 5 19 9 20 6 21 8 22 7 23
REMARK SMILES IDX 10 24 11 25 16 26 12 27 15 28 13 29 14 30 27 31 28 32 29 33
REMARK SMILES IDX 30 35 31 36 32 37 96 38 33 39 95 40 34 41 35 42 36 43 89 44
REMARK SMILES IDX 37 45 94 46 88 47 90 48 38 49 93 50 87 51 86 52 39 54 73 55
REMARK SMILES IDX 52 56 72 57 53 58 56 59 71 60 91 61 54 62 55 63 70 65 92 66
REMARK SMILES IDX 57 67 40 68 41 69 50 70 42 71 43 72 49 73 51 74 44 75 45 76
REMARK SMILES IDX 46 77 47 78 48 79 74 80 75 81 84 82 76 83 77 84 83 85 85 86
REMARK SMILES IDX 78 87 79 88 80 89 81 90 82 91 58 92 59 93 68 94 60 95 61 96
REMARK SMILES IDX 67 97 69 98 62 99 63 100 64 101 65 102 66 103
REMARK H PARENT 24 6 28 34 90 53 56 64
REMARK Flexibility Score: inf
ROOT
ATOM      1  C   UNL A   1      39.670  23.440  27.103  1.00  0.00     0.042 C 
ENDROOT
BRANCH   1   2
ATOM      2  C   UNL A   1      38.477  23.078  26.208  1.00  0.00     0.118 C 
BRANCH   2   3
ATOM      3  N   UNL A   1      38.548  21.710  25.719  1.00  0.00    -0.352 N 
ATOM      4  C   UNL A   1      37.613  20.938  25.076  1.00  0.00     0.251 C 
ATOM      5  O   UNL A   1      37.951  19.846  24.624  1.00  0.00    -0.269 OA
ATOM      6  H   UNL A   1      39.412  21.262  25.877  1.00  0.00     0.163 HD
BRANCH   4   7
ATOM      7  C   UNL A   1      36.224  21.410  24.851  1.00  0.00     0.039 A 
ATOM      8  C   UNL A   1      33.625  22.432  24.392  1.00  0.00    -0.030 A 
ATOM      9  C   UNL A   1      34.757  23.048  23.828  1.00  0.00     0.006 A 
ATOM     10  C   UNL A   1      33.822  21.271  25.156  1.00  0.00     0.006 A 
ATOM     11  C   UNL A   1      36.039  22.534  24.043  1.00  0.00     0.014 A 
ATOM     12  C   UNL A   1      35.104  20.762  25.368  1.00  0.00     0.014 A 
BRANCH   8  13
ATOM     13  C   UNL A   1      32.243  22.992  24.096  1.00  0.00     0.119 C 
ATOM     14  C   UNL A   1      32.894  25.729  21.057  1.00  0.00     0.075 C 
ATOM     15  C   UNL A   1      32.445  25.163  22.380  1.00  0.00     0.074 C 
ATOM     16  N   UNL A   1      32.390  25.966  23.394  1.00  0.00    -0.227 NA
ATOM     17  S   UNL A   1      31.992  23.463  22.349  1.00  0.00    -0.098 SA
ATOM     18  C   UNL A   1      32.092  25.448  24.609  1.00  0.00     0.161 A 
ATOM     19  C   UNL A   1      32.060  24.135  25.019  1.00  0.00     0.038 A 
ATOM     20  N   UNL A   1      31.889  26.215  25.745  1.00  0.00    -0.215 N 
ATOM     21  C   UNL A   1      31.873  24.196  26.425  1.00  0.00     0.067 A 
ATOM     22  N   UNL A   1      31.852  25.459  26.869  1.00  0.00    -0.171 NA
ATOM     23  C   UNL A   1      31.753  23.077  27.396  1.00  0.00     0.069 C 
BRANCH  20  24
ATOM     24  C   UNL A   1      31.701  27.614  25.797  1.00  0.00     0.067 A 
ATOM     25  C   UNL A   1      31.189  28.284  24.676  1.00  0.00     0.031 A 
ATOM     26  C   UNL A   1      32.043  28.318  26.957  1.00  0.00     0.031 A 
ATOM     27  C   UNL A   1      31.027  29.666  24.713  1.00  0.00     0.041 A 
ATOM     28  C   UNL A   1      31.928  29.710  26.966  1.00  0.00     0.041 A 
ATOM     29  C   UNL A   1      31.417  30.367  25.849  1.00  0.00     0.123 A 
ATOM     30  F   UNL A   1      31.298  31.702  25.866  1.00  0.00    -0.207 F 
ENDBRANCH  20  24
ENDBRANCH   8  13
ENDBRANCH   4   7
ENDBRANCH   2   3
ENDBRANCH   1   2
BRANCH   1  31
ATOM     31  C   UNL A   1      40.572  22.251  27.373  1.00  0.00     0.118 C 
BRANCH  31  32
ATOM     32  N   UNL A   1      41.689  22.164  26.426  1.00  0.00    -0.352 N 
ATOM     33  C   UNL A   1      42.346  23.190  25.760  1.00  0.00     0.251 C 
ATOM     34  H   UNL A   1      42.017  21.254  26.237  1.00  0.00     0.163 HD
ATOM     35  O   UNL A   1      42.999  22.963  24.759  1.00  0.00    -0.269 OA
BRANCH  33  36
ATOM     36  C   UNL A   1      42.231  24.556  26.303  1.00  0.00     0.039 A 
ATOM     37  C   UNL A   1      41.479  25.559  25.683  1.00  0.00     0.014 A 
ATOM     38  C   UNL A   1      42.877  24.800  27.506  1.00  0.00     0.014 A 
ATOM     39  C   UNL A   1      41.335  26.783  26.335  1.00  0.00     0.010 A 
ATOM     40  C   UNL A   1      42.511  25.875  28.254  1.00  0.00     0.010 A 
ATOM     41  C   UNL A   1      41.852  26.922  27.630  1.00  0.00    -0.014 A 
BRANCH  41  42
ATOM     42  C   UNL A   1      41.713  28.134  28.419  1.00  0.00     0.031 A 
ATOM     43  C   UNL A   1      42.788  29.138  28.211  1.00  0.00     0.074 A 
ATOM     44  C   UNL A   1      40.546  28.427  29.037  1.00  0.00     0.049 A 
ATOM     45  N   UNL A   1      43.708  29.495  29.043  1.00  0.00    -0.248 NA
ATOM     46  C   UNL A   1      42.965  29.693  26.860  1.00  0.00     0.031 C 
ATOM     47  C   UNL A   1      39.278  27.679  29.017  1.00  0.00     0.029 A 
ATOM     48  N   UNL A   1      40.205  29.545  29.723  1.00  0.00    -0.354 N 
ATOM     49  C   UNL A   1      44.435  30.496  28.402  1.00  0.00     0.074 A 
ATOM     50  C   UNL A   1      44.085  30.404  27.009  1.00  0.00     0.031 C 
ATOM     51  C   UNL A   1      38.270  28.472  29.443  1.00  0.00     0.029 A 
ATOM     52  C   UNL A   1      38.839  29.710  29.936  1.00  0.00     0.049 A 
ATOM     53  H   UNL A   1      40.873  30.192  30.047  1.00  0.00     0.167 HD
ATOM     54  C   UNL A   1      45.072  31.472  29.109  1.00  0.00     0.037 A 
ATOM     55  C   UNL A   1      38.236  30.811  30.453  1.00  0.00     0.037 A 
ATOM     56  C   UNL A   1      45.103  31.144  30.515  1.00  0.00     0.049 A 
ATOM     57  C   UNL A   1      39.299  31.567  31.173  1.00  0.00     0.074 A 
ATOM     58  C   UNL A   1      45.640  30.110  31.256  1.00  0.00     0.029 A 
ATOM     59  N   UNL A   1      44.162  31.740  31.322  1.00  0.00    -0.354 N 
ATOM     60  N   UNL A   1      39.918  31.114  32.232  1.00  0.00    -0.248 NA
ATOM     61  C   UNL A   1      40.011  32.597  30.431  1.00  0.00     0.031 C 
ATOM     62  C   UNL A   1      44.668  29.839  32.262  1.00  0.00     0.029 A 
ATOM     63  C   UNL A   1      43.632  30.767  32.130  1.00  0.00     0.049 A 
ATOM     64  H   UNL A   1      43.913  32.692  31.319  1.00  0.00     0.167 HD
ATOM     65  C   UNL A   1      41.245  31.487  32.062  1.00  0.00     0.074 A 
ATOM     66  C   UNL A   1      41.226  32.464  30.973  1.00  0.00     0.031 C 
ATOM     67  C   UNL A   1      42.264  30.758  32.607  1.00  0.00     0.037 A 
BRANCH  54  68
ATOM     68  C   UNL A   1      45.345  32.879  28.625  1.00  0.00     0.058 A 
ATOM     69  C   UNL A   1      44.351  33.857  28.405  1.00  0.00     0.135 A 
ATOM     70  C   UNL A   1      46.673  33.361  28.647  1.00  0.00     0.135 A 
ATOM     71  F   UNL A   1      43.044  33.576  28.422  1.00  0.00    -0.206 F 
ATOM     72  C   UNL A   1      44.644  35.207  28.253  1.00  0.00     0.059 A 
ATOM     73  C   UNL A   1      46.983  34.719  28.554  1.00  0.00     0.059 A 
ATOM     74  F   UNL A   1      47.702  32.521  28.837  1.00  0.00    -0.206 F 
ATOM     75  C   UNL A   1      45.957  35.636  28.370  1.00  0.00     0.060 A 
BRANCH  75  76
ATOM     76  S   UNL A   1      46.264  37.410  28.387  1.00  0.00     0.124 S 
ATOM     77  O   UNL A   1      45.649  37.823  27.129  1.00  0.00    -0.237 OA
ATOM     78  O   UNL A   1      45.567  37.821  29.601  1.00  0.00    -0.237 OA
ATOM     79  O   UNL A   1      47.719  37.499  28.438  1.00  0.00    -0.744 OA
ENDBRANCH  75  76
ENDBRANCH  54  68
BRANCH  55  80
ATOM     80  C   UNL A   1      36.929  31.413  30.072  1.00  0.00     0.058 A 
ATOM     81  C   UNL A   1      36.621  31.725  28.732  1.00  0.00     0.135 A 
ATOM     82  C   UNL A   1      36.073  31.963  31.046  1.00  0.00     0.135 A 
ATOM     83  F   UNL A   1      37.389  31.287  27.725  1.00  0.00    -0.206 F 
ATOM     84  C   UNL A   1      35.571  32.575  28.382  1.00  0.00     0.059 A 
ATOM     85  C   UNL A   1      35.017  32.823  30.719  1.00  0.00     0.059 A 
ATOM     86  F   UNL A   1      36.297  31.726  32.347  1.00  0.00    -0.206 F 
ATOM     87  C   UNL A   1      34.795  33.149  29.383  1.00  0.00     0.060 A 
BRANCH  87  88
ATOM     88  S   UNL A   1      33.571  34.391  28.903  1.00  0.00     0.124 S 
ATOM     89  O   UNL A   1      32.704  33.627  28.012  1.00  0.00    -0.237 OA
ATOM     90  O   UNL A   1      32.988  34.758  30.190  1.00  0.00    -0.237 OA
ATOM     91  O   UNL A   1      34.370  35.430  28.261  1.00  0.00    -0.744 OA
ENDBRANCH  87  88
ENDBRANCH  55  80
BRANCH  67  92
ATOM     92  C   UNL A   1      41.932  29.687  33.618  1.00  0.00     0.058 A 
ATOM     93  C   UNL A   1      42.077  30.001  34.977  1.00  0.00     0.135 A 
ATOM     94  C   UNL A   1      41.706  28.336  33.295  1.00  0.00     0.135 A 
ATOM     95  F   UNL A   1      42.348  31.264  35.348  1.00  0.00    -0.206 F 
ATOM     96  C   UNL A   1      42.031  29.026  35.967  1.00  0.00     0.059 A 
ATOM     97  C   UNL A   1      41.624  27.343  34.276  1.00  0.00     0.059 A 
ATOM     98  F   UNL A   1      41.643  27.933  32.021  1.00  0.00    -0.206 F 
ATOM     99  C   UNL A   1      41.812  27.696  35.609  1.00  0.00     0.060 A 
BRANCH  99 100
ATOM    100  S   UNL A   1      41.825  26.449  36.912  1.00  0.00     0.124 S 
ATOM    101  O   UNL A   1      40.523  26.655  37.542  1.00  0.00    -0.237 OA
ATOM    102  O   UNL A   1      41.968  25.209  36.155  1.00  0.00    -0.237 OA
ATOM    103  O   UNL A   1      42.977  26.811  37.733  1.00  0.00    -0.744 OA
ENDBRANCH  99 100
ENDBRANCH  67  92
ENDBRANCH  41  42
ENDBRANCH  33  36
ENDBRANCH  31  32
ENDBRANCH   1  31
TORSDOF 15
ENDMDL
MODEL 2
REMARK VINA RESULT:     -13.8      1.449      2.096
REMARK SMILES CC1=Nc2c(c(C)nn2-c2ccc(F)cc2)[C@H](c2ccc(C(=O)NCCCNC(=O)c3ccc(-c4c5nc(c(-c6c(F)cc(S(=O)(=O)[O-])cc6F)c6ccc([nH]6)c(-c6c(F)cc(S(=O)(=O)[O-])cc6F)c6nc(c(-c7c(F)cc(S(=O)(=O)[O-])cc7F)c7ccc4[nH]7)C=C6)C=C5)cc3)cc2)S1
REMARK SMILES IDX 26 1 25 2 24 3 22 4 23 5 21 7 18 8 19 9 98 10 20 11 97 12
REMARK SMILES IDX 17 13 1 14 2 15 3 16 99 17 4 18 5 19 9 20 6 21 8 22 7 23
REMARK SMILES IDX 10 24 11 25 16 26 12 27 15 28 13 29 14 30 27 31 28 32 29 33
REMARK SMILES IDX 30 35 31 36 32 37 96 38 33 39 95 40 34 41 35 42 36 43 89 44
REMARK SMILES IDX 37 45 94 46 88 47 90 48 38 49 93 50 87 51 86 52 39 54 73 55
REMARK SMILES IDX 52 56 72 57 53 58 56 59 71 60 91 61 54 62 55 63 70 65 92 66
REMARK SMILES IDX 57 67 40 68 41 69 50 70 42 71 43 72 49 73 51 74 44 75 45 76
REMARK SMILES IDX 46 77 47 78 48 79 74 80 75 81 84 82 76 83 77 84 83 85 85 86
REMARK SMILES IDX 78 87 79 88 80 89 81 90 82 91 58 92 59 93 68 94 60 95 61 96
REMARK SMILES IDX 67 97 69 98 62 99 63 100 64 101 65 102 66 103
REMARK H PARENT 24 6 28 34 90 53 56 64
REMARK Flexibility Score: inf
ROOT
ATOM      1  C   UNL A   1      39.956  20.286  26.014  1.00  0.00     0.042 C 
ENDROOT
BRANCH   1   2
ATOM      2  C   UNL A   1      38.831  21.213  25.534  1.00  0.00     0.118 C 
BRANCH   2   3
ATOM      3  N   UNL A   1      38.929  22.546  26.110  1.00  0.00    -0.352 N 
ATOM      4  C   UNL A   1      38.010  23.563  26.178  1.00  0.00     0.251 C 
ATOM      5  O   UNL A   1      38.272  24.559  26.849  1.00  0.00    -0.269 OA
ATOM      6  H   UNL A   1      39.801  22.752  26.520  1.00  0.00     0.163 HD
BRANCH   4   7
ATOM      7  C   UNL A   1      36.682  23.468  25.521  1.00  0.00     0.039 A 
ATOM      8  C   UNL A   1      34.110  23.210  24.370  1.00  0.00    -0.030 A 
ATOM      9  C   UNL A   1      34.315  22.991  25.745  1.00  0.00     0.006 A 
ATOM     10  C   UNL A   1      35.214  23.599  23.596  1.00  0.00     0.006 A 
ATOM     11  C   UNL A   1      35.583  23.133  26.316  1.00  0.00     0.014 A 
ATOM     12  C   UNL A   1      36.477  23.740  24.170  1.00  0.00     0.014 A 
BRANCH   8  13
ATOM     13  C   UNL A   1      32.708  23.092  23.796  1.00  0.00     0.119 C 
ATOM     14  C   UNL A   1      32.946  25.037  20.148  1.00  0.00     0.075 C 
ATOM     15  C   UNL A   1      32.471  24.679  21.532  1.00  0.00     0.074 C 
ATOM     16  N   UNL A   1      31.937  25.616  22.249  1.00  0.00    -0.227 NA
ATOM     17  S   UNL A   1      32.659  22.986  21.973  1.00  0.00    -0.098 SA
ATOM     18  C   UNL A   1      31.605  25.336  23.532  1.00  0.00     0.161 A 
ATOM     19  C   UNL A   1      31.955  24.258  24.312  1.00  0.00     0.038 A 
ATOM     20  N   UNL A   1      30.924  26.211  24.361  1.00  0.00    -0.215 N 
ATOM     21  C   UNL A   1      31.483  24.580  25.612  1.00  0.00     0.067 A 
ATOM     22  N   UNL A   1      30.932  25.800  25.652  1.00  0.00    -0.171 NA
ATOM     23  C   UNL A   1      31.574  23.777  26.859  1.00  0.00     0.069 C 
BRANCH  20  24
ATOM     24  C   UNL A   1      30.250  27.391  23.974  1.00  0.00     0.067 A 
ATOM     25  C   UNL A   1      30.900  28.629  24.098  1.00  0.00     0.031 A 
ATOM     26  C   UNL A   1      28.941  27.316  23.488  1.00  0.00     0.031 A 
ATOM     27  C   UNL A   1      30.231  29.797  23.743  1.00  0.00     0.041 A 
ATOM     28  C   UNL A   1      28.259  28.497  23.186  1.00  0.00     0.041 A 
ATOM     29  C   UNL A   1      28.912  29.722  23.310  1.00  0.00     0.123 A 
ATOM     30  F   UNL A   1      28.258  30.852  23.009  1.00  0.00    -0.207 F 
ENDBRANCH  20  24
ENDBRANCH   8  13
ENDBRANCH   4   7
ENDBRANCH   2   3
ENDBRANCH   1   2
BRANCH   1  31
ATOM     31  C   UNL A   1      41.090  21.047  26.674  1.00  0.00     0.118 C 
BRANCH  31  32
ATOM     32  N   UNL A   1      42.184  21.346  25.745  1.00  0.00    -0.352 N 
ATOM     33  C   UNL A   1      42.775  22.570  25.461  1.00  0.00     0.251 C 
ATOM     34  H   UNL A   1      42.550  20.573  25.255  1.00  0.00     0.163 HD
ATOM     35  O   UNL A   1      43.412  22.731  24.438  1.00  0.00    -0.269 OA
BRANCH  33  36
ATOM     36  C   UNL A   1      42.610  23.663  26.438  1.00  0.00     0.039 A 
ATOM     37  C   UNL A   1      43.362  23.750  27.613  1.00  0.00     0.014 A 
ATOM     38  C   UNL A   1      41.689  24.648  26.115  1.00  0.00     0.014 A 
ATOM     39  C   UNL A   1      43.216  24.882  28.415  1.00  0.00     0.010 A 
ATOM     40  C   UNL A   1      41.753  25.854  26.740  1.00  0.00     0.010 A 
ATOM     41  C   UNL A   1      42.411  25.934  27.956  1.00  0.00    -0.014 A 
BRANCH  41  42
ATOM     42  C   UNL A   1      42.232  27.178  28.685  1.00  0.00     0.031 A 
ATOM     43  C   UNL A   1      43.323  28.168  28.504  1.00  0.00     0.074 A 
ATOM     44  C   UNL A   1      41.030  27.501  29.217  1.00  0.00     0.049 A 
ATOM     45  N   UNL A   1      44.192  28.556  29.376  1.00  0.00    -0.248 NA
ATOM     46  C   UNL A   1      43.587  28.667  27.144  1.00  0.00     0.031 C 
ATOM     47  C   UNL A   1      39.761  26.757  29.148  1.00  0.00     0.029 A 
ATOM     48  N   UNL A   1      40.654  28.647  29.834  1.00  0.00    -0.354 N 
ATOM     49  C   UNL A   1      44.964  29.526  28.741  1.00  0.00     0.074 A 
ATOM     50  C   UNL A   1      44.700  29.379  27.334  1.00  0.00     0.031 C 
ATOM     51  C   UNL A   1      38.734  27.571  29.478  1.00  0.00     0.029 A 
ATOM     52  C   UNL A   1      39.280  28.826  29.954  1.00  0.00     0.049 A 
ATOM     53  H   UNL A   1      41.305  29.305  30.172  1.00  0.00     0.167 HD
ATOM     54  C   UNL A   1      45.562  30.529  29.446  1.00  0.00     0.037 A 
ATOM     55  C   UNL A   1      38.653  29.949  30.388  1.00  0.00     0.037 A 
ATOM     56  C   UNL A   1      45.504  30.258  30.863  1.00  0.00     0.049 A 
ATOM     57  C   UNL A   1      39.674  30.730  31.141  1.00  0.00     0.074 A 
ATOM     58  C   UNL A   1      45.988  29.254  31.677  1.00  0.00     0.029 A 
ATOM     59  N   UNL A   1      44.519  30.890  31.584  1.00  0.00    -0.354 N 
ATOM     60  N   UNL A   1      40.223  30.318  32.255  1.00  0.00    -0.248 NA
ATOM     61  C   UNL A   1      40.437  31.726  30.403  1.00  0.00     0.031 C 
ATOM     62  C   UNL A   1      44.953  29.027  32.631  1.00  0.00     0.029 A 
ATOM     63  C   UNL A   1      43.934  29.953  32.397  1.00  0.00     0.049 A 
ATOM     64  H   UNL A   1      44.277  31.843  31.528  1.00  0.00     0.167 HD
ATOM     65  C   UNL A   1      41.560  30.680  32.152  1.00  0.00     0.074 A 
ATOM     66  C   UNL A   1      41.615  31.611  31.025  1.00  0.00     0.031 C 
ATOM     67  C   UNL A   1      42.539  29.969  32.789  1.00  0.00     0.037 A 
BRANCH  54  68
ATOM     68  C   UNL A   1      45.874  31.913  28.922  1.00  0.00     0.058 A 
ATOM     69  C   UNL A   1      47.164  32.365  28.574  1.00  0.00     0.135 A 
ATOM     70  C   UNL A   1      44.808  32.732  28.485  1.00  0.00     0.135 A 
ATOM     71  F   UNL A   1      48.273  31.672  28.853  1.00  0.00    -0.206 F 
ATOM     72  C   UNL A   1      47.383  33.516  27.825  1.00  0.00     0.059 A 
ATOM     73  C   UNL A   1      45.003  33.858  27.684  1.00  0.00     0.059 A 
ATOM     74  F   UNL A   1      43.536  32.407  28.767  1.00  0.00    -0.206 F 
ATOM     75  C   UNL A   1      46.296  34.234  27.348  1.00  0.00     0.060 A 
BRANCH  75  76
ATOM     76  S   UNL A   1      46.619  35.585  26.204  1.00  0.00     0.124 S 
ATOM     77  O   UNL A   1      47.670  36.315  26.905  1.00  0.00    -0.237 OA
ATOM     78  O   UNL A   1      47.036  34.866  25.004  1.00  0.00    -0.237 OA
ATOM     79  O   UNL A   1      45.331  36.263  26.113  1.00  0.00    -0.744 OA
ENDBRANCH  75  76
ENDBRANCH  54  68
BRANCH  55  80
ATOM     80  C   UNL A   1      37.375  30.541  29.903  1.00  0.00     0.058 A 
ATOM     81  C   UNL A   1      37.152  30.796  28.534  1.00  0.00     0.135 A 
ATOM     82  C   UNL A   1      36.466  31.136  30.797  1.00  0.00     0.135 A 
ATOM     83  F   UNL A   1      37.977  30.312  27.595  1.00  0.00    -0.206 F 
ATOM     84  C   UNL A   1      36.131  31.635  28.084  1.00  0.00     0.059 A 
ATOM     85  C   UNL A   1      35.437  31.986  30.370  1.00  0.00     0.059 A 
ATOM     86  F   UNL A   1      36.607  30.953  32.119  1.00  0.00    -0.206 F 
ATOM     87  C   UNL A   1      35.300  32.254  29.010  1.00  0.00     0.060 A 
BRANCH  87  88
ATOM     88  S   UNL A   1      34.116  33.481  28.404  1.00  0.00     0.124 S 
ATOM     89  O   UNL A   1      33.157  32.642  27.691  1.00  0.00    -0.237 OA
ATOM     90  O   UNL A   1      33.632  34.078  29.645  1.00  0.00    -0.237 OA
ATOM     91  O   UNL A   1      34.929  34.356  27.566  1.00  0.00    -0.744 OA
ENDBRANCH  87  88
ENDBRANCH  55  80
BRANCH  67  92
ATOM     92  C   UNL A   1      42.138  28.942  33.819  1.00  0.00     0.058 A 
ATOM     93  C   UNL A   1      42.072  29.350  35.159  1.00  0.00     0.135 A 
ATOM     94  C   UNL A   1      42.044  27.560  33.567  1.00  0.00     0.135 A 
ATOM     95  F   UNL A   1      42.209  30.649  35.472  1.00  0.00    -0.206 F 
ATOM     96  C   UNL A   1      41.951  28.437  36.202  1.00  0.00     0.059 A 
ATOM     97  C   UNL A   1      41.890  26.628  34.596  1.00  0.00     0.059 A 
ATOM     98  F   UNL A   1      42.185  27.076  32.327  1.00  0.00    -0.206 F 
ATOM     99  C   UNL A   1      41.868  27.076  35.914  1.00  0.00     0.060 A 
BRANCH  99 100
ATOM    100  S   UNL A   1      41.780  25.916  37.293  1.00  0.00     0.124 S 
ATOM    101  O   UNL A   1      42.833  26.414  38.174  1.00  0.00    -0.237 OA
ATOM    102  O   UNL A   1      40.415  26.108  37.774  1.00  0.00    -0.237 OA
ATOM    103  O   UNL A   1      42.044  24.619  36.678  1.00  0.00    -0.744 OA
ENDBRANCH  99 100
ENDBRANCH  67  92
ENDBRANCH  41  42
ENDBRANCH  33  36
ENDBRANCH  31  32
ENDBRANCH   1  31
TORSDOF 15
ENDMDL
MODEL 3
REMARK VINA RESULT:     -13.7      2.001      2.671
REMARK SMILES CC1=Nc2c(c(C)nn2-c2ccc(F)cc2)[C@H](c2ccc(C(=O)NCCCNC(=O)c3ccc(-c4c5nc(c(-c6c(F)cc(S(=O)(=O)[O-])cc6F)c6ccc([nH]6)c(-c6c(F)cc(S(=O)(=O)[O-])cc6F)c6nc(c(-c7c(F)cc(S(=O)(=O)[O-])cc7F)c7ccc4[nH]7)C=C6)C=C5)cc3)cc2)S1
REMARK SMILES IDX 26 1 25 2 24 3 22 4 23 5 21 7 18 8 19 9 98 10 20 11 97 12
REMARK SMILES IDX 17 13 1 14 2 15 3 16 99 17 4 18 5 19 9 20 6 21 8 22 7 23
REMARK SMILES IDX 10 24 11 25 16 26 12 27 15 28 13 29 14 30 27 31 28 32 29 33
REMARK SMILES IDX 30 35 31 36 32 37 96 38 33 39 95 40 34 41 35 42 36 43 89 44
REMARK SMILES IDX 37 45 94 46 88 47 90 48 38 49 93 50 87 51 86 52 39 54 73 55
REMARK SMILES IDX 52 56 72 57 53 58 56 59 71 60 91 61 54 62 55 63 70 65 92 66
REMARK SMILES IDX 57 67 40 68 41 69 50 70 42 71 43 72 49 73 51 74 44 75 45 76
REMARK SMILES IDX 46 77 47 78 48 79 74 80 75 81 84 82 76 83 77 84 83 85 85 86
REMARK SMILES IDX 78 87 79 88 80 89 81 90 82 91 58 92 59 93 68 94 60 95 61 96
REMARK SMILES IDX 67 97 69 98 62 99 63 100 64 101 65 102 66 103
REMARK H PARENT 24 6 28 34 90 53 56 64
REMARK Flexibility Score: inf
ROOT
ATOM      1  C   UNL A   1      40.017  19.572  26.003  1.00  0.00     0.042 C 
ENDROOT
BRANCH   1   2
ATOM      2  C   UNL A   1      39.012  20.552  25.383  1.00  0.00     0.118 C 
BRANCH   2   3
ATOM      3  N   UNL A   1      39.215  21.917  25.844  1.00  0.00    -0.352 N 
ATOM      4  C   UNL A   1      38.332  22.960  25.974  1.00  0.00     0.251 C 
ATOM      5  O   UNL A   1      38.707  23.992  26.527  1.00  0.00    -0.269 OA
ATOM      6  H   UNL A   1      40.141  22.128  26.105  1.00  0.00     0.163 HD
BRANCH   4   7
ATOM      7  C   UNL A   1      36.921  22.857  25.526  1.00  0.00     0.039 A 
ATOM      8  C   UNL A   1      34.238  22.787  24.628  1.00  0.00    -0.030 A 
ATOM      9  C   UNL A   1      35.155  23.716  24.104  1.00  0.00     0.006 A 
ATOM     10  C   UNL A   1      34.707  21.870  25.582  1.00  0.00     0.006 A 
ATOM     11  C   UNL A   1      36.484  23.741  24.536  1.00  0.00     0.014 A 
ATOM     12  C   UNL A   1      36.034  21.898  26.011  1.00  0.00     0.014 A 
BRANCH   8  13
ATOM     13  C   UNL A   1      32.814  22.760  24.098  1.00  0.00     0.119 C 
ATOM     14  C   UNL A   1      33.072  24.646  20.420  1.00  0.00     0.075 C 
ATOM     15  C   UNL A   1      32.617  24.336  21.823  1.00  0.00     0.074 C 
ATOM     16  N   UNL A   1      32.171  25.316  22.543  1.00  0.00    -0.227 NA
ATOM     17  S   UNL A   1      32.702  22.639  22.279  1.00  0.00    -0.098 SA
ATOM     18  C   UNL A   1      31.860  25.072  23.839  1.00  0.00     0.161 A 
ATOM     19  C   UNL A   1      32.160  23.981  24.622  1.00  0.00     0.038 A 
ATOM     20  N   UNL A   1      31.267  26.000  24.678  1.00  0.00    -0.215 N 
ATOM     21  C   UNL A   1      31.752  24.348  25.932  1.00  0.00     0.067 A 
ATOM     22  N   UNL A   1      31.287  25.603  25.973  1.00  0.00    -0.171 NA
ATOM     23  C   UNL A   1      31.825  23.553  27.185  1.00  0.00     0.069 C 
BRANCH  20  24
ATOM     24  C   UNL A   1      30.664  27.220  24.296  1.00  0.00     0.067 A 
ATOM     25  C   UNL A   1      29.496  27.199  23.520  1.00  0.00     0.031 A 
ATOM     26  C   UNL A   1      31.246  28.433  24.681  1.00  0.00     0.031 A 
ATOM     27  C   UNL A   1      28.913  28.398  23.119  1.00  0.00     0.041 A 
ATOM     28  C   UNL A   1      30.685  29.629  24.228  1.00  0.00     0.041 A 
ATOM     29  C   UNL A   1      29.524  29.600  23.459  1.00  0.00     0.123 A 
ATOM     30  F   UNL A   1      28.983  30.750  23.036  1.00  0.00    -0.207 F 
ENDBRANCH  20  24
ENDBRANCH   8  13
ENDBRANCH   4   7
ENDBRANCH   2   3
ENDBRANCH   1   2
BRANCH   1  31
ATOM     31  C   UNL A   1      41.139  20.281  26.736  1.00  0.00     0.118 C 
BRANCH  31  32
ATOM     32  N   UNL A   1      42.463  19.939  26.206  1.00  0.00    -0.352 N 
ATOM     33  C   UNL A   1      43.451  20.786  25.721  1.00  0.00     0.251 C 
ATOM     34  H   UNL A   1      42.681  18.978  26.191  1.00  0.00     0.163 HD
ATOM     35  O   UNL A   1      44.334  20.362  24.999  1.00  0.00    -0.269 OA
BRANCH  33  36
ATOM     36  C   UNL A   1      43.398  22.208  26.109  1.00  0.00     0.039 A 
ATOM     37  C   UNL A   1      42.711  23.172  25.365  1.00  0.00     0.014 A 
ATOM     38  C   UNL A   1      44.035  22.550  27.292  1.00  0.00     0.014 A 
ATOM     39  C   UNL A   1      42.621  24.466  25.876  1.00  0.00     0.010 A 
ATOM     40  C   UNL A   1      43.713  23.718  27.910  1.00  0.00     0.010 A 
ATOM     41  C   UNL A   1      43.121  24.722  27.161  1.00  0.00    -0.014 A 
BRANCH  41  42
ATOM     42  C   UNL A   1      43.032  26.019  27.809  1.00  0.00     0.031 A 
ATOM     43  C   UNL A   1      44.065  26.998  27.385  1.00  0.00     0.074 A 
ATOM     44  C   UNL A   1      41.920  26.376  28.492  1.00  0.00     0.049 A 
ATOM     45  N   UNL A   1      45.050  27.459  28.081  1.00  0.00    -0.248 NA
ATOM     46  C   UNL A   1      44.109  27.388  25.967  1.00  0.00     0.031 C 
ATOM     47  C   UNL A   1      40.669  25.621  28.677  1.00  0.00     0.029 A 
ATOM     48  N   UNL A   1      41.622  27.566  29.069  1.00  0.00    -0.354 N 
ATOM     49  C   UNL A   1      45.697  28.380  27.261  1.00  0.00     0.074 A 
ATOM     50  C   UNL A   1      45.225  28.120  25.927  1.00  0.00     0.031 C 
ATOM     51  C   UNL A   1      39.690  26.453  29.096  1.00  0.00     0.029 A 
ATOM     52  C   UNL A   1      40.279  27.745  29.384  1.00  0.00     0.049 A 
ATOM     53  H   UNL A   1      42.305  28.252  29.250  1.00  0.00     0.167 HD
ATOM     54  C   UNL A   1      46.378  29.439  27.786  1.00  0.00     0.037 A 
ATOM     55  C   UNL A   1      39.705  28.895  29.820  1.00  0.00     0.037 A 
ATOM     56  C   UNL A   1      46.542  29.283  29.211  1.00  0.00     0.049 A 
ATOM     57  C   UNL A   1      40.815  29.741  30.344  1.00  0.00     0.074 A 
ATOM     58  C   UNL A   1      47.162  28.349  30.018  1.00  0.00     0.029 A 
ATOM     59  N   UNL A   1      45.667  29.965  30.024  1.00  0.00    -0.354 N 
ATOM     60  N   UNL A   1      41.535  29.422  31.389  1.00  0.00    -0.248 NA
ATOM     61  C   UNL A   1      41.438  30.679  29.422  1.00  0.00     0.031 C 
ATOM     62  C   UNL A   1      46.290  28.194  31.134  1.00  0.00     0.029 A 
ATOM     63  C   UNL A   1      45.230  29.092  30.988  1.00  0.00     0.049 A 
ATOM     64  H   UNL A   1      45.402  30.908  29.932  1.00  0.00     0.167 HD
ATOM     65  C   UNL A   1      42.834  29.782  31.054  1.00  0.00     0.074 A 
ATOM     66  C   UNL A   1      42.699  30.620  29.863  1.00  0.00     0.031 C 
ATOM     67  C   UNL A   1      43.911  29.130  31.586  1.00  0.00     0.037 A 
BRANCH  54  68
ATOM     68  C   UNL A   1      46.581  30.779  27.114  1.00  0.00     0.058 A 
ATOM     69  C   UNL A   1      45.541  31.671  26.776  1.00  0.00     0.135 A 
ATOM     70  C   UNL A   1      47.884  31.322  27.057  1.00  0.00     0.135 A 
ATOM     71  F   UNL A   1      44.249  31.334  26.845  1.00  0.00    -0.206 F 
ATOM     72  C   UNL A   1      45.767  33.001  26.441  1.00  0.00     0.059 A 
ATOM     73  C   UNL A   1      48.128  32.669  26.779  1.00  0.00     0.059 A 
ATOM     74  F   UNL A   1      48.954  30.565  27.347  1.00  0.00    -0.206 F 
ATOM     75  C   UNL A   1      47.059  33.503  26.486  1.00  0.00     0.060 A 
BRANCH  75  76
ATOM     76  S   UNL A   1      47.280  35.275  26.261  1.00  0.00     0.124 S 
ATOM     77  O   UNL A   1      48.230  35.312  25.155  1.00  0.00    -0.237 OA
ATOM     78  O   UNL A   1      45.921  35.708  25.948  1.00  0.00    -0.237 OA
ATOM     79  O   UNL A   1      47.796  35.716  27.552  1.00  0.00    -0.744 OA
ENDBRANCH  75  76
ENDBRANCH  54  68
BRANCH  55  80
ATOM     80  C   UNL A   1      38.358  29.439  29.492  1.00  0.00     0.058 A 
ATOM     81  C   UNL A   1      38.007  29.800  28.174  1.00  0.00     0.135 A 
ATOM     82  C   UNL A   1      37.490  29.886  30.506  1.00  0.00     0.135 A 
ATOM     83  F   UNL A   1      38.781  29.461  27.134  1.00  0.00    -0.206 F 
ATOM     84  C   UNL A   1      36.904  30.604  27.886  1.00  0.00     0.059 A 
ATOM     85  C   UNL A   1      36.379  30.698  30.241  1.00  0.00     0.059 A 
ATOM     86  F   UNL A   1      37.751  29.595  31.789  1.00  0.00    -0.206 F 
ATOM     87  C   UNL A   1      36.114  31.078  28.927  1.00  0.00     0.060 A 
BRANCH  87  88
ATOM     88  S   UNL A   1      34.812  32.270  28.533  1.00  0.00     0.124 S 
ATOM     89  O   UNL A   1      34.461  32.777  29.856  1.00  0.00    -0.237 OA
ATOM     90  O   UNL A   1      35.512  33.210  27.662  1.00  0.00    -0.237 OA
ATOM     91  O   UNL A   1      33.790  31.458  27.881  1.00  0.00    -0.744 OA
ENDBRANCH  87  88
ENDBRANCH  55  80
BRANCH  67  92
ATOM     92  C   UNL A   1      43.691  28.186  32.743  1.00  0.00     0.058 A 
ATOM     93  C   UNL A   1      43.538  26.823  32.456  1.00  0.00     0.135 A 
ATOM     94  C   UNL A   1      43.406  28.598  34.059  1.00  0.00     0.135 A 
ATOM     95  F   UNL A   1      43.743  26.374  31.206  1.00  0.00    -0.206 F 
ATOM     96  C   UNL A   1      43.096  25.913  33.411  1.00  0.00     0.059 A 
ATOM     97  C   UNL A   1      42.991  27.697  35.043  1.00  0.00     0.059 A 
ATOM     98  F   UNL A   1      43.441  29.891  34.399  1.00  0.00    -0.206 F 
ATOM     99  C   UNL A   1      42.816  26.359  34.702  1.00  0.00     0.060 A 
BRANCH  99 100
ATOM    100  S   UNL A   1      42.180  25.166  35.896  1.00  0.00     0.124 S 
ATOM    101  O   UNL A   1      43.261  25.115  36.878  1.00  0.00    -0.237 OA
ATOM    102  O   UNL A   1      40.949  25.806  36.351  1.00  0.00    -0.237 OA
ATOM    103  O   UNL A   1      41.994  23.949  35.112  1.00  0.00    -0.744 OA
ENDBRANCH  99 100
ENDBRANCH  67  92
ENDBRANCH  41  42
ENDBRANCH  33  36
ENDBRANCH  31  32
ENDBRANCH   1  31
TORSDOF 15
ENDMDL
