MODEL 1
REMARK VINA RESULT:     -12.9      0.000      0.000
REMARK SMILES Cc1ccc([C@H](CCC(F)(F)F)C(=O)NCCCNC(=O)c2ccc(-c3c4nc(c(-c5c(F)cc(S(=O)(=O)[O-])cc5F)c5ccc([nH]5)c(-c5c(F)cc(S(=O)(=O)[O-])cc5F)c5nc(c(-c6c(F)cc(S(=O)(=O)[O-])cc6F)c6ccc3[nH]6)C=C5)C=C4)cc2)cc1
REMARK SMILES IDX 17 1 16 2 15 3 13 4 14 5 6 7 5 8 1 9 2 10 3 11 89 12 4 13
REMARK SMILES IDX 88 14 7 15 8 16 9 17 10 18 11 19 12 20 18 21 19 22 20 23
REMARK SMILES IDX 21 25 22 26 23 27 87 28 24 29 86 30 25 31 26 32 27 33 80 34
REMARK SMILES IDX 28 35 85 36 79 37 81 38 29 39 84 40 78 41 77 42 30 44 64 45
REMARK SMILES IDX 43 46 63 47 44 48 47 49 62 50 82 51 45 52 46 53 61 55 83 56
REMARK SMILES IDX 48 57 31 58 32 59 41 60 33 61 34 62 40 63 42 64 35 65 36 66
REMARK SMILES IDX 37 67 38 68 39 69 65 70 66 71 75 72 67 73 68 74 74 75 76 76
REMARK SMILES IDX 69 77 70 78 71 79 72 80 73 81 49 82 50 83 59 84 51 85 52 86
REMARK SMILES IDX 58 87 60 88 53 89 54 90 55 91 56 92 57 93
REMARK H PARENT 15 6 19 24 81 43 47 54
REMARK Flexibility Score: inf
ROOT
ATOM      1  C   UNL A   1      31.995  29.985  27.023  1.00  0.00     0.042 C 
ENDROOT
BRANCH   1   2
ATOM      2  C   UNL A   1      31.562  30.480  25.654  1.00  0.00     0.117 C 
BRANCH   2   3
ATOM      3  N   UNL A   1      32.248  29.795  24.562  1.00  0.00    -0.356 N 
ATOM      4  C   UNL A   1      31.822  28.783  23.747  1.00  0.00     0.227 C 
ATOM      5  O   UNL A   1      32.490  28.537  22.739  1.00  0.00    -0.274 OA
ATOM      6  H   UNL A   1      33.163  30.112  24.384  1.00  0.00     0.163 HD
BRANCH   4   7
ATOM      7  C   UNL A   1      30.563  27.955  24.061  1.00  0.00     0.109 C 
BRANCH   7   8
ATOM      8  C   UNL A   1      30.855  26.497  24.457  1.00  0.00    -0.036 A 
ATOM      9  C   UNL A   1      30.971  22.387  25.806  1.00  0.00     0.044 C 
ATOM     10  C   UNL A   1      31.003  23.810  25.335  1.00  0.00    -0.051 A 
ATOM     11  C   UNL A   1      31.259  24.858  26.221  1.00  0.00     0.004 A 
ATOM     12  C   UNL A   1      30.809  24.103  23.986  1.00  0.00     0.004 A 
ATOM     13  C   UNL A   1      31.189  26.186  25.786  1.00  0.00     0.005 A 
ATOM     14  C   UNL A   1      30.770  25.429  23.549  1.00  0.00     0.005 A 
ENDBRANCH   7   8
BRANCH   7  15
ATOM     15  C   UNL A   1      29.521  28.063  22.910  1.00  0.00     0.027 C 
BRANCH  15  16
ATOM     16  C   UNL A   1      29.260  29.460  22.327  1.00  0.00     0.116 C 
BRANCH  16  17
ATOM     17  C   UNL A   1      28.167  30.275  22.982  1.00  0.00     0.389 C 
ATOM     18  F   UNL A   1      28.651  31.038  23.981  1.00  0.00    -0.171 F 
ATOM     19  F   UNL A   1      27.609  31.102  22.066  1.00  0.00    -0.171 F 
ATOM     20  F   UNL A   1      27.188  29.487  23.457  1.00  0.00    -0.171 F 
ENDBRANCH  16  17
ENDBRANCH  15  16
ENDBRANCH   7  15
ENDBRANCH   4   7
ENDBRANCH   2   3
ENDBRANCH   1   2
BRANCH   1  21
ATOM     21  C   UNL A   1      33.501  29.997  27.194  1.00  0.00     0.118 C 
BRANCH  21  22
ATOM     22  N   UNL A   1      34.034  31.286  27.616  1.00  0.00    -0.352 N 
ATOM     23  C   UNL A   1      35.193  31.531  28.337  1.00  0.00     0.251 C 
ATOM     24  H   UNL A   1      33.508  32.077  27.357  1.00  0.00     0.163 HD
ATOM     25  O   UNL A   1      35.435  32.631  28.799  1.00  0.00    -0.269 OA
BRANCH  23  26
ATOM     26  C   UNL A   1      36.173  30.425  28.435  1.00  0.00     0.039 A 
ATOM     27  C   UNL A   1      36.268  29.753  29.658  1.00  0.00     0.014 A 
ATOM     28  C   UNL A   1      37.149  30.275  27.456  1.00  0.00     0.014 A 
ATOM     29  C   UNL A   1      37.448  29.084  29.979  1.00  0.00     0.010 A 
ATOM     30  C   UNL A   1      38.356  29.717  27.821  1.00  0.00     0.010 A 
ATOM     31  C   UNL A   1      38.521  29.156  29.097  1.00  0.00    -0.014 A 
BRANCH  31  32
ATOM     32  C   UNL A   1      39.877  28.716  29.406  1.00  0.00     0.031 A 
ATOM     33  C   UNL A   1      40.284  27.334  29.055  1.00  0.00     0.074 A 
ATOM     34  C   UNL A   1      40.796  29.601  29.855  1.00  0.00     0.049 A 
ATOM     35  N   UNL A   1      41.412  26.800  29.378  1.00  0.00    -0.248 NA
ATOM     36  C   UNL A   1      39.395  26.398  28.366  1.00  0.00     0.031 C 
ATOM     37  C   UNL A   1      42.250  29.472  29.777  1.00  0.00     0.029 A 
ATOM     38  N   UNL A   1      40.591  30.712  30.679  1.00  0.00    -0.354 N 
ATOM     39  C   UNL A   1      41.526  25.613  28.695  1.00  0.00     0.074 A 
ATOM     40  C   UNL A   1      40.203  25.348  28.197  1.00  0.00     0.031 C 
ATOM     41  C   UNL A   1      42.811  30.282  30.686  1.00  0.00     0.029 A 
ATOM     42  C   UNL A   1      41.738  30.829  31.493  1.00  0.00     0.049 A 
ATOM     43  H   UNL A   1      39.800  31.299  30.688  1.00  0.00     0.167 HD
ATOM     44  C   UNL A   1      42.766  25.080  28.521  1.00  0.00     0.037 A 
ATOM     45  C   UNL A   1      41.660  30.700  32.852  1.00  0.00     0.037 A 
ATOM     46  C   UNL A   1      43.710  25.672  29.474  1.00  0.00     0.049 A 
ATOM     47  C   UNL A   1      42.456  29.544  33.415  1.00  0.00     0.074 A 
ATOM     48  C   UNL A   1      44.746  26.582  29.363  1.00  0.00     0.029 A 
ATOM     49  N   UNL A   1      43.459  25.528  30.838  1.00  0.00    -0.354 N 
ATOM     50  N   UNL A   1      42.947  28.570  32.697  1.00  0.00    -0.248 NA
ATOM     51  C   UNL A   1      42.751  29.382  34.838  1.00  0.00     0.031 C 
ATOM     52  C   UNL A   1      45.039  27.067  30.670  1.00  0.00     0.029 A 
ATOM     53  C   UNL A   1      44.215  26.418  31.575  1.00  0.00     0.049 A 
ATOM     54  H   UNL A   1      42.828  24.878  31.225  1.00  0.00     0.167 HD
ATOM     55  C   UNL A   1      43.552  27.649  33.513  1.00  0.00     0.074 A 
ATOM     56  C   UNL A   1      43.438  28.226  34.840  1.00  0.00     0.031 C 
ATOM     57  C   UNL A   1      44.075  26.483  33.027  1.00  0.00     0.037 A 
BRANCH  44  58
ATOM     58  C   UNL A   1      43.179  24.178  27.363  1.00  0.00     0.058 A 
ATOM     59  C   UNL A   1      42.918  22.789  27.412  1.00  0.00     0.135 A 
ATOM     60  C   UNL A   1      43.956  24.575  26.249  1.00  0.00     0.135 A 
ATOM     61  F   UNL A   1      42.202  22.252  28.411  1.00  0.00    -0.206 F 
ATOM     62  C   UNL A   1      43.409  21.878  26.464  1.00  0.00     0.059 A 
ATOM     63  C   UNL A   1      44.422  23.692  25.271  1.00  0.00     0.059 A 
ATOM     64  F   UNL A   1      44.371  25.831  26.064  1.00  0.00    -0.206 F 
ATOM     65  C   UNL A   1      44.167  22.340  25.397  1.00  0.00     0.060 A 
BRANCH  65  66
ATOM     66  S   UNL A   1      44.842  21.176  24.198  1.00  0.00     0.124 S 
ATOM     67  O   UNL A   1      44.507  21.820  22.931  1.00  0.00    -0.237 OA
ATOM     68  O   UNL A   1      46.258  21.152  24.546  1.00  0.00    -0.237 OA
ATOM     69  O   UNL A   1      44.115  19.940  24.477  1.00  0.00    -0.744 OA
ENDBRANCH  65  66
ENDBRANCH  44  58
BRANCH  45  70
ATOM     70  C   UNL A   1      40.397  31.254  33.412  1.00  0.00     0.058 A 
ATOM     71  C   UNL A   1      39.423  30.324  33.824  1.00  0.00     0.135 A 
ATOM     72  C   UNL A   1      40.364  32.532  33.990  1.00  0.00     0.135 A 
ATOM     73  F   UNL A   1      39.391  29.099  33.276  1.00  0.00    -0.206 F 
ATOM     74  C   UNL A   1      38.592  30.575  34.909  1.00  0.00     0.059 A 
ATOM     75  C   UNL A   1      39.525  32.809  35.072  1.00  0.00     0.059 A 
ATOM     76  F   UNL A   1      41.260  33.462  33.627  1.00  0.00    -0.206 F 
ATOM     77  C   UNL A   1      38.714  31.791  35.577  1.00  0.00     0.060 A 
BRANCH  77  78
ATOM     78  S   UNL A   1      37.971  31.925  37.221  1.00  0.00     0.124 S 
ATOM     79  O   UNL A   1      36.964  32.961  37.022  1.00  0.00    -0.237 OA
ATOM     80  O   UNL A   1      37.453  30.572  37.416  1.00  0.00    -0.237 OA
ATOM     81  O   UNL A   1      39.098  32.296  38.070  1.00  0.00    -0.744 OA
ENDBRANCH  77  78
ENDBRANCH  45  70
BRANCH  57  82
ATOM     82  C   UNL A   1      44.563  25.315  33.863  1.00  0.00     0.058 A 
ATOM     83  C   UNL A   1      43.731  24.497  34.648  1.00  0.00     0.135 A 
ATOM     84  C   UNL A   1      45.914  24.898  33.781  1.00  0.00     0.135 A 
ATOM     85  F   UNL A   1      42.408  24.703  34.712  1.00  0.00    -0.206 F 
ATOM     86  C   UNL A   1      44.215  23.397  35.363  1.00  0.00     0.059 A 
ATOM     87  C   UNL A   1      46.406  23.770  34.439  1.00  0.00     0.059 A 
ATOM     88  F   UNL A   1      46.811  25.570  33.042  1.00  0.00    -0.206 F 
ATOM     89  C   UNL A   1      45.553  23.041  35.254  1.00  0.00     0.060 A 
BRANCH  89  90
ATOM     90  S   UNL A   1      46.178  21.587  36.119  1.00  0.00     0.124 S 
ATOM     91  O   UNL A   1      45.428  20.516  35.471  1.00  0.00    -0.237 OA
ATOM     92  O   UNL A   1      47.608  21.619  35.824  1.00  0.00    -0.237 OA
ATOM     93  O   UNL A   1      45.829  21.855  37.510  1.00  0.00    -0.744 OA
ENDBRANCH  89  90
ENDBRANCH  57  82
ENDBRANCH  31  32
ENDBRANCH  23  26
ENDBRANCH  21  22
ENDBRANCH   1  21
TORSDOF 17
ENDMDL
MODEL 2
REMARK VINA RESULT:     -12.9      1.928      2.477
REMARK SMILES Cc1ccc([C@H](CCC(F)(F)F)C(=O)NCCCNC(=O)c2ccc(-c3c4nc(c(-c5c(F)cc(S(=O)(=O)[O-])cc5F)c5ccc([nH]5)c(-c5c(F)cc(S(=O)(=O)[O-])cc5F)c5nc(c(-c6c(F)cc(S(=O)(=O)[O-])cc6F)c6ccc3[nH]6)C=C5)C=C4)cc2)cc1
REMARK SMILES IDX 17 1 16 2 15 3 13 4 14 5 6 7 5 8 1 9 2 10 3 11 89 12 4 13
REMARK SMILES IDX 88 14 7 15 8 16 9 17 10 18 11 19 12 20 18 21 19 22 20 23
REMARK SMILES IDX 21 25 22 26 23 27 87 28 24 29 86 30 25 31 26 32 27 33 80 34
REMARK SMILES IDX 28 35 85 36 79 37 81 38 29 39 84 40 78 41 77 42 30 44 64 45
REMARK SMILES IDX 43 46 63 47 44 48 47 49 62 50 82 51 45 52 46 53 61 55 83 56
REMARK SMILES IDX 48 57 31 58 32 59 41 60 33 61 34 62 40 63 42 64 35 65 36 66
REMARK SMILES IDX 37 67 38 68 39 69 65 70 66 71 75 72 67 73 68 74 74 75 76 76
REMARK SMILES IDX 69 77 70 78 71 79 72 80 73 81 49 82 50 83 59 84 51 85 52 86
REMARK SMILES IDX 58 87 60 88 53 89 54 90 55 91 56 92 57 93
REMARK H PARENT 15 6 19 24 81 43 47 54
REMARK Flexibility Score: inf
ROOT
ATOM      1  C   UNL A   1      33.231  29.637  27.172  1.00  0.00     0.042 C 
ENDROOT
BRANCH   1   2
ATOM      2  C   UNL A   1      32.515  29.411  25.852  1.00  0.00     0.117 C 
BRANCH   2   3
ATOM      3  N   UNL A   1      33.436  29.258  24.728  1.00  0.00    -0.356 N 
ATOM      4  C   UNL A   1      33.476  28.314  23.741  1.00  0.00     0.227 C 
ATOM      5  O   UNL A   1      34.197  28.533  22.764  1.00  0.00    -0.274 OA
ATOM      6  H   UNL A   1      34.141  29.944  24.674  1.00  0.00     0.163 HD
BRANCH   4   7
ATOM      7  C   UNL A   1      32.668  27.006  23.825  1.00  0.00     0.109 C 
BRANCH   7   8
ATOM      8  C   UNL A   1      33.536  25.738  23.913  1.00  0.00    -0.036 A 
ATOM      9  C   UNL A   1      35.396  21.879  24.521  1.00  0.00     0.044 C 
ATOM     10  C   UNL A   1      34.817  23.242  24.293  1.00  0.00    -0.051 A 
ATOM     11  C   UNL A   1      34.896  24.235  25.273  1.00  0.00     0.004 A 
ATOM     12  C   UNL A   1      34.214  23.550  23.074  1.00  0.00     0.004 A 
ATOM     13  C   UNL A   1      34.266  25.469  25.083  1.00  0.00     0.005 A 
ATOM     14  C   UNL A   1      33.613  24.795  22.876  1.00  0.00     0.005 A 
ENDBRANCH   7   8
BRANCH   7  15
ATOM     15  C   UNL A   1      31.610  26.927  22.687  1.00  0.00     0.027 C 
BRANCH  15  16
ATOM     16  C   UNL A   1      30.918  28.236  22.279  1.00  0.00     0.116 C 
BRANCH  16  17
ATOM     17  C   UNL A   1      29.605  28.552  22.962  1.00  0.00     0.389 C 
ATOM     18  F   UNL A   1      29.050  27.448  23.499  1.00  0.00    -0.171 F 
ATOM     19  F   UNL A   1      29.819  29.434  23.967  1.00  0.00    -0.171 F 
ATOM     20  F   UNL A   1      28.735  29.119  22.111  1.00  0.00    -0.171 F 
ENDBRANCH  16  17
ENDBRANCH  15  16
ENDBRANCH   7  15
ENDBRANCH   4   7
ENDBRANCH   2   3
ENDBRANCH   1   2
BRANCH   1  21
ATOM     21  C   UNL A   1      34.739  29.574  27.033  1.00  0.00     0.118 C 
BRANCH  21  22
ATOM     22  N   UNL A   1      35.415  30.809  27.406  1.00  0.00    -0.352 N 
ATOM     23  C   UNL A   1      36.621  30.948  28.076  1.00  0.00     0.251 C 
ATOM     24  H   UNL A   1      34.962  31.646  27.152  1.00  0.00     0.163 HD
ATOM     25  O   UNL A   1      36.992  32.026  28.506  1.00  0.00    -0.269 OA
BRANCH  23  26
ATOM     26  C   UNL A   1      37.489  29.751  28.160  1.00  0.00     0.039 A 
ATOM     27  C   UNL A   1      37.466  29.018  29.352  1.00  0.00     0.014 A 
ATOM     28  C   UNL A   1      38.488  29.551  27.214  1.00  0.00     0.014 A 
ATOM     29  C   UNL A   1      38.563  28.227  29.687  1.00  0.00     0.010 A 
ATOM     30  C   UNL A   1      39.621  28.865  27.599  1.00  0.00     0.010 A 
ATOM     31  C   UNL A   1      39.676  28.235  28.852  1.00  0.00    -0.014 A 
BRANCH  31  32
ATOM     32  C   UNL A   1      40.971  27.654  29.193  1.00  0.00     0.031 A 
ATOM     33  C   UNL A   1      41.237  26.236  28.849  1.00  0.00     0.074 A 
ATOM     34  C   UNL A   1      41.966  28.437  29.666  1.00  0.00     0.049 A 
ATOM     35  N   UNL A   1      42.295  25.587  29.198  1.00  0.00    -0.248 NA
ATOM     36  C   UNL A   1      40.271  25.399  28.136  1.00  0.00     0.031 C 
ATOM     37  C   UNL A   1      43.400  28.156  29.623  1.00  0.00     0.029 A 
ATOM     38  N   UNL A   1      41.860  29.564  30.486  1.00  0.00    -0.354 N 
ATOM     39  C   UNL A   1      42.298  24.394  28.515  1.00  0.00     0.074 A 
ATOM     40  C   UNL A   1      40.967  24.270  27.985  1.00  0.00     0.031 C 
ATOM     41  C   UNL A   1      44.021  28.902  30.547  1.00  0.00     0.029 A 
ATOM     42  C   UNL A   1      42.993  29.560  31.329  1.00  0.00     0.049 A 
ATOM     43  H   UNL A   1      41.135  30.231  30.478  1.00  0.00     0.167 HD
ATOM     44  C   UNL A   1      43.479  23.732  28.370  1.00  0.00     0.037 A 
ATOM     45  C   UNL A   1      42.869  29.440  32.685  1.00  0.00     0.037 A 
ATOM     46  C   UNL A   1      44.457  24.223  29.347  1.00  0.00     0.049 A 
ATOM     47  C   UNL A   1      43.524  28.207  33.265  1.00  0.00     0.074 A 
ATOM     48  C   UNL A   1      45.586  25.018  29.264  1.00  0.00     0.029 A 
ATOM     49  N   UNL A   1      44.160  24.106  30.705  1.00  0.00    -0.354 N 
ATOM     50  N   UNL A   1      43.926  27.186  32.557  1.00  0.00    -0.248 NA
ATOM     51  C   UNL A   1      43.766  28.015  34.694  1.00  0.00     0.031 C 
ATOM     52  C   UNL A   1      45.897  25.470  30.578  1.00  0.00     0.029 A 
ATOM     53  C   UNL A   1      44.987  24.912  31.461  1.00  0.00     0.049 A 
ATOM     54  H   UNL A   1      43.454  23.527  31.074  1.00  0.00     0.167 HD
ATOM     55  C   UNL A   1      44.411  26.207  33.385  1.00  0.00     0.074 A 
ATOM     56  C   UNL A   1      44.326  26.793  34.710  1.00  0.00     0.031 C 
ATOM     57  C   UNL A   1      44.820  24.991  32.909  1.00  0.00     0.037 A 
BRANCH  44  58
ATOM     58  C   UNL A   1      43.823  22.792  27.221  1.00  0.00     0.058 A 
ATOM     59  C   UNL A   1      43.063  21.618  27.008  1.00  0.00     0.135 A 
ATOM     60  C   UNL A   1      44.960  22.897  26.385  1.00  0.00     0.135 A 
ATOM     61  F   UNL A   1      41.959  21.366  27.727  1.00  0.00    -0.206 F 
ATOM     62  C   UNL A   1      43.416  20.630  26.077  1.00  0.00     0.059 A 
ATOM     63  C   UNL A   1      45.308  21.945  25.423  1.00  0.00     0.059 A 
ATOM     64  F   UNL A   1      45.843  23.893  26.483  1.00  0.00    -0.206 F 
ATOM     65  C   UNL A   1      44.547  20.799  25.290  1.00  0.00     0.060 A 
BRANCH  65  66
ATOM     66  S   UNL A   1      45.037  19.516  24.124  1.00  0.00     0.124 S 
ATOM     67  O   UNL A   1      44.536  20.050  22.861  1.00  0.00    -0.237 OA
ATOM     68  O   UNL A   1      46.487  19.491  24.275  1.00  0.00    -0.237 OA
ATOM     69  O   UNL A   1      44.344  18.327  24.614  1.00  0.00    -0.744 OA
ENDBRANCH  65  66
ENDBRANCH  44  58
BRANCH  45  70
ATOM     70  C   UNL A   1      41.658  30.125  33.216  1.00  0.00     0.058 A 
ATOM     71  C   UNL A   1      41.712  31.529  33.308  1.00  0.00     0.135 A 
ATOM     72  C   UNL A   1      40.393  29.527  33.127  1.00  0.00     0.135 A 
ATOM     73  F   UNL A   1      42.898  32.149  33.430  1.00  0.00    -0.206 F 
ATOM     74  C   UNL A   1      40.584  32.315  33.106  1.00  0.00     0.059 A 
ATOM     75  C   UNL A   1      39.245  30.298  32.939  1.00  0.00     0.059 A 
ATOM     76  F   UNL A   1      40.281  28.192  33.050  1.00  0.00    -0.206 F 
ATOM     77  C   UNL A   1      39.371  31.685  32.838  1.00  0.00     0.060 A 
BRANCH  77  78
ATOM     78  S   UNL A   1      38.038  32.691  32.143  1.00  0.00     0.124 S 
ATOM     79  O   UNL A   1      37.679  33.548  33.266  1.00  0.00    -0.237 OA
ATOM     80  O   UNL A   1      38.723  33.357  31.035  1.00  0.00    -0.237 OA
ATOM     81  O   UNL A   1      37.036  31.702  31.759  1.00  0.00    -0.744 OA
ENDBRANCH  77  78
ENDBRANCH  45  70
BRANCH  57  82
ATOM     82  C   UNL A   1      45.161  23.779  33.754  1.00  0.00     0.058 A 
ATOM     83  C   UNL A   1      44.252  22.758  34.083  1.00  0.00     0.135 A 
ATOM     84  C   UNL A   1      46.499  23.546  34.155  1.00  0.00     0.135 A 
ATOM     85  F   UNL A   1      42.981  22.790  33.658  1.00  0.00    -0.206 F 
ATOM     86  C   UNL A   1      44.621  21.629  34.822  1.00  0.00     0.059 A 
ATOM     87  C   UNL A   1      46.902  22.400  34.841  1.00  0.00     0.059 A 
ATOM     88  F   UNL A   1      47.476  24.424  33.880  1.00  0.00    -0.206 F 
ATOM     89  C   UNL A   1      45.948  21.459  35.198  1.00  0.00     0.060 A 
BRANCH  89  90
ATOM     90  S   UNL A   1      46.452  19.978  36.096  1.00  0.00     0.124 S 
ATOM     91  O   UNL A   1      45.877  18.924  35.267  1.00  0.00    -0.237 OA
ATOM     92  O   UNL A   1      47.910  20.064  36.078  1.00  0.00    -0.237 OA
ATOM     93  O   UNL A   1      45.839  20.161  37.407  1.00  0.00    -0.744 OA
ENDBRANCH  89  90
ENDBRANCH  57  82
ENDBRANCH  31  32
ENDBRANCH  23  26
ENDBRANCH  21  22
ENDBRANCH   1  21
TORSDOF 17
ENDMDL
MODEL 3
REMARK VINA RESULT:     -12.7      2.963      3.877
REMARK SMILES Cc1ccc([C@H](CCC(F)(F)F)C(=O)NCCCNC(=O)c2ccc(-c3c4nc(c(-c5c(F)cc(S(=O)(=O)[O-])cc5F)c5ccc([nH]5)c(-c5c(F)cc(S(=O)(=O)[O-])cc5F)c5nc(c(-c6c(F)cc(S(=O)(=O)[O-])cc6F)c6ccc3[nH]6)C=C5)C=C4)cc2)cc1
REMARK SMILES IDX 17 1 16 2 15 3 13 4 14 5 6 7 5 8 1 9 2 10 3 11 89 12 4 13
REMARK SMILES IDX 88 14 7 15 8 16 9 17 10 18 11 19 12 20 18 21 19 22 20 23
REMARK SMILES IDX 21 25 22 26 23 27 87 28 24 29 86 30 25 31 26 32 27 33 80 34
REMARK SMILES IDX 28 35 85 36 79 37 81 38 29 39 84 40 78 41 77 42 30 44 64 45
REMARK SMILES IDX 43 46 63 47 44 48 47 49 62 50 82 51 45 52 46 53 61 55 83 56
REMARK SMILES IDX 48 57 31 58 32 59 41 60 33 61 34 62 40 63 42 64 35 65 36 66
REMARK SMILES IDX 37 67 38 68 39 69 65 70 66 71 75 72 67 73 68 74 74 75 76 76
REMARK SMILES IDX 69 77 70 78 71 79 72 80 73 81 49 82 50 83 59 84 51 85 52 86
REMARK SMILES IDX 58 87 60 88 53 89 54 90 55 91 56 92 57 93
REMARK H PARENT 15 6 19 24 81 43 47 54
REMARK Flexibility Score: inf
ROOT
ATOM      1  C   UNL A   1      32.036  28.615  27.236  1.00  0.00     0.042 C 
ENDROOT
BRANCH   1   2
ATOM      2  C   UNL A   1      31.177  27.813  26.274  1.00  0.00     0.117 C 
BRANCH   2   3
ATOM      3  N   UNL A   1      31.003  26.425  26.693  1.00  0.00    -0.356 N 
ATOM      4  C   UNL A   1      31.853  25.359  26.595  1.00  0.00     0.227 C 
ATOM      5  O   UNL A   1      31.579  24.343  27.239  1.00  0.00    -0.274 OA
ATOM      6  H   UNL A   1      30.135  26.224  27.112  1.00  0.00     0.163 HD
BRANCH   4   7
ATOM      7  C   UNL A   1      33.110  25.394  25.707  1.00  0.00     0.109 C 
BRANCH   7   8
ATOM      8  C   UNL A   1      32.813  25.550  24.205  1.00  0.00    -0.036 A 
ATOM      9  C   UNL A   1      32.562  25.542  19.886  1.00  0.00     0.044 C 
ATOM     10  C   UNL A   1      32.604  25.601  21.382  1.00  0.00    -0.051 A 
ATOM     11  C   UNL A   1      33.432  26.508  22.047  1.00  0.00     0.004 A 
ATOM     12  C   UNL A   1      31.782  24.766  22.138  1.00  0.00     0.004 A 
ATOM     13  C   UNL A   1      33.532  26.484  23.442  1.00  0.00     0.005 A 
ATOM     14  C   UNL A   1      31.862  24.766  23.532  1.00  0.00     0.005 A 
ENDBRANCH   7   8
BRANCH   7  15
ATOM     15  C   UNL A   1      34.043  24.185  26.008  1.00  0.00     0.027 C 
BRANCH  15  16
ATOM     16  C   UNL A   1      35.178  23.908  25.011  1.00  0.00     0.116 C 
BRANCH  16  17
ATOM     17  C   UNL A   1      34.972  22.758  24.050  1.00  0.00     0.389 C 
ATOM     18  F   UNL A   1      35.952  21.841  24.160  1.00  0.00    -0.171 F 
ATOM     19  F   UNL A   1      33.799  22.142  24.326  1.00  0.00    -0.171 F 
ATOM     20  F   UNL A   1      34.906  23.190  22.779  1.00  0.00    -0.171 F 
ENDBRANCH  16  17
ENDBRANCH  15  16
ENDBRANCH   7  15
ENDBRANCH   4   7
ENDBRANCH   2   3
ENDBRANCH   1   2
BRANCH   1  21
ATOM     21  C   UNL A   1      33.351  29.046  26.619  1.00  0.00     0.118 C 
BRANCH  21  22
ATOM     22  N   UNL A   1      33.653  30.459  26.806  1.00  0.00    -0.352 N 
ATOM     23  C   UNL A   1      34.681  31.016  27.551  1.00  0.00     0.251 C 
ATOM     24  H   UNL A   1      33.056  31.094  26.348  1.00  0.00     0.163 HD
ATOM     25  O   UNL A   1      34.718  32.209  27.795  1.00  0.00    -0.269 OA
BRANCH  23  26
ATOM     26  C   UNL A   1      35.786  30.118  27.955  1.00  0.00     0.039 A 
ATOM     27  C   UNL A   1      35.790  29.648  29.273  1.00  0.00     0.014 A 
ATOM     28  C   UNL A   1      36.912  29.999  27.148  1.00  0.00     0.014 A 
ATOM     29  C   UNL A   1      36.992  29.241  29.848  1.00  0.00     0.010 A 
ATOM     30  C   UNL A   1      38.119  29.710  27.752  1.00  0.00     0.010 A 
ATOM     31  C   UNL A   1      38.166  29.369  29.113  1.00  0.00    -0.014 A 
BRANCH  31  32
ATOM     32  C   UNL A   1      39.508  29.213  29.662  1.00  0.00     0.031 A 
ATOM     33  C   UNL A   1      40.265  27.970  29.373  1.00  0.00     0.074 A 
ATOM     34  C   UNL A   1      40.115  30.247  30.287  1.00  0.00     0.049 A 
ATOM     35  N   UNL A   1      41.407  27.673  29.893  1.00  0.00    -0.248 NA
ATOM     36  C   UNL A   1      39.741  26.905  28.517  1.00  0.00     0.031 C 
ATOM     37  C   UNL A   1      41.551  30.437  30.479  1.00  0.00     0.029 A 
ATOM     38  N   UNL A   1      39.527  31.242  31.074  1.00  0.00    -0.354 N 
ATOM     39  C   UNL A   1      41.898  26.577  29.225  1.00  0.00     0.074 A 
ATOM     40  C   UNL A   1      40.777  26.063  28.486  1.00  0.00     0.031 C 
ATOM     41  C   UNL A   1      41.749  31.296  31.489  1.00  0.00     0.029 A 
ATOM     42  C   UNL A   1      40.455  31.556  32.090  1.00  0.00     0.049 A 
ATOM     43  H   UNL A   1      38.637  31.645  30.945  1.00  0.00     0.167 HD
ATOM     44  C   UNL A   1      43.237  26.331  29.277  1.00  0.00     0.037 A 
ATOM     45  C   UNL A   1      40.167  31.339  33.408  1.00  0.00     0.037 A 
ATOM     46  C   UNL A   1      43.841  27.059  30.398  1.00  0.00     0.049 A 
ATOM     47  C   UNL A   1      41.083  30.351  34.093  1.00  0.00     0.074 A 
ATOM     48  C   UNL A   1      44.655  28.173  30.496  1.00  0.00     0.029 A 
ATOM     49  N   UNL A   1      43.389  26.790  31.690  1.00  0.00    -0.354 N 
ATOM     50  N   UNL A   1      41.897  29.545  33.465  1.00  0.00    -0.248 NA
ATOM     51  C   UNL A   1      41.149  30.178  35.543  1.00  0.00     0.031 C 
ATOM     52  C   UNL A   1      44.596  28.637  31.841  1.00  0.00     0.029 A 
ATOM     53  C   UNL A   1      43.787  27.779  32.567  1.00  0.00     0.049 A 
ATOM     54  H   UNL A   1      42.858  25.999  31.943  1.00  0.00     0.167 HD
ATOM     55  C   UNL A   1      42.535  28.732  34.365  1.00  0.00     0.074 A 
ATOM     56  C   UNL A   1      42.061  29.197  35.656  1.00  0.00     0.031 C 
ATOM     57  C   UNL A   1      43.380  27.732  33.968  1.00  0.00     0.037 A 
BRANCH  44  58
ATOM     58  C   UNL A   1      44.038  25.604  28.204  1.00  0.00     0.058 A 
ATOM     59  C   UNL A   1      44.249  26.205  26.941  1.00  0.00     0.135 A 
ATOM     60  C   UNL A   1      44.501  24.269  28.287  1.00  0.00     0.135 A 
ATOM     61  F   UNL A   1      43.858  27.465  26.698  1.00  0.00    -0.206 F 
ATOM     62  C   UNL A   1      44.834  25.534  25.857  1.00  0.00     0.059 A 
ATOM     63  C   UNL A   1      45.123  23.595  27.233  1.00  0.00     0.059 A 
ATOM     64  F   UNL A   1      44.327  23.507  29.369  1.00  0.00    -0.206 F 
ATOM     65  C   UNL A   1      45.264  24.223  26.011  1.00  0.00     0.060 A 
BRANCH  65  66
ATOM     66  S   UNL A   1      45.975  23.335  24.612  1.00  0.00     0.124 S 
ATOM     67  O   UNL A   1      46.992  24.274  24.146  1.00  0.00    -0.237 OA
ATOM     68  O   UNL A   1      46.472  22.114  25.236  1.00  0.00    -0.237 OA
ATOM     69  O   UNL A   1      44.839  23.153  23.711  1.00  0.00    -0.744 OA
ENDBRANCH  65  66
ENDBRANCH  44  58
BRANCH  45  70
ATOM     70  C   UNL A   1      38.734  31.580  33.732  1.00  0.00     0.058 A 
ATOM     71  C   UNL A   1      38.354  32.912  33.984  1.00  0.00     0.135 A 
ATOM     72  C   UNL A   1      37.738  30.689  33.304  1.00  0.00     0.135 A 
ATOM     73  F   UNL A   1      39.263  33.796  34.428  1.00  0.00    -0.206 F 
ATOM     74  C   UNL A   1      37.100  33.391  33.626  1.00  0.00     0.059 A 
ATOM     75  C   UNL A   1      36.467  31.148  32.954  1.00  0.00     0.059 A 
ATOM     76  F   UNL A   1      38.039  29.405  33.061  1.00  0.00    -0.206 F 
ATOM     77  C   UNL A   1      36.195  32.515  33.032  1.00  0.00     0.060 A 
BRANCH  77  78
ATOM     78  S   UNL A   1      34.772  33.230  32.175  1.00  0.00     0.124 S 
ATOM     79  O   UNL A   1      33.740  33.194  33.204  1.00  0.00    -0.237 OA
ATOM     80  O   UNL A   1      35.276  34.560  31.834  1.00  0.00    -0.237 OA
ATOM     81  O   UNL A   1      34.570  32.326  31.047  1.00  0.00    -0.744 OA
ENDBRANCH  77  78
ENDBRANCH  45  70
BRANCH  57  82
ATOM     82  C   UNL A   1      43.955  26.652  34.863  1.00  0.00     0.058 A 
ATOM     83  C   UNL A   1      43.231  25.543  35.337  1.00  0.00     0.135 A 
ATOM     84  C   UNL A   1      45.339  26.641  35.165  1.00  0.00     0.135 A 
ATOM     85  F   UNL A   1      41.942  25.362  35.019  1.00  0.00    -0.206 F 
ATOM     86  C   UNL A   1      43.815  24.540  36.118  1.00  0.00     0.059 A 
ATOM     87  C   UNL A   1      45.953  25.622  35.892  1.00  0.00     0.059 A 
ATOM     88  F   UNL A   1      46.154  27.622  34.749  1.00  0.00    -0.206 F 
ATOM     89  C   UNL A   1      45.176  24.588  36.392  1.00  0.00     0.060 A 
BRANCH  89  90
ATOM     90  S   UNL A   1      45.956  23.269  37.344  1.00  0.00     0.124 S 
ATOM     91  O   UNL A   1      45.518  22.084  36.615  1.00  0.00    -0.237 OA
ATOM     92  O   UNL A   1      47.378  23.583  37.236  1.00  0.00    -0.237 OA
ATOM     93  O   UNL A   1      45.385  23.442  38.676  1.00  0.00    -0.744 OA
ENDBRANCH  89  90
ENDBRANCH  57  82
ENDBRANCH  31  32
ENDBRANCH  23  26
ENDBRANCH  21  22
ENDBRANCH   1  21
TORSDOF 17
ENDMDL
