MODEL 1
REMARK VINA RESULT:     -11.6      0.000      0.000
REMARK SMILES CC(C)(C)OC(=O)N1C[C@@H](Oc2cccnc2)C[C@H]1C(=O)NCCCNC(=O)c1ccc(-c2c3nc(c(-c4c(F)cc(S(=O)(=O)[O-])cc4F)c4ccc([nH]4)c(-c4c(F)cc(S(=O)(=O)[O-])cc4F)c4nc(c(-c5c(F)cc(S(=O)(=O)[O-])cc5F)c5ccc2[nH]5)C=C4)C=C3)cc1
REMARK SMILES IDX 24 1 23 2 22 3 20 4 21 5 19 7 8 8 9 9 10 10 18 11 6 12 7 13
REMARK SMILES IDX 5 14 2 15 1 16 3 17 4 18 11 19 12 20 13 21 17 22 14 23 16 24
REMARK SMILES IDX 15 25 25 26 26 27 27 28 28 30 29 31 30 32 94 33 31 34 93 35
REMARK SMILES IDX 32 36 33 37 34 38 87 39 35 40 92 41 86 42 88 43 36 44 91 45
REMARK SMILES IDX 85 46 84 47 37 49 71 50 50 51 70 52 51 53 54 54 69 55 89 56
REMARK SMILES IDX 52 57 53 58 68 60 90 61 55 62 38 63 39 64 48 65 40 66 41 67
REMARK SMILES IDX 47 68 49 69 42 70 43 71 44 72 45 73 46 74 72 75 73 76 82 77
REMARK SMILES IDX 74 78 75 79 81 80 83 81 76 82 77 83 78 84 79 85 80 86 56 87
REMARK SMILES IDX 57 88 66 89 58 90 59 91 65 92 67 93 60 94 61 95 62 96 63 97
REMARK SMILES IDX 64 98
REMARK H PARENT 22 6 26 29 88 48 54 59
REMARK Flexibility Score: inf
ROOT
ATOM      1  C   UNL A   1      32.251  27.575  27.249  1.00  0.00     0.042 C 
ENDROOT
BRANCH   1   2
ATOM      2  C   UNL A   1      32.029  26.434  26.269  1.00  0.00     0.117 C 
BRANCH   2   3
ATOM      3  N   UNL A   1      31.484  25.251  26.910  1.00  0.00    -0.354 N 
ATOM      4  C   UNL A   1      31.494  23.931  26.583  1.00  0.00     0.243 C 
ATOM      5  O   UNL A   1      30.892  23.183  27.365  1.00  0.00    -0.273 OA
ATOM      6  H   UNL A   1      31.013  25.443  27.752  1.00  0.00     0.163 HD
BRANCH   4   7
ATOM      7  C   UNL A   1      32.324  23.305  25.435  1.00  0.00     0.181 C 
ATOM      8  N   UNL A   1      33.643  22.758  25.703  1.00  0.00    -0.292 N 
ATOM      9  C   UNL A   1      33.680  21.309  25.605  1.00  0.00     0.169 C 
ATOM     10  C   UNL A   1      32.455  20.947  24.771  1.00  0.00     0.195 C 
ATOM     11  C   UNL A   1      31.520  22.162  24.790  1.00  0.00     0.082 C 
BRANCH   8  12
ATOM     12  C   UNL A   1      34.716  23.600  25.884  1.00  0.00     0.411 C 
ATOM     13  O   UNL A   1      34.609  24.816  25.799  1.00  0.00    -0.224 OA
BRANCH  12  14
ATOM     14  O   UNL A   1      35.855  22.932  26.178  1.00  0.00    -0.444 OA
BRANCH  14  15
ATOM     15  C   UNL A   1      36.994  22.865  25.267  1.00  0.00     0.106 C 
ATOM     16  C   UNL A   1      37.442  21.398  25.313  1.00  0.00     0.056 C 
ATOM     17  C   UNL A   1      38.116  23.748  25.819  1.00  0.00     0.056 C 
ATOM     18  C   UNL A   1      36.697  23.231  23.806  1.00  0.00     0.056 C 
ENDBRANCH  14  15
ENDBRANCH  12  14
ENDBRANCH   8  12
BRANCH  10  19
ATOM     19  O   UNL A   1      31.879  19.669  25.036  1.00  0.00    -0.487 OA
BRANCH  19  20
ATOM     20  C   UNL A   1      32.492  18.486  24.775  1.00  0.00     0.138 A 
ATOM     21  C   UNL A   1      32.848  17.496  25.678  1.00  0.00     0.050 A 
ATOM     22  C   UNL A   1      32.795  18.242  23.437  1.00  0.00     0.157 A 
ATOM     23  C   UNL A   1      33.437  16.312  25.228  1.00  0.00     0.024 A 
ATOM     24  N   UNL A   1      33.377  17.111  22.962  1.00  0.00    -0.261 NA
ATOM     25  C   UNL A   1      33.677  16.165  23.873  1.00  0.00     0.111 A 
ENDBRANCH  19  20
ENDBRANCH  10  19
ENDBRANCH   4   7
ENDBRANCH   2   3
ENDBRANCH   1   2
BRANCH   1  26
ATOM     26  C   UNL A   1      33.600  28.257  27.083  1.00  0.00     0.118 C 
BRANCH  26  27
ATOM     27  N   UNL A   1      33.493  29.698  27.276  1.00  0.00    -0.352 N 
ATOM     28  C   UNL A   1      34.332  30.570  27.925  1.00  0.00     0.251 C 
ATOM     29  H   UNL A   1      32.692  30.111  26.878  1.00  0.00     0.163 HD
ATOM     30  O   UNL A   1      33.906  31.680  28.236  1.00  0.00    -0.269 OA
BRANCH  28  31
ATOM     31  C   UNL A   1      35.727  30.193  28.250  1.00  0.00     0.039 A 
ATOM     32  C   UNL A   1      36.704  30.280  27.254  1.00  0.00     0.014 A 
ATOM     33  C   UNL A   1      36.068  29.689  29.509  1.00  0.00     0.014 A 
ATOM     34  C   UNL A   1      38.022  29.907  27.532  1.00  0.00     0.010 A 
ATOM     35  C   UNL A   1      37.397  29.404  29.811  1.00  0.00     0.010 A 
ATOM     36  C   UNL A   1      38.386  29.491  28.822  1.00  0.00    -0.014 A 
BRANCH  36  37
ATOM     37  C   UNL A   1      39.785  29.114  29.156  1.00  0.00     0.031 A 
ATOM     38  C   UNL A   1      40.707  30.124  29.789  1.00  0.00     0.074 A 
ATOM     39  C   UNL A   1      40.245  27.891  28.829  1.00  0.00     0.049 A 
ATOM     40  N   UNL A   1      41.982  30.022  30.062  1.00  0.00    -0.248 NA
ATOM     41  C   UNL A   1      40.126  31.433  30.129  1.00  0.00     0.031 C 
ATOM     42  C   UNL A   1      39.465  26.841  28.170  1.00  0.00     0.029 A 
ATOM     43  N   UNL A   1      41.486  27.328  28.989  1.00  0.00    -0.354 N 
ATOM     44  C   UNL A   1      42.359  31.257  30.582  1.00  0.00     0.074 A 
ATOM     45  C   UNL A   1      41.191  32.108  30.539  1.00  0.00     0.031 C 
ATOM     46  C   UNL A   1      40.237  25.757  28.001  1.00  0.00     0.029 A 
ATOM     47  C   UNL A   1      41.578  26.045  28.501  1.00  0.00     0.049 A 
ATOM     48  H   UNL A   1      42.240  27.797  29.414  1.00  0.00     0.167 HD
ATOM     49  C   UNL A   1      43.563  31.639  31.071  1.00  0.00     0.037 A 
ATOM     50  C   UNL A   1      42.627  25.201  28.451  1.00  0.00     0.037 A 
ATOM     51  C   UNL A   1      44.713  30.775  31.146  1.00  0.00     0.049 A 
ATOM     52  C   UNL A   1      43.951  25.643  29.014  1.00  0.00     0.074 A 
ATOM     53  C   UNL A   1      45.959  31.045  31.682  1.00  0.00     0.029 A 
ATOM     54  N   UNL A   1      44.756  29.473  30.671  1.00  0.00    -0.354 N 
ATOM     55  N   UNL A   1      44.273  26.794  29.554  1.00  0.00    -0.248 NA
ATOM     56  C   UNL A   1      45.050  24.670  28.968  1.00  0.00     0.031 C 
ATOM     57  C   UNL A   1      46.768  29.919  31.498  1.00  0.00     0.029 A 
ATOM     58  C   UNL A   1      46.011  28.931  30.888  1.00  0.00     0.049 A 
ATOM     59  H   UNL A   1      44.004  29.002  30.243  1.00  0.00     0.167 HD
ATOM     60  C   UNL A   1      45.605  26.675  29.935  1.00  0.00     0.074 A 
ATOM     61  C   UNL A   1      46.024  25.336  29.574  1.00  0.00     0.031 C 
ATOM     62  C   UNL A   1      46.408  27.591  30.530  1.00  0.00     0.037 A 
BRANCH  49  63
ATOM     63  C   UNL A   1      43.697  33.052  31.574  1.00  0.00     0.058 A 
ATOM     64  C   UNL A   1      44.076  34.104  30.725  1.00  0.00     0.135 A 
ATOM     65  C   UNL A   1      43.413  33.365  32.913  1.00  0.00     0.135 A 
ATOM     66  F   UNL A   1      44.374  33.860  29.438  1.00  0.00    -0.206 F 
ATOM     67  C   UNL A   1      44.201  35.409  31.191  1.00  0.00     0.059 A 
ATOM     68  C   UNL A   1      43.503  34.668  33.396  1.00  0.00     0.059 A 
ATOM     69  F   UNL A   1      43.045  32.399  33.770  1.00  0.00    -0.206 F 
ATOM     70  C   UNL A   1      43.913  35.680  32.529  1.00  0.00     0.060 A 
BRANCH  70  71
ATOM     71  S   UNL A   1      44.078  37.379  33.118  1.00  0.00     0.124 S 
ATOM     72  O   UNL A   1      44.032  38.127  31.865  1.00  0.00    -0.237 OA
ATOM     73  O   UNL A   1      42.915  37.524  33.986  1.00  0.00    -0.237 OA
ATOM     74  O   UNL A   1      45.369  37.379  33.800  1.00  0.00    -0.744 OA
ENDBRANCH  70  71
ENDBRANCH  49  63
BRANCH  50  75
ATOM     75  C   UNL A   1      42.459  23.844  27.867  1.00  0.00     0.058 A 
ATOM     76  C   UNL A   1      42.368  22.712  28.691  1.00  0.00     0.135 A 
ATOM     77  C   UNL A   1      42.365  23.652  26.480  1.00  0.00     0.135 A 
ATOM     78  F   UNL A   1      42.457  22.844  30.023  1.00  0.00    -0.206 F 
ATOM     79  C   UNL A   1      42.203  21.436  28.162  1.00  0.00     0.059 A 
ATOM     80  C   UNL A   1      42.176  22.388  25.927  1.00  0.00     0.059 A 
ATOM     81  F   UNL A   1      42.428  24.704  25.650  1.00  0.00    -0.206 F 
ATOM     82  C   UNL A   1      42.105  21.285  26.777  1.00  0.00     0.060 A 
BRANCH  82  83
ATOM     83  S   UNL A   1      41.836  19.632  26.103  1.00  0.00     0.124 S 
ATOM     84  O   UNL A   1      40.403  19.656  25.830  1.00  0.00    -0.237 OA
ATOM     85  O   UNL A   1      42.710  19.630  24.933  1.00  0.00    -0.237 OA
ATOM     86  O   UNL A   1      42.259  18.755  27.190  1.00  0.00    -0.744 OA
ENDBRANCH  82  83
ENDBRANCH  50  75
BRANCH  62  87
ATOM     87  C   UNL A   1      47.812  27.169  30.862  1.00  0.00     0.058 A 
ATOM     88  C   UNL A   1      48.126  26.553  32.083  1.00  0.00     0.135 A 
ATOM     89  C   UNL A   1      48.844  27.335  29.925  1.00  0.00     0.135 A 
ATOM     90  F   UNL A   1      47.177  26.376  33.016  1.00  0.00    -0.206 F 
ATOM     91  C   UNL A   1      49.422  26.135  32.373  1.00  0.00     0.059 A 
ATOM     92  C   UNL A   1      50.140  26.902  30.182  1.00  0.00     0.059 A 
ATOM     93  F   UNL A   1      48.593  27.910  28.738  1.00  0.00    -0.206 F 
ATOM     94  C   UNL A   1      50.422  26.313  31.414  1.00  0.00     0.060 A 
BRANCH  94  95
ATOM     95  S   UNL A   1      52.091  25.735  31.787  1.00  0.00     0.124 S 
ATOM     96  O   UNL A   1      51.849  24.335  32.122  1.00  0.00    -0.237 OA
ATOM     97  O   UNL A   1      52.793  25.974  30.530  1.00  0.00    -0.237 OA
ATOM     98  O   UNL A   1      52.504  26.585  32.899  1.00  0.00    -0.744 OA
ENDBRANCH  94  95
ENDBRANCH  62  87
ENDBRANCH  36  37
ENDBRANCH  28  31
ENDBRANCH  26  27
ENDBRANCH   1  26
TORSDOF 18
ENDMDL
MODEL 2
REMARK VINA RESULT:     -11.4      2.483      3.135
REMARK SMILES CC(C)(C)OC(=O)N1C[C@@H](Oc2cccnc2)C[C@H]1C(=O)NCCCNC(=O)c1ccc(-c2c3nc(c(-c4c(F)cc(S(=O)(=O)[O-])cc4F)c4ccc([nH]4)c(-c4c(F)cc(S(=O)(=O)[O-])cc4F)c4nc(c(-c5c(F)cc(S(=O)(=O)[O-])cc5F)c5ccc2[nH]5)C=C4)C=C3)cc1
REMARK SMILES IDX 24 1 23 2 22 3 20 4 21 5 19 7 8 8 9 9 10 10 18 11 6 12 7 13
REMARK SMILES IDX 5 14 2 15 1 16 3 17 4 18 11 19 12 20 13 21 17 22 14 23 16 24
REMARK SMILES IDX 15 25 25 26 26 27 27 28 28 30 29 31 30 32 94 33 31 34 93 35
REMARK SMILES IDX 32 36 33 37 34 38 87 39 35 40 92 41 86 42 88 43 36 44 91 45
REMARK SMILES IDX 85 46 84 47 37 49 71 50 50 51 70 52 51 53 54 54 69 55 89 56
REMARK SMILES IDX 52 57 53 58 68 60 90 61 55 62 38 63 39 64 48 65 40 66 41 67
REMARK SMILES IDX 47 68 49 69 42 70 43 71 44 72 45 73 46 74 72 75 73 76 82 77
REMARK SMILES IDX 74 78 75 79 81 80 83 81 76 82 77 83 78 84 79 85 80 86 56 87
REMARK SMILES IDX 57 88 66 89 58 90 59 91 65 92 67 93 60 94 61 95 62 96 63 97
REMARK SMILES IDX 64 98
REMARK H PARENT 22 6 26 29 88 48 54 59
REMARK Flexibility Score: inf
ROOT
ATOM      1  C   UNL A   1      32.138  27.634  27.034  1.00  0.00     0.042 C 
ENDROOT
BRANCH   1   2
ATOM      2  C   UNL A   1      31.815  26.459  26.124  1.00  0.00     0.117 C 
BRANCH   2   3
ATOM      3  N   UNL A   1      31.406  25.281  26.865  1.00  0.00    -0.354 N 
ATOM      4  C   UNL A   1      31.527  23.947  26.628  1.00  0.00     0.243 C 
ATOM      5  O   UNL A   1      31.025  23.204  27.483  1.00  0.00    -0.273 OA
ATOM      6  H   UNL A   1      30.948  25.488  27.712  1.00  0.00     0.163 HD
BRANCH   4   7
ATOM      7  C   UNL A   1      32.372  23.319  25.492  1.00  0.00     0.181 C 
ATOM      8  N   UNL A   1      33.700  22.802  25.771  1.00  0.00    -0.292 N 
ATOM      9  C   UNL A   1      33.766  21.353  25.696  1.00  0.00     0.169 C 
ATOM     10  C   UNL A   1      32.550  20.954  24.865  1.00  0.00     0.195 C 
ATOM     11  C   UNL A   1      31.592  22.150  24.864  1.00  0.00     0.082 C 
BRANCH   8  12
ATOM     12  C   UNL A   1      34.757  23.668  25.940  1.00  0.00     0.411 C 
ATOM     13  O   UNL A   1      34.634  24.877  25.803  1.00  0.00    -0.224 OA
BRANCH  12  14
ATOM     14  O   UNL A   1      35.898  23.030  26.287  1.00  0.00    -0.444 OA
BRANCH  14  15
ATOM     15  C   UNL A   1      37.085  23.006  25.435  1.00  0.00     0.106 C 
ATOM     16  C   UNL A   1      37.647  21.587  25.593  1.00  0.00     0.056 C 
ATOM     17  C   UNL A   1      38.101  24.011  25.983  1.00  0.00     0.056 C 
ATOM     18  C   UNL A   1      36.834  23.261  23.942  1.00  0.00     0.056 C 
ENDBRANCH  14  15
ENDBRANCH  12  14
ENDBRANCH   8  12
BRANCH  10  19
ATOM     19  O   UNL A   1      31.998  19.670  25.150  1.00  0.00    -0.487 OA
BRANCH  19  20
ATOM     20  C   UNL A   1      32.569  18.494  24.781  1.00  0.00     0.138 A 
ATOM     21  C   UNL A   1      33.077  18.150  23.537  1.00  0.00     0.050 A 
ATOM     22  C   UNL A   1      32.652  17.521  25.775  1.00  0.00     0.157 A 
ATOM     23  C   UNL A   1      33.674  16.902  23.342  1.00  0.00     0.024 A 
ATOM     24  N   UNL A   1      33.211  16.294  25.621  1.00  0.00    -0.261 NA
ATOM     25  C   UNL A   1      33.720  16.016  24.405  1.00  0.00     0.111 A 
ENDBRANCH  19  20
ENDBRANCH  10  19
ENDBRANCH   4   7
ENDBRANCH   2   3
ENDBRANCH   1   2
BRANCH   1  26
ATOM     26  C   UNL A   1      33.556  28.157  26.862  1.00  0.00     0.118 C 
BRANCH  26  27
ATOM     27  N   UNL A   1      33.572  29.607  26.715  1.00  0.00    -0.352 N 
ATOM     28  C   UNL A   1      34.355  30.551  27.332  1.00  0.00     0.251 C 
ATOM     29  H   UNL A   1      32.918  29.966  26.072  1.00  0.00     0.163 HD
ATOM     30  O   UNL A   1      34.001  31.727  27.297  1.00  0.00    -0.269 OA
BRANCH  28  31
ATOM     31  C   UNL A   1      35.606  30.174  28.029  1.00  0.00     0.039 A 
ATOM     32  C   UNL A   1      36.821  30.272  27.344  1.00  0.00     0.014 A 
ATOM     33  C   UNL A   1      35.586  29.659  29.329  1.00  0.00     0.014 A 
ATOM     34  C   UNL A   1      38.012  29.898  27.975  1.00  0.00     0.010 A 
ATOM     35  C   UNL A   1      36.779  29.374  29.987  1.00  0.00     0.010 A 
ATOM     36  C   UNL A   1      38.004  29.471  29.313  1.00  0.00    -0.014 A 
BRANCH  36  37
ATOM     37  C   UNL A   1      39.256  29.093  30.019  1.00  0.00     0.031 A 
ATOM     38  C   UNL A   1      39.678  29.842  31.257  1.00  0.00     0.074 A 
ATOM     39  C   UNL A   1      40.046  28.128  29.511  1.00  0.00     0.049 A 
ATOM     40  N   UNL A   1      40.779  29.732  31.955  1.00  0.00    -0.248 NA
ATOM     41  C   UNL A   1      38.754  30.873  31.758  1.00  0.00     0.031 C 
ATOM     42  C   UNL A   1      39.772  27.362  28.293  1.00  0.00     0.029 A 
ATOM     43  N   UNL A   1      41.251  27.634  29.946  1.00  0.00    -0.354 N 
ATOM     44  C   UNL A   1      40.691  30.693  32.958  1.00  0.00     0.074 A 
ATOM     45  C   UNL A   1      39.453  31.410  32.748  1.00  0.00     0.031 C 
ATOM     46  C   UNL A   1      40.766  26.485  28.089  1.00  0.00     0.029 A 
ATOM     47  C   UNL A   1      41.769  26.651  29.137  1.00  0.00     0.049 A 
ATOM     48  H   UNL A   1      41.702  27.955  30.760  1.00  0.00     0.167 HD
ATOM     49  C   UNL A   1      41.552  30.939  33.974  1.00  0.00     0.037 A 
ATOM     50  C   UNL A   1      42.927  25.968  29.222  1.00  0.00     0.037 A 
ATOM     51  C   UNL A   1      42.765  30.197  34.199  1.00  0.00     0.049 A 
ATOM     52  C   UNL A   1      43.861  26.249  30.369  1.00  0.00     0.074 A 
ATOM     53  C   UNL A   1      43.673  30.325  35.235  1.00  0.00     0.029 A 
ATOM     54  N   UNL A   1      43.238  29.186  33.376  1.00  0.00    -0.354 N 
ATOM     55  N   UNL A   1      43.733  27.121  31.340  1.00  0.00    -0.248 NA
ATOM     56  C   UNL A   1      45.092  25.449  30.434  1.00  0.00     0.031 C 
ATOM     57  C   UNL A   1      44.715  29.417  35.018  1.00  0.00     0.029 A 
ATOM     58  C   UNL A   1      44.432  28.691  33.872  1.00  0.00     0.049 A 
ATOM     59  H   UNL A   1      42.790  28.866  32.559  1.00  0.00     0.167 HD
ATOM     60  C   UNL A   1      44.854  26.958  32.146  1.00  0.00     0.074 A 
ATOM     61  C   UNL A   1      45.642  25.895  31.556  1.00  0.00     0.031 C 
ATOM     62  C   UNL A   1      45.200  27.626  33.274  1.00  0.00     0.037 A 
BRANCH  49  63
ATOM     63  C   UNL A   1      41.208  32.053  34.927  1.00  0.00     0.058 A 
ATOM     64  C   UNL A   1      40.355  31.849  36.023  1.00  0.00     0.135 A 
ATOM     65  C   UNL A   1      41.762  33.333  34.761  1.00  0.00     0.135 A 
ATOM     66  F   UNL A   1      39.785  30.650  36.222  1.00  0.00    -0.206 F 
ATOM     67  C   UNL A   1      40.038  32.880  36.902  1.00  0.00     0.059 A 
ATOM     68  C   UNL A   1      41.482  34.372  35.644  1.00  0.00     0.059 A 
ATOM     69  F   UNL A   1      42.586  33.585  33.731  1.00  0.00    -0.206 F 
ATOM     70  C   UNL A   1      40.605  34.139  36.703  1.00  0.00     0.060 A 
BRANCH  70  71
ATOM     71  S   UNL A   1      40.185  35.466  37.853  1.00  0.00     0.124 S 
ATOM     72  O   UNL A   1      41.406  35.559  38.647  1.00  0.00    -0.237 OA
ATOM     73  O   UNL A   1      39.924  36.587  36.957  1.00  0.00    -0.237 OA
ATOM     74  O   UNL A   1      39.016  34.947  38.559  1.00  0.00    -0.744 OA
ENDBRANCH  70  71
ENDBRANCH  49  63
BRANCH  50  75
ATOM     75  C   UNL A   1      43.255  24.934  28.205  1.00  0.00     0.058 A 
ATOM     76  C   UNL A   1      42.892  23.593  28.399  1.00  0.00     0.135 A 
ATOM     77  C   UNL A   1      43.916  25.266  27.012  1.00  0.00     0.135 A 
ATOM     78  F   UNL A   1      42.262  23.225  29.525  1.00  0.00    -0.206 F 
ATOM     79  C   UNL A   1      43.184  22.614  27.454  1.00  0.00     0.059 A 
ATOM     80  C   UNL A   1      44.198  24.309  26.041  1.00  0.00     0.059 A 
ATOM     81  F   UNL A   1      44.268  26.538  26.771  1.00  0.00    -0.206 F 
ATOM     82  C   UNL A   1      43.835  22.984  26.276  1.00  0.00     0.060 A 
BRANCH  82  83
ATOM     83  S   UNL A   1      44.160  21.716  25.032  1.00  0.00     0.124 S 
ATOM     84  O   UNL A   1      45.520  21.313  25.371  1.00  0.00    -0.237 OA
ATOM     85  O   UNL A   1      43.115  20.736  25.311  1.00  0.00    -0.237 OA
ATOM     86  O   UNL A   1      44.010  22.438  23.772  1.00  0.00    -0.744 OA
ENDBRANCH  82  83
ENDBRANCH  50  75
BRANCH  62  87
ATOM     87  C   UNL A   1      46.467  27.207  33.966  1.00  0.00     0.058 A 
ATOM     88  C   UNL A   1      46.477  26.190  34.932  1.00  0.00     0.135 A 
ATOM     89  C   UNL A   1      47.693  27.797  33.620  1.00  0.00     0.135 A 
ATOM     90  F   UNL A   1      45.330  25.599  35.304  1.00  0.00    -0.206 F 
ATOM     91  C   UNL A   1      47.658  25.784  35.547  1.00  0.00     0.059 A 
ATOM     92  C   UNL A   1      48.888  27.390  34.202  1.00  0.00     0.059 A 
ATOM     93  F   UNL A   1      47.738  28.768  32.695  1.00  0.00    -0.206 F 
ATOM     94  C   UNL A   1      48.859  26.390  35.173  1.00  0.00     0.060 A 
BRANCH  94  95
ATOM     95  S   UNL A   1      50.389  25.832  35.952  1.00  0.00     0.124 S 
ATOM     96  O   UNL A   1      51.305  25.808  34.816  1.00  0.00    -0.237 OA
ATOM     97  O   UNL A   1      50.634  26.875  36.943  1.00  0.00    -0.237 OA
ATOM     98  O   UNL A   1      50.034  24.526  36.500  1.00  0.00    -0.744 OA
ENDBRANCH  94  95
ENDBRANCH  62  87
ENDBRANCH  36  37
ENDBRANCH  28  31
ENDBRANCH  26  27
ENDBRANCH   1  26
TORSDOF 18
ENDMDL
MODEL 3
REMARK VINA RESULT:     -11.2      3.350      5.207
REMARK SMILES CC(C)(C)OC(=O)N1C[C@@H](Oc2cccnc2)C[C@H]1C(=O)NCCCNC(=O)c1ccc(-c2c3nc(c(-c4c(F)cc(S(=O)(=O)[O-])cc4F)c4ccc([nH]4)c(-c4c(F)cc(S(=O)(=O)[O-])cc4F)c4nc(c(-c5c(F)cc(S(=O)(=O)[O-])cc5F)c5ccc2[nH]5)C=C4)C=C3)cc1
REMARK SMILES IDX 24 1 23 2 22 3 20 4 21 5 19 7 8 8 9 9 10 10 18 11 6 12 7 13
REMARK SMILES IDX 5 14 2 15 1 16 3 17 4 18 11 19 12 20 13 21 17 22 14 23 16 24
REMARK SMILES IDX 15 25 25 26 26 27 27 28 28 30 29 31 30 32 94 33 31 34 93 35
REMARK SMILES IDX 32 36 33 37 34 38 87 39 35 40 92 41 86 42 88 43 36 44 91 45
REMARK SMILES IDX 85 46 84 47 37 49 71 50 50 51 70 52 51 53 54 54 69 55 89 56
REMARK SMILES IDX 52 57 53 58 68 60 90 61 55 62 38 63 39 64 48 65 40 66 41 67
REMARK SMILES IDX 47 68 49 69 42 70 43 71 44 72 45 73 46 74 72 75 73 76 82 77
REMARK SMILES IDX 74 78 75 79 81 80 83 81 76 82 77 83 78 84 79 85 80 86 56 87
REMARK SMILES IDX 57 88 66 89 58 90 59 91 65 92 67 93 60 94 61 95 62 96 63 97
REMARK SMILES IDX 64 98
REMARK H PARENT 22 6 26 29 88 48 54 59
REMARK Flexibility Score: inf
ROOT
ATOM      1  C   UNL A   1      34.312  31.715  27.728  1.00  0.00     0.042 C 
ENDROOT
BRANCH   1   2
ATOM      2  C   UNL A   1      33.185  30.918  27.091  1.00  0.00     0.117 C 
BRANCH   2   3
ATOM      3  N   UNL A   1      33.649  30.070  26.008  1.00  0.00    -0.354 N 
ATOM      4  C   UNL A   1      33.079  29.040  25.326  1.00  0.00     0.243 C 
ATOM      5  O   UNL A   1      33.791  28.514  24.461  1.00  0.00    -0.273 OA
ATOM      6  H   UNL A   1      34.560  30.285  25.705  1.00  0.00     0.163 HD
BRANCH   4   7
ATOM      7  C   UNL A   1      31.594  28.614  25.438  1.00  0.00     0.181 C 
ATOM      8  N   UNL A   1      30.950  27.921  24.336  1.00  0.00    -0.292 N 
ATOM      9  C   UNL A   1      30.665  26.528  24.639  1.00  0.00     0.169 C 
ATOM     10  C   UNL A   1      30.689  26.452  26.162  1.00  0.00     0.195 C 
ATOM     11  C   UNL A   1      31.417  27.703  26.666  1.00  0.00     0.082 C 
BRANCH   8  12
ATOM     12  C   UNL A   1      30.560  28.617  23.215  1.00  0.00     0.411 C 
ATOM     13  O   UNL A   1      30.802  28.216  22.084  1.00  0.00    -0.224 OA
BRANCH  12  14
ATOM     14  O   UNL A   1      29.880  29.746  23.517  1.00  0.00    -0.444 OA
BRANCH  14  15
ATOM     15  C   UNL A   1      28.602  30.093  22.902  1.00  0.00     0.106 C 
ATOM     16  C   UNL A   1      28.074  31.265  23.740  1.00  0.00     0.056 C 
ATOM     17  C   UNL A   1      27.649  28.904  23.049  1.00  0.00     0.056 C 
ATOM     18  C   UNL A   1      28.673  30.543  21.436  1.00  0.00     0.056 C 
ENDBRANCH  14  15
ENDBRANCH  12  14
ENDBRANCH   8  12
BRANCH  10  19
ATOM     19  O   UNL A   1      31.080  25.197  26.715  1.00  0.00    -0.487 OA
BRANCH  19  20
ATOM     20  C   UNL A   1      31.992  24.364  26.151  1.00  0.00     0.138 A 
ATOM     21  C   UNL A   1      33.359  24.563  26.024  1.00  0.00     0.050 A 
ATOM     22  C   UNL A   1      31.489  23.169  25.641  1.00  0.00     0.157 A 
ATOM     23  C   UNL A   1      34.163  23.574  25.450  1.00  0.00     0.024 A 
ATOM     24  N   UNL A   1      32.235  22.191  25.066  1.00  0.00    -0.261 NA
ATOM     25  C   UNL A   1      33.561  22.415  24.992  1.00  0.00     0.111 A 
ENDBRANCH  19  20
ENDBRANCH  10  19
ENDBRANCH   4   7
ENDBRANCH   2   3
ENDBRANCH   1   2
BRANCH   1  26
ATOM     26  C   UNL A   1      35.418  30.843  28.301  1.00  0.00     0.118 C 
BRANCH  26  27
ATOM     27  N   UNL A   1      35.445  30.909  29.757  1.00  0.00    -0.352 N 
ATOM     28  C   UNL A   1      36.366  30.419  30.649  1.00  0.00     0.251 C 
ATOM     29  H   UNL A   1      34.681  31.378  30.165  1.00  0.00     0.163 HD
ATOM     30  O   UNL A   1      36.048  30.312  31.830  1.00  0.00    -0.269 OA
BRANCH  28  31
ATOM     31  C   UNL A   1      37.725  30.023  30.208  1.00  0.00     0.039 A 
ATOM     32  C   UNL A   1      38.645  29.577  31.162  1.00  0.00     0.014 A 
ATOM     33  C   UNL A   1      38.121  30.152  28.874  1.00  0.00     0.014 A 
ATOM     34  C   UNL A   1      39.939  29.221  30.772  1.00  0.00     0.010 A 
ATOM     35  C   UNL A   1      39.380  29.712  28.473  1.00  0.00     0.010 A 
ATOM     36  C   UNL A   1      40.310  29.260  29.419  1.00  0.00    -0.014 A 
BRANCH  36  37
ATOM     37  C   UNL A   1      41.670  28.862  28.969  1.00  0.00     0.031 A 
ATOM     38  C   UNL A   1      42.766  29.892  28.878  1.00  0.00     0.074 A 
ATOM     39  C   UNL A   1      41.901  27.594  28.578  1.00  0.00     0.049 A 
ATOM     40  N   UNL A   1      43.983  29.767  28.417  1.00  0.00    -0.248 NA
ATOM     41  C   UNL A   1      42.439  31.253  29.338  1.00  0.00     0.031 C 
ATOM     42  C   UNL A   1      40.910  26.515  28.573  1.00  0.00     0.029 A 
ATOM     43  N   UNL A   1      43.038  26.999  28.092  1.00  0.00    -0.354 N 
ATOM     44  C   UNL A   1      44.557  31.032  28.507  1.00  0.00     0.074 A 
ATOM     45  C   UNL A   1      43.538  31.921  29.020  1.00  0.00     0.031 C 
ATOM     46  C   UNL A   1      41.486  25.388  28.127  1.00  0.00     0.029 A 
ATOM     47  C   UNL A   1      42.875  25.671  27.775  1.00  0.00     0.049 A 
ATOM     48  H   UNL A   1      43.891  27.478  27.979  1.00  0.00     0.167 HD
ATOM     49  C   UNL A   1      45.822  31.411  28.211  1.00  0.00     0.037 A 
ATOM     50  C   UNL A   1      43.742  24.783  27.250  1.00  0.00     0.037 A 
ATOM     51  C   UNL A   1      46.843  30.513  27.736  1.00  0.00     0.049 A 
ATOM     52  C   UNL A   1      45.147  25.225  26.943  1.00  0.00     0.074 A 
ATOM     53  C   UNL A   1      48.172  30.784  27.468  1.00  0.00     0.029 A 
ATOM     54  N   UNL A   1      46.646  29.168  27.460  1.00  0.00    -0.354 N 
ATOM     55  N   UNL A   1      45.688  26.412  27.089  1.00  0.00    -0.248 NA
ATOM     56  C   UNL A   1      46.061  24.208  26.407  1.00  0.00     0.031 C 
ATOM     57  C   UNL A   1      48.771  29.613  26.993  1.00  0.00     0.029 A 
ATOM     58  C   UNL A   1      47.826  28.599  27.010  1.00  0.00     0.049 A 
ATOM     59  H   UNL A   1      45.793  28.688  27.568  1.00  0.00     0.167 HD
ATOM     60  C   UNL A   1      47.012  26.277  26.687  1.00  0.00     0.074 A 
ATOM     61  C   UNL A   1      47.193  24.892  26.304  1.00  0.00     0.031 C 
ATOM     62  C   UNL A   1      47.990  27.215  26.641  1.00  0.00     0.037 A 
BRANCH  49  63
ATOM     63  C   UNL A   1      46.180  32.862  28.401  1.00  0.00     0.058 A 
ATOM     64  C   UNL A   1      46.034  33.799  27.366  1.00  0.00     0.135 A 
ATOM     65  C   UNL A   1      46.644  33.328  29.642  1.00  0.00     0.135 A 
ATOM     66  F   UNL A   1      45.609  33.407  26.154  1.00  0.00    -0.206 F 
ATOM     67  C   UNL A   1      46.366  35.139  27.543  1.00  0.00     0.059 A 
ATOM     68  C   UNL A   1      46.955  34.669  29.850  1.00  0.00     0.059 A 
ATOM     69  F   UNL A   1      46.801  32.476  30.668  1.00  0.00    -0.206 F 
ATOM     70  C   UNL A   1      46.827  35.563  28.789  1.00  0.00     0.060 A 
BRANCH  70  71
ATOM     71  S   UNL A   1      47.251  37.306  29.002  1.00  0.00     0.124 S 
ATOM     72  O   UNL A   1      47.570  37.696  27.633  1.00  0.00    -0.237 OA
ATOM     73  O   UNL A   1      46.020  37.863  29.550  1.00  0.00    -0.237 OA
ATOM     74  O   UNL A   1      48.383  37.269  29.924  1.00  0.00    -0.744 OA
ENDBRANCH  70  71
ENDBRANCH  49  63
BRANCH  50  75
ATOM     75  C   UNL A   1      43.310  23.382  27.005  1.00  0.00     0.058 A 
ATOM     76  C   UNL A   1      43.070  22.919  25.702  1.00  0.00     0.135 A 
ATOM     77  C   UNL A   1      43.150  22.471  28.061  1.00  0.00     0.135 A 
ATOM     78  F   UNL A   1      43.206  23.753  24.660  1.00  0.00    -0.206 F 
ATOM     79  C   UNL A   1      42.674  21.609  25.455  1.00  0.00     0.059 A 
ATOM     80  C   UNL A   1      42.777  21.149  27.838  1.00  0.00     0.059 A 
ATOM     81  F   UNL A   1      43.385  22.859  29.324  1.00  0.00    -0.206 F 
ATOM     82  C   UNL A   1      42.532  20.730  26.531  1.00  0.00     0.060 A 
BRANCH  82  83
ATOM     83  S   UNL A   1      42.071  19.017  26.194  1.00  0.00     0.124 S 
ATOM     84  O   UNL A   1      40.664  19.156  25.837  1.00  0.00    -0.237 OA
ATOM     85  O   UNL A   1      42.976  18.663  25.104  1.00  0.00    -0.237 OA
ATOM     86  O   UNL A   1      42.339  18.343  27.461  1.00  0.00    -0.744 OA
ENDBRANCH  82  83
ENDBRANCH  50  75
BRANCH  62  87
ATOM     87  C   UNL A   1      49.354  26.771  26.192  1.00  0.00     0.058 A 
ATOM     88  C   UNL A   1      49.790  26.949  24.871  1.00  0.00     0.135 A 
ATOM     89  C   UNL A   1      50.255  26.207  27.111  1.00  0.00     0.135 A 
ATOM     90  F   UNL A   1      48.966  27.477  23.952  1.00  0.00    -0.206 F 
ATOM     91  C   UNL A   1      51.066  26.565  24.469  1.00  0.00     0.059 A 
ATOM     92  C   UNL A   1      51.542  25.840  26.738  1.00  0.00     0.059 A 
ATOM     93  F   UNL A   1      49.890  26.024  28.390  1.00  0.00    -0.206 F 
ATOM     94  C   UNL A   1      51.935  26.012  25.412  1.00  0.00     0.060 A 
BRANCH  94  95
ATOM     95  S   UNL A   1      53.599  25.549  24.887  1.00  0.00     0.124 S 
ATOM     96  O   UNL A   1      53.592  24.109  25.124  1.00  0.00    -0.237 OA
ATOM     97  O   UNL A   1      53.612  25.961  23.487  1.00  0.00    -0.237 OA
ATOM     98  O   UNL A   1      54.463  26.327  25.770  1.00  0.00    -0.744 OA
ENDBRANCH  94  95
ENDBRANCH  62  87
ENDBRANCH  36  37
ENDBRANCH  28  31
ENDBRANCH  26  27
ENDBRANCH   1  26
TORSDOF 18
ENDMDL
