MODEL 1
REMARK VINA RESULT:     -13.1      0.000      0.000
REMARK SMILES Cc1ccc(C(c2ccccc2)(c2ccccc2)n2cnc(C[C@H]([NH3+])C(=O)NCCCNC(=O)c3ccc(-c4c5nc(c(-c6c(F)cc(S(=O)(=O)[O-])cc6F)c6ccc([nH]6)c(-c6c(F)cc(S(=O)(=O)[O-])cc6F)c6nc(c(-c7c(F)cc(S(=O)(=O)[O-])cc7F)c7ccc4[nH]7)C=C6)C=C5)cc3)c2)cc1
REMARK SMILES IDX 29 1 28 2 26 3 27 4 24 6 23 7 22 8 19 9 20 10 101 11 21 12
REMARK SMILES IDX 6 13 5 14 1 15 2 16 3 17 103 18 4 19 102 20 7 21 8 22 12 23
REMARK SMILES IDX 9 24 11 25 10 26 13 27 14 28 18 29 15 30 17 31 16 32 25 33
REMARK SMILES IDX 30 37 31 38 32 39 33 40 34 42 35 43 36 44 100 45 37 46 99 47
REMARK SMILES IDX 38 48 39 49 40 50 93 51 41 52 98 53 92 54 94 55 42 56 97 57
REMARK SMILES IDX 91 58 90 59 43 61 77 62 56 63 76 64 57 65 60 66 75 67 95 68
REMARK SMILES IDX 58 69 59 70 74 72 96 73 61 74 44 75 45 76 54 77 46 78 47 79
REMARK SMILES IDX 53 80 55 81 48 82 49 83 50 84 51 85 52 86 78 87 79 88 88 89
REMARK SMILES IDX 80 90 81 91 87 92 89 93 82 94 83 95 84 96 85 97 86 98 62 99
REMARK SMILES IDX 63 100 72 101 64 102 65 103 71 104 73 105 66 106 67 107
REMARK SMILES IDX 68 108 69 109 70 110
REMARK H PARENT 28 5 25 34 25 35 25 36 32 41 94 60 60 71
REMARK Flexibility Score: inf
ROOT
ATOM      1  C   UNL A   1      36.070  21.605  25.780  1.00  0.00     0.118 C 
ENDROOT
BRANCH   1   2
ATOM      2  N   UNL A   1      35.045  21.597  24.752  1.00  0.00    -0.351 N 
ATOM      3  C   UNL A   1      33.697  21.793  24.782  1.00  0.00     0.278 C 
ATOM      4  O   UNL A   1      33.086  21.597  23.722  1.00  0.00    -0.268 OA
ATOM      5  H   UNL A   1      35.395  21.413  23.850  1.00  0.00     0.163 HD
BRANCH   3   6
ATOM      6  C   UNL A   1      32.914  22.143  26.070  1.00  0.00     0.276 C 
BRANCH   6   7
ATOM      7  C   UNL A   1      31.412  22.406  25.934  1.00  0.00     0.133 C 
BRANCH   7   8
ATOM      8  C   UNL A   1      31.009  23.830  25.806  1.00  0.00     0.065 A 
ATOM      9  N   UNL A   1      30.766  25.887  25.073  1.00  0.00    -0.319 N 
ATOM     10  C   UNL A   1      30.357  25.780  26.384  1.00  0.00     0.201 A 
ATOM     11  C   UNL A   1      31.072  24.607  24.672  1.00  0.00     0.112 A 
ATOM     12  N   UNL A   1      30.524  24.564  26.848  1.00  0.00    -0.241 NA
BRANCH   9  13
ATOM     13  C   UNL A   1      30.948  27.164  24.303  1.00  0.00     0.121 C 
BRANCH  13  14
ATOM     14  C   UNL A   1      31.728  28.212  25.193  1.00  0.00    -0.013 A 
ATOM     15  C   UNL A   1      33.964  30.978  27.699  1.00  0.00     0.044 C 
ATOM     16  C   UNL A   1      33.214  30.018  26.824  1.00  0.00    -0.051 A 
ATOM     17  C   UNL A   1      32.060  30.437  26.157  1.00  0.00     0.004 A 
ATOM     18  C   UNL A   1      33.645  28.703  26.659  1.00  0.00     0.004 A 
ATOM     19  C   UNL A   1      31.329  29.553  25.354  1.00  0.00     0.007 A 
ATOM     20  C   UNL A   1      32.922  27.821  25.850  1.00  0.00     0.007 A 
ENDBRANCH  13  14
BRANCH  13  21
ATOM     21  C   UNL A   1      31.767  26.797  22.985  1.00  0.00    -0.013 A 
ATOM     22  C   UNL A   1      33.079  27.288  22.782  1.00  0.00     0.007 A 
ATOM     23  C   UNL A   1      31.219  26.064  21.910  1.00  0.00     0.007 A 
ATOM     24  C   UNL A   1      33.819  27.000  21.629  1.00  0.00     0.000 A 
ATOM     25  C   UNL A   1      31.953  25.781  20.750  1.00  0.00     0.000 A 
ATOM     26  C   UNL A   1      33.258  26.235  20.616  1.00  0.00     0.000 A 
ENDBRANCH  13  21
BRANCH  13  27
ATOM     27  C   UNL A   1      29.483  27.724  23.984  1.00  0.00    -0.013 A 
ATOM     28  C   UNL A   1      28.335  26.917  24.185  1.00  0.00     0.007 A 
ATOM     29  C   UNL A   1      29.267  28.937  23.295  1.00  0.00     0.007 A 
ATOM     30  C   UNL A   1      27.064  27.303  23.743  1.00  0.00     0.000 A 
ATOM     31  C   UNL A   1      28.001  29.308  22.825  1.00  0.00     0.000 A 
ATOM     32  C   UNL A   1      26.900  28.493  23.049  1.00  0.00     0.000 A 
ENDBRANCH  13  27
ENDBRANCH   9  13
ENDBRANCH   7   8
ENDBRANCH   6   7
BRANCH   6  33
ATOM     33  N   UNL A   1      33.589  23.260  26.787  1.00  0.00    -0.347 N 
ATOM     34  H   UNL A   1      33.510  23.115  27.794  1.00  0.00     0.345 HD
ATOM     35  H   UNL A   1      33.147  24.144  26.534  1.00  0.00     0.345 HD
ATOM     36  H   UNL A   1      34.574  23.286  26.524  1.00  0.00     0.345 HD
ENDBRANCH   6  33
ENDBRANCH   3   6
ENDBRANCH   1   2
BRANCH   1  37
ATOM     37  C   UNL A   1      37.415  22.085  25.249  1.00  0.00     0.042 C 
BRANCH  37  38
ATOM     38  C   UNL A   1      37.983  23.225  26.080  1.00  0.00     0.118 C 
BRANCH  38  39
ATOM     39  N   UNL A   1      39.184  22.868  26.824  1.00  0.00    -0.352 N 
ATOM     40  C   UNL A   1      40.119  23.720  27.389  1.00  0.00     0.251 C 
ATOM     41  H   UNL A   1      39.351  21.904  26.939  1.00  0.00     0.163 HD
ATOM     42  O   UNL A   1      41.198  23.310  27.779  1.00  0.00    -0.269 OA
BRANCH  40  43
ATOM     43  C   UNL A   1      39.715  25.129  27.601  1.00  0.00     0.039 A 
ATOM     44  C   UNL A   1      40.324  26.103  26.802  1.00  0.00     0.014 A 
ATOM     45  C   UNL A   1      38.979  25.486  28.725  1.00  0.00     0.014 A 
ATOM     46  C   UNL A   1      40.344  27.428  27.232  1.00  0.00     0.010 A 
ATOM     47  C   UNL A   1      39.098  26.774  29.205  1.00  0.00     0.010 A 
ATOM     48  C   UNL A   1      39.805  27.744  28.479  1.00  0.00    -0.014 A 
BRANCH  48  49
ATOM     49  C   UNL A   1      39.997  29.026  29.154  1.00  0.00     0.031 A 
ATOM     50  C   UNL A   1      38.940  30.070  29.110  1.00  0.00     0.074 A 
ATOM     51  C   UNL A   1      41.074  29.225  29.947  1.00  0.00     0.049 A 
ATOM     52  N   UNL A   1      39.131  31.317  29.387  1.00  0.00    -0.248 NA
ATOM     53  C   UNL A   1      37.566  29.784  28.711  1.00  0.00     0.031 C 
ATOM     54  C   UNL A   1      41.208  30.232  30.996  1.00  0.00     0.029 A 
ATOM     55  N   UNL A   1      42.345  28.661  29.847  1.00  0.00    -0.354 N 
ATOM     56  C   UNL A   1      37.896  31.918  29.506  1.00  0.00     0.074 A 
ATOM     57  C   UNL A   1      36.960  30.934  29.018  1.00  0.00     0.031 C 
ATOM     58  C   UNL A   1      42.506  30.390  31.291  1.00  0.00     0.029 A 
ATOM     59  C   UNL A   1      43.266  29.606  30.336  1.00  0.00     0.049 A 
ATOM     60  H   UNL A   1      42.559  27.766  29.498  1.00  0.00     0.167 HD
ATOM     61  C   UNL A   1      37.790  33.127  30.134  1.00  0.00     0.037 A 
ATOM     62  C   UNL A   1      44.266  30.108  29.553  1.00  0.00     0.037 A 
ATOM     63  C   UNL A   1      39.102  33.637  30.531  1.00  0.00     0.049 A 
ATOM     64  C   UNL A   1      44.202  31.602  29.345  1.00  0.00     0.074 A 
ATOM     65  C   UNL A   1      39.779  33.639  31.740  1.00  0.00     0.029 A 
ATOM     66  N   UNL A   1      40.032  34.001  29.562  1.00  0.00    -0.354 N 
ATOM     67  N   UNL A   1      43.148  32.330  29.586  1.00  0.00    -0.248 NA
ATOM     68  C   UNL A   1      45.317  32.395  28.835  1.00  0.00     0.031 C 
ATOM     69  C   UNL A   1      41.128  33.990  31.493  1.00  0.00     0.029 A 
ATOM     70  C   UNL A   1      41.274  34.201  30.134  1.00  0.00     0.049 A 
ATOM     71  H   UNL A   1      39.832  34.101  28.603  1.00  0.00     0.167 HD
ATOM     72  C   UNL A   1      43.395  33.636  29.239  1.00  0.00     0.074 A 
ATOM     73  C   UNL A   1      44.781  33.628  28.810  1.00  0.00     0.031 C 
ATOM     74  C   UNL A   1      42.425  34.597  29.330  1.00  0.00     0.037 A 
BRANCH  61  75
ATOM     75  C   UNL A   1      36.479  33.690  30.661  1.00  0.00     0.058 A 
ATOM     76  C   UNL A   1      35.479  34.157  29.778  1.00  0.00     0.135 A 
ATOM     77  C   UNL A   1      36.166  33.854  32.025  1.00  0.00     0.135 A 
ATOM     78  F   UNL A   1      35.558  33.960  28.455  1.00  0.00    -0.206 F 
ATOM     79  C   UNL A   1      34.345  34.853  30.204  1.00  0.00     0.059 A 
ATOM     80  C   UNL A   1      35.068  34.597  32.477  1.00  0.00     0.059 A 
ATOM     81  F   UNL A   1      36.883  33.246  32.980  1.00  0.00    -0.206 F 
ATOM     82  C   UNL A   1      34.169  35.110  31.555  1.00  0.00     0.060 A 
BRANCH  82  83
ATOM     83  S   UNL A   1      32.755  36.099  32.076  1.00  0.00     0.124 S 
ATOM     84  O   UNL A   1      33.310  36.877  33.179  1.00  0.00    -0.237 OA
ATOM     85  O   UNL A   1      32.444  36.848  30.863  1.00  0.00    -0.237 OA
ATOM     86  O   UNL A   1      31.765  35.096  32.463  1.00  0.00    -0.744 OA
ENDBRANCH  82  83
ENDBRANCH  61  75
BRANCH  62  87
ATOM     87  C   UNL A   1      44.798  29.119  28.579  1.00  0.00     0.058 A 
ATOM     88  C   UNL A   1      45.658  28.125  29.079  1.00  0.00     0.135 A 
ATOM     89  C   UNL A   1      44.124  28.858  27.377  1.00  0.00     0.135 A 
ATOM     90  F   UNL A   1      46.348  28.342  30.211  1.00  0.00    -0.206 F 
ATOM     91  C   UNL A   1      45.700  26.854  28.522  1.00  0.00     0.059 A 
ATOM     92  C   UNL A   1      44.159  27.590  26.795  1.00  0.00     0.059 A 
ATOM     93  F   UNL A   1      43.300  29.776  26.850  1.00  0.00    -0.206 F 
ATOM     94  C   UNL A   1      44.883  26.578  27.427  1.00  0.00     0.060 A 
BRANCH  94  95
ATOM     95  S   UNL A   1      44.632  24.842  26.983  1.00  0.00     0.124 S 
ATOM     96  O   UNL A   1      45.920  24.486  26.395  1.00  0.00    -0.237 OA
ATOM     97  O   UNL A   1      44.349  24.247  28.287  1.00  0.00    -0.237 OA
ATOM     98  O   UNL A   1      43.509  24.892  26.055  1.00  0.00    -0.744 OA
ENDBRANCH  94  95
ENDBRANCH  62  87
BRANCH  74  99
ATOM     99  C   UNL A   1      42.487  36.016  28.791  1.00  0.00     0.058 A 
ATOM    100  C   UNL A   1      43.184  37.074  29.401  1.00  0.00     0.135 A 
ATOM    101  C   UNL A   1      41.916  36.331  27.530  1.00  0.00     0.135 A 
ATOM    102  F   UNL A   1      43.887  36.895  30.527  1.00  0.00    -0.206 F 
ATOM    103  C   UNL A   1      43.239  38.360  28.853  1.00  0.00     0.059 A 
ATOM    104  C   UNL A   1      42.008  37.589  26.937  1.00  0.00     0.059 A 
ATOM    105  F   UNL A   1      41.256  35.413  26.807  1.00  0.00    -0.206 F 
ATOM    106  C   UNL A   1      42.644  38.611  27.621  1.00  0.00     0.060 A 
BRANCH 106 107
ATOM    107  S   UNL A   1      42.765  40.248  26.879  1.00  0.00     0.124 S 
ATOM    108  O   UNL A   1      43.123  41.066  28.033  1.00  0.00    -0.237 OA
ATOM    109  O   UNL A   1      43.816  40.077  25.880  1.00  0.00    -0.237 OA
ATOM    110  O   UNL A   1      41.428  40.467  26.336  1.00  0.00    -0.744 OA
ENDBRANCH 106 107
ENDBRANCH  74  99
ENDBRANCH  48  49
ENDBRANCH  40  43
ENDBRANCH  38  39
ENDBRANCH  37  38
ENDBRANCH   1  37
TORSDOF 20
ENDMDL
MODEL 2
REMARK VINA RESULT:     -12.3      1.434      2.034
REMARK SMILES Cc1ccc(C(c2ccccc2)(c2ccccc2)n2cnc(C[C@H]([NH3+])C(=O)NCCCNC(=O)c3ccc(-c4c5nc(c(-c6c(F)cc(S(=O)(=O)[O-])cc6F)c6ccc([nH]6)c(-c6c(F)cc(S(=O)(=O)[O-])cc6F)c6nc(c(-c7c(F)cc(S(=O)(=O)[O-])cc7F)c7ccc4[nH]7)C=C6)C=C5)cc3)c2)cc1
REMARK SMILES IDX 29 1 28 2 26 3 27 4 24 6 23 7 22 8 19 9 20 10 101 11 21 12
REMARK SMILES IDX 6 13 5 14 1 15 2 16 3 17 103 18 4 19 102 20 7 21 8 22 12 23
REMARK SMILES IDX 9 24 11 25 10 26 13 27 14 28 18 29 15 30 17 31 16 32 25 33
REMARK SMILES IDX 30 37 31 38 32 39 33 40 34 42 35 43 36 44 100 45 37 46 99 47
REMARK SMILES IDX 38 48 39 49 40 50 93 51 41 52 98 53 92 54 94 55 42 56 97 57
REMARK SMILES IDX 91 58 90 59 43 61 77 62 56 63 76 64 57 65 60 66 75 67 95 68
REMARK SMILES IDX 58 69 59 70 74 72 96 73 61 74 44 75 45 76 54 77 46 78 47 79
REMARK SMILES IDX 53 80 55 81 48 82 49 83 50 84 51 85 52 86 78 87 79 88 88 89
REMARK SMILES IDX 80 90 81 91 87 92 89 93 82 94 83 95 84 96 85 97 86 98 62 99
REMARK SMILES IDX 63 100 72 101 64 102 65 103 71 104 73 105 66 106 67 107
REMARK SMILES IDX 68 108 69 109 70 110
REMARK H PARENT 28 5 25 34 25 35 25 36 32 41 94 60 60 71
REMARK Flexibility Score: inf
ROOT
ATOM      1  C   UNL A   1      35.349  22.254  25.055  1.00  0.00     0.118 C 
ENDROOT
BRANCH   1   2
ATOM      2  N   UNL A   1      34.334  21.293  24.664  1.00  0.00    -0.351 N 
ATOM      3  C   UNL A   1      33.089  21.009  25.140  1.00  0.00     0.278 C 
ATOM      4  O   UNL A   1      32.519  20.028  24.644  1.00  0.00    -0.268 OA
ATOM      5  H   UNL A   1      34.599  20.732  23.898  1.00  0.00     0.163 HD
BRANCH   3   6
ATOM      6  C   UNL A   1      32.426  21.780  26.305  1.00  0.00     0.276 C 
BRANCH   6   7
ATOM      7  C   UNL A   1      30.964  22.201  26.132  1.00  0.00     0.133 C 
BRANCH   7   8
ATOM      8  C   UNL A   1      30.723  23.652  25.935  1.00  0.00     0.065 A 
ATOM      9  N   UNL A   1      30.728  25.692  25.117  1.00  0.00    -0.319 N 
ATOM     10  C   UNL A   1      30.268  25.684  26.415  1.00  0.00     0.201 A 
ATOM     11  C   UNL A   1      30.906  24.371  24.776  1.00  0.00     0.112 A 
ATOM     12  N   UNL A   1      30.286  24.477  26.930  1.00  0.00    -0.241 NA
BRANCH   9  13
ATOM     13  C   UNL A   1      31.073  26.908  24.306  1.00  0.00     0.121 C 
BRANCH  13  14
ATOM     14  C   UNL A   1      31.980  27.878  25.165  1.00  0.00    -0.013 A 
ATOM     15  C   UNL A   1      34.373  30.663  27.498  1.00  0.00     0.044 C 
ATOM     16  C   UNL A   1      33.529  29.706  26.709  1.00  0.00    -0.051 A 
ATOM     17  C   UNL A   1      34.018  28.435  26.399  1.00  0.00     0.004 A 
ATOM     18  C   UNL A   1      32.254  30.061  26.270  1.00  0.00     0.004 A 
ATOM     19  C   UNL A   1      33.259  27.534  25.642  1.00  0.00     0.007 A 
ATOM     20  C   UNL A   1      31.490  29.159  25.523  1.00  0.00     0.007 A 
ENDBRANCH  13  14
BRANCH  13  21
ATOM     21  C   UNL A   1      31.840  26.396  23.006  1.00  0.00    -0.013 A 
ATOM     22  C   UNL A   1      31.223  26.433  21.732  1.00  0.00     0.007 A 
ATOM     23  C   UNL A   1      33.113  25.786  23.045  1.00  0.00     0.007 A 
ATOM     24  C   UNL A   1      31.861  25.974  20.574  1.00  0.00     0.000 A 
ATOM     25  C   UNL A   1      33.752  25.318  21.889  1.00  0.00     0.000 A 
ATOM     26  C   UNL A   1      33.133  25.425  20.652  1.00  0.00     0.000 A 
ENDBRANCH  13  21
BRANCH  13  27
ATOM     27  C   UNL A   1      29.693  27.639  23.960  1.00  0.00    -0.013 A 
ATOM     28  C   UNL A   1      28.460  26.941  24.031  1.00  0.00     0.007 A 
ATOM     29  C   UNL A   1      29.639  28.920  23.368  1.00  0.00     0.007 A 
ATOM     30  C   UNL A   1      27.263  27.490  23.559  1.00  0.00     0.000 A 
ATOM     31  C   UNL A   1      28.446  29.456  22.866  1.00  0.00     0.000 A 
ATOM     32  C   UNL A   1      27.258  28.743  22.962  1.00  0.00     0.000 A 
ENDBRANCH  13  27
ENDBRANCH   9  13
ENDBRANCH   7   8
ENDBRANCH   6   7
BRANCH   6  33
ATOM     33  N   UNL A   1      33.274  22.942  26.694  1.00  0.00    -0.347 N 
ATOM     34  H   UNL A   1      32.760  23.534  27.347  1.00  0.00     0.345 HD
ATOM     35  H   UNL A   1      33.514  23.481  25.862  1.00  0.00     0.345 HD
ATOM     36  H   UNL A   1      34.127  22.605  27.138  1.00  0.00     0.345 HD
ENDBRANCH   6  33
ENDBRANCH   3   6
ENDBRANCH   1   2
BRANCH   1  37
ATOM     37  C   UNL A   1      36.760  21.724  24.837  1.00  0.00     0.042 C 
BRANCH  37  38
ATOM     38  C   UNL A   1      37.820  22.760  25.178  1.00  0.00     0.118 C 
BRANCH  38  39
ATOM     39  N   UNL A   1      38.968  22.215  25.889  1.00  0.00    -0.352 N 
ATOM     40  C   UNL A   1      39.983  22.911  26.526  1.00  0.00     0.251 C 
ATOM     41  H   UNL A   1      39.031  21.233  25.921  1.00  0.00     0.163 HD
ATOM     42  O   UNL A   1      41.009  22.357  26.880  1.00  0.00    -0.269 OA
BRANCH  40  43
ATOM     43  C   UNL A   1      39.729  24.331  26.857  1.00  0.00     0.039 A 
ATOM     44  C   UNL A   1      40.441  25.300  26.140  1.00  0.00     0.014 A 
ATOM     45  C   UNL A   1      39.030  24.668  28.011  1.00  0.00     0.014 A 
ATOM     46  C   UNL A   1      40.599  26.575  26.681  1.00  0.00     0.010 A 
ATOM     47  C   UNL A   1      39.283  25.892  28.598  1.00  0.00     0.010 A 
ATOM     48  C   UNL A   1      40.091  26.840  27.952  1.00  0.00    -0.014 A 
BRANCH  48  49
ATOM     49  C   UNL A   1      40.415  28.033  28.732  1.00  0.00     0.031 A 
ATOM     50  C   UNL A   1      39.444  29.153  28.839  1.00  0.00     0.074 A 
ATOM     51  C   UNL A   1      41.538  28.072  29.484  1.00  0.00     0.049 A 
ATOM     52  N   UNL A   1      39.747  30.349  29.219  1.00  0.00    -0.248 NA
ATOM     53  C   UNL A   1      38.036  29.011  28.486  1.00  0.00     0.031 C 
ATOM     54  C   UNL A   1      41.798  28.961  30.613  1.00  0.00     0.029 A 
ATOM     55  N   UNL A   1      42.754  27.426  29.268  1.00  0.00    -0.354 N 
ATOM     56  C   UNL A   1      38.571  31.028  29.456  1.00  0.00     0.074 A 
ATOM     57  C   UNL A   1      37.538  30.169  28.927  1.00  0.00     0.031 C 
ATOM     58  C   UNL A   1      43.116  28.991  30.855  1.00  0.00     0.029 A 
ATOM     59  C   UNL A   1      43.769  28.246  29.794  1.00  0.00     0.049 A 
ATOM     60  H   UNL A   1      42.880  26.555  28.827  1.00  0.00     0.167 HD
ATOM     61  C   UNL A   1      38.589  32.176  30.198  1.00  0.00     0.037 A 
ATOM     62  C   UNL A   1      44.770  28.744  29.011  1.00  0.00     0.037 A 
ATOM     63  C   UNL A   1      39.954  32.545  30.573  1.00  0.00     0.049 A 
ATOM     64  C   UNL A   1      44.818  30.252  28.945  1.00  0.00     0.074 A 
ATOM     65  C   UNL A   1      40.681  32.379  31.740  1.00  0.00     0.029 A 
ATOM     66  N   UNL A   1      40.867  32.928  29.595  1.00  0.00    -0.354 N 
ATOM     67  N   UNL A   1      43.837  31.031  29.306  1.00  0.00    -0.248 NA
ATOM     68  C   UNL A   1      45.969  31.003  28.455  1.00  0.00     0.031 C 
ATOM     69  C   UNL A   1      42.042  32.649  31.458  1.00  0.00     0.029 A 
ATOM     70  C   UNL A   1      42.145  32.978  30.119  1.00  0.00     0.049 A 
ATOM     71  H   UNL A   1      40.634  33.135  28.661  1.00  0.00     0.167 HD
ATOM     72  C   UNL A   1      44.172  32.342  29.068  1.00  0.00     0.074 A 
ATOM     73  C   UNL A   1      45.533  32.270  28.571  1.00  0.00     0.031 C 
ATOM     74  C   UNL A   1      43.288  33.361  29.297  1.00  0.00     0.037 A 
BRANCH  61  75
ATOM     75  C   UNL A   1      37.352  32.783  30.841  1.00  0.00     0.058 A 
ATOM     76  C   UNL A   1      36.374  33.442  30.060  1.00  0.00     0.135 A 
ATOM     77  C   UNL A   1      37.095  32.805  32.225  1.00  0.00     0.135 A 
ATOM     78  F   UNL A   1      36.397  33.403  28.722  1.00  0.00    -0.206 F 
ATOM     79  C   UNL A   1      35.323  34.178  30.612  1.00  0.00     0.059 A 
ATOM     80  C   UNL A   1      36.085  33.581  32.807  1.00  0.00     0.059 A 
ATOM     81  F   UNL A   1      37.780  32.024  33.071  1.00  0.00    -0.206 F 
ATOM     82  C   UNL A   1      35.210  34.282  31.990  1.00  0.00     0.060 A 
BRANCH  82  83
ATOM     83  S   UNL A   1      33.910  35.319  32.682  1.00  0.00     0.124 S 
ATOM     84  O   UNL A   1      33.597  36.210  31.569  1.00  0.00    -0.237 OA
ATOM     85  O   UNL A   1      32.884  34.338  33.018  1.00  0.00    -0.237 OA
ATOM     86  O   UNL A   1      34.559  35.961  33.823  1.00  0.00    -0.744 OA
ENDBRANCH  82  83
ENDBRANCH  61  75
BRANCH  62  87
ATOM     87  C   UNL A   1      45.178  27.816  27.924  1.00  0.00     0.058 A 
ATOM     88  C   UNL A   1      44.749  28.128  26.621  1.00  0.00     0.135 A 
ATOM     89  C   UNL A   1      46.305  26.994  28.064  1.00  0.00     0.135 A 
ATOM     90  F   UNL A   1      43.656  28.887  26.437  1.00  0.00    -0.206 F 
ATOM     91  C   UNL A   1      45.514  27.804  25.508  1.00  0.00     0.059 A 
ATOM     92  C   UNL A   1      47.084  26.650  26.958  1.00  0.00     0.059 A 
ATOM     93  F   UNL A   1      46.750  26.657  29.283  1.00  0.00    -0.206 F 
ATOM     94  C   UNL A   1      46.721  27.134  25.700  1.00  0.00     0.060 A 
BRANCH  94  95
ATOM     95  S   UNL A   1      47.888  27.093  24.318  1.00  0.00     0.124 S 
ATOM     96  O   UNL A   1      47.088  27.636  23.224  1.00  0.00    -0.237 OA
ATOM     97  O   UNL A   1      48.953  27.964  24.812  1.00  0.00    -0.237 OA
ATOM     98  O   UNL A   1      48.229  25.680  24.208  1.00  0.00    -0.744 OA
ENDBRANCH  94  95
ENDBRANCH  62  87
BRANCH  74  99
ATOM     99  C   UNL A   1      43.440  34.816  28.889  1.00  0.00     0.058 A 
ATOM    100  C   UNL A   1      43.569  35.890  29.788  1.00  0.00     0.135 A 
ATOM    101  C   UNL A   1      43.582  35.167  27.521  1.00  0.00     0.135 A 
ATOM    102  F   UNL A   1      43.593  35.697  31.113  1.00  0.00    -0.206 F 
ATOM    103  C   UNL A   1      43.738  37.213  29.366  1.00  0.00     0.059 A 
ATOM    104  C   UNL A   1      43.808  36.470  27.081  1.00  0.00     0.059 A 
ATOM    105  F   UNL A   1      43.525  34.245  26.548  1.00  0.00    -0.206 F 
ATOM    106  C   UNL A   1      43.852  37.496  28.010  1.00  0.00     0.060 A 
BRANCH 106 107
ATOM    107  S   UNL A   1      44.132  39.190  27.463  1.00  0.00     0.124 S 
ATOM    108  O   UNL A   1      45.077  38.991  26.369  1.00  0.00    -0.237 OA
ATOM    109  O   UNL A   1      42.797  39.630  27.069  1.00  0.00    -0.237 OA
ATOM    110  O   UNL A   1      44.669  39.840  28.654  1.00  0.00    -0.744 OA
ENDBRANCH 106 107
ENDBRANCH  74  99
ENDBRANCH  48  49
ENDBRANCH  40  43
ENDBRANCH  38  39
ENDBRANCH  37  38
ENDBRANCH   1  37
TORSDOF 20
ENDMDL
MODEL 3
REMARK VINA RESULT:     -11.1      4.805      9.540
REMARK SMILES Cc1ccc(C(c2ccccc2)(c2ccccc2)n2cnc(C[C@H]([NH3+])C(=O)NCCCNC(=O)c3ccc(-c4c5nc(c(-c6c(F)cc(S(=O)(=O)[O-])cc6F)c6ccc([nH]6)c(-c6c(F)cc(S(=O)(=O)[O-])cc6F)c6nc(c(-c7c(F)cc(S(=O)(=O)[O-])cc7F)c7ccc4[nH]7)C=C6)C=C5)cc3)c2)cc1
REMARK SMILES IDX 29 1 28 2 26 3 27 4 24 6 23 7 22 8 19 9 20 10 101 11 21 12
REMARK SMILES IDX 6 13 5 14 1 15 2 16 3 17 103 18 4 19 102 20 7 21 8 22 12 23
REMARK SMILES IDX 9 24 11 25 10 26 13 27 14 28 18 29 15 30 17 31 16 32 25 33
REMARK SMILES IDX 30 37 31 38 32 39 33 40 34 42 35 43 36 44 100 45 37 46 99 47
REMARK SMILES IDX 38 48 39 49 40 50 93 51 41 52 98 53 92 54 94 55 42 56 97 57
REMARK SMILES IDX 91 58 90 59 43 61 77 62 56 63 76 64 57 65 60 66 75 67 95 68
REMARK SMILES IDX 58 69 59 70 74 72 96 73 61 74 44 75 45 76 54 77 46 78 47 79
REMARK SMILES IDX 53 80 55 81 48 82 49 83 50 84 51 85 52 86 78 87 79 88 88 89
REMARK SMILES IDX 80 90 81 91 87 92 89 93 82 94 83 95 84 96 85 97 86 98 62 99
REMARK SMILES IDX 63 100 72 101 64 102 65 103 71 104 73 105 66 106 67 107
REMARK SMILES IDX 68 108 69 109 70 110
REMARK H PARENT 28 5 25 34 25 35 25 36 32 41 94 60 60 71
REMARK Flexibility Score: inf
ROOT
ATOM      1  C   UNL A   1      44.154  23.826  30.334  1.00  0.00     0.118 C 
ENDROOT
BRANCH   1   2
ATOM      2  N   UNL A   1      44.020  23.349  31.699  1.00  0.00    -0.351 N 
ATOM      3  C   UNL A   1      44.378  23.872  32.905  1.00  0.00     0.278 C 
ATOM      4  O   UNL A   1      44.224  23.139  33.892  1.00  0.00    -0.268 OA
ATOM      5  H   UNL A   1      43.583  22.469  31.766  1.00  0.00     0.163 HD
BRANCH   3   6
ATOM      6  C   UNL A   1      45.038  25.261  33.071  1.00  0.00     0.276 C 
BRANCH   6   7
ATOM      7  C   UNL A   1      44.363  26.451  32.384  1.00  0.00     0.133 C 
BRANCH   7   8
ATOM      8  C   UNL A   1      43.719  27.441  33.283  1.00  0.00     0.065 A 
ATOM      9  N   UNL A   1      43.345  29.194  34.555  1.00  0.00    -0.319 N 
ATOM     10  C   UNL A   1      42.366  28.241  34.731  1.00  0.00     0.201 A 
ATOM     11  C   UNL A   1      44.144  28.725  33.538  1.00  0.00     0.112 A 
ATOM     12  N   UNL A   1      42.590  27.174  34.001  1.00  0.00    -0.241 NA
BRANCH   9  13
ATOM     13  C   UNL A   1      43.546  30.423  35.396  1.00  0.00     0.121 C 
BRANCH  13  14
ATOM     14  C   UNL A   1      42.142  31.055  35.754  1.00  0.00    -0.013 A 
ATOM     15  C   UNL A   1      38.336  32.836  36.882  1.00  0.00     0.044 C 
ATOM     16  C   UNL A   1      39.659  32.244  36.496  1.00  0.00    -0.051 A 
ATOM     17  C   UNL A   1      39.766  31.468  35.339  1.00  0.00     0.004 A 
ATOM     18  C   UNL A   1      40.798  32.450  37.273  1.00  0.00     0.004 A 
ATOM     19  C   UNL A   1      40.985  30.884  34.972  1.00  0.00     0.007 A 
ATOM     20  C   UNL A   1      42.018  31.877  36.902  1.00  0.00     0.007 A 
ENDBRANCH  13  14
BRANCH  13  21
ATOM     21  C   UNL A   1      44.328  29.964  36.707  1.00  0.00    -0.013 A 
ATOM     22  C   UNL A   1      44.459  28.592  37.035  1.00  0.00     0.007 A 
ATOM     23  C   UNL A   1      44.840  30.868  37.662  1.00  0.00     0.007 A 
ATOM     24  C   UNL A   1      45.123  28.156  38.188  1.00  0.00     0.000 A 
ATOM     25  C   UNL A   1      45.497  30.435  38.822  1.00  0.00     0.000 A 
ATOM     26  C   UNL A   1      45.653  29.080  39.077  1.00  0.00     0.000 A 
ENDBRANCH  13  21
BRANCH  13  27
ATOM     27  C   UNL A   1      44.384  31.457  34.508  1.00  0.00    -0.013 A 
ATOM     28  C   UNL A   1      43.729  32.414  33.691  1.00  0.00     0.007 A 
ATOM     29  C   UNL A   1      45.778  31.341  34.319  1.00  0.00     0.007 A 
ATOM     30  C   UNL A   1      44.420  33.203  32.764  1.00  0.00     0.000 A 
ATOM     31  C   UNL A   1      46.465  32.109  33.369  1.00  0.00     0.000 A 
ATOM     32  C   UNL A   1      45.787  33.041  32.594  1.00  0.00     0.000 A 
ENDBRANCH  13  27
ENDBRANCH   9  13
ENDBRANCH   7   8
ENDBRANCH   6   7
BRANCH   6  33
ATOM     33  N   UNL A   1      46.481  25.184  32.707  1.00  0.00    -0.347 N 
ATOM     34  H   UNL A   1      47.048  25.471  33.505  1.00  0.00     0.345 HD
ATOM     35  H   UNL A   1      46.666  25.802  31.918  1.00  0.00     0.345 HD
ATOM     36  H   UNL A   1      46.715  24.225  32.451  1.00  0.00     0.345 HD
ENDBRANCH   6  33
ENDBRANCH   3   6
ENDBRANCH   1   2
BRANCH   1  37
ATOM     37  C   UNL A   1      43.266  23.055  29.365  1.00  0.00     0.042 C 
BRANCH  37  38
ATOM     38  C   UNL A   1      42.239  23.952  28.693  1.00  0.00     0.118 C 
BRANCH  38  39
ATOM     39  N   UNL A   1      41.430  23.272  27.691  1.00  0.00    -0.352 N 
ATOM     40  C   UNL A   1      40.158  23.605  27.255  1.00  0.00     0.251 C 
ATOM     41  H   UNL A   1      41.837  22.479  27.271  1.00  0.00     0.163 HD
ATOM     42  O   UNL A   1      39.491  22.832  26.590  1.00  0.00    -0.269 OA
BRANCH  40  43
ATOM     43  C   UNL A   1      39.681  24.978  27.536  1.00  0.00     0.039 A 
ATOM     44  C   UNL A   1      40.118  26.001  26.686  1.00  0.00     0.014 A 
ATOM     45  C   UNL A   1      39.063  25.272  28.747  1.00  0.00     0.014 A 
ATOM     46  C   UNL A   1      40.094  27.321  27.133  1.00  0.00     0.010 A 
ATOM     47  C   UNL A   1      39.146  26.562  29.230  1.00  0.00     0.010 A 
ATOM     48  C   UNL A   1      39.688  27.587  28.440  1.00  0.00    -0.014 A 
BRANCH  48  49
ATOM     49  C   UNL A   1      39.867  28.875  29.108  1.00  0.00     0.031 A 
ATOM     50  C   UNL A   1      38.826  29.930  29.007  1.00  0.00     0.074 A 
ATOM     51  C   UNL A   1      40.911  29.070  29.944  1.00  0.00     0.049 A 
ATOM     52  N   UNL A   1      39.021  31.178  29.277  1.00  0.00    -0.248 NA
ATOM     53  C   UNL A   1      37.467  29.656  28.553  1.00  0.00     0.031 C 
ATOM     54  C   UNL A   1      41.013  30.087  30.986  1.00  0.00     0.029 A 
ATOM     55  N   UNL A   1      42.178  28.489  29.905  1.00  0.00    -0.354 N 
ATOM     56  C   UNL A   1      37.790  31.795  29.337  1.00  0.00     0.074 A 
ATOM     57  C   UNL A   1      36.862  30.817  28.819  1.00  0.00     0.031 C 
ATOM     58  C   UNL A   1      42.299  30.234  31.334  1.00  0.00     0.029 A 
ATOM     59  C   UNL A   1      43.090  29.428  30.422  1.00  0.00     0.049 A 
ATOM     60  H   UNL A   1      42.396  27.588  29.576  1.00  0.00     0.167 HD
ATOM     61  C   UNL A   1      37.672  33.013  29.946  1.00  0.00     0.037 A 
ATOM     62  C   UNL A   1      44.128  29.909  29.677  1.00  0.00     0.037 A 
ATOM     63  C   UNL A   1      38.972  33.512  30.393  1.00  0.00     0.049 A 
ATOM     64  C   UNL A   1      44.092  31.402  29.449  1.00  0.00     0.074 A 
ATOM     65  C   UNL A   1      39.597  33.520  31.629  1.00  0.00     0.029 A 
ATOM     66  N   UNL A   1      39.947  33.853  29.460  1.00  0.00    -0.354 N 
ATOM     67  N   UNL A   1      43.037  32.145  29.637  1.00  0.00    -0.248 NA
ATOM     68  C   UNL A   1      45.237  32.174  28.979  1.00  0.00     0.031 C 
ATOM     69  C   UNL A   1      40.959  33.852  31.436  1.00  0.00     0.029 A 
ATOM     70  C   UNL A   1      41.166  34.045  30.082  1.00  0.00     0.049 A 
ATOM     71  H   UNL A   1      39.790  33.944  28.492  1.00  0.00     0.167 HD
ATOM     72  C   UNL A   1      43.316  33.443  29.285  1.00  0.00     0.074 A 
ATOM     73  C   UNL A   1      44.719  33.414  28.917  1.00  0.00     0.031 C 
ATOM     74  C   UNL A   1      42.355  34.417  29.324  1.00  0.00     0.037 A 
BRANCH  61  75
ATOM     75  C   UNL A   1      36.347  33.598  30.409  1.00  0.00     0.058 A 
ATOM     76  C   UNL A   1      35.439  34.168  29.487  1.00  0.00     0.135 A 
ATOM     77  C   UNL A   1      35.933  33.684  31.753  1.00  0.00     0.135 A 
ATOM     78  F   UNL A   1      35.615  34.056  28.164  1.00  0.00    -0.206 F 
ATOM     79  C   UNL A   1      34.304  34.885  29.873  1.00  0.00     0.059 A 
ATOM     80  C   UNL A   1      34.834  34.444  32.171  1.00  0.00     0.059 A 
ATOM     81  F   UNL A   1      36.548  32.983  32.715  1.00  0.00    -0.206 F 
ATOM     82  C   UNL A   1      34.032  35.058  31.222  1.00  0.00     0.060 A 
BRANCH  82  83
ATOM     83  S   UNL A   1      32.621  36.072  31.702  1.00  0.00     0.124 S 
ATOM     84  O   UNL A   1      31.828  35.143  32.500  1.00  0.00    -0.237 OA
ATOM     85  O   UNL A   1      33.263  37.156  32.439  1.00  0.00    -0.237 OA
ATOM     86  O   UNL A   1      32.026  36.452  30.423  1.00  0.00    -0.744 OA
ENDBRANCH  82  83
ENDBRANCH  61  75
BRANCH  62  87
ATOM     87  C   UNL A   1      44.688  28.903  28.738  1.00  0.00     0.058 A 
ATOM     88  C   UNL A   1      44.196  28.912  27.420  1.00  0.00     0.135 A 
ATOM     89  C   UNL A   1      45.949  28.332  28.962  1.00  0.00     0.135 A 
ATOM     90  F   UNL A   1      42.980  29.420  27.161  1.00  0.00    -0.206 F 
ATOM     91  C   UNL A   1      44.996  28.551  26.344  1.00  0.00     0.059 A 
ATOM     92  C   UNL A   1      46.767  27.955  27.895  1.00  0.00     0.059 A 
ATOM     93  F   UNL A   1      46.461  28.287  30.201  1.00  0.00    -0.206 F 
ATOM     94  C   UNL A   1      46.308  28.150  26.592  1.00  0.00     0.060 A 
BRANCH  94  95
ATOM     95  S   UNL A   1      47.447  28.092  25.189  1.00  0.00     0.124 S 
ATOM     96  O   UNL A   1      46.772  28.937  24.208  1.00  0.00    -0.237 OA
ATOM     97  O   UNL A   1      48.661  28.656  25.777  1.00  0.00    -0.237 OA
ATOM     98  O   UNL A   1      47.506  26.673  24.862  1.00  0.00    -0.744 OA
ENDBRANCH  94  95
ENDBRANCH  62  87
BRANCH  74  99
ATOM     99  C   UNL A   1      42.458  35.829  28.772  1.00  0.00     0.058 A 
ATOM    100  C   UNL A   1      41.803  36.285  27.614  1.00  0.00     0.135 A 
ATOM    101  C   UNL A   1      43.156  36.832  29.493  1.00  0.00     0.135 A 
ATOM    102  F   UNL A   1      40.996  35.487  26.904  1.00  0.00    -0.206 F 
ATOM    103  C   UNL A   1      41.903  37.604  27.159  1.00  0.00     0.059 A 
ATOM    104  C   UNL A   1      43.220  38.165  29.090  1.00  0.00     0.059 A 
ATOM    105  F   UNL A   1      43.795  36.559  30.641  1.00  0.00    -0.206 F 
ATOM    106  C   UNL A   1      42.617  38.538  27.901  1.00  0.00     0.060 A 
BRANCH 106 107
ATOM    107  S   UNL A   1      42.696  40.253  27.354  1.00  0.00     0.124 S 
ATOM    108  O   UNL A   1      43.477  40.133  26.127  1.00  0.00    -0.237 OA
ATOM    109  O   UNL A   1      41.290  40.603  27.172  1.00  0.00    -0.237 OA
ATOM    110  O   UNL A   1      43.361  40.927  28.465  1.00  0.00    -0.744 OA
ENDBRANCH 106 107
ENDBRANCH  74  99
ENDBRANCH  48  49
ENDBRANCH  40  43
ENDBRANCH  38  39
ENDBRANCH  37  38
ENDBRANCH   1  37
TORSDOF 20
ENDMDL
