MODEL 1
REMARK VINA RESULT:     -12.2      0.000      0.000
REMARK SMILES O=C(C[C@H]1C[N@@H+]([C@@H]2CC(=O)NC2=O)CCO1)NCCCNC(=O)c1ccc(-c2c3nc(c(-c4c(F)cc(S(=O)(=O)[O-])cc4F)c4ccc([nH]4)c(-c4c(F)cc(S(=O)(=O)[O-])cc4F)c4nc(c(-c5c(F)cc(S(=O)(=O)[O-])cc5F)c5ccc2[nH]5)C=C4)C=C3)cc1
REMARK SMILES IDX 19 1 18 2 17 3 1 4 2 5 3 7 4 8 5 9 16 10 6 11 15 12 14 13
REMARK SMILES IDX 7 15 8 16 12 17 9 18 11 19 13 20 10 21 20 23 21 24 22 25
REMARK SMILES IDX 23 27 24 28 25 29 89 30 26 31 88 32 27 33 28 34 29 35 82 36
REMARK SMILES IDX 30 37 87 38 81 39 83 40 31 41 86 42 80 43 79 44 32 46 66 47
REMARK SMILES IDX 45 48 65 49 46 50 49 51 64 52 84 53 47 54 48 55 63 57 85 58
REMARK SMILES IDX 50 59 33 60 34 61 43 62 35 63 36 64 42 65 44 66 37 67 38 68
REMARK SMILES IDX 39 69 40 70 41 71 67 72 68 73 77 74 69 75 70 76 76 77 78 78
REMARK SMILES IDX 71 79 72 80 73 81 74 82 75 83 51 84 52 85 61 86 53 87 54 88
REMARK SMILES IDX 60 89 62 90 55 91 56 92 57 93 58 94 59 95
REMARK H PARENT 17 6 6 14 11 22 21 26 83 45 49 56
REMARK Flexibility Score: inf
ROOT
ATOM      1  C   UNL A   1      39.854  21.989  26.815  1.00  0.00     0.042 C 
ENDROOT
BRANCH   1   2
ATOM      2  C   UNL A   1      38.794  21.759  25.749  1.00  0.00     0.117 C 
BRANCH   2   3
ATOM      3  N   UNL A   1      37.447  21.985  26.220  1.00  0.00    -0.356 N 
ATOM      4  O   UNL A   1      37.138  23.949  25.101  1.00  0.00    -0.275 OA
ATOM      5  C   UNL A   1      36.689  23.043  25.793  1.00  0.00     0.222 C 
ATOM      6  H   UNL A   1      37.060  21.355  26.871  1.00  0.00     0.163 HD
BRANCH   5   7
ATOM      7  C   UNL A   1      35.260  23.042  26.279  1.00  0.00     0.138 C 
BRANCH   7   8
ATOM      8  C   UNL A   1      34.596  21.692  26.602  1.00  0.00     0.182 C 
ATOM      9  C   UNL A   1      33.126  21.782  27.085  1.00  0.00     0.295 C 
ATOM     10  O   UNL A   1      34.795  20.653  25.631  1.00  0.00    -0.366 OA
ATOM     11  N   UNL A   1      32.075  21.647  26.079  1.00  0.00    -0.320 N 
ATOM     12  C   UNL A   1      33.812  20.634  24.585  1.00  0.00     0.222 C 
ATOM     13  C   UNL A   1      32.375  20.600  25.106  1.00  0.00     0.291 C 
ATOM     14  H   UNL A   1      31.290  21.317  26.640  1.00  0.00     0.348 HD
BRANCH  11  15
ATOM     15  C   UNL A   1      31.347  22.826  25.598  1.00  0.00     0.284 C 
ATOM     16  C   UNL A   1      32.118  23.932  24.882  1.00  0.00     0.176 C 
ATOM     17  C   UNL A   1      30.658  23.562  26.745  1.00  0.00     0.285 C 
ATOM     18  C   UNL A   1      31.980  25.125  25.779  1.00  0.00     0.233 C 
ATOM     19  N   UNL A   1      31.159  24.822  26.809  1.00  0.00    -0.291 N 
ATOM     20  O   UNL A   1      29.816  23.112  27.503  1.00  0.00    -0.268 OA
ATOM     21  O   UNL A   1      32.459  26.234  25.587  1.00  0.00    -0.274 OA
ATOM     22  H   UNL A   1      30.946  25.452  27.535  1.00  0.00     0.173 HD
ENDBRANCH  11  15
ENDBRANCH   7   8
ENDBRANCH   5   7
ENDBRANCH   2   3
ENDBRANCH   1   2
BRANCH   1  23
ATOM     23  C   UNL A   1      40.101  23.455  27.134  1.00  0.00     0.118 C 
BRANCH  23  24
ATOM     24  N   UNL A   1      40.941  24.118  26.146  1.00  0.00    -0.352 N 
ATOM     25  C   UNL A   1      41.415  25.405  26.120  1.00  0.00     0.251 C 
ATOM     26  H   UNL A   1      41.211  23.558  25.383  1.00  0.00     0.163 HD
ATOM     27  O   UNL A   1      41.995  25.817  25.120  1.00  0.00    -0.269 OA
BRANCH  25  28
ATOM     28  C   UNL A   1      41.208  26.293  27.283  1.00  0.00     0.039 A 
ATOM     29  C   UNL A   1      42.022  27.419  27.423  1.00  0.00     0.014 A 
ATOM     30  C   UNL A   1      40.229  26.011  28.240  1.00  0.00     0.014 A 
ATOM     31  C   UNL A   1      41.830  28.279  28.504  1.00  0.00     0.010 A 
ATOM     32  C   UNL A   1      39.978  26.918  29.265  1.00  0.00     0.010 A 
ATOM     33  C   UNL A   1      40.793  28.047  29.422  1.00  0.00    -0.014 A 
BRANCH  33  34
ATOM     34  C   UNL A   1      40.586  28.947  30.584  1.00  0.00     0.031 A 
ATOM     35  C   UNL A   1      41.440  28.792  31.815  1.00  0.00     0.074 A 
ATOM     36  C   UNL A   1      39.614  29.879  30.543  1.00  0.00     0.049 A 
ATOM     37  N   UNL A   1      41.406  29.465  32.935  1.00  0.00    -0.248 NA
ATOM     38  C   UNL A   1      42.448  27.719  31.794  1.00  0.00     0.031 C 
ATOM     39  C   UNL A   1      38.687  30.087  29.427  1.00  0.00     0.029 A 
ATOM     40  N   UNL A   1      39.241  30.825  31.463  1.00  0.00    -0.354 N 
ATOM     41  C   UNL A   1      42.373  28.891  33.752  1.00  0.00     0.074 A 
ATOM     42  C   UNL A   1      42.932  27.773  33.026  1.00  0.00     0.031 C 
ATOM     43  C   UNL A   1      37.875  31.117  29.717  1.00  0.00     0.029 A 
ATOM     44  C   UNL A   1      38.200  31.622  31.047  1.00  0.00     0.049 A 
ATOM     45  H   UNL A   1      39.677  30.924  32.340  1.00  0.00     0.167 HD
ATOM     46  C   UNL A   1      42.782  29.279  34.983  1.00  0.00     0.037 A 
ATOM     47  C   UNL A   1      37.582  32.645  31.668  1.00  0.00     0.037 A 
ATOM     48  C   UNL A   1      42.239  30.412  35.687  1.00  0.00     0.049 A 
ATOM     49  C   UNL A   1      38.063  33.068  33.030  1.00  0.00     0.074 A 
ATOM     50  C   UNL A   1      42.614  30.922  36.917  1.00  0.00     0.029 A 
ATOM     51  N   UNL A   1      41.205  31.210  35.220  1.00  0.00    -0.354 N 
ATOM     52  N   UNL A   1      39.024  32.554  33.763  1.00  0.00    -0.248 NA
ATOM     53  C   UNL A   1      37.390  34.220  33.644  1.00  0.00     0.031 C 
ATOM     54  C   UNL A   1      41.779  32.004  37.212  1.00  0.00     0.029 A 
ATOM     55  C   UNL A   1      40.920  32.203  36.143  1.00  0.00     0.049 A 
ATOM     56  H   UNL A   1      40.742  31.089  34.360  1.00  0.00     0.167 HD
ATOM     57  C   UNL A   1      39.094  33.343  34.906  1.00  0.00     0.074 A 
ATOM     58  C   UNL A   1      38.084  34.371  34.763  1.00  0.00     0.031 C 
ATOM     59  C   UNL A   1      39.920  33.228  35.976  1.00  0.00     0.037 A 
BRANCH  46  60
ATOM     60  C   UNL A   1      43.872  28.477  35.642  1.00  0.00     0.058 A 
ATOM     61  C   UNL A   1      43.584  27.415  36.515  1.00  0.00     0.135 A 
ATOM     62  C   UNL A   1      45.223  28.758  35.380  1.00  0.00     0.135 A 
ATOM     63  F   UNL A   1      42.311  27.113  36.815  1.00  0.00    -0.206 F 
ATOM     64  C   UNL A   1      44.593  26.683  37.130  1.00  0.00     0.059 A 
ATOM     65  C   UNL A   1      46.250  28.017  35.961  1.00  0.00     0.059 A 
ATOM     66  F   UNL A   1      45.558  29.763  34.556  1.00  0.00    -0.206 F 
ATOM     67  C   UNL A   1      45.924  26.992  36.847  1.00  0.00     0.060 A 
BRANCH  67  68
ATOM     68  S   UNL A   1      47.222  26.029  37.651  1.00  0.00     0.124 S 
ATOM     69  O   UNL A   1      47.502  26.845  38.829  1.00  0.00    -0.237 OA
ATOM     70  O   UNL A   1      46.554  24.757  37.907  1.00  0.00    -0.237 OA
ATOM     71  O   UNL A   1      48.284  25.987  36.651  1.00  0.00    -0.744 OA
ENDBRANCH  67  68
ENDBRANCH  46  60
BRANCH  47  72
ATOM     72  C   UNL A   1      36.469  33.363  30.991  1.00  0.00     0.058 A 
ATOM     73  C   UNL A   1      35.148  33.245  31.448  1.00  0.00     0.135 A 
ATOM     74  C   UNL A   1      36.703  34.189  29.880  1.00  0.00     0.135 A 
ATOM     75  F   UNL A   1      34.871  32.465  32.504  1.00  0.00    -0.206 F 
ATOM     76  C   UNL A   1      34.095  33.899  30.817  1.00  0.00     0.059 A 
ATOM     77  C   UNL A   1      35.671  34.876  29.248  1.00  0.00     0.059 A 
ATOM     78  F   UNL A   1      37.951  34.352  29.414  1.00  0.00    -0.206 F 
ATOM     79  C   UNL A   1      34.368  34.715  29.717  1.00  0.00     0.060 A 
BRANCH  79  80
ATOM     80  S   UNL A   1      32.999  35.593  28.931  1.00  0.00     0.124 S 
ATOM     81  O   UNL A   1      33.703  36.635  28.194  1.00  0.00    -0.237 OA
ATOM     82  O   UNL A   1      32.385  34.543  28.124  1.00  0.00    -0.237 OA
ATOM     83  O   UNL A   1      32.199  36.050  30.064  1.00  0.00    -0.744 OA
ENDBRANCH  79  80
ENDBRANCH  47  72
BRANCH  59  84
ATOM     84  C   UNL A   1      39.806  34.272  37.053  1.00  0.00     0.058 A 
ATOM     85  C   UNL A   1      40.481  35.499  36.974  1.00  0.00     0.135 A 
ATOM     86  C   UNL A   1      38.973  34.052  38.163  1.00  0.00     0.135 A 
ATOM     87  F   UNL A   1      41.293  35.758  35.937  1.00  0.00    -0.206 F 
ATOM     88  C   UNL A   1      40.360  36.459  37.972  1.00  0.00     0.059 A 
ATOM     89  C   UNL A   1      38.812  35.011  39.158  1.00  0.00     0.059 A 
ATOM     90  F   UNL A   1      38.293  32.900  38.281  1.00  0.00    -0.206 F 
ATOM     91  C   UNL A   1      39.523  36.205  39.061  1.00  0.00     0.060 A 
BRANCH  91  92
ATOM     92  S   UNL A   1      39.360  37.467  40.341  1.00  0.00     0.124 S 
ATOM     93  O   UNL A   1      38.295  38.303  39.796  1.00  0.00    -0.237 OA
ATOM     94  O   UNL A   1      39.007  36.677  41.517  1.00  0.00    -0.237 OA
ATOM     95  O   UNL A   1      40.683  38.084  40.382  1.00  0.00    -0.744 OA
ENDBRANCH  91  92
ENDBRANCH  59  84
ENDBRANCH  33  34
ENDBRANCH  25  28
ENDBRANCH  23  24
ENDBRANCH   1  23
TORSDOF 15
ENDMDL
MODEL 2
REMARK VINA RESULT:     -12.0      0.193      1.568
REMARK SMILES O=C(C[C@H]1C[N@@H+]([C@@H]2CC(=O)NC2=O)CCO1)NCCCNC(=O)c1ccc(-c2c3nc(c(-c4c(F)cc(S(=O)(=O)[O-])cc4F)c4ccc([nH]4)c(-c4c(F)cc(S(=O)(=O)[O-])cc4F)c4nc(c(-c5c(F)cc(S(=O)(=O)[O-])cc5F)c5ccc2[nH]5)C=C4)C=C3)cc1
REMARK SMILES IDX 19 1 18 2 17 3 1 4 2 5 3 7 4 8 5 9 16 10 6 11 15 12 14 13
REMARK SMILES IDX 7 15 8 16 12 17 9 18 11 19 13 20 10 21 20 23 21 24 22 25
REMARK SMILES IDX 23 27 24 28 25 29 89 30 26 31 88 32 27 33 28 34 29 35 82 36
REMARK SMILES IDX 30 37 87 38 81 39 83 40 31 41 86 42 80 43 79 44 32 46 66 47
REMARK SMILES IDX 45 48 65 49 46 50 49 51 64 52 84 53 47 54 48 55 63 57 85 58
REMARK SMILES IDX 50 59 33 60 34 61 43 62 35 63 36 64 42 65 44 66 37 67 38 68
REMARK SMILES IDX 39 69 40 70 41 71 67 72 68 73 77 74 69 75 70 76 76 77 78 78
REMARK SMILES IDX 71 79 72 80 73 81 74 82 75 83 51 84 52 85 61 86 53 87 54 88
REMARK SMILES IDX 60 89 62 90 55 91 56 92 57 93 58 94 59 95
REMARK H PARENT 17 6 6 14 11 22 21 26 83 45 49 56
REMARK Flexibility Score: inf
ROOT
ATOM      1  C   UNL A   1      39.993  22.069  26.795  1.00  0.00     0.042 C 
ENDROOT
BRANCH   1   2
ATOM      2  C   UNL A   1      38.883  21.773  25.799  1.00  0.00     0.117 C 
BRANCH   2   3
ATOM      3  N   UNL A   1      37.563  22.078  26.302  1.00  0.00    -0.356 N 
ATOM      4  O   UNL A   1      37.049  23.607  24.688  1.00  0.00    -0.275 OA
ATOM      5  C   UNL A   1      36.711  22.931  25.653  1.00  0.00     0.222 C 
ATOM      6  H   UNL A   1      37.266  21.655  27.141  1.00  0.00     0.163 HD
BRANCH   5   7
ATOM      7  C   UNL A   1      35.325  23.021  26.244  1.00  0.00     0.138 C 
BRANCH   7   8
ATOM      8  C   UNL A   1      34.588  21.714  26.590  1.00  0.00     0.182 C 
ATOM      9  C   UNL A   1      33.128  21.891  27.076  1.00  0.00     0.295 C 
ATOM     10  O   UNL A   1      34.727  20.652  25.633  1.00  0.00    -0.366 OA
ATOM     11  N   UNL A   1      32.067  21.800  26.075  1.00  0.00    -0.320 N 
ATOM     12  C   UNL A   1      33.740  20.671  24.590  1.00  0.00     0.222 C 
ATOM     13  C   UNL A   1      32.305  20.724  25.116  1.00  0.00     0.291 C 
ATOM     14  H   UNL A   1      31.268  21.522  26.643  1.00  0.00     0.348 HD
BRANCH  11  15
ATOM     15  C   UNL A   1      31.403  23.009  25.578  1.00  0.00     0.284 C 
ATOM     16  C   UNL A   1      32.246  24.103  24.927  1.00  0.00     0.176 C 
ATOM     17  C   UNL A   1      30.676  23.746  26.701  1.00  0.00     0.285 C 
ATOM     18  C   UNL A   1      32.096  25.284  25.839  1.00  0.00     0.233 C 
ATOM     19  N   UNL A   1      31.211  24.988  26.817  1.00  0.00    -0.291 N 
ATOM     20  O   UNL A   1      29.780  23.309  27.404  1.00  0.00    -0.268 OA
ATOM     21  O   UNL A   1      32.619  26.380  25.695  1.00  0.00    -0.274 OA
ATOM     22  H   UNL A   1      30.978  25.611  27.543  1.00  0.00     0.173 HD
ENDBRANCH  11  15
ENDBRANCH   7   8
ENDBRANCH   5   7
ENDBRANCH   2   3
ENDBRANCH   1   2
BRANCH   1  23
ATOM     23  C   UNL A   1      40.185  23.551  27.083  1.00  0.00     0.118 C 
BRANCH  23  24
ATOM     24  N   UNL A   1      40.971  24.231  26.063  1.00  0.00    -0.352 N 
ATOM     25  C   UNL A   1      41.392  25.535  26.007  1.00  0.00     0.251 C 
ATOM     26  H   UNL A   1      41.242  23.672  25.300  1.00  0.00     0.163 HD
ATOM     27  O   UNL A   1      41.928  25.955  24.985  1.00  0.00    -0.269 OA
BRANCH  25  28
ATOM     28  C   UNL A   1      41.182  26.431  27.163  1.00  0.00     0.039 A 
ATOM     29  C   UNL A   1      40.148  26.145  28.056  1.00  0.00     0.014 A 
ATOM     30  C   UNL A   1      41.987  27.558  27.357  1.00  0.00     0.014 A 
ATOM     31  C   UNL A   1      39.946  26.969  29.164  1.00  0.00     0.010 A 
ATOM     32  C   UNL A   1      41.844  28.323  28.509  1.00  0.00     0.010 A 
ATOM     33  C   UNL A   1      40.804  28.053  29.411  1.00  0.00    -0.014 A 
BRANCH  33  34
ATOM     34  C   UNL A   1      40.593  28.944  30.578  1.00  0.00     0.031 A 
ATOM     35  C   UNL A   1      41.444  28.782  31.810  1.00  0.00     0.074 A 
ATOM     36  C   UNL A   1      39.619  29.875  30.541  1.00  0.00     0.049 A 
ATOM     37  N   UNL A   1      41.407  29.447  32.934  1.00  0.00    -0.248 NA
ATOM     38  C   UNL A   1      42.454  27.710  31.784  1.00  0.00     0.031 C 
ATOM     39  C   UNL A   1      38.694  30.090  29.425  1.00  0.00     0.029 A 
ATOM     40  N   UNL A   1      39.243  30.814  31.467  1.00  0.00    -0.354 N 
ATOM     41  C   UNL A   1      42.373  28.869  33.750  1.00  0.00     0.074 A 
ATOM     42  C   UNL A   1      42.935  27.757  33.017  1.00  0.00     0.031 C 
ATOM     43  C   UNL A   1      37.881  31.116  29.720  1.00  0.00     0.029 A 
ATOM     44  C   UNL A   1      38.202  31.612  31.054  1.00  0.00     0.049 A 
ATOM     45  H   UNL A   1      39.677  30.908  32.346  1.00  0.00     0.167 HD
ATOM     46  C   UNL A   1      42.778  29.248  34.985  1.00  0.00     0.037 A 
ATOM     47  C   UNL A   1      37.581  32.630  31.681  1.00  0.00     0.037 A 
ATOM     48  C   UNL A   1      42.232  30.375  35.695  1.00  0.00     0.049 A 
ATOM     49  C   UNL A   1      38.058  33.045  33.047  1.00  0.00     0.074 A 
ATOM     50  C   UNL A   1      42.603  30.878  36.930  1.00  0.00     0.029 A 
ATOM     51  N   UNL A   1      41.198  31.176  35.232  1.00  0.00    -0.354 N 
ATOM     52  N   UNL A   1      39.019  32.527  33.778  1.00  0.00    -0.248 NA
ATOM     53  C   UNL A   1      37.382  34.191  33.668  1.00  0.00     0.031 C 
ATOM     54  C   UNL A   1      41.766  31.957  37.231  1.00  0.00     0.029 A 
ATOM     55  C   UNL A   1      40.909  32.162  36.160  1.00  0.00     0.049 A 
ATOM     56  H   UNL A   1      40.737  31.060  34.369  1.00  0.00     0.167 HD
ATOM     57  C   UNL A   1      39.084  33.308  34.928  1.00  0.00     0.074 A 
ATOM     58  C   UNL A   1      38.073  34.336  34.789  1.00  0.00     0.031 C 
ATOM     59  C   UNL A   1      39.908  33.187  35.999  1.00  0.00     0.037 A 
BRANCH  46  60
ATOM     60  C   UNL A   1      43.868  28.444  35.640  1.00  0.00     0.058 A 
ATOM     61  C   UNL A   1      45.227  28.730  35.427  1.00  0.00     0.135 A 
ATOM     62  C   UNL A   1      43.553  27.386  36.509  1.00  0.00     0.135 A 
ATOM     63  F   UNL A   1      45.587  29.718  34.593  1.00  0.00    -0.206 F 
ATOM     64  C   UNL A   1      46.232  27.978  36.025  1.00  0.00     0.059 A 
ATOM     65  C   UNL A   1      44.544  26.641  37.143  1.00  0.00     0.059 A 
ATOM     66  F   UNL A   1      42.271  27.066  36.748  1.00  0.00    -0.206 F 
ATOM     67  C   UNL A   1      45.881  26.935  36.882  1.00  0.00     0.060 A 
BRANCH  67  68
ATOM     68  S   UNL A   1      47.198  25.971  37.652  1.00  0.00     0.124 S 
ATOM     69  O   UNL A   1      46.855  24.617  37.228  1.00  0.00    -0.237 OA
ATOM     70  O   UNL A   1      48.397  26.540  37.044  1.00  0.00    -0.237 OA
ATOM     71  O   UNL A   1      47.031  26.243  39.076  1.00  0.00    -0.744 OA
ENDBRANCH  67  68
ENDBRANCH  46  60
BRANCH  47  72
ATOM     72  C   UNL A   1      36.468  33.351  31.007  1.00  0.00     0.058 A 
ATOM     73  C   UNL A   1      35.140  33.189  31.429  1.00  0.00     0.135 A 
ATOM     74  C   UNL A   1      36.709  34.224  29.933  1.00  0.00     0.135 A 
ATOM     75  F   UNL A   1      34.856  32.364  32.448  1.00  0.00    -0.206 F 
ATOM     76  C   UNL A   1      34.088  33.846  30.799  1.00  0.00     0.059 A 
ATOM     77  C   UNL A   1      35.677  34.914  29.304  1.00  0.00     0.059 A 
ATOM     78  F   UNL A   1      37.964  34.429  29.502  1.00  0.00    -0.206 F 
ATOM     79  C   UNL A   1      34.368  34.709  29.738  1.00  0.00     0.060 A 
BRANCH  79  80
ATOM     80  S   UNL A   1      32.999  35.588  28.954  1.00  0.00     0.124 S 
ATOM     81  O   UNL A   1      32.469  34.569  28.057  1.00  0.00    -0.237 OA
ATOM     82  O   UNL A   1      32.160  35.932  30.098  1.00  0.00    -0.237 OA
ATOM     83  O   UNL A   1      33.655  36.721  28.307  1.00  0.00    -0.744 OA
ENDBRANCH  79  80
ENDBRANCH  47  72
BRANCH  59  84
ATOM     84  C   UNL A   1      39.790  34.222  37.083  1.00  0.00     0.058 A 
ATOM     85  C   UNL A   1      39.046  33.995  38.251  1.00  0.00     0.135 A 
ATOM     86  C   UNL A   1      40.469  35.447  36.966  1.00  0.00     0.135 A 
ATOM     87  F   UNL A   1      38.374  32.843  38.411  1.00  0.00    -0.206 F 
ATOM     88  C   UNL A   1      38.952  34.957  39.250  1.00  0.00     0.059 A 
ATOM     89  C   UNL A   1      40.415  36.411  37.967  1.00  0.00     0.059 A 
ATOM     90  F   UNL A   1      41.206  35.709  35.875  1.00  0.00    -0.206 F 
ATOM     91  C   UNL A   1      39.641  36.163  39.098  1.00  0.00     0.060 A 
BRANCH  91  92
ATOM     92  S   UNL A   1      39.527  37.396  40.411  1.00  0.00     0.124 S 
ATOM     93  O   UNL A   1      38.966  36.610  41.505  1.00  0.00    -0.237 OA
ATOM     94  O   UNL A   1      40.918  37.809  40.574  1.00  0.00    -0.237 OA
ATOM     95  O   UNL A   1      38.641  38.411  39.849  1.00  0.00    -0.744 OA
ENDBRANCH  91  92
ENDBRANCH  59  84
ENDBRANCH  33  34
ENDBRANCH  25  28
ENDBRANCH  23  24
ENDBRANCH   1  23
TORSDOF 15
ENDMDL
MODEL 3
REMARK VINA RESULT:     -11.9      5.287     12.181
REMARK SMILES O=C(C[C@H]1C[N@@H+]([C@@H]2CC(=O)NC2=O)CCO1)NCCCNC(=O)c1ccc(-c2c3nc(c(-c4c(F)cc(S(=O)(=O)[O-])cc4F)c4ccc([nH]4)c(-c4c(F)cc(S(=O)(=O)[O-])cc4F)c4nc(c(-c5c(F)cc(S(=O)(=O)[O-])cc5F)c5ccc2[nH]5)C=C4)C=C3)cc1
REMARK SMILES IDX 19 1 18 2 17 3 1 4 2 5 3 7 4 8 5 9 16 10 6 11 15 12 14 13
REMARK SMILES IDX 7 15 8 16 12 17 9 18 11 19 13 20 10 21 20 23 21 24 22 25
REMARK SMILES IDX 23 27 24 28 25 29 89 30 26 31 88 32 27 33 28 34 29 35 82 36
REMARK SMILES IDX 30 37 87 38 81 39 83 40 31 41 86 42 80 43 79 44 32 46 66 47
REMARK SMILES IDX 45 48 65 49 46 50 49 51 64 52 84 53 47 54 48 55 63 57 85 58
REMARK SMILES IDX 50 59 33 60 34 61 43 62 35 63 36 64 42 65 44 66 37 67 38 68
REMARK SMILES IDX 39 69 40 70 41 71 67 72 68 73 77 74 69 75 70 76 76 77 78 78
REMARK SMILES IDX 71 79 72 80 73 81 74 82 75 83 51 84 52 85 61 86 53 87 54 88
REMARK SMILES IDX 60 89 62 90 55 91 56 92 57 93 58 94 59 95
REMARK H PARENT 17 6 6 14 11 22 21 26 83 45 49 56
REMARK Flexibility Score: inf
ROOT
ATOM      1  C   UNL A   1      34.123  33.773  29.220  1.00  0.00     0.042 C 
ENDROOT
BRANCH   1   2
ATOM      2  C   UNL A   1      33.876  34.427  30.570  1.00  0.00     0.117 C 
BRANCH   2   3
ATOM      3  N   UNL A   1      34.852  34.064  31.572  1.00  0.00    -0.356 N 
ATOM      4  O   UNL A   1      33.346  33.237  33.073  1.00  0.00    -0.275 OA
ATOM      5  C   UNL A   1      34.508  33.421  32.731  1.00  0.00     0.222 C 
ATOM      6  H   UNL A   1      35.799  34.286  31.414  1.00  0.00     0.163 HD
BRANCH   5   7
ATOM      7  C   UNL A   1      35.671  32.994  33.594  1.00  0.00     0.138 C 
BRANCH   7   8
ATOM      8  C   UNL A   1      36.653  34.071  34.087  1.00  0.00     0.182 C 
ATOM      9  C   UNL A   1      37.781  33.557  35.015  1.00  0.00     0.295 C 
ATOM     10  O   UNL A   1      37.135  34.979  33.083  1.00  0.00    -0.366 OA
ATOM     11  N   UNL A   1      39.054  33.195  34.396  1.00  0.00    -0.320 N 
ATOM     12  C   UNL A   1      38.318  34.528  32.406  1.00  0.00     0.222 C 
ATOM     13  C   UNL A   1      39.451  34.144  33.358  1.00  0.00     0.291 C 
ATOM     14  H   UNL A   1      39.705  33.313  35.172  1.00  0.00     0.348 HD
BRANCH  11  15
ATOM     15  C   UNL A   1      39.414  31.788  34.195  1.00  0.00     0.284 C 
ATOM     16  C   UNL A   1      38.770  31.016  33.045  1.00  0.00     0.176 C 
ATOM     17  C   UNL A   1      39.073  30.945  35.421  1.00  0.00     0.285 C 
ATOM     18  C   UNL A   1      37.961  29.949  33.720  1.00  0.00     0.233 C 
ATOM     19  N   UNL A   1      38.176  29.994  35.054  1.00  0.00    -0.291 N 
ATOM     20  O   UNL A   1      39.500  31.093  36.554  1.00  0.00    -0.268 OA
ATOM     21  O   UNL A   1      37.270  29.106  33.164  1.00  0.00    -0.274 OA
ATOM     22  H   UNL A   1      37.726  29.398  35.695  1.00  0.00     0.173 HD
ENDBRANCH  11  15
ENDBRANCH   7   8
ENDBRANCH   5   7
ENDBRANCH   2   3
ENDBRANCH   1   2
BRANCH   1  23
ATOM     23  C   UNL A   1      34.893  32.464  29.300  1.00  0.00     0.118 C 
BRANCH  23  24
ATOM     24  N   UNL A   1      34.214  31.362  28.631  1.00  0.00    -0.352 N 
ATOM     25  C   UNL A   1      34.725  30.193  28.128  1.00  0.00     0.251 C 
ATOM     26  H   UNL A   1      33.242  31.473  28.524  1.00  0.00     0.163 HD
ATOM     27  O   UNL A   1      34.004  29.452  27.467  1.00  0.00    -0.269 OA
BRANCH  25  28
ATOM     28  C   UNL A   1      36.141  29.843  28.365  1.00  0.00     0.039 A 
ATOM     29  C   UNL A   1      37.057  30.004  27.324  1.00  0.00     0.014 A 
ATOM     30  C   UNL A   1      36.562  29.340  29.600  1.00  0.00     0.014 A 
ATOM     31  C   UNL A   1      38.401  29.695  27.534  1.00  0.00     0.010 A 
ATOM     32  C   UNL A   1      37.915  29.122  29.836  1.00  0.00     0.010 A 
ATOM     33  C   UNL A   1      38.845  29.271  28.797  1.00  0.00    -0.014 A 
BRANCH  33  34
ATOM     34  C   UNL A   1      40.270  28.928  29.031  1.00  0.00     0.031 A 
ATOM     35  C   UNL A   1      41.194  29.943  29.651  1.00  0.00     0.074 A 
ATOM     36  C   UNL A   1      40.736  27.720  28.660  1.00  0.00     0.049 A 
ATOM     37  N   UNL A   1      42.469  29.844  29.922  1.00  0.00    -0.248 NA
ATOM     38  C   UNL A   1      40.613  31.255  29.984  1.00  0.00     0.031 C 
ATOM     39  C   UNL A   1      39.950  26.674  28.000  1.00  0.00     0.029 A 
ATOM     40  N   UNL A   1      41.985  27.167  28.782  1.00  0.00    -0.354 N 
ATOM     41  C   UNL A   1      42.843  31.077  30.443  1.00  0.00     0.074 A 
ATOM     42  C   UNL A   1      41.678  31.931  30.389  1.00  0.00     0.031 C 
ATOM     43  C   UNL A   1      40.726  25.597  27.806  1.00  0.00     0.029 A 
ATOM     44  C   UNL A   1      42.071  25.883  28.296  1.00  0.00     0.049 A 
ATOM     45  H   UNL A   1      42.749  27.644  29.180  1.00  0.00     0.167 HD
ATOM     46  C   UNL A   1      44.040  31.456  30.950  1.00  0.00     0.037 A 
ATOM     47  C   UNL A   1      43.116  25.034  28.255  1.00  0.00     0.037 A 
ATOM     48  C   UNL A   1      45.187  30.588  31.026  1.00  0.00     0.049 A 
ATOM     49  C   UNL A   1      44.433  25.470  28.838  1.00  0.00     0.074 A 
ATOM     50  C   UNL A   1      46.433  30.854  31.565  1.00  0.00     0.029 A 
ATOM     51  N   UNL A   1      45.227  29.286  30.548  1.00  0.00    -0.354 N 
ATOM     52  N   UNL A   1      44.753  26.620  29.387  1.00  0.00    -0.248 NA
ATOM     53  C   UNL A   1      45.527  24.491  28.814  1.00  0.00     0.031 C 
ATOM     54  C   UNL A   1      47.239  29.726  31.377  1.00  0.00     0.029 A 
ATOM     55  C   UNL A   1      46.479  28.739  30.770  1.00  0.00     0.049 A 
ATOM     56  H   UNL A   1      44.475  28.820  30.116  1.00  0.00     0.167 HD
ATOM     57  C   UNL A   1      46.073  26.487  29.805  1.00  0.00     0.074 A 
ATOM     58  C   UNL A   1      46.487  25.145  29.452  1.00  0.00     0.031 C 
ATOM     59  C   UNL A   1      46.869  27.393  30.425  1.00  0.00     0.037 A 
BRANCH  46  60
ATOM     60  C   UNL A   1      44.166  32.863  31.468  1.00  0.00     0.058 A 
ATOM     61  C   UNL A   1      44.633  33.910  30.657  1.00  0.00     0.135 A 
ATOM     62  C   UNL A   1      43.794  33.175  32.786  1.00  0.00     0.135 A 
ATOM     63  F   UNL A   1      45.020  33.667  29.394  1.00  0.00    -0.206 F 
ATOM     64  C   UNL A   1      44.758  35.207  31.141  1.00  0.00     0.059 A 
ATOM     65  C   UNL A   1      43.881  34.474  33.282  1.00  0.00     0.059 A 
ATOM     66  F   UNL A   1      43.342  32.215  33.608  1.00  0.00    -0.206 F 
ATOM     67  C   UNL A   1      44.380  35.480  32.456  1.00  0.00     0.060 A 
BRANCH  67  68
ATOM     68  S   UNL A   1      44.545  37.170  33.068  1.00  0.00     0.124 S 
ATOM     69  O   UNL A   1      43.849  37.924  32.030  1.00  0.00    -0.237 OA
ATOM     70  O   UNL A   1      43.871  37.101  34.360  1.00  0.00    -0.237 OA
ATOM     71  O   UNL A   1      45.990  37.371  33.127  1.00  0.00    -0.744 OA
ENDBRANCH  67  68
ENDBRANCH  46  60
BRANCH  47  72
ATOM     72  C   UNL A   1      42.947  23.674  27.676  1.00  0.00     0.058 A 
ATOM     73  C   UNL A   1      42.567  22.588  28.478  1.00  0.00     0.135 A 
ATOM     74  C   UNL A   1      43.153  23.433  26.308  1.00  0.00     0.135 A 
ATOM     75  F   UNL A   1      42.362  22.765  29.792  1.00  0.00    -0.206 F 
ATOM     76  C   UNL A   1      42.418  21.308  27.953  1.00  0.00     0.059 A 
ATOM     77  C   UNL A   1      42.983  22.168  25.753  1.00  0.00     0.059 A 
ATOM     78  F   UNL A   1      43.499  24.441  25.492  1.00  0.00    -0.206 F 
ATOM     79  C   UNL A   1      42.627  21.109  26.588  1.00  0.00     0.060 A 
BRANCH  79  80
ATOM     80  S   UNL A   1      42.391  19.452  25.910  1.00  0.00     0.124 S 
ATOM     81  O   UNL A   1      40.949  19.426  25.690  1.00  0.00    -0.237 OA
ATOM     82  O   UNL A   1      43.220  19.491  24.709  1.00  0.00    -0.237 OA
ATOM     83  O   UNL A   1      42.884  18.581  26.973  1.00  0.00    -0.744 OA
ENDBRANCH  79  80
ENDBRANCH  47  72
BRANCH  59  84
ATOM     84  C   UNL A   1      48.252  26.948  30.815  1.00  0.00     0.058 A 
ATOM     85  C   UNL A   1      48.487  26.167  31.957  1.00  0.00     0.135 A 
ATOM     86  C   UNL A   1      49.353  27.275  30.006  1.00  0.00     0.135 A 
ATOM     87  F   UNL A   1      47.471  25.830  32.767  1.00  0.00    -0.206 F 
ATOM     88  C   UNL A   1      49.769  25.755  32.301  1.00  0.00     0.059 A 
ATOM     89  C   UNL A   1      50.639  26.847  30.314  1.00  0.00     0.059 A 
ATOM     90  F   UNL A   1      49.180  28.008  28.894  1.00  0.00    -0.206 F 
ATOM     91  C   UNL A   1      50.839  26.100  31.473  1.00  0.00     0.060 A 
BRANCH  91  92
ATOM     92  S   UNL A   1      52.496  25.541  31.920  1.00  0.00     0.124 S 
ATOM     93  O   UNL A   1      52.826  26.445  33.017  1.00  0.00    -0.237 OA
ATOM     94  O   UNL A   1      52.268  24.148  32.293  1.00  0.00    -0.237 OA
ATOM     95  O   UNL A   1      53.264  25.736  30.693  1.00  0.00    -0.744 OA
ENDBRANCH  91  92
ENDBRANCH  59  84
ENDBRANCH  33  34
ENDBRANCH  25  28
ENDBRANCH  23  24
ENDBRANCH   1  23
TORSDOF 15
ENDMDL
