MODEL 1
REMARK VINA RESULT:     -11.3      0.000      0.000
REMARK SMILES CC1(c2ccc(C(=O)NCCCNC(=O)c3ccc(-c4c5nc(c(-c6c(F)cc(S(=O)(=O)[O-])cc6F)c6ccc([nH]6)c(-c6c(F)cc(S(=O)(=O)[O-])cc6F)c6nc(c(-c7c(F)cc(S(=O)(=O)[O-])cc7F)c7ccc4[nH]7)C=C6)C=C5)cc3)cc2)CC1
REMARK SMILES IDX 12 1 11 2 10 3 9 4 7 5 8 6 6 8 3 9 4 10 83 11 5 12 82 13
REMARK SMILES IDX 2 14 1 15 84 16 85 17 13 18 14 19 15 21 16 22 17 23 81 24
REMARK SMILES IDX 18 25 80 26 19 27 20 28 21 29 74 30 22 31 79 32 73 33 75 34
REMARK SMILES IDX 23 35 78 36 72 37 71 38 24 40 58 41 37 42 57 43 38 44 41 45
REMARK SMILES IDX 56 46 76 47 39 48 40 49 55 51 77 52 42 53 25 54 26 55 35 56
REMARK SMILES IDX 27 57 28 58 34 59 36 60 29 61 30 62 31 63 32 64 33 65 59 66
REMARK SMILES IDX 60 67 69 68 61 69 62 70 68 71 70 72 63 73 64 74 65 75 66 76
REMARK SMILES IDX 67 77 43 78 44 79 53 80 45 81 46 82 52 83 54 84 47 85 48 86
REMARK SMILES IDX 49 87 50 88 51 89
REMARK H PARENT 9 7 13 20 75 39 41 50
REMARK Flexibility Score: inf
ROOT
ATOM      1  C   UNL A   1      33.660  28.118  27.166  1.00  0.00     0.118 C 
ENDROOT
BRANCH   1   2
ATOM      2  C   UNL A   1      33.867  27.831  25.680  1.00  0.00     0.042 C 
BRANCH   2   3
ATOM      3  C   UNL A   1      33.792  26.346  25.322  1.00  0.00     0.118 C 
BRANCH   3   4
ATOM      4  N   UNL A   1      33.956  26.128  23.897  1.00  0.00    -0.352 N 
ATOM      5  C   UNL A   1      33.207  26.514  22.815  1.00  0.00     0.251 C 
ATOM      6  O   UNL A   1      33.673  26.288  21.696  1.00  0.00    -0.269 OA
ATOM      7  H   UNL A   1      34.755  25.602  23.663  1.00  0.00     0.163 HD
BRANCH   5   8
ATOM      8  C   UNL A   1      31.892  27.206  22.921  1.00  0.00     0.039 A 
ATOM      9  C   UNL A   1      29.438  28.664  22.944  1.00  0.00    -0.042 A 
ATOM     10  C   UNL A   1      30.648  29.278  22.591  1.00  0.00     0.005 A 
ATOM     11  C   UNL A   1      29.493  27.303  23.283  1.00  0.00     0.005 A 
ATOM     12  C   UNL A   1      31.855  28.568  22.589  1.00  0.00     0.014 A 
ATOM     13  C   UNL A   1      30.689  26.578  23.242  1.00  0.00     0.014 A 
BRANCH   9  14
ATOM     14  C   UNL A   1      28.102  29.392  22.897  1.00  0.00    -0.007 C 
ATOM     15  C   UNL A   1      26.916  28.542  23.295  1.00  0.00     0.016 C 
ATOM     16  C   UNL A   1      27.866  30.497  21.884  1.00  0.00     0.012 C 
ATOM     17  C   UNL A   1      28.081  30.848  23.324  1.00  0.00     0.012 C 
ENDBRANCH   9  14
ENDBRANCH   5   8
ENDBRANCH   3   4
ENDBRANCH   2   3
ENDBRANCH   1   2
BRANCH   1  18
ATOM     18  N   UNL A   1      33.543  29.544  27.431  1.00  0.00    -0.352 N 
ATOM     19  C   UNL A   1      34.427  30.413  28.018  1.00  0.00     0.251 C 
ATOM     20  H   UNL A   1      32.694  29.950  27.141  1.00  0.00     0.163 HD
ATOM     21  O   UNL A   1      34.029  31.527  28.351  1.00  0.00    -0.269 OA
BRANCH  19  22
ATOM     22  C   UNL A   1      35.839  30.033  28.255  1.00  0.00     0.039 A 
ATOM     23  C   UNL A   1      36.213  29.634  29.542  1.00  0.00     0.014 A 
ATOM     24  C   UNL A   1      36.807  30.139  27.252  1.00  0.00     0.014 A 
ATOM     25  C   UNL A   1      37.545  29.313  29.815  1.00  0.00     0.010 A 
ATOM     26  C   UNL A   1      38.124  29.759  27.510  1.00  0.00     0.010 A 
ATOM     27  C   UNL A   1      38.509  29.356  28.797  1.00  0.00    -0.014 A 
BRANCH  27  28
ATOM     28  C   UNL A   1      39.925  28.999  29.070  1.00  0.00     0.031 A 
ATOM     29  C   UNL A   1      40.862  30.014  29.669  1.00  0.00     0.074 A 
ATOM     30  C   UNL A   1      40.377  27.774  28.737  1.00  0.00     0.049 A 
ATOM     31  N   UNL A   1      42.139  29.904  29.932  1.00  0.00    -0.248 NA
ATOM     32  C   UNL A   1      40.294  31.332  29.992  1.00  0.00     0.031 C 
ATOM     33  C   UNL A   1      39.576  26.720  28.110  1.00  0.00     0.029 A 
ATOM     34  N   UNL A   1      41.621  27.212  28.868  1.00  0.00    -0.354 N 
ATOM     35  C   UNL A   1      42.530  31.141  30.435  1.00  0.00     0.074 A 
ATOM     36  C   UNL A   1      41.365  31.998  30.399  1.00  0.00     0.031 C 
ATOM     37  C   UNL A   1      40.345  25.634  27.928  1.00  0.00     0.029 A 
ATOM     38  C   UNL A   1      41.697  25.922  28.395  1.00  0.00     0.049 A 
ATOM     39  H   UNL A   1      42.388  27.686  29.263  1.00  0.00     0.167 HD
ATOM     40  C   UNL A   1      43.744  31.519  30.903  1.00  0.00     0.037 A 
ATOM     41  C   UNL A   1      42.740  25.072  28.340  1.00  0.00     0.037 A 
ATOM     42  C   UNL A   1      44.891  30.651  30.964  1.00  0.00     0.049 A 
ATOM     43  C   UNL A   1      44.072  25.508  28.881  1.00  0.00     0.074 A 
ATOM     44  C   UNL A   1      46.150  30.920  31.476  1.00  0.00     0.029 A 
ATOM     45  N   UNL A   1      44.921  29.343  30.500  1.00  0.00    -0.354 N 
ATOM     46  N   UNL A   1      44.409  26.662  29.406  1.00  0.00    -0.248 NA
ATOM     47  C   UNL A   1      45.165  24.528  28.829  1.00  0.00     0.031 C 
ATOM     48  C   UNL A   1      46.950  29.787  31.290  1.00  0.00     0.029 A 
ATOM     49  C   UNL A   1      46.178  28.798  30.700  1.00  0.00     0.049 A 
ATOM     50  H   UNL A   1      44.160  28.873  30.090  1.00  0.00     0.167 HD
ATOM     51  C   UNL A   1      45.746  26.538  29.768  1.00  0.00     0.074 A 
ATOM     52  C   UNL A   1      46.153  25.194  29.412  1.00  0.00     0.031 C 
ATOM     53  C   UNL A   1      46.564  27.456  30.342  1.00  0.00     0.037 A 
BRANCH  40  54
ATOM     54  C   UNL A   1      43.891  32.934  31.392  1.00  0.00     0.058 A 
ATOM     55  C   UNL A   1      44.176  33.990  30.512  1.00  0.00     0.135 A 
ATOM     56  C   UNL A   1      43.716  33.244  32.750  1.00  0.00     0.135 A 
ATOM     57  F   UNL A   1      44.368  33.749  29.205  1.00  0.00    -0.206 F 
ATOM     58  C   UNL A   1      44.313  35.298  30.964  1.00  0.00     0.059 A 
ATOM     59  C   UNL A   1      43.822  34.550  33.222  1.00  0.00     0.059 A 
ATOM     60  F   UNL A   1      43.439  32.274  33.636  1.00  0.00    -0.206 F 
ATOM     61  C   UNL A   1      44.138  35.568  32.323  1.00  0.00     0.060 A 
BRANCH  61  62
ATOM     62  S   UNL A   1      44.320  37.271  32.896  1.00  0.00     0.124 S 
ATOM     63  O   UNL A   1      44.435  37.991  31.631  1.00  0.00    -0.237 OA
ATOM     64  O   UNL A   1      43.081  37.488  33.637  1.00  0.00    -0.237 OA
ATOM     65  O   UNL A   1      45.532  37.229  33.708  1.00  0.00    -0.744 OA
ENDBRANCH  61  62
ENDBRANCH  40  54
BRANCH  41  66
ATOM     66  C   UNL A   1      42.553  23.710  27.774  1.00  0.00     0.058 A 
ATOM     67  C   UNL A   1      42.580  23.497  26.388  1.00  0.00     0.135 A 
ATOM     68  C   UNL A   1      42.368  22.595  28.604  1.00  0.00     0.135 A 
ATOM     69  F   UNL A   1      42.749  24.534  25.553  1.00  0.00    -0.206 F 
ATOM     70  C   UNL A   1      42.418  22.228  25.842  1.00  0.00     0.059 A 
ATOM     71  C   UNL A   1      42.227  21.312  28.084  1.00  0.00     0.059 A 
ATOM     72  F   UNL A   1      42.353  22.744  29.938  1.00  0.00    -0.206 F 
ATOM     73  C   UNL A   1      42.245  21.140  26.699  1.00  0.00     0.060 A 
BRANCH  73  74
ATOM     74  S   UNL A   1      42.094  19.488  25.986  1.00  0.00     0.124 S 
ATOM     75  O   UNL A   1      42.923  19.608  24.792  1.00  0.00    -0.237 OA
ATOM     76  O   UNL A   1      42.624  18.642  27.050  1.00  0.00    -0.237 OA
ATOM     77  O   UNL A   1      40.660  19.357  25.748  1.00  0.00    -0.744 OA
ENDBRANCH  73  74
ENDBRANCH  41  66
BRANCH  53  78
ATOM     78  C   UNL A   1      47.972  27.029  30.645  1.00  0.00     0.058 A 
ATOM     79  C   UNL A   1      49.014  27.226  29.727  1.00  0.00     0.135 A 
ATOM     80  C   UNL A   1      48.290  26.458  31.888  1.00  0.00     0.135 A 
ATOM     81  F   UNL A   1      48.760  27.760  28.521  1.00  0.00    -0.206 F 
ATOM     82  C   UNL A   1      50.321  26.853  30.022  1.00  0.00     0.059 A 
ATOM     83  C   UNL A   1      49.594  26.100  32.213  1.00  0.00     0.059 A 
ATOM     84  F   UNL A   1      47.330  26.258  32.806  1.00  0.00    -0.206 F 
ATOM     85  C   UNL A   1      50.601  26.291  31.269  1.00  0.00     0.060 A 
BRANCH  85  86
ATOM     86  S   UNL A   1      52.307  25.839  31.653  1.00  0.00     0.124 S 
ATOM     87  O   UNL A   1      52.154  24.455  32.088  1.00  0.00    -0.237 OA
ATOM     88  O   UNL A   1      52.979  26.030  30.371  1.00  0.00    -0.237 OA
ATOM     89  O   UNL A   1      52.681  26.790  32.697  1.00  0.00    -0.744 OA
ENDBRANCH  85  86
ENDBRANCH  53  78
ENDBRANCH  27  28
ENDBRANCH  19  22
ENDBRANCH   1  18
TORSDOF 14
ENDMDL
MODEL 2
REMARK VINA RESULT:     -11.3      4.982     11.064
REMARK SMILES CC1(c2ccc(C(=O)NCCCNC(=O)c3ccc(-c4c5nc(c(-c6c(F)cc(S(=O)(=O)[O-])cc6F)c6ccc([nH]6)c(-c6c(F)cc(S(=O)(=O)[O-])cc6F)c6nc(c(-c7c(F)cc(S(=O)(=O)[O-])cc7F)c7ccc4[nH]7)C=C6)C=C5)cc3)cc2)CC1
REMARK SMILES IDX 12 1 11 2 10 3 9 4 7 5 8 6 6 8 3 9 4 10 83 11 5 12 82 13
REMARK SMILES IDX 2 14 1 15 84 16 85 17 13 18 14 19 15 21 16 22 17 23 81 24
REMARK SMILES IDX 18 25 80 26 19 27 20 28 21 29 74 30 22 31 79 32 73 33 75 34
REMARK SMILES IDX 23 35 78 36 72 37 71 38 24 40 58 41 37 42 57 43 38 44 41 45
REMARK SMILES IDX 56 46 76 47 39 48 40 49 55 51 77 52 42 53 25 54 26 55 35 56
REMARK SMILES IDX 27 57 28 58 34 59 36 60 29 61 30 62 31 63 32 64 33 65 59 66
REMARK SMILES IDX 60 67 69 68 61 69 62 70 68 71 70 72 63 73 64 74 65 75 66 76
REMARK SMILES IDX 67 77 43 78 44 79 53 80 45 81 46 82 52 83 54 84 47 85 48 86
REMARK SMILES IDX 49 87 50 88 51 89
REMARK H PARENT 9 7 13 20 75 39 41 50
REMARK Flexibility Score: inf
ROOT
ATOM      1  C   UNL A   1      40.412  21.207  26.860  1.00  0.00     0.118 C 
ENDROOT
BRANCH   1   2
ATOM      2  C   UNL A   1      41.068  19.986  26.217  1.00  0.00     0.042 C 
BRANCH   2   3
ATOM      3  C   UNL A   1      42.592  20.081  26.126  1.00  0.00     0.118 C 
BRANCH   3   4
ATOM      4  N   UNL A   1      43.014  21.194  25.298  1.00  0.00    -0.352 N 
ATOM      5  C   UNL A   1      43.555  22.416  25.605  1.00  0.00     0.251 C 
ATOM      6  O   UNL A   1      43.940  23.116  24.666  1.00  0.00    -0.269 OA
ATOM      7  H   UNL A   1      42.887  21.045  24.332  1.00  0.00     0.163 HD
BRANCH   5   8
ATOM      8  C   UNL A   1      43.725  22.923  26.996  1.00  0.00     0.039 A 
ATOM      9  C   UNL A   1      44.232  24.013  29.585  1.00  0.00    -0.042 A 
ATOM     10  C   UNL A   1      45.278  23.723  28.698  1.00  0.00     0.005 A 
ATOM     11  C   UNL A   1      42.929  23.743  29.139  1.00  0.00     0.005 A 
ATOM     12  C   UNL A   1      45.033  23.178  27.431  1.00  0.00     0.014 A 
ATOM     13  C   UNL A   1      42.675  23.237  27.859  1.00  0.00     0.014 A 
BRANCH   9  14
ATOM     14  C   UNL A   1      44.461  24.662  30.942  1.00  0.00    -0.007 C 
ATOM     15  C   UNL A   1      44.404  23.701  32.109  1.00  0.00     0.016 C 
ATOM     16  C   UNL A   1      44.026  26.095  31.191  1.00  0.00     0.012 C 
ATOM     17  C   UNL A   1      45.481  25.784  31.021  1.00  0.00     0.012 C 
ENDBRANCH   9  14
ENDBRANCH   5   8
ENDBRANCH   3   4
ENDBRANCH   2   3
ENDBRANCH   1   2
BRANCH   1  18
ATOM     18  N   UNL A   1      39.174  21.572  26.189  1.00  0.00    -0.352 N 
ATOM     19  C   UNL A   1      38.502  22.767  26.157  1.00  0.00     0.251 C 
ATOM     20  H   UNL A   1      38.752  20.846  25.676  1.00  0.00     0.163 HD
ATOM     21  O   UNL A   1      37.353  22.788  25.720  1.00  0.00    -0.269 OA
BRANCH  19  22
ATOM     22  C   UNL A   1      39.130  24.019  26.637  1.00  0.00     0.039 A 
ATOM     23  C   UNL A   1      39.867  24.785  25.728  1.00  0.00     0.014 A 
ATOM     24  C   UNL A   1      39.069  24.404  27.980  1.00  0.00     0.014 A 
ATOM     25  C   UNL A   1      40.514  25.947  26.155  1.00  0.00     0.010 A 
ATOM     26  C   UNL A   1      39.663  25.598  28.392  1.00  0.00     0.010 A 
ATOM     27  C   UNL A   1      40.402  26.373  27.487  1.00  0.00    -0.014 A 
BRANCH  27  28
ATOM     28  C   UNL A   1      41.069  27.618  27.949  1.00  0.00     0.031 A 
ATOM     29  C   UNL A   1      42.564  27.760  27.848  1.00  0.00     0.074 A 
ATOM     30  C   UNL A   1      40.331  28.601  28.502  1.00  0.00     0.049 A 
ATOM     31  N   UNL A   1      43.329  28.746  28.243  1.00  0.00    -0.248 NA
ATOM     32  C   UNL A   1      43.299  26.637  27.245  1.00  0.00     0.031 C 
ATOM     33  C   UNL A   1      38.880  28.561  28.695  1.00  0.00     0.029 A 
ATOM     34  N   UNL A   1      40.700  29.820  29.011  1.00  0.00    -0.354 N 
ATOM     35  C   UNL A   1      44.632  28.356  27.952  1.00  0.00     0.074 A 
ATOM     36  C   UNL A   1      44.558  27.026  27.388  1.00  0.00     0.031 C 
ATOM     37  C   UNL A   1      38.481  29.710  29.264  1.00  0.00     0.029 A 
ATOM     38  C   UNL A   1      39.646  30.554  29.504  1.00  0.00     0.049 A 
ATOM     39  H   UNL A   1      41.631  30.139  29.023  1.00  0.00     0.167 HD
ATOM     40  C   UNL A   1      45.781  29.054  28.121  1.00  0.00     0.037 A 
ATOM     41  C   UNL A   1      39.624  31.767  30.088  1.00  0.00     0.037 A 
ATOM     42  C   UNL A   1      45.844  30.389  28.655  1.00  0.00     0.049 A 
ATOM     43  C   UNL A   1      40.911  32.528  30.249  1.00  0.00     0.074 A 
ATOM     44  C   UNL A   1      46.954  31.203  28.811  1.00  0.00     0.029 A 
ATOM     45  N   UNL A   1      44.753  31.109  29.119  1.00  0.00    -0.354 N 
ATOM     46  N   UNL A   1      42.127  32.168  29.916  1.00  0.00    -0.248 NA
ATOM     47  C   UNL A   1      40.823  33.861  30.859  1.00  0.00     0.031 C 
ATOM     48  C   UNL A   1      46.537  32.402  29.401  1.00  0.00     0.029 A 
ATOM     49  C   UNL A   1      45.162  32.350  29.575  1.00  0.00     0.049 A 
ATOM     50  H   UNL A   1      43.823  30.785  29.123  1.00  0.00     0.167 HD
ATOM     51  C   UNL A   1      42.946  33.238  30.254  1.00  0.00     0.074 A 
ATOM     52  C   UNL A   1      42.086  34.264  30.808  1.00  0.00     0.031 C 
ATOM     53  C   UNL A   1      44.291  33.361  30.120  1.00  0.00     0.037 A 
BRANCH  40  54
ATOM     54  C   UNL A   1      47.066  28.383  27.719  1.00  0.00     0.058 A 
ATOM     55  C   UNL A   1      47.891  27.748  28.660  1.00  0.00     0.135 A 
ATOM     56  C   UNL A   1      47.464  28.348  26.372  1.00  0.00     0.135 A 
ATOM     57  F   UNL A   1      47.567  27.763  29.963  1.00  0.00    -0.206 F 
ATOM     58  C   UNL A   1      49.080  27.129  28.288  1.00  0.00     0.059 A 
ATOM     59  C   UNL A   1      48.637  27.712  25.972  1.00  0.00     0.059 A 
ATOM     60  F   UNL A   1      46.712  28.937  25.429  1.00  0.00    -0.206 F 
ATOM     61  C   UNL A   1      49.447  27.119  26.940  1.00  0.00     0.060 A 
BRANCH  61  62
ATOM     62  S   UNL A   1      50.992  26.313  26.471  1.00  0.00     0.124 S 
ATOM     63  O   UNL A   1      51.976  27.176  27.118  1.00  0.00    -0.237 OA
ATOM     64  O   UNL A   1      50.841  24.981  27.049  1.00  0.00    -0.237 OA
ATOM     65  O   UNL A   1      50.974  26.365  25.013  1.00  0.00    -0.744 OA
ENDBRANCH  61  62
ENDBRANCH  40  54
BRANCH  41  66
ATOM     66  C   UNL A   1      38.331  32.346  30.538  1.00  0.00     0.058 A 
ATOM     67  C   UNL A   1      37.820  32.064  31.813  1.00  0.00     0.135 A 
ATOM     68  C   UNL A   1      37.594  33.211  29.714  1.00  0.00     0.135 A 
ATOM     69  F   UNL A   1      38.487  31.239  32.635  1.00  0.00    -0.206 F 
ATOM     70  C   UNL A   1      36.618  32.608  32.254  1.00  0.00     0.059 A 
ATOM     71  C   UNL A   1      36.401  33.785  30.140  1.00  0.00     0.059 A 
ATOM     72  F   UNL A   1      38.050  33.526  28.492  1.00  0.00    -0.206 F 
ATOM     73  C   UNL A   1      35.916  33.470  31.410  1.00  0.00     0.060 A 
BRANCH  73  74
ATOM     74  S   UNL A   1      34.386  34.217  32.010  1.00  0.00     0.124 S 
ATOM     75  O   UNL A   1      34.888  35.399  32.700  1.00  0.00    -0.237 OA
ATOM     76  O   UNL A   1      33.654  34.463  30.772  1.00  0.00    -0.237 OA
ATOM     77  O   UNL A   1      33.821  33.178  32.867  1.00  0.00    -0.744 OA
ENDBRANCH  73  74
ENDBRANCH  41  66
BRANCH  53  78
ATOM     78  C   UNL A   1      44.910  34.659  30.554  1.00  0.00     0.058 A 
ATOM     79  C   UNL A   1      45.028  35.747  29.676  1.00  0.00     0.135 A 
ATOM     80  C   UNL A   1      45.346  34.831  31.877  1.00  0.00     0.135 A 
ATOM     81  F   UNL A   1      44.633  35.631  28.398  1.00  0.00    -0.206 F 
ATOM     82  C   UNL A   1      45.578  36.956  30.090  1.00  0.00     0.059 A 
ATOM     83  C   UNL A   1      45.876  36.039  32.319  1.00  0.00     0.059 A 
ATOM     84  F   UNL A   1      45.245  33.823  32.759  1.00  0.00    -0.206 F 
ATOM     85  C   UNL A   1      45.999  37.092  31.414  1.00  0.00     0.060 A 
BRANCH  85  86
ATOM     86  S   UNL A   1      46.682  38.676  31.949  1.00  0.00     0.124 S 
ATOM     87  O   UNL A   1      47.830  38.249  32.742  1.00  0.00    -0.237 OA
ATOM     88  O   UNL A   1      46.995  39.328  30.680  1.00  0.00    -0.237 OA
ATOM     89  O   UNL A   1      45.586  39.280  32.702  1.00  0.00    -0.744 OA
ENDBRANCH  85  86
ENDBRANCH  53  78
ENDBRANCH  27  28
ENDBRANCH  19  22
ENDBRANCH   1  18
TORSDOF 14
ENDMDL
MODEL 3
REMARK VINA RESULT:     -11.3      3.790      6.372
REMARK SMILES CC1(c2ccc(C(=O)NCCCNC(=O)c3ccc(-c4c5nc(c(-c6c(F)cc(S(=O)(=O)[O-])cc6F)c6ccc([nH]6)c(-c6c(F)cc(S(=O)(=O)[O-])cc6F)c6nc(c(-c7c(F)cc(S(=O)(=O)[O-])cc7F)c7ccc4[nH]7)C=C6)C=C5)cc3)cc2)CC1
REMARK SMILES IDX 12 1 11 2 10 3 9 4 7 5 8 6 6 8 3 9 4 10 83 11 5 12 82 13
REMARK SMILES IDX 2 14 1 15 84 16 85 17 13 18 14 19 15 21 16 22 17 23 81 24
REMARK SMILES IDX 18 25 80 26 19 27 20 28 21 29 74 30 22 31 79 32 73 33 75 34
REMARK SMILES IDX 23 35 78 36 72 37 71 38 24 40 58 41 37 42 57 43 38 44 41 45
REMARK SMILES IDX 56 46 76 47 39 48 40 49 55 51 77 52 42 53 25 54 26 55 35 56
REMARK SMILES IDX 27 57 28 58 34 59 36 60 29 61 30 62 31 63 32 64 33 65 59 66
REMARK SMILES IDX 60 67 69 68 61 69 62 70 68 71 70 72 63 73 64 74 65 75 66 76
REMARK SMILES IDX 67 77 43 78 44 79 53 80 45 81 46 82 52 83 54 84 47 85 48 86
REMARK SMILES IDX 49 87 50 88 51 89
REMARK H PARENT 9 7 13 20 75 39 41 50
REMARK Flexibility Score: inf
ROOT
ATOM      1  C   UNL A   1      34.476  32.892  27.919  1.00  0.00     0.118 C 
ENDROOT
BRANCH   1   2
ATOM      2  C   UNL A   1      33.422  33.903  28.368  1.00  0.00     0.042 C 
BRANCH   2   3
ATOM      3  C   UNL A   1      33.804  34.671  29.634  1.00  0.00     0.118 C 
BRANCH   3   4
ATOM      4  N   UNL A   1      33.993  33.783  30.766  1.00  0.00    -0.352 N 
ATOM      5  C   UNL A   1      35.121  33.328  31.400  1.00  0.00     0.251 C 
ATOM      6  O   UNL A   1      34.964  32.674  32.433  1.00  0.00    -0.269 OA
ATOM      7  H   UNL A   1      33.154  33.440  31.150  1.00  0.00     0.163 HD
BRANCH   5   8
ATOM      8  C   UNL A   1      36.507  33.603  30.926  1.00  0.00     0.039 A 
ATOM      9  C   UNL A   1      39.230  34.117  30.240  1.00  0.00    -0.042 A 
ATOM     10  C   UNL A   1      38.682  34.578  31.446  1.00  0.00     0.005 A 
ATOM     11  C   UNL A   1      38.378  33.393  29.392  1.00  0.00     0.005 A 
ATOM     12  C   UNL A   1      37.343  34.336  31.780  1.00  0.00     0.014 A 
ATOM     13  C   UNL A   1      37.051  33.113  29.740  1.00  0.00     0.014 A 
BRANCH   9  14
ATOM     14  C   UNL A   1      40.695  34.310  29.876  1.00  0.00    -0.007 C 
ATOM     15  C   UNL A   1      40.936  35.328  28.784  1.00  0.00     0.016 C 
ATOM     16  C   UNL A   1      41.671  33.153  29.987  1.00  0.00     0.012 C 
ATOM     17  C   UNL A   1      41.711  34.253  31.003  1.00  0.00     0.012 C 
ENDBRANCH   9  14
ENDBRANCH   5   8
ENDBRANCH   3   4
ENDBRANCH   2   3
ENDBRANCH   1   2
BRANCH   1  18
ATOM     18  N   UNL A   1      33.871  31.675  27.398  1.00  0.00    -0.352 N 
ATOM     19  C   UNL A   1      34.389  30.412  27.268  1.00  0.00     0.251 C 
ATOM     20  H   UNL A   1      32.941  31.775  27.091  1.00  0.00     0.163 HD
ATOM     21  O   UNL A   1      33.780  29.590  26.587  1.00  0.00    -0.269 OA
BRANCH  19  22
ATOM     22  C   UNL A   1      35.659  30.028  27.927  1.00  0.00     0.039 A 
ATOM     23  C   UNL A   1      35.622  29.651  29.273  1.00  0.00     0.014 A 
ATOM     24  C   UNL A   1      36.886  30.110  27.262  1.00  0.00     0.014 A 
ATOM     25  C   UNL A   1      36.806  29.328  29.941  1.00  0.00     0.010 A 
ATOM     26  C   UNL A   1      38.059  29.726  27.912  1.00  0.00     0.010 A 
ATOM     27  C   UNL A   1      38.033  29.345  29.261  1.00  0.00    -0.014 A 
BRANCH  27  28
ATOM     28  C   UNL A   1      39.296  28.985  29.955  1.00  0.00     0.031 A 
ATOM     29  C   UNL A   1      39.720  29.728  31.194  1.00  0.00     0.074 A 
ATOM     30  C   UNL A   1      40.082  28.017  29.443  1.00  0.00     0.049 A 
ATOM     31  N   UNL A   1      40.809  29.591  31.906  1.00  0.00    -0.248 NA
ATOM     32  C   UNL A   1      38.813  30.779  31.681  1.00  0.00     0.031 C 
ATOM     33  C   UNL A   1      39.800  27.256  28.224  1.00  0.00     0.029 A 
ATOM     34  N   UNL A   1      41.283  27.516  29.877  1.00  0.00    -0.354 N 
ATOM     35  C   UNL A   1      40.726  30.547  32.914  1.00  0.00     0.074 A 
ATOM     36  C   UNL A   1      39.502  31.285  32.694  1.00  0.00     0.031 C 
ATOM     37  C   UNL A   1      40.790  26.373  28.019  1.00  0.00     0.029 A 
ATOM     38  C   UNL A   1      41.791  26.524  29.069  1.00  0.00     0.049 A 
ATOM     39  H   UNL A   1      41.739  27.835  30.689  1.00  0.00     0.167 HD
ATOM     40  C   UNL A   1      41.582  30.772  33.939  1.00  0.00     0.037 A 
ATOM     41  C   UNL A   1      42.935  25.821  29.164  1.00  0.00     0.037 A 
ATOM     42  C   UNL A   1      42.784  30.013  34.169  1.00  0.00     0.049 A 
ATOM     43  C   UNL A   1      43.861  26.078  30.320  1.00  0.00     0.074 A 
ATOM     44  C   UNL A   1      43.687  30.124  35.213  1.00  0.00     0.029 A 
ATOM     45  N   UNL A   1      43.251  28.999  33.345  1.00  0.00    -0.354 N 
ATOM     46  N   UNL A   1      43.738  26.946  31.296  1.00  0.00    -0.248 NA
ATOM     47  C   UNL A   1      45.077  25.258  30.394  1.00  0.00     0.031 C 
ATOM     48  C   UNL A   1      44.717  29.201  35.001  1.00  0.00     0.029 A 
ATOM     49  C   UNL A   1      44.435  28.487  33.846  1.00  0.00     0.049 A 
ATOM     50  H   UNL A   1      42.805  28.690  32.523  1.00  0.00     0.167 HD
ATOM     51  C   UNL A   1      44.849  26.760  32.112  1.00  0.00     0.074 A 
ATOM     52  C   UNL A   1      45.626  25.690  31.521  1.00  0.00     0.031 C 
ATOM     53  C   UNL A   1      45.194  27.418  33.247  1.00  0.00     0.037 A 
BRANCH  40  54
ATOM     54  C   UNL A   1      41.246  31.884  34.895  1.00  0.00     0.058 A 
ATOM     55  C   UNL A   1      40.336  31.699  35.948  1.00  0.00     0.135 A 
ATOM     56  C   UNL A   1      41.862  33.140  34.776  1.00  0.00     0.135 A 
ATOM     57  F   UNL A   1      39.707  30.522  36.100  1.00  0.00    -0.206 F 
ATOM     58  C   UNL A   1      40.025  32.728  36.830  1.00  0.00     0.059 A 
ATOM     59  C   UNL A   1      41.585  34.178  35.664  1.00  0.00     0.059 A 
ATOM     60  F   UNL A   1      42.741  33.372  33.789  1.00  0.00    -0.206 F 
ATOM     61  C   UNL A   1      40.652  33.966  36.678  1.00  0.00     0.060 A 
BRANCH  61  62
ATOM     62  S   UNL A   1      40.237  35.293  37.831  1.00  0.00     0.124 S 
ATOM     63  O   UNL A   1      39.035  34.760  38.464  1.00  0.00    -0.237 OA
ATOM     64  O   UNL A   1      41.424  35.356  38.678  1.00  0.00    -0.237 OA
ATOM     65  O   UNL A   1      40.030  36.446  36.960  1.00  0.00    -0.744 OA
ENDBRANCH  61  62
ENDBRANCH  40  54
BRANCH  41  66
ATOM     66  C   UNL A   1      43.253  24.787  28.145  1.00  0.00     0.058 A 
ATOM     67  C   UNL A   1      43.929  25.124  26.964  1.00  0.00     0.135 A 
ATOM     68  C   UNL A   1      42.910  23.441  28.341  1.00  0.00     0.135 A 
ATOM     69  F   UNL A   1      44.273  26.400  26.729  1.00  0.00    -0.206 F 
ATOM     70  C   UNL A   1      44.244  24.167  26.005  1.00  0.00     0.059 A 
ATOM     71  C   UNL A   1      43.234  22.461  27.409  1.00  0.00     0.059 A 
ATOM     72  F   UNL A   1      42.279  23.064  29.464  1.00  0.00    -0.206 F 
ATOM     73  C   UNL A   1      43.895  22.835  26.238  1.00  0.00     0.060 A 
BRANCH  73  74
ATOM     74  S   UNL A   1      44.359  21.589  25.016  1.00  0.00     0.124 S 
ATOM     75  O   UNL A   1      45.747  21.329  25.376  1.00  0.00    -0.237 OA
ATOM     76  O   UNL A   1      43.413  20.514  25.297  1.00  0.00    -0.237 OA
ATOM     77  O   UNL A   1      44.154  22.277  23.745  1.00  0.00    -0.744 OA
ENDBRANCH  73  74
ENDBRANCH  41  66
BRANCH  53  78
ATOM     78  C   UNL A   1      46.453  26.980  33.939  1.00  0.00     0.058 A 
ATOM     79  C   UNL A   1      47.690  27.582  33.664  1.00  0.00     0.135 A 
ATOM     80  C   UNL A   1      46.414  25.980  34.923  1.00  0.00     0.135 A 
ATOM     81  F   UNL A   1      47.783  28.538  32.726  1.00  0.00    -0.206 F 
ATOM     82  C   UNL A   1      48.850  27.193  34.326  1.00  0.00     0.059 A 
ATOM     83  C   UNL A   1      47.556  25.591  35.614  1.00  0.00     0.059 A 
ATOM     84  F   UNL A   1      45.252  25.380  35.230  1.00  0.00    -0.206 F 
ATOM     85  C   UNL A   1      48.772  26.196  35.300  1.00  0.00     0.060 A 
BRANCH  85  86
ATOM     86  S   UNL A   1      50.278  25.720  36.176  1.00  0.00     0.124 S 
ATOM     87  O   UNL A   1      50.325  26.716  37.242  1.00  0.00    -0.237 OA
ATOM     88  O   UNL A   1      49.979  24.355  36.597  1.00  0.00    -0.237 OA
ATOM     89  O   UNL A   1      51.315  25.841  35.155  1.00  0.00    -0.744 OA
ENDBRANCH  85  86
ENDBRANCH  53  78
ENDBRANCH  27  28
ENDBRANCH  19  22
ENDBRANCH   1  18
TORSDOF 14
ENDMDL
