MODEL 1
REMARK VINA RESULT:     -12.6      0.000      0.000
REMARK SMILES COc1ccc(-n2c(SCc3cn(-c4ccc(C(=O)NCCCNC(=O)c5ccc(-c6c7nc(c(-c8c(F)cc(S(=O)(=O)[O-])cc8F)c8ccc([nH]8)c(-c8c(F)cc(S(=O)(=O)[O-])cc8F)c8nc(c(-c9c(F)cc(S(=O)(=O)[O-])cc9F)c9ccc6[nH]9)C=C8)C=C7)cc5)cc4)nn3)nc3ccccc3c2=O)cc1
REMARK SMILES IDX 18 1 19 2 20 3 17 5 14 6 15 7 94 8 16 9 93 10 13 11 11 12
REMARK SMILES IDX 12 13 96 14 95 15 10 16 9 17 8 18 7 19 104 20 97 21 103 22
REMARK SMILES IDX 105 23 98 24 102 25 99 26 101 27 100 28 6 29 3 30 4 31
REMARK SMILES IDX 107 32 5 33 106 34 2 35 1 36 21 37 22 38 23 39 24 40 25 41
REMARK SMILES IDX 26 43 27 44 28 45 92 46 29 47 91 48 30 49 31 50 32 51 85 52
REMARK SMILES IDX 33 53 90 54 84 55 86 56 34 57 89 58 83 59 82 60 35 62 69 63
REMARK SMILES IDX 48 64 68 65 49 66 52 67 67 68 87 69 50 70 51 71 66 73 88 74
REMARK SMILES IDX 53 75 36 76 37 77 46 78 38 79 39 80 45 81 47 82 40 83 41 84
REMARK SMILES IDX 42 85 43 86 44 87 70 88 71 89 80 90 72 91 73 92 79 93 81 94
REMARK SMILES IDX 74 95 75 96 76 97 77 98 78 99 54 100 55 101 64 102 56 103
REMARK SMILES IDX 57 104 63 105 65 106 58 107 59 108 60 109 61 110 62 111
REMARK H PARENT 20 4 24 42 86 61 52 72
REMARK Flexibility Score: inf
ROOT
ATOM      1  C   UNL A   1      43.475  22.897  28.664  1.00  0.00     0.251 C 
ATOM      2  O   UNL A   1      43.558  22.925  29.890  1.00  0.00    -0.269 OA
ATOM      3  N   UNL A   1      44.632  22.902  27.916  1.00  0.00    -0.352 N 
ATOM      4  H   UNL A   1      45.445  23.116  28.429  1.00  0.00     0.163 HD
ENDROOT
BRANCH   1   5
ATOM      5  C   UNL A   1      42.132  22.821  28.038  1.00  0.00     0.039 A 
ATOM      6  C   UNL A   1      39.670  22.697  26.774  1.00  0.00     0.066 A 
ATOM      7  C   UNL A   1      40.360  21.509  27.022  1.00  0.00     0.029 A 
ATOM      8  C   UNL A   1      40.152  23.922  27.201  1.00  0.00     0.029 A 
ATOM      9  C   UNL A   1      41.617  21.582  27.628  1.00  0.00     0.016 A 
ATOM     10  C   UNL A   1      41.341  23.953  27.882  1.00  0.00     0.016 A 
BRANCH   6  11
ATOM     11  N   UNL A   1      38.431  22.714  26.152  1.00  0.00    -0.220 N 
ATOM     12  C   UNL A   1      36.426  23.254  25.577  1.00  0.00     0.093 A 
ATOM     13  C   UNL A   1      37.571  23.779  26.103  1.00  0.00     0.141 A 
ATOM     14  N   UNL A   1      36.605  21.909  25.395  1.00  0.00    -0.134 NA
ATOM     15  N   UNL A   1      37.869  21.617  25.631  1.00  0.00    -0.062 NA
BRANCH  12  16
ATOM     16  C   UNL A   1      35.219  23.978  25.164  1.00  0.00     0.138 C 
BRANCH  16  17
ATOM     17  S   UNL A   1      34.891  23.901  23.417  1.00  0.00    -0.081 SA
BRANCH  17  18
ATOM     18  C   UNL A   1      33.206  24.581  23.288  1.00  0.00     0.176 A 
ATOM     19  N   UNL A   1      32.774  25.118  24.483  1.00  0.00    -0.255 N 
ATOM     20  C   UNL A   1      32.142  24.228  25.343  1.00  0.00     0.266 A 
ATOM     21  N   UNL A   1      32.374  23.853  22.603  1.00  0.00    -0.223 NA
ATOM     22  C   UNL A   1      32.008  22.840  24.773  1.00  0.00     0.066 A 
ATOM     23  O   UNL A   1      31.763  24.463  26.485  1.00  0.00    -0.268 OA
ATOM     24  C   UNL A   1      32.042  22.722  23.367  1.00  0.00     0.079 A 
ATOM     25  C   UNL A   1      32.167  21.709  25.565  1.00  0.00     0.016 A 
ATOM     26  C   UNL A   1      32.130  21.475  22.755  1.00  0.00     0.029 A 
ATOM     27  C   UNL A   1      32.355  20.469  24.943  1.00  0.00     0.001 A 
ATOM     28  C   UNL A   1      32.315  20.348  23.548  1.00  0.00     0.002 A 
BRANCH  19  29
ATOM     29  C   UNL A   1      33.003  26.487  24.770  1.00  0.00     0.052 A 
ATOM     30  C   UNL A   1      33.003  29.117  25.752  1.00  0.00     0.119 A 
ATOM     31  C   UNL A   1      33.880  28.180  26.290  1.00  0.00     0.048 A 
ATOM     32  C   UNL A   1      32.211  28.777  24.655  1.00  0.00     0.048 A 
ATOM     33  C   UNL A   1      33.855  26.858  25.824  1.00  0.00     0.030 A 
ATOM     34  C   UNL A   1      32.231  27.470  24.145  1.00  0.00     0.030 A 
BRANCH  30  35
ATOM     35  O   UNL A   1      33.000  30.381  26.273  1.00  0.00    -0.497 OA
ATOM     36  C   UNL A   1      33.837  30.507  27.424  1.00  0.00     0.278 C 
ENDBRANCH  30  35
ENDBRANCH  19  29
ENDBRANCH  17  18
ENDBRANCH  16  17
ENDBRANCH  12  16
ENDBRANCH   6  11
ENDBRANCH   1   5
BRANCH   3  37
ATOM     37  C   UNL A   1      44.867  22.645  26.498  1.00  0.00     0.118 C 
BRANCH  37  38
ATOM     38  C   UNL A   1      44.355  23.769  25.575  1.00  0.00     0.042 C 
BRANCH  38  39
ATOM     39  C   UNL A   1      44.565  25.145  26.148  1.00  0.00     0.118 C 
BRANCH  39  40
ATOM     40  N   UNL A   1      45.474  25.963  25.341  1.00  0.00    -0.352 N 
ATOM     41  C   UNL A   1      45.404  27.324  25.059  1.00  0.00     0.251 C 
ATOM     42  H   UNL A   1      46.238  25.485  24.945  1.00  0.00     0.163 HD
ATOM     43  O   UNL A   1      45.990  27.787  24.101  1.00  0.00    -0.269 OA
BRANCH  41  44
ATOM     44  C   UNL A   1      44.597  28.178  25.953  1.00  0.00     0.039 A 
ATOM     45  C   UNL A   1      43.260  28.513  25.723  1.00  0.00     0.014 A 
ATOM     46  C   UNL A   1      45.220  28.598  27.109  1.00  0.00     0.014 A 
ATOM     47  C   UNL A   1      42.602  29.274  26.689  1.00  0.00     0.010 A 
ATOM     48  C   UNL A   1      44.451  28.870  28.187  1.00  0.00     0.010 A 
ATOM     49  C   UNL A   1      43.239  29.464  27.919  1.00  0.00    -0.014 A 
BRANCH  49  50
ATOM     50  C   UNL A   1      42.730  30.256  29.020  1.00  0.00     0.031 A 
ATOM     51  C   UNL A   1      43.548  31.447  29.312  1.00  0.00     0.074 A 
ATOM     52  C   UNL A   1      41.450  30.118  29.441  1.00  0.00     0.049 A 
ATOM     53  N   UNL A   1      44.386  31.598  30.281  1.00  0.00    -0.248 NA
ATOM     54  C   UNL A   1      43.635  32.494  28.279  1.00  0.00     0.031 C 
ATOM     55  C   UNL A   1      40.401  29.221  28.929  1.00  0.00     0.029 A 
ATOM     56  N   UNL A   1      40.770  30.879  30.338  1.00  0.00    -0.354 N 
ATOM     57  C   UNL A   1      44.875  32.890  30.130  1.00  0.00     0.074 A 
ATOM     58  C   UNL A   1      44.643  33.230  28.754  1.00  0.00     0.031 C 
ATOM     59  C   UNL A   1      39.192  29.646  29.358  1.00  0.00     0.029 A 
ATOM     60  C   UNL A   1      39.382  30.753  30.272  1.00  0.00     0.049 A 
ATOM     61  H   UNL A   1      41.221  31.471  30.984  1.00  0.00     0.167 HD
ATOM     62  C   UNL A   1      45.110  33.684  31.212  1.00  0.00     0.037 A 
ATOM     63  C   UNL A   1      38.493  31.593  30.868  1.00  0.00     0.037 A 
ATOM     64  C   UNL A   1      45.030  32.911  32.435  1.00  0.00     0.049 A 
ATOM     65  C   UNL A   1      39.246  32.276  31.968  1.00  0.00     0.074 A 
ATOM     66  C   UNL A   1      45.640  31.754  32.888  1.00  0.00     0.029 A 
ATOM     67  N   UNL A   1      43.901  33.061  33.212  1.00  0.00    -0.354 N 
ATOM     68  N   UNL A   1      39.750  31.641  32.998  1.00  0.00    -0.248 NA
ATOM     69  C   UNL A   1      39.890  33.546  31.653  1.00  0.00     0.031 C 
ATOM     70  C   UNL A   1      44.597  31.016  33.524  1.00  0.00     0.029 A 
ATOM     71  C   UNL A   1      43.444  31.803  33.520  1.00  0.00     0.049 A 
ATOM     72  H   UNL A   1      43.496  33.914  33.493  1.00  0.00     0.167 HD
ATOM     73  C   UNL A   1      41.011  32.199  33.186  1.00  0.00     0.074 A 
ATOM     74  C   UNL A   1      41.013  33.411  32.367  1.00  0.00     0.031 C 
ATOM     75  C   UNL A   1      42.045  31.480  33.724  1.00  0.00     0.037 A 
BRANCH  62  76
ATOM     76  C   UNL A   1      45.011  35.196  31.223  1.00  0.00     0.058 A 
ATOM     77  C   UNL A   1      46.070  35.931  31.796  1.00  0.00     0.135 A 
ATOM     78  C   UNL A   1      43.843  35.943  30.947  1.00  0.00     0.135 A 
ATOM     79  F   UNL A   1      47.240  35.336  32.083  1.00  0.00    -0.206 F 
ATOM     80  C   UNL A   1      45.941  37.268  32.167  1.00  0.00     0.059 A 
ATOM     81  C   UNL A   1      43.714  37.291  31.255  1.00  0.00     0.059 A 
ATOM     82  F   UNL A   1      42.728  35.400  30.449  1.00  0.00    -0.206 F 
ATOM     83  C   UNL A   1      44.747  37.932  31.911  1.00  0.00     0.060 A 
BRANCH  83  84
ATOM     84  S   UNL A   1      44.528  39.619  32.496  1.00  0.00     0.124 S 
ATOM     85  O   UNL A   1      45.051  39.522  33.853  1.00  0.00    -0.237 OA
ATOM     86  O   UNL A   1      45.342  40.373  31.547  1.00  0.00    -0.237 OA
ATOM     87  O   UNL A   1      43.089  39.829  32.384  1.00  0.00    -0.744 OA
ENDBRANCH  83  84
ENDBRANCH  62  76
BRANCH  63  88
ATOM     88  C   UNL A   1      37.227  32.118  30.267  1.00  0.00     0.058 A 
ATOM     89  C   UNL A   1      35.977  31.926  30.888  1.00  0.00     0.135 A 
ATOM     90  C   UNL A   1      37.237  33.042  29.199  1.00  0.00     0.135 A 
ATOM     91  F   UNL A   1      35.863  31.081  31.924  1.00  0.00    -0.206 F 
ATOM     92  C   UNL A   1      34.829  32.642  30.508  1.00  0.00     0.059 A 
ATOM     93  C   UNL A   1      36.107  33.751  28.792  1.00  0.00     0.059 A 
ATOM     94  F   UNL A   1      38.372  33.363  28.563  1.00  0.00    -0.206 F 
ATOM     95  C   UNL A   1      34.911  33.569  29.470  1.00  0.00     0.060 A 
BRANCH  95  96
ATOM     96  S   UNL A   1      33.497  34.635  29.093  1.00  0.00     0.124 S 
ATOM     97  O   UNL A   1      34.150  35.835  28.582  1.00  0.00    -0.237 OA
ATOM     98  O   UNL A   1      32.764  33.841  28.113  1.00  0.00    -0.237 OA
ATOM     99  O   UNL A   1      32.834  34.789  30.385  1.00  0.00    -0.744 OA
ENDBRANCH  95  96
ENDBRANCH  63  88
BRANCH  75 100
ATOM    100  C   UNL A   1      41.765  30.137  34.362  1.00  0.00     0.058 A 
ATOM    101  C   UNL A   1      41.668  28.923  33.659  1.00  0.00     0.135 A 
ATOM    102  C   UNL A   1      41.805  30.053  35.762  1.00  0.00     0.135 A 
ATOM    103  F   UNL A   1      41.736  28.892  32.322  1.00  0.00    -0.206 F 
ATOM    104  C   UNL A   1      41.578  27.691  34.312  1.00  0.00     0.059 A 
ATOM    105  C   UNL A   1      41.750  28.835  36.437  1.00  0.00     0.059 A 
ATOM    106  F   UNL A   1      41.966  31.165  36.498  1.00  0.00    -0.206 F 
ATOM    107  C   UNL A   1      41.624  27.657  35.705  1.00  0.00     0.060 A 
BRANCH 107 108
ATOM    108  S   UNL A   1      41.586  26.060  36.548  1.00  0.00     0.124 S 
ATOM    109  O   UNL A   1      42.925  25.985  37.120  1.00  0.00    -0.237 OA
ATOM    110  O   UNL A   1      40.495  26.232  37.504  1.00  0.00    -0.237 OA
ATOM    111  O   UNL A   1      41.314  25.112  35.470  1.00  0.00    -0.744 OA
ENDBRANCH 107 108
ENDBRANCH  75 100
ENDBRANCH  49  50
ENDBRANCH  41  44
ENDBRANCH  39  40
ENDBRANCH  38  39
ENDBRANCH  37  38
ENDBRANCH   3  37
TORSDOF 19
ENDMDL
MODEL 2
REMARK VINA RESULT:     -12.4      3.464      9.556
REMARK SMILES COc1ccc(-n2c(SCc3cn(-c4ccc(C(=O)NCCCNC(=O)c5ccc(-c6c7nc(c(-c8c(F)cc(S(=O)(=O)[O-])cc8F)c8ccc([nH]8)c(-c8c(F)cc(S(=O)(=O)[O-])cc8F)c8nc(c(-c9c(F)cc(S(=O)(=O)[O-])cc9F)c9ccc6[nH]9)C=C8)C=C7)cc5)cc4)nn3)nc3ccccc3c2=O)cc1
REMARK SMILES IDX 18 1 19 2 20 3 17 5 14 6 15 7 94 8 16 9 93 10 13 11 11 12
REMARK SMILES IDX 12 13 96 14 95 15 10 16 9 17 8 18 7 19 104 20 97 21 103 22
REMARK SMILES IDX 105 23 98 24 102 25 99 26 101 27 100 28 6 29 3 30 4 31
REMARK SMILES IDX 107 32 5 33 106 34 2 35 1 36 21 37 22 38 23 39 24 40 25 41
REMARK SMILES IDX 26 43 27 44 28 45 92 46 29 47 91 48 30 49 31 50 32 51 85 52
REMARK SMILES IDX 33 53 90 54 84 55 86 56 34 57 89 58 83 59 82 60 35 62 69 63
REMARK SMILES IDX 48 64 68 65 49 66 52 67 67 68 87 69 50 70 51 71 66 73 88 74
REMARK SMILES IDX 53 75 36 76 37 77 46 78 38 79 39 80 45 81 47 82 40 83 41 84
REMARK SMILES IDX 42 85 43 86 44 87 70 88 71 89 80 90 72 91 73 92 79 93 81 94
REMARK SMILES IDX 74 95 75 96 76 97 77 98 78 99 54 100 55 101 64 102 56 103
REMARK SMILES IDX 57 104 63 105 65 106 58 107 59 108 60 109 61 110 62 111
REMARK H PARENT 20 4 24 42 86 61 52 72
REMARK Flexibility Score: inf
ROOT
ATOM      1  C   UNL A   1      33.574  34.483  28.585  1.00  0.00     0.251 C 
ATOM      2  O   UNL A   1      32.594  35.192  28.802  1.00  0.00    -0.269 OA
ATOM      3  N   UNL A   1      34.820  34.934  28.963  1.00  0.00    -0.352 N 
ATOM      4  H   UNL A   1      34.848  35.885  29.217  1.00  0.00     0.163 HD
ENDROOT
BRANCH   1   5
ATOM      5  C   UNL A   1      33.374  33.153  27.958  1.00  0.00     0.039 A 
ATOM      6  C   UNL A   1      32.962  30.636  26.879  1.00  0.00     0.066 A 
ATOM      7  C   UNL A   1      31.984  31.615  26.697  1.00  0.00     0.029 A 
ATOM      8  C   UNL A   1      34.155  30.910  27.525  1.00  0.00     0.029 A 
ATOM      9  C   UNL A   1      32.182  32.872  27.274  1.00  0.00     0.016 A 
ATOM     10  C   UNL A   1      34.366  32.180  27.993  1.00  0.00     0.016 A 
BRANCH   6  11
ATOM     11  N   UNL A   1      32.830  29.355  26.364  1.00  0.00    -0.220 N 
ATOM     12  C   UNL A   1      32.623  27.218  26.196  1.00  0.00     0.093 A 
ATOM     13  C   UNL A   1      32.376  28.257  27.045  1.00  0.00     0.141 A 
ATOM     14  N   UNL A   1      33.265  27.700  25.087  1.00  0.00    -0.134 NA
ATOM     15  N   UNL A   1      33.272  29.018  25.146  1.00  0.00    -0.062 NA
BRANCH  12  16
ATOM     16  C   UNL A   1      32.203  25.820  26.350  1.00  0.00     0.138 C 
BRANCH  16  17
ATOM     17  S   UNL A   1      33.478  24.637  25.977  1.00  0.00    -0.081 SA
BRANCH  17  18
ATOM     18  C   UNL A   1      33.582  24.709  24.159  1.00  0.00     0.176 A 
ATOM     19  N   UNL A   1      32.410  24.300  23.559  1.00  0.00    -0.255 N 
ATOM     20  C   UNL A   1      32.311  22.937  23.308  1.00  0.00     0.266 A 
ATOM     21  N   UNL A   1      34.708  24.291  23.660  1.00  0.00    -0.223 NA
ATOM     22  C   UNL A   1      33.544  22.167  23.703  1.00  0.00     0.066 A 
ATOM     23  O   UNL A   1      31.330  22.345  22.871  1.00  0.00    -0.268 OA
ATOM     24  C   UNL A   1      34.752  22.892  23.777  1.00  0.00     0.079 A 
ATOM     25  C   UNL A   1      33.460  20.902  24.276  1.00  0.00     0.016 A 
ATOM     26  C   UNL A   1      35.898  22.321  24.325  1.00  0.00     0.029 A 
ATOM     27  C   UNL A   1      34.589  20.374  24.915  1.00  0.00     0.001 A 
ATOM     28  C   UNL A   1      35.806  21.067  24.920  1.00  0.00     0.002 A 
BRANCH  19  29
ATOM     29  C   UNL A   1      31.398  25.247  23.259  1.00  0.00     0.052 A 
ATOM     30  C   UNL A   1      29.642  27.434  23.140  1.00  0.00     0.119 A 
ATOM     31  C   UNL A   1      30.784  27.423  22.346  1.00  0.00     0.048 A 
ATOM     32  C   UNL A   1      29.317  26.312  23.904  1.00  0.00     0.048 A 
ATOM     33  C   UNL A   1      31.679  26.347  22.432  1.00  0.00     0.030 A 
ATOM     34  C   UNL A   1      30.179  25.208  23.942  1.00  0.00     0.030 A 
BRANCH  30  35
ATOM     35  O   UNL A   1      28.822  28.527  23.088  1.00  0.00    -0.497 OA
ATOM     36  C   UNL A   1      29.489  29.696  22.607  1.00  0.00     0.278 C 
ENDBRANCH  30  35
ENDBRANCH  19  29
ENDBRANCH  17  18
ENDBRANCH  16  17
ENDBRANCH  12  16
ENDBRANCH   6  11
ENDBRANCH   1   5
BRANCH   3  37
ATOM     37  C   UNL A   1      36.108  34.251  29.054  1.00  0.00     0.118 C 
BRANCH  37  38
ATOM     38  C   UNL A   1      36.538  33.937  30.502  1.00  0.00     0.042 C 
BRANCH  38  39
ATOM     39  C   UNL A   1      35.410  33.421  31.353  1.00  0.00     0.118 C 
BRANCH  39  40
ATOM     40  N   UNL A   1      35.591  33.720  32.776  1.00  0.00    -0.352 N 
ATOM     41  C   UNL A   1      36.305  33.006  33.733  1.00  0.00     0.251 C 
ATOM     42  H   UNL A   1      35.149  34.538  33.099  1.00  0.00     0.163 HD
ATOM     43  O   UNL A   1      36.071  33.153  34.916  1.00  0.00    -0.269 OA
BRANCH  41  44
ATOM     44  C   UNL A   1      37.345  32.067  33.267  1.00  0.00     0.039 A 
ATOM     45  C   UNL A   1      37.087  30.766  32.823  1.00  0.00     0.014 A 
ATOM     46  C   UNL A   1      38.630  32.565  33.221  1.00  0.00     0.014 A 
ATOM     47  C   UNL A   1      38.161  30.014  32.347  1.00  0.00     0.010 A 
ATOM     48  C   UNL A   1      39.492  32.027  32.329  1.00  0.00     0.010 A 
ATOM     49  C   UNL A   1      39.377  30.670  32.132  1.00  0.00    -0.014 A 
BRANCH  49  50
ATOM     50  C   UNL A   1      40.605  30.047  31.684  1.00  0.00     0.031 A 
ATOM     51  C   UNL A   1      41.478  29.612  32.790  1.00  0.00     0.074 A 
ATOM     52  C   UNL A   1      40.723  29.574  30.420  1.00  0.00     0.049 A 
ATOM     53  N   UNL A   1      42.547  30.196  33.214  1.00  0.00    -0.248 NA
ATOM     54  C   UNL A   1      40.981  28.553  33.686  1.00  0.00     0.031 C 
ATOM     55  C   UNL A   1      39.732  29.592  29.331  1.00  0.00     0.029 A 
ATOM     56  N   UNL A   1      41.728  28.831  29.888  1.00  0.00    -0.354 N 
ATOM     57  C   UNL A   1      43.008  29.387  34.245  1.00  0.00     0.074 A 
ATOM     58  C   UNL A   1      41.867  28.632  34.681  1.00  0.00     0.031 C 
ATOM     59  C   UNL A   1      40.095  28.710  28.374  1.00  0.00     0.029 A 
ATOM     60  C   UNL A   1      41.393  28.163  28.708  1.00  0.00     0.049 A 
ATOM     61  H   UNL A   1      42.620  28.768  30.301  1.00  0.00     0.167 HD
ATOM     62  C   UNL A   1      44.340  29.158  34.419  1.00  0.00     0.037 A 
ATOM     63  C   UNL A   1      42.124  27.166  28.143  1.00  0.00     0.037 A 
ATOM     64  C   UNL A   1      45.120  30.052  33.586  1.00  0.00     0.049 A 
ATOM     65  C   UNL A   1      43.512  27.311  28.688  1.00  0.00     0.074 A 
ATOM     66  C   UNL A   1      45.163  31.425  33.417  1.00  0.00     0.029 A 
ATOM     67  N   UNL A   1      45.699  29.522  32.452  1.00  0.00    -0.354 N 
ATOM     68  N   UNL A   1      44.268  28.359  28.466  1.00  0.00    -0.248 NA
ATOM     69  C   UNL A   1      43.841  26.561  29.896  1.00  0.00     0.031 C 
ATOM     70  C   UNL A   1      45.272  31.615  32.007  1.00  0.00     0.029 A 
ATOM     71  C   UNL A   1      45.399  30.361  31.407  1.00  0.00     0.049 A 
ATOM     72  H   UNL A   1      46.229  28.694  32.400  1.00  0.00     0.167 HD
ATOM     73  C   UNL A   1      44.864  28.643  29.690  1.00  0.00     0.074 A 
ATOM     74  C   UNL A   1      44.612  27.462  30.515  1.00  0.00     0.031 C 
ATOM     75  C   UNL A   1      45.227  29.917  30.038  1.00  0.00     0.037 A 
BRANCH  62  76
ATOM     76  C   UNL A   1      44.940  27.898  35.008  1.00  0.00     0.058 A 
ATOM     77  C   UNL A   1      44.574  26.658  34.445  1.00  0.00     0.135 A 
ATOM     78  C   UNL A   1      45.637  27.818  36.235  1.00  0.00     0.135 A 
ATOM     79  F   UNL A   1      43.928  26.603  33.269  1.00  0.00    -0.206 F 
ATOM     80  C   UNL A   1      44.782  25.446  35.102  1.00  0.00     0.059 A 
ATOM     81  C   UNL A   1      45.906  26.617  36.878  1.00  0.00     0.059 A 
ATOM     82  F   UNL A   1      46.018  28.893  36.932  1.00  0.00    -0.206 F 
ATOM     83  C   UNL A   1      45.431  25.441  36.331  1.00  0.00     0.060 A 
BRANCH  83  84
ATOM     84  S   UNL A   1      45.593  23.898  37.240  1.00  0.00     0.124 S 
ATOM     85  O   UNL A   1      44.904  24.222  38.483  1.00  0.00    -0.237 OA
ATOM     86  O   UNL A   1      44.913  22.955  36.356  1.00  0.00    -0.237 OA
ATOM     87  O   UNL A   1      47.038  23.720  37.344  1.00  0.00    -0.744 OA
ENDBRANCH  83  84
ENDBRANCH  62  76
BRANCH  63  88
ATOM     88  C   UNL A   1      41.589  25.905  27.540  1.00  0.00     0.058 A 
ATOM     89  C   UNL A   1      42.279  25.221  26.520  1.00  0.00     0.135 A 
ATOM     90  C   UNL A   1      40.514  25.198  28.122  1.00  0.00     0.135 A 
ATOM     91  F   UNL A   1      43.327  25.798  25.912  1.00  0.00    -0.206 F 
ATOM     92  C   UNL A   1      41.957  23.906  26.142  1.00  0.00     0.059 A 
ATOM     93  C   UNL A   1      40.164  23.900  27.753  1.00  0.00     0.059 A 
ATOM     94  F   UNL A   1      39.814  25.709  29.145  1.00  0.00    -0.206 F 
ATOM     95  C   UNL A   1      40.908  23.246  26.782  1.00  0.00     0.060 A 
BRANCH  95  96
ATOM     96  S   UNL A   1      40.600  21.495  26.445  1.00  0.00     0.124 S 
ATOM     97  O   UNL A   1      39.304  21.538  25.775  1.00  0.00    -0.237 OA
ATOM     98  O   UNL A   1      41.739  21.136  25.608  1.00  0.00    -0.237 OA
ATOM     99  O   UNL A   1      40.595  20.889  27.774  1.00  0.00    -0.744 OA
ENDBRANCH  95  96
ENDBRANCH  63  88
BRANCH  75 100
ATOM    100  C   UNL A   1      45.219  31.006  28.987  1.00  0.00     0.058 A 
ATOM    101  C   UNL A   1      46.268  31.251  28.083  1.00  0.00     0.135 A 
ATOM    102  C   UNL A   1      44.015  31.689  28.757  1.00  0.00     0.135 A 
ATOM    103  F   UNL A   1      47.415  30.565  28.153  1.00  0.00    -0.206 F 
ATOM    104  C   UNL A   1      46.140  32.155  27.024  1.00  0.00     0.059 A 
ATOM    105  C   UNL A   1      43.851  32.570  27.690  1.00  0.00     0.059 A 
ATOM    106  F   UNL A   1      42.948  31.454  29.540  1.00  0.00    -0.206 F 
ATOM    107  C   UNL A   1      44.923  32.808  26.834  1.00  0.00     0.060 A 
BRANCH 107 108
ATOM    108  S   UNL A   1      44.732  33.917  25.421  1.00  0.00     0.124 S 
ATOM    109  O   UNL A   1      46.113  34.292  25.139  1.00  0.00    -0.237 OA
ATOM    110  O   UNL A   1      44.092  33.058  24.427  1.00  0.00    -0.237 OA
ATOM    111  O   UNL A   1      43.887  34.989  25.941  1.00  0.00    -0.744 OA
ENDBRANCH 107 108
ENDBRANCH  75 100
ENDBRANCH  49  50
ENDBRANCH  41  44
ENDBRANCH  39  40
ENDBRANCH  38  39
ENDBRANCH  37  38
ENDBRANCH   3  37
TORSDOF 19
ENDMDL
MODEL 3
REMARK VINA RESULT:     -11.8      7.996     15.634
REMARK SMILES COc1ccc(-n2c(SCc3cn(-c4ccc(C(=O)NCCCNC(=O)c5ccc(-c6c7nc(c(-c8c(F)cc(S(=O)(=O)[O-])cc8F)c8ccc([nH]8)c(-c8c(F)cc(S(=O)(=O)[O-])cc8F)c8nc(c(-c9c(F)cc(S(=O)(=O)[O-])cc9F)c9ccc6[nH]9)C=C8)C=C7)cc5)cc4)nn3)nc3ccccc3c2=O)cc1
REMARK SMILES IDX 18 1 19 2 20 3 17 5 14 6 15 7 94 8 16 9 93 10 13 11 11 12
REMARK SMILES IDX 12 13 96 14 95 15 10 16 9 17 8 18 7 19 104 20 97 21 103 22
REMARK SMILES IDX 105 23 98 24 102 25 99 26 101 27 100 28 6 29 3 30 4 31
REMARK SMILES IDX 107 32 5 33 106 34 2 35 1 36 21 37 22 38 23 39 24 40 25 41
REMARK SMILES IDX 26 43 27 44 28 45 92 46 29 47 91 48 30 49 31 50 32 51 85 52
REMARK SMILES IDX 33 53 90 54 84 55 86 56 34 57 89 58 83 59 82 60 35 62 69 63
REMARK SMILES IDX 48 64 68 65 49 66 52 67 67 68 87 69 50 70 51 71 66 73 88 74
REMARK SMILES IDX 53 75 36 76 37 77 46 78 38 79 39 80 45 81 47 82 40 83 41 84
REMARK SMILES IDX 42 85 43 86 44 87 70 88 71 89 80 90 72 91 73 92 79 93 81 94
REMARK SMILES IDX 74 95 75 96 76 97 77 98 78 99 54 100 55 101 64 102 56 103
REMARK SMILES IDX 57 104 63 105 65 106 58 107 59 108 60 109 61 110 62 111
REMARK H PARENT 20 4 24 42 86 61 52 72
REMARK Flexibility Score: inf
ROOT
ATOM      1  C   UNL A   1      45.590  42.573  28.770  1.00  0.00     0.251 C 
ATOM      2  O   UNL A   1      46.790  42.826  28.828  1.00  0.00    -0.269 OA
ATOM      3  N   UNL A   1      44.900  42.337  29.939  1.00  0.00    -0.352 N 
ATOM      4  H   UNL A   1      45.474  42.207  30.729  1.00  0.00     0.163 HD
ENDROOT
BRANCH   1   5
ATOM      5  C   UNL A   1      44.920  42.569  27.446  1.00  0.00     0.039 A 
ATOM      6  C   UNL A   1      43.582  42.597  25.021  1.00  0.00     0.066 A 
ATOM      7  C   UNL A   1      44.385  43.687  25.360  1.00  0.00     0.029 A 
ATOM      8  C   UNL A   1      43.490  41.480  25.833  1.00  0.00     0.029 A 
ATOM      9  C   UNL A   1      45.030  43.682  26.600  1.00  0.00     0.016 A 
ATOM     10  C   UNL A   1      44.212  41.459  26.997  1.00  0.00     0.016 A 
BRANCH   6  11
ATOM     11  N   UNL A   1      42.887  42.537  23.823  1.00  0.00    -0.220 N 
ATOM     12  C   UNL A   1      42.352  42.719  21.744  1.00  0.00     0.093 A 
ATOM     13  C   UNL A   1      43.434  42.620  22.570  1.00  0.00     0.141 A 
ATOM     14  N   UNL A   1      41.218  42.761  22.510  1.00  0.00    -0.134 NA
ATOM     15  N   UNL A   1      41.549  42.523  23.764  1.00  0.00    -0.062 NA
BRANCH  12  16
ATOM     16  C   UNL A   1      42.344  42.688  20.277  1.00  0.00     0.138 C 
BRANCH  16  17
ATOM     17  S   UNL A   1      42.317  44.297  19.519  1.00  0.00    -0.081 SA
BRANCH  17  18
ATOM     18  C   UNL A   1      43.837  44.300  18.514  1.00  0.00     0.176 A 
ATOM     19  N   UNL A   1      44.822  45.088  19.073  1.00  0.00    -0.255 N 
ATOM     20  C   UNL A   1      44.801  46.426  18.699  1.00  0.00     0.266 A 
ATOM     21  N   UNL A   1      43.643  44.376  17.230  1.00  0.00    -0.223 NA
ATOM     22  C   UNL A   1      43.718  46.750  17.705  1.00  0.00     0.066 A 
ATOM     23  O   UNL A   1      45.518  47.317  19.141  1.00  0.00    -0.268 OA
ATOM     24  C   UNL A   1      43.232  45.683  16.921  1.00  0.00     0.079 A 
ATOM     25  C   UNL A   1      43.006  47.943  17.766  1.00  0.00     0.016 A 
ATOM     26  C   UNL A   1      42.100  45.837  16.123  1.00  0.00     0.029 A 
ATOM     27  C   UNL A   1      41.814  48.057  17.040  1.00  0.00     0.001 A 
ATOM     28  C   UNL A   1      41.375  47.020  16.206  1.00  0.00     0.002 A 
BRANCH  19  29
ATOM     29  C   UNL A   1      45.756  44.521  19.977  1.00  0.00     0.052 A 
ATOM     30  C   UNL A   1      47.133  43.024  21.912  1.00  0.00     0.119 A 
ATOM     31  C   UNL A   1      47.218  42.662  20.571  1.00  0.00     0.048 A 
ATOM     32  C   UNL A   1      46.459  44.191  22.275  1.00  0.00     0.048 A 
ATOM     33  C   UNL A   1      46.502  43.388  19.609  1.00  0.00     0.030 A 
ATOM     34  C   UNL A   1      45.794  44.955  21.305  1.00  0.00     0.030 A 
BRANCH  30  35
ATOM     35  O   UNL A   1      47.785  42.257  22.837  1.00  0.00    -0.497 OA
ATOM     36  C   UNL A   1      46.891  41.537  23.688  1.00  0.00     0.278 C 
ENDBRANCH  30  35
ENDBRANCH  19  29
ENDBRANCH  17  18
ENDBRANCH  16  17
ENDBRANCH  12  16
ENDBRANCH   6  11
ENDBRANCH   1   5
BRANCH   3  37
ATOM     37  C   UNL A   1      43.469  42.245  30.216  1.00  0.00     0.118 C 
BRANCH  37  38
ATOM     38  C   UNL A   1      43.049  40.905  30.853  1.00  0.00     0.042 C 
BRANCH  38  39
ATOM     39  C   UNL A   1      43.057  40.939  32.358  1.00  0.00     0.118 C 
BRANCH  39  40
ATOM     40  N   UNL A   1      44.356  40.570  32.926  1.00  0.00    -0.352 N 
ATOM     41  C   UNL A   1      44.700  39.429  33.646  1.00  0.00     0.251 C 
ATOM     42  H   UNL A   1      45.084  41.215  32.779  1.00  0.00     0.163 HD
ATOM     43  O   UNL A   1      45.682  39.423  34.361  1.00  0.00    -0.269 OA
BRANCH  41  44
ATOM     44  C   UNL A   1      43.835  38.239  33.517  1.00  0.00     0.039 A 
ATOM     45  C   UNL A   1      43.815  37.401  32.399  1.00  0.00     0.014 A 
ATOM     46  C   UNL A   1      43.061  37.936  34.617  1.00  0.00     0.014 A 
ATOM     47  C   UNL A   1      42.995  36.272  32.445  1.00  0.00     0.010 A 
ATOM     48  C   UNL A   1      42.705  36.646  34.811  1.00  0.00     0.010 A 
ATOM     49  C   UNL A   1      42.421  35.928  33.672  1.00  0.00    -0.014 A 
BRANCH  49  50
ATOM     50  C   UNL A   1      41.515  34.821  33.899  1.00  0.00     0.031 A 
ATOM     51  C   UNL A   1      41.983  33.552  33.313  1.00  0.00     0.074 A 
ATOM     52  C   UNL A   1      40.571  34.883  34.869  1.00  0.00     0.049 A 
ATOM     53  N   UNL A   1      41.559  32.991  32.231  1.00  0.00    -0.248 NA
ATOM     54  C   UNL A   1      43.224  32.963  33.844  1.00  0.00     0.031 C 
ATOM     55  C   UNL A   1      40.285  35.979  35.809  1.00  0.00     0.029 A 
ATOM     56  N   UNL A   1      39.757  33.893  35.318  1.00  0.00    -0.354 N 
ATOM     57  C   UNL A   1      42.296  31.817  32.128  1.00  0.00     0.074 A 
ATOM     58  C   UNL A   1      43.475  32.033  32.920  1.00  0.00     0.031 C 
ATOM     59  C   UNL A   1      39.540  35.513  36.836  1.00  0.00     0.029 A 
ATOM     60  C   UNL A   1      39.187  34.134  36.569  1.00  0.00     0.049 A 
ATOM     61  H   UNL A   1      39.582  33.073  34.803  1.00  0.00     0.167 HD
ATOM     62  C   UNL A   1      41.722  30.661  31.690  1.00  0.00     0.037 A 
ATOM     63  C   UNL A   1      38.564  33.199  37.336  1.00  0.00     0.037 A 
ATOM     64  C   UNL A   1      40.407  30.926  31.141  1.00  0.00     0.049 A 
ATOM     65  C   UNL A   1      38.158  32.102  36.399  1.00  0.00     0.074 A 
ATOM     66  C   UNL A   1      39.920  31.784  30.170  1.00  0.00     0.029 A 
ATOM     67  N   UNL A   1      39.314  30.578  31.907  1.00  0.00    -0.354 N 
ATOM     68  N   UNL A   1      37.298  32.268  35.424  1.00  0.00    -0.248 NA
ATOM     69  C   UNL A   1      39.094  30.999  36.211  1.00  0.00     0.031 C 
ATOM     70  C   UNL A   1      38.708  32.303  30.716  1.00  0.00     0.029 A 
ATOM     71  C   UNL A   1      38.468  31.659  31.931  1.00  0.00     0.049 A 
ATOM     72  H   UNL A   1      39.168  29.714  32.356  1.00  0.00     0.167 HD
ATOM     73  C   UNL A   1      37.845  31.592  34.338  1.00  0.00     0.074 A 
ATOM     74  C   UNL A   1      38.920  30.777  34.904  1.00  0.00     0.031 C 
ATOM     75  C   UNL A   1      37.602  31.983  33.048  1.00  0.00     0.037 A 
BRANCH  62  76
ATOM     76  C   UNL A   1      42.140  29.267  32.107  1.00  0.00     0.058 A 
ATOM     77  C   UNL A   1      42.162  28.958  33.483  1.00  0.00     0.135 A 
ATOM     78  C   UNL A   1      42.760  28.313  31.268  1.00  0.00     0.135 A 
ATOM     79  F   UNL A   1      41.585  29.776  34.377  1.00  0.00    -0.206 F 
ATOM     80  C   UNL A   1      42.841  27.853  33.993  1.00  0.00     0.059 A 
ATOM     81  C   UNL A   1      43.392  27.174  31.751  1.00  0.00     0.059 A 
ATOM     82  F   UNL A   1      42.875  28.466  29.945  1.00  0.00    -0.206 F 
ATOM     83  C   UNL A   1      43.473  26.978  33.116  1.00  0.00     0.060 A 
BRANCH  83  84
ATOM     84  S   UNL A   1      44.453  25.621  33.772  1.00  0.00     0.124 S 
ATOM     85  O   UNL A   1      45.380  26.331  34.645  1.00  0.00    -0.237 OA
ATOM     86  O   UNL A   1      43.437  24.811  34.438  1.00  0.00    -0.237 OA
ATOM     87  O   UNL A   1      45.039  25.022  32.578  1.00  0.00    -0.744 OA
ENDBRANCH  83  84
ENDBRANCH  62  76
BRANCH  63  88
ATOM     88  C   UNL A   1      38.703  33.028  38.816  1.00  0.00     0.058 A 
ATOM     89  C   UNL A   1      37.611  32.653  39.624  1.00  0.00     0.135 A 
ATOM     90  C   UNL A   1      39.966  32.978  39.445  1.00  0.00     0.135 A 
ATOM     91  F   UNL A   1      36.369  32.651  39.117  1.00  0.00    -0.206 F 
ATOM     92  C   UNL A   1      37.770  32.210  40.947  1.00  0.00     0.059 A 
ATOM     93  C   UNL A   1      40.148  32.559  40.762  1.00  0.00     0.059 A 
ATOM     94  F   UNL A   1      41.093  33.250  38.772  1.00  0.00    -0.206 F 
ATOM     95  C   UNL A   1      39.049  32.147  41.501  1.00  0.00     0.060 A 
BRANCH  95  96
ATOM     96  S   UNL A   1      39.294  31.402  43.132  1.00  0.00     0.124 S 
ATOM     97  O   UNL A   1      40.515  32.060  43.586  1.00  0.00    -0.237 OA
ATOM     98  O   UNL A   1      38.070  31.777  43.831  1.00  0.00    -0.237 OA
ATOM     99  O   UNL A   1      39.427  29.977  42.839  1.00  0.00    -0.744 OA
ENDBRANCH  95  96
ENDBRANCH  63  88
BRANCH  75 100
ATOM    100  C   UNL A   1      36.523  33.006  32.771  1.00  0.00     0.058 A 
ATOM    101  C   UNL A   1      36.687  34.397  32.908  1.00  0.00     0.135 A 
ATOM    102  C   UNL A   1      35.346  32.569  32.145  1.00  0.00     0.135 A 
ATOM    103  F   UNL A   1      37.824  34.913  33.390  1.00  0.00    -0.206 F 
ATOM    104  C   UNL A   1      35.716  35.305  32.477  1.00  0.00     0.059 A 
ATOM    105  C   UNL A   1      34.378  33.456  31.677  1.00  0.00     0.059 A 
ATOM    106  F   UNL A   1      35.152  31.259  31.919  1.00  0.00    -0.206 F 
ATOM    107  C   UNL A   1      34.564  34.824  31.858  1.00  0.00     0.060 A 
BRANCH 107 108
ATOM    108  S   UNL A   1      33.345  36.000  31.231  1.00  0.00     0.124 S 
ATOM    109  O   UNL A   1      33.776  37.246  31.854  1.00  0.00    -0.237 OA
ATOM    110  O   UNL A   1      33.535  35.914  29.786  1.00  0.00    -0.237 OA
ATOM    111  O   UNL A   1      32.075  35.466  31.717  1.00  0.00    -0.744 OA
ENDBRANCH 107 108
ENDBRANCH  75 100
ENDBRANCH  49  50
ENDBRANCH  41  44
ENDBRANCH  39  40
ENDBRANCH  38  39
ENDBRANCH  37  38
ENDBRANCH   3  37
TORSDOF 19
ENDMDL
