MODEL 1
REMARK VINA RESULT:     -11.3      0.000      0.000
REMARK SMILES O=C(NCCCNC(=O)c1cc(OC[C@@H]2Cc3cc(F)ccc3O2)cs1)c1ccc(-c2c3nc(c(-c4c(F)cc(S(=O)(=O)[O-])cc4F)c4ccc([nH]4)c(-c4c(F)cc(S(=O)(=O)[O-])cc4F)c4nc(c(-c5c(F)cc(S(=O)(=O)[O-])cc5F)c5ccc2[nH]5)C=C4)C=C3)cc1
REMARK SMILES IDX 5 1 4 2 3 3 1 4 2 5 27 7 28 8 92 9 29 10 91 11 30 12 31 13
REMARK SMILES IDX 32 14 85 15 33 16 90 17 84 18 86 19 34 20 89 21 83 22 82 23
REMARK SMILES IDX 35 25 69 26 48 27 68 28 49 29 52 30 67 31 87 32 50 33 51 34
REMARK SMILES IDX 66 36 88 37 53 38 36 39 37 40 46 41 38 42 39 43 45 44 47 45
REMARK SMILES IDX 40 46 41 47 42 48 43 49 44 50 70 51 71 52 80 53 72 54 73 55
REMARK SMILES IDX 79 56 81 57 74 58 75 59 76 60 77 61 78 62 54 63 55 64 64 65
REMARK SMILES IDX 56 66 57 67 63 68 65 69 58 70 59 71 60 72 61 73 62 74 6 75
REMARK SMILES IDX 7 76 8 77 9 79 10 80 11 81 26 82 12 83 25 84 13 85 14 86
REMARK SMILES IDX 15 87 16 88 24 89 17 90 23 91 18 92 22 93 19 94 21 95 20 96
REMARK H PARENT 3 6 86 24 52 35 7 78
REMARK Flexibility Score: inf
ROOT
ATOM      1  C   UNL A   1      34.078  28.229  25.818  1.00  0.00     0.042 C 
ENDROOT
BRANCH   1   2
ATOM      2  C   UNL A   1      33.628  28.367  27.265  1.00  0.00     0.118 C 
BRANCH   2   3
ATOM      3  N   UNL A   1      33.557  29.760  27.691  1.00  0.00    -0.352 N 
ATOM      4  O   UNL A   1      34.113  31.665  28.716  1.00  0.00    -0.269 OA
ATOM      5  C   UNL A   1      34.487  30.574  28.288  1.00  0.00     0.251 C 
ATOM      6  H   UNL A   1      32.689  30.192  27.520  1.00  0.00     0.163 HD
BRANCH   5   7
ATOM      7  C   UNL A   1      35.905  30.168  28.430  1.00  0.00     0.039 A 
ATOM      8  C   UNL A   1      36.343  29.698  29.673  1.00  0.00     0.014 A 
ATOM      9  C   UNL A   1      36.822  30.305  27.386  1.00  0.00     0.014 A 
ATOM     10  C   UNL A   1      37.682  29.339  29.853  1.00  0.00     0.010 A 
ATOM     11  C   UNL A   1      38.130  29.852  27.536  1.00  0.00     0.010 A 
ATOM     12  C   UNL A   1      38.585  29.393  28.780  1.00  0.00    -0.014 A 
BRANCH  12  13
ATOM     13  C   UNL A   1      40.017  29.037  28.960  1.00  0.00     0.031 A 
ATOM     14  C   UNL A   1      40.976  30.049  29.534  1.00  0.00     0.074 A 
ATOM     15  C   UNL A   1      40.460  27.819  28.590  1.00  0.00     0.049 A 
ATOM     16  N   UNL A   1      42.265  29.942  29.735  1.00  0.00    -0.248 NA
ATOM     17  C   UNL A   1      40.425  31.364  29.907  1.00  0.00     0.031 C 
ATOM     18  C   UNL A   1      39.640  26.769  27.980  1.00  0.00     0.029 A 
ATOM     19  N   UNL A   1      41.708  27.251  28.678  1.00  0.00    -0.354 N 
ATOM     20  C   UNL A   1      42.674  31.171  30.240  1.00  0.00     0.074 A 
ATOM     21  C   UNL A   1      41.514  32.033  30.256  1.00  0.00     0.031 C 
ATOM     22  C   UNL A   1      40.394  25.674  27.789  1.00  0.00     0.029 A 
ATOM     23  C   UNL A   1      41.759  25.951  28.228  1.00  0.00     0.049 A 
ATOM     24  H   UNL A   1      42.493  27.730  29.029  1.00  0.00     0.167 HD
ATOM     25  C   UNL A   1      43.897  31.539  30.689  1.00  0.00     0.037 A 
ATOM     26  C   UNL A   1      42.787  25.080  28.182  1.00  0.00     0.037 A 
ATOM     27  C   UNL A   1      45.034  30.659  30.728  1.00  0.00     0.049 A 
ATOM     28  C   UNL A   1      44.136  25.510  28.697  1.00  0.00     0.074 A 
ATOM     29  C   UNL A   1      46.301  30.920  31.219  1.00  0.00     0.029 A 
ATOM     30  N   UNL A   1      45.037  29.349  30.279  1.00  0.00    -0.354 N 
ATOM     31  N   UNL A   1      44.488  26.661  29.218  1.00  0.00    -0.248 NA
ATOM     32  C   UNL A   1      45.228  24.527  28.621  1.00  0.00     0.031 C 
ATOM     33  C   UNL A   1      47.082  29.777  31.034  1.00  0.00     0.029 A 
ATOM     34  C   UNL A   1      46.288  28.791  30.469  1.00  0.00     0.049 A 
ATOM     35  H   UNL A   1      44.265  28.884  29.882  1.00  0.00     0.167 HD
ATOM     36  C   UNL A   1      45.829  26.530  29.558  1.00  0.00     0.074 A 
ATOM     37  C   UNL A   1      46.228  25.189  29.189  1.00  0.00     0.031 C 
ATOM     38  C   UNL A   1      46.656  27.441  30.124  1.00  0.00     0.037 A 
BRANCH  25  39
ATOM     39  C   UNL A   1      44.071  32.935  31.216  1.00  0.00     0.058 A 
ATOM     40  C   UNL A   1      44.425  33.995  30.366  1.00  0.00     0.135 A 
ATOM     41  C   UNL A   1      43.796  33.234  32.560  1.00  0.00     0.135 A 
ATOM     42  F   UNL A   1      44.716  33.760  29.077  1.00  0.00    -0.206 F 
ATOM     43  C   UNL A   1      44.505  35.302  30.831  1.00  0.00     0.059 A 
ATOM     44  C   UNL A   1      43.845  34.539  33.041  1.00  0.00     0.059 A 
ATOM     45  F   UNL A   1      43.458  32.257  33.415  1.00  0.00    -0.206 F 
ATOM     46  C   UNL A   1      44.203  35.567  32.169  1.00  0.00     0.060 A 
BRANCH  46  47
ATOM     47  S   UNL A   1      44.267  37.278  32.738  1.00  0.00     0.124 S 
ATOM     48  O   UNL A   1      44.082  38.009  31.488  1.00  0.00    -0.237 OA
ATOM     49  O   UNL A   1      43.150  37.334  33.676  1.00  0.00    -0.237 OA
ATOM     50  O   UNL A   1      45.594  37.389  33.337  1.00  0.00    -0.744 OA
ENDBRANCH  46  47
ENDBRANCH  25  39
BRANCH  26  51
ATOM     51  C   UNL A   1      42.574  23.702  27.667  1.00  0.00     0.058 A 
ATOM     52  C   UNL A   1      42.560  23.444  26.287  1.00  0.00     0.135 A 
ATOM     53  C   UNL A   1      42.389  22.615  28.534  1.00  0.00     0.135 A 
ATOM     54  F   UNL A   1      42.728  24.451  25.416  1.00  0.00    -0.206 F 
ATOM     55  C   UNL A   1      42.351  22.164  25.785  1.00  0.00     0.059 A 
ATOM     56  C   UNL A   1      42.203  21.320  28.057  1.00  0.00     0.059 A 
ATOM     57  F   UNL A   1      42.410  22.804  29.863  1.00  0.00    -0.206 F 
ATOM     58  C   UNL A   1      42.175  21.107  26.679  1.00  0.00     0.060 A 
BRANCH  58  59
ATOM     59  S   UNL A   1      41.937  19.444  26.015  1.00  0.00     0.124 S 
ATOM     60  O   UNL A   1      40.498  19.426  25.776  1.00  0.00    -0.237 OA
ATOM     61  O   UNL A   1      42.782  19.467  24.825  1.00  0.00    -0.237 OA
ATOM     62  O   UNL A   1      42.409  18.581  27.094  1.00  0.00    -0.744 OA
ENDBRANCH  58  59
ENDBRANCH  26  51
BRANCH  38  63
ATOM     63  C   UNL A   1      48.070  27.032  30.421  1.00  0.00     0.058 A 
ATOM     64  C   UNL A   1      49.120  27.350  29.547  1.00  0.00     0.135 A 
ATOM     65  C   UNL A   1      48.393  26.453  31.659  1.00  0.00     0.135 A 
ATOM     66  F   UNL A   1      48.859  27.898  28.350  1.00  0.00    -0.206 F 
ATOM     67  C   UNL A   1      50.446  27.121  29.897  1.00  0.00     0.059 A 
ATOM     68  C   UNL A   1      49.713  26.236  32.039  1.00  0.00     0.059 A 
ATOM     69  F   UNL A   1      47.422  26.139  32.533  1.00  0.00    -0.206 F 
ATOM     70  C   UNL A   1      50.733  26.579  31.152  1.00  0.00     0.060 A 
BRANCH  70  71
ATOM     71  S   UNL A   1      52.463  26.391  31.632  1.00  0.00     0.124 S 
ATOM     72  O   UNL A   1      52.615  27.461  32.613  1.00  0.00    -0.237 OA
ATOM     73  O   UNL A   1      52.492  25.033  32.166  1.00  0.00    -0.237 OA
ATOM     74  O   UNL A   1      53.188  26.581  30.379  1.00  0.00    -0.744 OA
ENDBRANCH  70  71
ENDBRANCH  38  63
ENDBRANCH  12  13
ENDBRANCH   5   7
ENDBRANCH   2   3
ENDBRANCH   1   2
BRANCH   1  75
ATOM     75  C   UNL A   1      33.279  29.080  24.836  1.00  0.00     0.118 C 
BRANCH  75  76
ATOM     76  N   UNL A   1      33.784  29.022  23.477  1.00  0.00    -0.351 N 
ATOM     77  C   UNL A   1      33.685  28.029  22.527  1.00  0.00     0.261 C 
ATOM     78  H   UNL A   1      34.279  29.823  23.187  1.00  0.00     0.163 HD
ATOM     79  O   UNL A   1      34.296  28.211  21.469  1.00  0.00    -0.268 OA
BRANCH  77  80
ATOM     80  C   UNL A   1      32.912  26.834  22.809  1.00  0.00     0.096 A 
ATOM     81  C   UNL A   1      33.305  25.608  23.321  1.00  0.00     0.072 A 
ATOM     82  S   UNL A   1      31.220  26.863  22.526  1.00  0.00    -0.135 S 
ATOM     83  C   UNL A   1      32.272  24.632  23.227  1.00  0.00     0.131 A 
ATOM     84  C   UNL A   1      31.069  25.198  22.876  1.00  0.00     0.112 A 
BRANCH  83  85
ATOM     85  O   UNL A   1      32.342  23.284  23.382  1.00  0.00    -0.489 OA
BRANCH  85  86
ATOM     86  C   UNL A   1      32.113  22.784  24.703  1.00  0.00     0.275 C 
BRANCH  86  87
ATOM     87  C   UNL A   1      33.365  22.398  25.530  1.00  0.00     0.215 C 
ATOM     88  C   UNL A   1      34.255  23.540  26.041  1.00  0.00     0.088 C 
ATOM     89  O   UNL A   1      34.200  21.467  24.768  1.00  0.00    -0.486 OA
ATOM     90  C   UNL A   1      35.592  22.958  25.839  1.00  0.00     0.001 A 
ATOM     91  C   UNL A   1      35.486  21.785  25.115  1.00  0.00     0.123 A 
ATOM     92  C   UNL A   1      36.819  23.474  26.214  1.00  0.00     0.047 A 
ATOM     93  C   UNL A   1      36.605  21.057  24.763  1.00  0.00     0.050 A 
ATOM     94  C   UNL A   1      37.952  22.756  25.855  1.00  0.00     0.123 A 
ATOM     95  C   UNL A   1      37.857  21.553  25.145  1.00  0.00     0.043 A 
ATOM     96  F   UNL A   1      39.159  23.235  26.183  1.00  0.00    -0.207 F 
ENDBRANCH  86  87
ENDBRANCH  85  86
ENDBRANCH  83  85
ENDBRANCH  77  80
ENDBRANCH  75  76
ENDBRANCH   1  75
TORSDOF 16
ENDMDL
MODEL 2
REMARK VINA RESULT:     -11.2      2.970      3.706
REMARK SMILES O=C(NCCCNC(=O)c1cc(OC[C@@H]2Cc3cc(F)ccc3O2)cs1)c1ccc(-c2c3nc(c(-c4c(F)cc(S(=O)(=O)[O-])cc4F)c4ccc([nH]4)c(-c4c(F)cc(S(=O)(=O)[O-])cc4F)c4nc(c(-c5c(F)cc(S(=O)(=O)[O-])cc5F)c5ccc2[nH]5)C=C4)C=C3)cc1
REMARK SMILES IDX 5 1 4 2 3 3 1 4 2 5 27 7 28 8 92 9 29 10 91 11 30 12 31 13
REMARK SMILES IDX 32 14 85 15 33 16 90 17 84 18 86 19 34 20 89 21 83 22 82 23
REMARK SMILES IDX 35 25 69 26 48 27 68 28 49 29 52 30 67 31 87 32 50 33 51 34
REMARK SMILES IDX 66 36 88 37 53 38 36 39 37 40 46 41 38 42 39 43 45 44 47 45
REMARK SMILES IDX 40 46 41 47 42 48 43 49 44 50 70 51 71 52 80 53 72 54 73 55
REMARK SMILES IDX 79 56 81 57 74 58 75 59 76 60 77 61 78 62 54 63 55 64 64 65
REMARK SMILES IDX 56 66 57 67 63 68 65 69 58 70 59 71 60 72 61 73 62 74 6 75
REMARK SMILES IDX 7 76 8 77 9 79 10 80 11 81 26 82 12 83 25 84 13 85 14 86
REMARK SMILES IDX 15 87 16 88 24 89 17 90 23 91 18 92 22 93 19 94 21 95 20 96
REMARK H PARENT 3 6 86 24 52 35 7 78
REMARK Flexibility Score: inf
ROOT
ATOM      1  C   UNL A   1      34.586  29.404  27.504  1.00  0.00     0.042 C 
ENDROOT
BRANCH   1   2
ATOM      2  C   UNL A   1      35.341  30.615  28.034  1.00  0.00     0.118 C 
BRANCH   2   3
ATOM      3  N   UNL A   1      35.410  30.629  29.489  1.00  0.00    -0.352 N 
ATOM      4  O   UNL A   1      36.118  30.161  31.556  1.00  0.00    -0.269 OA
ATOM      5  C   UNL A   1      36.386  30.206  30.356  1.00  0.00     0.251 C 
ATOM      6  H   UNL A   1      34.615  31.009  29.929  1.00  0.00     0.163 HD
BRANCH   5   7
ATOM      7  C   UNL A   1      37.731  29.805  29.881  1.00  0.00     0.039 A 
ATOM      8  C   UNL A   1      38.647  29.307  30.814  1.00  0.00     0.014 A 
ATOM      9  C   UNL A   1      38.128  29.972  28.553  1.00  0.00     0.014 A 
ATOM     10  C   UNL A   1      39.937  28.952  30.409  1.00  0.00     0.010 A 
ATOM     11  C   UNL A   1      39.377  29.523  28.131  1.00  0.00     0.010 A 
ATOM     12  C   UNL A   1      40.308  29.037  29.058  1.00  0.00    -0.014 A 
BRANCH  12  13
ATOM     13  C   UNL A   1      41.682  28.685  28.613  1.00  0.00     0.031 A 
ATOM     14  C   UNL A   1      42.761  29.739  28.601  1.00  0.00     0.074 A 
ATOM     15  C   UNL A   1      41.957  27.431  28.202  1.00  0.00     0.049 A 
ATOM     16  N   UNL A   1      44.008  29.638  28.215  1.00  0.00    -0.248 NA
ATOM     17  C   UNL A   1      42.388  31.091  29.054  1.00  0.00     0.031 C 
ATOM     18  C   UNL A   1      40.988  26.334  28.124  1.00  0.00     0.029 A 
ATOM     19  N   UNL A   1      43.132  26.861  27.777  1.00  0.00    -0.354 N 
ATOM     20  C   UNL A   1      44.555  30.907  28.366  1.00  0.00     0.074 A 
ATOM     21  C   UNL A   1      43.494  31.778  28.816  1.00  0.00     0.031 C 
ATOM     22  C   UNL A   1      41.616  25.217  27.721  1.00  0.00     0.029 A 
ATOM     23  C   UNL A   1      43.023  25.522  27.478  1.00  0.00     0.049 A 
ATOM     24  H   UNL A   1      43.974  27.365  27.695  1.00  0.00     0.167 HD
ATOM     25  C   UNL A   1      45.836  31.304  28.185  1.00  0.00     0.037 A 
ATOM     26  C   UNL A   1      43.953  24.640  27.060  1.00  0.00     0.037 A 
ATOM     27  C   UNL A   1      46.903  30.421  27.796  1.00  0.00     0.049 A 
ATOM     28  C   UNL A   1      45.375  25.104  26.876  1.00  0.00     0.074 A 
ATOM     29  C   UNL A   1      48.245  30.715  27.644  1.00  0.00     0.029 A 
ATOM     30  N   UNL A   1      46.751  29.072  27.519  1.00  0.00    -0.354 N 
ATOM     31  N   UNL A   1      45.881  26.298  27.074  1.00  0.00    -0.248 NA
ATOM     32  C   UNL A   1      46.352  24.106  26.415  1.00  0.00     0.031 C 
ATOM     33  C   UNL A   1      48.902  29.550  27.239  1.00  0.00     0.029 A 
ATOM     34  C   UNL A   1      47.975  28.522  27.184  1.00  0.00     0.049 A 
ATOM     35  H   UNL A   1      45.899  28.578  27.555  1.00  0.00     0.167 HD
ATOM     36  C   UNL A   1      47.238  26.186  26.791  1.00  0.00     0.074 A 
ATOM     37  C   UNL A   1      47.477  24.810  26.412  1.00  0.00     0.031 C 
ATOM     38  C   UNL A   1      48.198  27.140  26.840  1.00  0.00     0.037 A 
BRANCH  25  39
ATOM     39  C   UNL A   1      46.178  32.744  28.444  1.00  0.00     0.058 A 
ATOM     40  C   UNL A   1      46.090  33.708  27.427  1.00  0.00     0.135 A 
ATOM     41  C   UNL A   1      46.509  33.182  29.737  1.00  0.00     0.135 A 
ATOM     42  F   UNL A   1      45.797  33.340  26.171  1.00  0.00    -0.206 F 
ATOM     43  C   UNL A   1      46.323  35.054  27.681  1.00  0.00     0.059 A 
ATOM     44  C   UNL A   1      46.720  34.528  30.019  1.00  0.00     0.059 A 
ATOM     45  F   UNL A   1      46.610  32.301  30.744  1.00  0.00    -0.206 F 
ATOM     46  C   UNL A   1      46.628  35.457  28.983  1.00  0.00     0.060 A 
BRANCH  46  47
ATOM     47  S   UNL A   1      46.879  37.216  29.298  1.00  0.00     0.124 S 
ATOM     48  O   UNL A   1      47.096  37.726  27.948  1.00  0.00    -0.237 OA
ATOM     49  O   UNL A   1      45.619  37.601  29.926  1.00  0.00    -0.237 OA
ATOM     50  O   UNL A   1      48.048  37.243  30.173  1.00  0.00    -0.744 OA
ENDBRANCH  46  47
ENDBRANCH  25  39
BRANCH  26  51
ATOM     51  C   UNL A   1      43.581  23.219  26.827  1.00  0.00     0.058 A 
ATOM     52  C   UNL A   1      43.512  22.698  25.526  1.00  0.00     0.135 A 
ATOM     53  C   UNL A   1      43.296  22.351  27.892  1.00  0.00     0.135 A 
ATOM     54  F   UNL A   1      43.772  23.489  24.473  1.00  0.00    -0.206 F 
ATOM     55  C   UNL A   1      43.156  21.375  25.287  1.00  0.00     0.059 A 
ATOM     56  C   UNL A   1      42.961  21.017  27.680  1.00  0.00     0.059 A 
ATOM     57  F   UNL A   1      43.364  22.795  29.158  1.00  0.00    -0.206 F 
ATOM     58  C   UNL A   1      42.883  20.541  26.372  1.00  0.00     0.060 A 
BRANCH  58  59
ATOM     59  S   UNL A   1      42.453  18.816  26.049  1.00  0.00     0.124 S 
ATOM     60  O   UNL A   1      42.691  18.206  27.352  1.00  0.00    -0.237 OA
ATOM     61  O   UNL A   1      41.056  18.921  25.638  1.00  0.00    -0.237 OA
ATOM     62  O   UNL A   1      43.383  18.430  24.992  1.00  0.00    -0.744 OA
ENDBRANCH  58  59
ENDBRANCH  26  51
BRANCH  38  63
ATOM     63  C   UNL A   1      49.609  26.747  26.512  1.00  0.00     0.058 A 
ATOM     64  C   UNL A   1      50.425  26.108  27.456  1.00  0.00     0.135 A 
ATOM     65  C   UNL A   1      50.091  26.873  25.199  1.00  0.00     0.135 A 
ATOM     66  F   UNL A   1      50.010  25.970  28.725  1.00  0.00    -0.206 F 
ATOM     67  C   UNL A   1      51.669  25.594  27.106  1.00  0.00     0.059 A 
ATOM     68  C   UNL A   1      51.322  26.346  24.821  1.00  0.00     0.059 A 
ATOM     69  F   UNL A   1      49.341  27.469  24.258  1.00  0.00    -0.206 F 
ATOM     70  C   UNL A   1      52.101  25.703  25.782  1.00  0.00     0.060 A 
BRANCH  70  71
ATOM     71  S   UNL A   1      53.668  24.933  25.322  1.00  0.00     0.124 S 
ATOM     72  O   UNL A   1      53.291  23.526  25.236  1.00  0.00    -0.237 OA
ATOM     73  O   UNL A   1      53.975  25.587  24.054  1.00  0.00    -0.237 OA
ATOM     74  O   UNL A   1      54.556  25.279  26.429  1.00  0.00    -0.744 OA
ENDBRANCH  70  71
ENDBRANCH  38  63
ENDBRANCH  12  13
ENDBRANCH   5   7
ENDBRANCH   2   3
ENDBRANCH   1   2
BRANCH   1  75
ATOM     75  C   UNL A   1      33.454  29.751  26.543  1.00  0.00     0.118 C 
BRANCH  75  76
ATOM     76  N   UNL A   1      33.761  29.451  25.157  1.00  0.00    -0.351 N 
ATOM     77  C   UNL A   1      33.557  28.302  24.424  1.00  0.00     0.261 C 
ATOM     78  H   UNL A   1      34.184  30.188  24.659  1.00  0.00     0.163 HD
ATOM     79  O   UNL A   1      34.004  28.292  23.273  1.00  0.00    -0.268 OA
BRANCH  77  80
ATOM     80  C   UNL A   1      32.870  27.173  25.025  1.00  0.00     0.096 A 
ATOM     81  C   UNL A   1      33.371  26.061  25.681  1.00  0.00     0.072 A 
ATOM     82  S   UNL A   1      31.155  27.146  24.996  1.00  0.00    -0.135 S 
ATOM     83  C   UNL A   1      32.366  25.079  25.916  1.00  0.00     0.131 A 
ATOM     84  C   UNL A   1      31.107  25.569  25.654  1.00  0.00     0.112 A 
BRANCH  83  85
ATOM     85  O   UNL A   1      32.497  23.782  26.294  1.00  0.00    -0.489 OA
BRANCH  85  86
ATOM     86  C   UNL A   1      33.294  22.951  25.444  1.00  0.00     0.275 C 
BRANCH  86  87
ATOM     87  C   UNL A   1      32.948  21.441  25.420  1.00  0.00     0.215 C 
ATOM     88  C   UNL A   1      34.106  20.447  25.587  1.00  0.00     0.088 C 
ATOM     89  O   UNL A   1      32.232  21.112  24.185  1.00  0.00    -0.486 OA
ATOM     90  C   UNL A   1      33.717  19.405  24.622  1.00  0.00     0.001 A 
ATOM     91  C   UNL A   1      32.648  19.847  23.864  1.00  0.00     0.123 A 
ATOM     92  C   UNL A   1      34.317  18.181  24.391  1.00  0.00     0.047 A 
ATOM     93  C   UNL A   1      32.110  19.066  22.861  1.00  0.00     0.050 A 
ATOM     94  C   UNL A   1      33.792  17.393  23.376  1.00  0.00     0.123 A 
ATOM     95  C   UNL A   1      32.692  17.816  22.619  1.00  0.00     0.043 A 
ATOM     96  F   UNL A   1      34.359  16.209  23.110  1.00  0.00    -0.207 F 
ENDBRANCH  86  87
ENDBRANCH  85  86
ENDBRANCH  83  85
ENDBRANCH  77  80
ENDBRANCH  75  76
ENDBRANCH   1  75
TORSDOF 16
ENDMDL
MODEL 3
REMARK VINA RESULT:     -11.2      3.384     10.160
REMARK SMILES O=C(NCCCNC(=O)c1cc(OC[C@@H]2Cc3cc(F)ccc3O2)cs1)c1ccc(-c2c3nc(c(-c4c(F)cc(S(=O)(=O)[O-])cc4F)c4ccc([nH]4)c(-c4c(F)cc(S(=O)(=O)[O-])cc4F)c4nc(c(-c5c(F)cc(S(=O)(=O)[O-])cc5F)c5ccc2[nH]5)C=C4)C=C3)cc1
REMARK SMILES IDX 5 1 4 2 3 3 1 4 2 5 27 7 28 8 92 9 29 10 91 11 30 12 31 13
REMARK SMILES IDX 32 14 85 15 33 16 90 17 84 18 86 19 34 20 89 21 83 22 82 23
REMARK SMILES IDX 35 25 69 26 48 27 68 28 49 29 52 30 67 31 87 32 50 33 51 34
REMARK SMILES IDX 66 36 88 37 53 38 36 39 37 40 46 41 38 42 39 43 45 44 47 45
REMARK SMILES IDX 40 46 41 47 42 48 43 49 44 50 70 51 71 52 80 53 72 54 73 55
REMARK SMILES IDX 79 56 81 57 74 58 75 59 76 60 77 61 78 62 54 63 55 64 64 65
REMARK SMILES IDX 56 66 57 67 63 68 65 69 58 70 59 71 60 72 61 73 62 74 6 75
REMARK SMILES IDX 7 76 8 77 9 79 10 80 11 81 26 82 12 83 25 84 13 85 14 86
REMARK SMILES IDX 15 87 16 88 24 89 17 90 23 91 18 92 22 93 19 94 21 95 20 96
REMARK H PARENT 3 6 86 24 52 35 7 78
REMARK Flexibility Score: inf
ROOT
ATOM      1  C   UNL A   1      34.281  33.774  28.062  1.00  0.00     0.042 C 
ENDROOT
BRANCH   1   2
ATOM      2  C   UNL A   1      34.705  32.564  28.883  1.00  0.00     0.118 C 
BRANCH   2   3
ATOM      3  N   UNL A   1      34.073  31.335  28.421  1.00  0.00    -0.352 N 
ATOM      4  O   UNL A   1      33.859  29.305  27.511  1.00  0.00    -0.269 OA
ATOM      5  C   UNL A   1      34.605  30.128  28.040  1.00  0.00     0.251 C 
ATOM      6  H   UNL A   1      33.090  31.377  28.373  1.00  0.00     0.163 HD
BRANCH   5   7
ATOM      7  C   UNL A   1      36.037  29.808  28.244  1.00  0.00     0.039 A 
ATOM      8  C   UNL A   1      36.439  29.314  29.490  1.00  0.00     0.014 A 
ATOM      9  C   UNL A   1      36.997  30.047  27.259  1.00  0.00     0.014 A 
ATOM     10  C   UNL A   1      37.787  29.034  29.731  1.00  0.00     0.010 A 
ATOM     11  C   UNL A   1      38.323  29.673  27.464  1.00  0.00     0.010 A 
ATOM     12  C   UNL A   1      38.741  29.191  28.712  1.00  0.00    -0.014 A 
BRANCH  12  13
ATOM     13  C   UNL A   1      40.181  28.919  28.957  1.00  0.00     0.031 A 
ATOM     14  C   UNL A   1      40.765  27.577  28.594  1.00  0.00     0.074 A 
ATOM     15  C   UNL A   1      40.959  29.865  29.522  1.00  0.00     0.049 A 
ATOM     16  N   UNL A   1      41.986  27.135  28.762  1.00  0.00    -0.248 NA
ATOM     17  C   UNL A   1      39.855  26.588  27.990  1.00  0.00     0.031 C 
ATOM     18  C   UNL A   1      40.503  31.186  29.960  1.00  0.00     0.029 A 
ATOM     19  N   UNL A   1      42.300  29.865  29.821  1.00  0.00    -0.354 N 
ATOM     20  C   UNL A   1      41.983  25.825  28.299  1.00  0.00     0.074 A 
ATOM     21  C   UNL A   1      40.628  25.515  27.904  1.00  0.00     0.031 C 
ATOM     22  C   UNL A   1      41.550  31.883  30.430  1.00  0.00     0.029 A 
ATOM     23  C   UNL A   1      42.747  31.050  30.361  1.00  0.00     0.049 A 
ATOM     24  H   UNL A   1      42.886  29.090  29.663  1.00  0.00     0.167 HD
ATOM     25  C   UNL A   1      43.023  24.967  28.176  1.00  0.00     0.037 A 
ATOM     26  C   UNL A   1      43.983  31.423  30.750  1.00  0.00     0.037 A 
ATOM     27  C   UNL A   1      44.381  25.300  28.513  1.00  0.00     0.049 A 
ATOM     28  C   UNL A   1      45.126  30.454  30.593  1.00  0.00     0.074 A 
ATOM     29  C   UNL A   1      45.513  24.519  28.370  1.00  0.00     0.029 A 
ATOM     30  N   UNL A   1      44.790  26.513  29.041  1.00  0.00    -0.354 N 
ATOM     31  N   UNL A   1      45.109  29.236  30.106  1.00  0.00    -0.248 NA
ATOM     32  C   UNL A   1      46.453  30.905  31.036  1.00  0.00     0.031 C 
ATOM     33  C   UNL A   1      46.606  25.249  28.844  1.00  0.00     0.029 A 
ATOM     34  C   UNL A   1      46.159  26.499  29.241  1.00  0.00     0.049 A 
ATOM     35  H   UNL A   1      44.197  27.272  29.244  1.00  0.00     0.167 HD
ATOM     36  C   UNL A   1      46.424  28.789  30.155  1.00  0.00     0.074 A 
ATOM     37  C   UNL A   1      47.213  29.865  30.716  1.00  0.00     0.031 C 
ATOM     38  C   UNL A   1      46.931  27.593  29.771  1.00  0.00     0.037 A 
BRANCH  25  39
ATOM     39  C   UNL A   1      42.754  23.599  27.616  1.00  0.00     0.058 A 
ATOM     40  C   UNL A   1      42.897  23.333  26.245  1.00  0.00     0.135 A 
ATOM     41  C   UNL A   1      42.438  22.525  28.464  1.00  0.00     0.135 A 
ATOM     42  F   UNL A   1      43.179  24.326  25.389  1.00  0.00    -0.206 F 
ATOM     43  C   UNL A   1      42.732  22.051  25.734  1.00  0.00     0.059 A 
ATOM     44  C   UNL A   1      42.295  21.229  27.977  1.00  0.00     0.059 A 
ATOM     45  F   UNL A   1      42.286  22.727  29.782  1.00  0.00    -0.206 F 
ATOM     46  C   UNL A   1      42.440  21.003  26.609  1.00  0.00     0.060 A 
BRANCH  46  47
ATOM     47  S   UNL A   1      42.278  19.339  25.929  1.00  0.00     0.124 S 
ATOM     48  O   UNL A   1      40.840  19.259  25.693  1.00  0.00    -0.237 OA
ATOM     49  O   UNL A   1      43.113  19.410  24.734  1.00  0.00    -0.237 OA
ATOM     50  O   UNL A   1      42.786  18.483  26.997  1.00  0.00    -0.744 OA
ENDBRANCH  46  47
ENDBRANCH  25  39
BRANCH  26  51
ATOM     51  C   UNL A   1      44.214  32.790  31.287  1.00  0.00     0.058 A 
ATOM     52  C   UNL A   1      44.413  33.878  30.423  1.00  0.00     0.135 A 
ATOM     53  C   UNL A   1      44.231  33.043  32.667  1.00  0.00     0.135 A 
ATOM     54  F   UNL A   1      44.410  33.687  29.094  1.00  0.00    -0.206 F 
ATOM     55  C   UNL A   1      44.641  35.162  30.905  1.00  0.00     0.059 A 
ATOM     56  C   UNL A   1      44.432  34.324  33.174  1.00  0.00     0.059 A 
ATOM     57  F   UNL A   1      44.029  32.041  33.537  1.00  0.00    -0.206 F 
ATOM     58  C   UNL A   1      44.648  35.376  32.285  1.00  0.00     0.060 A 
BRANCH  58  59
ATOM     59  S   UNL A   1      44.912  37.054  32.898  1.00  0.00     0.124 S 
ATOM     60  O   UNL A   1      45.482  36.798  34.216  1.00  0.00    -0.237 OA
ATOM     61  O   UNL A   1      45.827  37.603  31.902  1.00  0.00    -0.237 OA
ATOM     62  O   UNL A   1      43.570  37.629  32.892  1.00  0.00    -0.744 OA
ENDBRANCH  58  59
ENDBRANCH  26  51
BRANCH  38  63
ATOM     63  C   UNL A   1      48.411  27.373  29.903  1.00  0.00     0.058 A 
ATOM     64  C   UNL A   1      49.299  27.770  28.894  1.00  0.00     0.135 A 
ATOM     65  C   UNL A   1      48.950  26.901  31.111  1.00  0.00     0.135 A 
ATOM     66  F   UNL A   1      48.831  28.221  27.721  1.00  0.00    -0.206 F 
ATOM     67  C   UNL A   1      50.676  27.720  29.084  1.00  0.00     0.059 A 
ATOM     68  C   UNL A   1      50.323  26.865  31.331  1.00  0.00     0.059 A 
ATOM     69  F   UNL A   1      48.138  26.518  32.110  1.00  0.00    -0.206 F 
ATOM     70  C   UNL A   1      51.178  27.282  30.312  1.00  0.00     0.060 A 
BRANCH  70  71
ATOM     71  S   UNL A   1      52.963  27.328  30.578  1.00  0.00     0.124 S 
ATOM     72  O   UNL A   1      53.317  25.918  30.452  1.00  0.00    -0.237 OA
ATOM     73  O   UNL A   1      53.416  28.194  29.494  1.00  0.00    -0.237 OA
ATOM     74  O   UNL A   1      53.094  27.892  31.919  1.00  0.00    -0.744 OA
ENDBRANCH  70  71
ENDBRANCH  38  63
ENDBRANCH  12  13
ENDBRANCH   5   7
ENDBRANCH   2   3
ENDBRANCH   1   2
BRANCH   1  75
ATOM     75  C   UNL A   1      34.554  35.111  28.741  1.00  0.00     0.118 C 
BRANCH  75  76
ATOM     76  N   UNL A   1      33.356  35.767  29.229  1.00  0.00    -0.351 N 
ATOM     77  C   UNL A   1      32.889  35.938  30.515  1.00  0.00     0.261 C 
ATOM     78  H   UNL A   1      32.781  36.152  28.527  1.00  0.00     0.163 HD
ATOM     79  O   UNL A   1      31.778  36.463  30.636  1.00  0.00    -0.268 OA
BRANCH  77  80
ATOM     80  C   UNL A   1      33.687  35.485  31.639  1.00  0.00     0.096 A 
ATOM     81  C   UNL A   1      34.241  34.243  31.906  1.00  0.00     0.072 A 
ATOM     82  S   UNL A   1      34.087  36.611  32.870  1.00  0.00    -0.135 S 
ATOM     83  C   UNL A   1      34.758  34.161  33.231  1.00  0.00     0.131 A 
ATOM     84  C   UNL A   1      34.798  35.395  33.838  1.00  0.00     0.112 A 
BRANCH  83  85
ATOM     85  O   UNL A   1      35.143  33.069  33.942  1.00  0.00    -0.489 OA
BRANCH  85  86
ATOM     86  C   UNL A   1      36.490  33.067  34.422  1.00  0.00     0.275 C 
BRANCH  86  87
ATOM     87  C   UNL A   1      37.557  32.416  33.508  1.00  0.00     0.215 C 
ATOM     88  C   UNL A   1      37.370  30.937  33.143  1.00  0.00     0.088 C 
ATOM     89  O   UNL A   1      38.888  32.582  34.097  1.00  0.00    -0.486 OA
ATOM     90  C   UNL A   1      38.760  30.457  33.215  1.00  0.00     0.001 A 
ATOM     91  C   UNL A   1      39.565  31.440  33.761  1.00  0.00     0.123 A 
ATOM     92  C   UNL A   1      39.257  29.211  32.881  1.00  0.00     0.047 A 
ATOM     93  C   UNL A   1      40.914  31.228  33.966  1.00  0.00     0.050 A 
ATOM     94  C   UNL A   1      40.610  28.983  33.095  1.00  0.00     0.123 A 
ATOM     95  C   UNL A   1      41.442  29.978  33.622  1.00  0.00     0.043 A 
ATOM     96  F   UNL A   1      41.123  27.781  32.803  1.00  0.00    -0.207 F 
ENDBRANCH  86  87
ENDBRANCH  85  86
ENDBRANCH  83  85
ENDBRANCH  77  80
ENDBRANCH  75  76
ENDBRANCH   1  75
TORSDOF 16
ENDMDL
