MODEL 1
REMARK VINA RESULT:     -11.2      0.000      0.000
REMARK SMILES O=C(/C=C/Nc1cc(Cl)ccc1Cl)NCCCNC(=O)c1ccc(-c2c3nc(c(-c4c(F)cc(S(=O)(=O)[O-])cc4F)c4ccc([nH]4)c(-c4c(F)cc(S(=O)(=O)[O-])cc4F)c4nc(c(-c5c(F)cc(S(=O)(=O)[O-])cc5F)c5ccc2[nH]5)C=C4)C=C3)cc1
REMARK SMILES IDX 16 1 15 2 14 3 1 4 2 5 3 7 4 8 5 9 6 11 7 12 12 13 8 14
REMARK SMILES IDX 11 15 13 16 9 17 10 18 17 19 18 20 19 21 20 23 21 24 22 25
REMARK SMILES IDX 86 26 23 27 85 28 24 29 25 30 26 31 79 32 27 33 84 34 78 35
REMARK SMILES IDX 80 36 28 37 83 38 77 39 76 40 29 42 63 43 42 44 62 45 43 46
REMARK SMILES IDX 46 47 61 48 81 49 44 50 45 51 60 53 82 54 47 55 30 56 31 57
REMARK SMILES IDX 40 58 32 59 33 60 39 61 41 62 34 63 35 64 36 65 37 66 38 67
REMARK SMILES IDX 64 68 65 69 74 70 66 71 67 72 73 73 75 74 68 75 69 76 70 77
REMARK SMILES IDX 71 78 72 79 48 80 49 81 58 82 50 83 51 84 57 85 59 86 52 87
REMARK SMILES IDX 53 88 54 89 55 90 56 91
REMARK H PARENT 14 6 5 10 18 22 80 41 46 52
REMARK Flexibility Score: inf
ROOT
ATOM      1  C   UNL A   1      40.403  22.051  27.541  1.00  0.00     0.042 C 
ENDROOT
BRANCH   1   2
ATOM      2  C   UNL A   1      39.821  21.716  26.171  1.00  0.00     0.118 C 
BRANCH   2   3
ATOM      3  N   UNL A   1      38.375  21.818  26.128  1.00  0.00    -0.352 N 
ATOM      4  O   UNL A   1      38.293  24.098  25.833  1.00  0.00    -0.270 OA
ATOM      5  C   UNL A   1      37.727  23.014  25.960  1.00  0.00     0.245 C 
ATOM      6  H   UNL A   1      37.839  20.998  26.225  1.00  0.00     0.163 HD
BRANCH   5   7
ATOM      7  C   UNL A   1      36.253  22.938  25.821  1.00  0.00     0.089 C 
ATOM      8  C   UNL A   1      35.518  21.832  25.993  1.00  0.00     0.088 C 
BRANCH   8   9
ATOM      9  N   UNL A   1      34.164  21.728  25.802  1.00  0.00    -0.360 N 
ATOM     10  H   UNL A   1      33.617  22.434  26.217  1.00  0.00     0.166 HD
BRANCH   9  11
ATOM     11  C   UNL A   1      33.454  20.742  25.084  1.00  0.00     0.058 A 
ATOM     12  C   UNL A   1      33.327  19.427  25.552  1.00  0.00     0.048 A 
ATOM     13  C   UNL A   1      32.910  21.044  23.816  1.00  0.00     0.064 A 
ATOM     14  C   UNL A   1      32.682  18.454  24.784  1.00  0.00     0.043 A 
ATOM     15  C   UNL A   1      32.276  20.067  23.044  1.00  0.00     0.024 A 
ATOM     16  Cl  UNL A   1      33.036  22.643  23.160  1.00  0.00    -0.082 Cl
ATOM     17  Cl  UNL A   1      32.530  16.852  25.392  1.00  0.00    -0.084 Cl
ATOM     18  C   UNL A   1      32.164  18.765  23.529  1.00  0.00     0.022 A 
ENDBRANCH   9  11
ENDBRANCH   8   9
ENDBRANCH   5   7
ENDBRANCH   2   3
ENDBRANCH   1   2
BRANCH   1  19
ATOM     19  C   UNL A   1      41.582  23.021  27.520  1.00  0.00     0.118 C 
BRANCH  19  20
ATOM     20  N   UNL A   1      41.631  23.845  26.323  1.00  0.00    -0.352 N 
ATOM     21  C   UNL A   1      41.403  25.188  26.146  1.00  0.00     0.251 C 
ATOM     22  H   UNL A   1      41.867  23.357  25.500  1.00  0.00     0.163 HD
ATOM     23  O   UNL A   1      41.383  25.632  25.000  1.00  0.00    -0.269 OA
BRANCH  21  24
ATOM     24  C   UNL A   1      41.165  26.099  27.292  1.00  0.00     0.039 A 
ATOM     25  C   UNL A   1      42.037  27.179  27.471  1.00  0.00     0.014 A 
ATOM     26  C   UNL A   1      40.147  25.878  28.224  1.00  0.00     0.014 A 
ATOM     27  C   UNL A   1      41.866  28.051  28.550  1.00  0.00     0.010 A 
ATOM     28  C   UNL A   1      39.933  26.790  29.260  1.00  0.00     0.010 A 
ATOM     29  C   UNL A   1      40.799  27.878  29.445  1.00  0.00    -0.014 A 
BRANCH  29  30
ATOM     30  C   UNL A   1      40.604  28.806  30.593  1.00  0.00     0.031 A 
ATOM     31  C   UNL A   1      41.451  28.671  31.832  1.00  0.00     0.074 A 
ATOM     32  C   UNL A   1      39.646  29.753  30.536  1.00  0.00     0.049 A 
ATOM     33  N   UNL A   1      41.414  29.370  32.939  1.00  0.00    -0.248 NA
ATOM     34  C   UNL A   1      42.455  27.596  31.838  1.00  0.00     0.031 C 
ATOM     35  C   UNL A   1      38.727  29.960  29.415  1.00  0.00     0.029 A 
ATOM     36  N   UNL A   1      39.283  30.716  31.444  1.00  0.00    -0.354 N 
ATOM     37  C   UNL A   1      42.376  28.812  33.774  1.00  0.00     0.074 A 
ATOM     38  C   UNL A   1      42.942  27.683  33.068  1.00  0.00     0.031 C 
ATOM     39  C   UNL A   1      37.924  31.001  29.690  1.00  0.00     0.029 A 
ATOM     40  C   UNL A   1      38.248  31.516  31.017  1.00  0.00     0.049 A 
ATOM     41  H   UNL A   1      39.722  30.825  32.319  1.00  0.00     0.167 HD
ATOM     42  C   UNL A   1      42.772  29.215  35.006  1.00  0.00     0.037 A 
ATOM     43  C   UNL A   1      37.632  32.550  31.624  1.00  0.00     0.037 A 
ATOM     44  C   UNL A   1      42.228  30.356  35.696  1.00  0.00     0.049 A 
ATOM     45  C   UNL A   1      38.101  32.993  32.984  1.00  0.00     0.074 A 
ATOM     46  C   UNL A   1      42.596  30.874  36.926  1.00  0.00     0.029 A 
ATOM     47  N   UNL A   1      41.204  31.160  35.216  1.00  0.00    -0.354 N 
ATOM     48  N   UNL A   1      39.052  32.487  33.734  1.00  0.00    -0.248 NA
ATOM     49  C   UNL A   1      37.425  34.157  33.573  1.00  0.00     0.031 C 
ATOM     50  C   UNL A   1      41.769  31.969  37.207  1.00  0.00     0.029 A 
ATOM     51  C   UNL A   1      40.921  32.162  36.129  1.00  0.00     0.049 A 
ATOM     52  H   UNL A   1      40.746  31.035  34.354  1.00  0.00     0.167 HD
ATOM     53  C   UNL A   1      39.111  33.293  34.867  1.00  0.00     0.074 A 
ATOM     54  C   UNL A   1      38.107  34.323  34.699  1.00  0.00     0.031 C 
ATOM     55  C   UNL A   1      39.927  33.191  35.944  1.00  0.00     0.037 A 
BRANCH  42  56
ATOM     56  C   UNL A   1      43.853  28.418  35.686  1.00  0.00     0.058 A 
ATOM     57  C   UNL A   1      43.550  27.361  36.560  1.00  0.00     0.135 A 
ATOM     58  C   UNL A   1      45.208  28.693  35.439  1.00  0.00     0.135 A 
ATOM     59  F   UNL A   1      42.272  27.063  36.843  1.00  0.00    -0.206 F 
ATOM     60  C   UNL A   1      44.550  26.629  37.191  1.00  0.00     0.059 A 
ATOM     61  C   UNL A   1      46.225  27.954  36.038  1.00  0.00     0.059 A 
ATOM     62  F   UNL A   1      45.555  29.690  34.611  1.00  0.00    -0.206 F 
ATOM     63  C   UNL A   1      45.886  26.934  36.925  1.00  0.00     0.060 A 
BRANCH  63  64
ATOM     64  S   UNL A   1      47.172  25.976  37.754  1.00  0.00     0.124 S 
ATOM     65  O   UNL A   1      48.383  26.559  37.183  1.00  0.00    -0.237 OA
ATOM     66  O   UNL A   1      46.927  26.275  39.161  1.00  0.00    -0.237 OA
ATOM     67  O   UNL A   1      46.886  24.603  37.349  1.00  0.00    -0.744 OA
ENDBRANCH  63  64
ENDBRANCH  42  56
BRANCH  43  68
ATOM     68  C   UNL A   1      36.525  33.264  30.932  1.00  0.00     0.058 A 
ATOM     69  C   UNL A   1      35.193  33.102  31.343  1.00  0.00     0.135 A 
ATOM     70  C   UNL A   1      36.776  34.127  29.854  1.00  0.00     0.135 A 
ATOM     71  F   UNL A   1      34.903  32.282  32.364  1.00  0.00    -0.206 F 
ATOM     72  C   UNL A   1      34.147  33.753  30.698  1.00  0.00     0.059 A 
ATOM     73  C   UNL A   1      35.749  34.809  29.210  1.00  0.00     0.059 A 
ATOM     74  F   UNL A   1      38.035  34.331  29.435  1.00  0.00    -0.206 F 
ATOM     75  C   UNL A   1      34.435  34.606  29.632  1.00  0.00     0.060 A 
BRANCH  75  76
ATOM     76  S   UNL A   1      33.074  35.481  28.831  1.00  0.00     0.124 S 
ATOM     77  O   UNL A   1      32.449  34.410  28.062  1.00  0.00    -0.237 OA
ATOM     78  O   UNL A   1      32.312  35.977  29.972  1.00  0.00    -0.237 OA
ATOM     79  O   UNL A   1      33.752  36.509  28.046  1.00  0.00    -0.744 OA
ENDBRANCH  75  76
ENDBRANCH  43  68
BRANCH  55  80
ATOM     80  C   UNL A   1      39.808  34.251  37.006  1.00  0.00     0.058 A 
ATOM     81  C   UNL A   1      40.466  35.486  36.900  1.00  0.00     0.135 A 
ATOM     82  C   UNL A   1      38.989  34.038  38.128  1.00  0.00     0.135 A 
ATOM     83  F   UNL A   1      41.262  35.740  35.850  1.00  0.00    -0.206 F 
ATOM     84  C   UNL A   1      40.344  36.460  37.886  1.00  0.00     0.059 A 
ATOM     85  C   UNL A   1      38.830  35.009  39.111  1.00  0.00     0.059 A 
ATOM     86  F   UNL A   1      38.327  32.879  38.272  1.00  0.00    -0.206 F 
ATOM     87  C   UNL A   1      39.524  36.212  38.989  1.00  0.00     0.060 A 
BRANCH  87  88
ATOM     88  S   UNL A   1      39.359  37.490  40.254  1.00  0.00     0.124 S 
ATOM     89  O   UNL A   1      38.346  38.358  39.662  1.00  0.00    -0.237 OA
ATOM     90  O   UNL A   1      38.933  36.724  41.422  1.00  0.00    -0.237 OA
ATOM     91  O   UNL A   1      40.701  38.057  40.340  1.00  0.00    -0.744 OA
ENDBRANCH  87  88
ENDBRANCH  55  80
ENDBRANCH  29  30
ENDBRANCH  21  24
ENDBRANCH  19  20
ENDBRANCH   1  19
TORSDOF 15
ENDMDL
MODEL 2
REMARK VINA RESULT:     -11.2      5.637     12.105
REMARK SMILES O=C(/C=C/Nc1cc(Cl)ccc1Cl)NCCCNC(=O)c1ccc(-c2c3nc(c(-c4c(F)cc(S(=O)(=O)[O-])cc4F)c4ccc([nH]4)c(-c4c(F)cc(S(=O)(=O)[O-])cc4F)c4nc(c(-c5c(F)cc(S(=O)(=O)[O-])cc5F)c5ccc2[nH]5)C=C4)C=C3)cc1
REMARK SMILES IDX 16 1 15 2 14 3 1 4 2 5 3 7 4 8 5 9 6 11 7 12 12 13 8 14
REMARK SMILES IDX 11 15 13 16 9 17 10 18 17 19 18 20 19 21 20 23 21 24 22 25
REMARK SMILES IDX 86 26 23 27 85 28 24 29 25 30 26 31 79 32 27 33 84 34 78 35
REMARK SMILES IDX 80 36 28 37 83 38 77 39 76 40 29 42 63 43 42 44 62 45 43 46
REMARK SMILES IDX 46 47 61 48 81 49 44 50 45 51 60 53 82 54 47 55 30 56 31 57
REMARK SMILES IDX 40 58 32 59 33 60 39 61 41 62 34 63 35 64 36 65 37 66 38 67
REMARK SMILES IDX 64 68 65 69 74 70 66 71 67 72 73 73 75 74 68 75 69 76 70 77
REMARK SMILES IDX 71 78 72 79 48 80 49 81 58 82 50 83 51 84 57 85 59 86 52 87
REMARK SMILES IDX 53 88 54 89 55 90 56 91
REMARK H PARENT 14 6 5 10 18 22 80 41 46 52
REMARK Flexibility Score: inf
ROOT
ATOM      1  C   UNL A   1      33.700  33.959  28.609  1.00  0.00     0.042 C 
ENDROOT
BRANCH   1   2
ATOM      2  C   UNL A   1      33.833  34.660  29.957  1.00  0.00     0.118 C 
BRANCH   2   3
ATOM      3  N   UNL A   1      35.013  34.254  30.695  1.00  0.00    -0.352 N 
ATOM      4  O   UNL A   1      33.971  32.649  31.971  1.00  0.00    -0.270 OA
ATOM      5  C   UNL A   1      34.981  33.271  31.649  1.00  0.00     0.245 C 
ATOM      6  H   UNL A   1      35.869  34.702  30.504  1.00  0.00     0.163 HD
BRANCH   5   7
ATOM      7  C   UNL A   1      36.290  32.890  32.231  1.00  0.00     0.089 C 
ATOM      8  C   UNL A   1      36.479  32.455  33.484  1.00  0.00     0.088 C 
BRANCH   8   9
ATOM      9  N   UNL A   1      37.689  32.164  34.061  1.00  0.00    -0.360 N 
ATOM     10  H   UNL A   1      37.949  32.733  34.821  1.00  0.00     0.166 HD
BRANCH   9  11
ATOM     11  C   UNL A   1      38.609  31.154  33.705  1.00  0.00     0.058 A 
ATOM     12  C   UNL A   1      38.194  29.896  33.247  1.00  0.00     0.048 A 
ATOM     13  C   UNL A   1      39.994  31.367  33.880  1.00  0.00     0.064 A 
ATOM     14  C   UNL A   1      39.127  28.892  32.975  1.00  0.00     0.043 A 
ATOM     15  C   UNL A   1      40.925  30.357  33.618  1.00  0.00     0.024 A 
ATOM     16  Cl  UNL A   1      40.588  32.890  34.454  1.00  0.00    -0.082 Cl
ATOM     17  Cl  UNL A   1      38.587  27.363  32.401  1.00  0.00    -0.084 Cl
ATOM     18  C   UNL A   1      40.488  29.113  33.165  1.00  0.00     0.022 A 
ENDBRANCH   9  11
ENDBRANCH   8   9
ENDBRANCH   5   7
ENDBRANCH   2   3
ENDBRANCH   1   2
BRANCH   1  19
ATOM     19  C   UNL A   1      34.653  32.784  28.396  1.00  0.00     0.118 C 
BRANCH  19  20
ATOM     20  N   UNL A   1      33.971  31.537  28.087  1.00  0.00    -0.352 N 
ATOM     21  C   UNL A   1      34.454  30.258  27.955  1.00  0.00     0.251 C 
ATOM     22  H   UNL A   1      33.000  31.625  27.947  1.00  0.00     0.163 HD
ATOM     23  O   UNL A   1      33.687  29.381  27.561  1.00  0.00    -0.269 OA
BRANCH  21  24
ATOM     24  C   UNL A   1      35.865  29.919  28.258  1.00  0.00     0.039 A 
ATOM     25  C   UNL A   1      36.807  30.023  27.228  1.00  0.00     0.014 A 
ATOM     26  C   UNL A   1      36.268  29.443  29.509  1.00  0.00     0.014 A 
ATOM     27  C   UNL A   1      38.145  29.691  27.460  1.00  0.00     0.010 A 
ATOM     28  C   UNL A   1      37.616  29.181  29.760  1.00  0.00     0.010 A 
ATOM     29  C   UNL A   1      38.569  29.286  28.735  1.00  0.00    -0.014 A 
BRANCH  29  30
ATOM     30  C   UNL A   1      39.993  28.939  28.994  1.00  0.00     0.031 A 
ATOM     31  C   UNL A   1      40.921  29.949  29.620  1.00  0.00     0.074 A 
ATOM     32  C   UNL A   1      40.464  27.726  28.641  1.00  0.00     0.049 A 
ATOM     33  N   UNL A   1      42.194  29.838  29.902  1.00  0.00    -0.248 NA
ATOM     34  C   UNL A   1      40.348  31.263  29.950  1.00  0.00     0.031 C 
ATOM     35  C   UNL A   1      39.684  26.674  27.986  1.00  0.00     0.029 A 
ATOM     36  N   UNL A   1      41.713  27.174  28.780  1.00  0.00    -0.354 N 
ATOM     37  C   UNL A   1      42.576  31.068  30.428  1.00  0.00     0.074 A 
ATOM     38  C   UNL A   1      41.414  31.927  30.375  1.00  0.00     0.031 C 
ATOM     39  C   UNL A   1      40.464  25.596  27.803  1.00  0.00     0.029 A 
ATOM     40  C   UNL A   1      41.806  25.888  28.299  1.00  0.00     0.049 A 
ATOM     41  H   UNL A   1      42.472  27.652  29.186  1.00  0.00     0.167 HD
ATOM     42  C   UNL A   1      43.777  31.443  30.932  1.00  0.00     0.037 A 
ATOM     43  C   UNL A   1      42.852  25.039  28.263  1.00  0.00     0.037 A 
ATOM     44  C   UNL A   1      44.926  30.578  31.010  1.00  0.00     0.049 A 
ATOM     45  C   UNL A   1      44.172  25.470  28.847  1.00  0.00     0.074 A 
ATOM     46  C   UNL A   1      46.173  30.848  31.548  1.00  0.00     0.029 A 
ATOM     47  N   UNL A   1      44.970  29.272  30.542  1.00  0.00    -0.354 N 
ATOM     48  N   UNL A   1      44.497  26.618  29.392  1.00  0.00    -0.248 NA
ATOM     49  C   UNL A   1      45.261  24.484  28.826  1.00  0.00     0.031 C 
ATOM     50  C   UNL A   1      46.982  29.720  31.372  1.00  0.00     0.029 A 
ATOM     51  C   UNL A   1      46.223  28.729  30.769  1.00  0.00     0.049 A 
ATOM     52  H   UNL A   1      44.220  28.802  30.111  1.00  0.00     0.167 HD
ATOM     53  C   UNL A   1      45.817  26.480  29.810  1.00  0.00     0.074 A 
ATOM     54  C   UNL A   1      46.225  25.135  29.462  1.00  0.00     0.031 C 
ATOM     55  C   UNL A   1      46.614  27.383  30.431  1.00  0.00     0.037 A 
BRANCH  42  56
ATOM     56  C   UNL A   1      43.907  32.851  31.447  1.00  0.00     0.058 A 
ATOM     57  C   UNL A   1      44.076  33.941  30.576  1.00  0.00     0.135 A 
ATOM     58  C   UNL A   1      43.833  33.121  32.822  1.00  0.00     0.135 A 
ATOM     59  F   UNL A   1      44.167  33.740  29.252  1.00  0.00    -0.206 F 
ATOM     60  C   UNL A   1      44.201  35.241  31.053  1.00  0.00     0.059 A 
ATOM     61  C   UNL A   1      43.927  34.418  33.320  1.00  0.00     0.059 A 
ATOM     62  F   UNL A   1      43.671  32.118  33.700  1.00  0.00    -0.206 F 
ATOM     63  C   UNL A   1      44.127  35.470  32.428  1.00  0.00     0.060 A 
BRANCH  63  64
ATOM     64  S   UNL A   1      44.293  37.163  33.032  1.00  0.00     0.124 S 
ATOM     65  O   UNL A   1      44.717  37.863  31.822  1.00  0.00    -0.237 OA
ATOM     66  O   UNL A   1      42.943  37.464  33.496  1.00  0.00    -0.237 OA
ATOM     67  O   UNL A   1      45.304  37.053  34.079  1.00  0.00    -0.744 OA
ENDBRANCH  63  64
ENDBRANCH  42  56
BRANCH  43  68
ATOM     68  C   UNL A   1      42.685  23.679  27.685  1.00  0.00     0.058 A 
ATOM     69  C   UNL A   1      42.440  22.569  28.509  1.00  0.00     0.135 A 
ATOM     70  C   UNL A   1      42.760  23.461  26.301  1.00  0.00     0.135 A 
ATOM     71  F   UNL A   1      42.368  22.727  29.839  1.00  0.00    -0.206 F 
ATOM     72  C   UNL A   1      42.295  21.290  27.985  1.00  0.00     0.059 A 
ATOM     73  C   UNL A   1      42.592  22.194  25.751  1.00  0.00     0.059 A 
ATOM     74  F   UNL A   1      42.974  24.491  25.468  1.00  0.00    -0.206 F 
ATOM     75  C   UNL A   1      42.372  21.112  26.603  1.00  0.00     0.060 A 
BRANCH  75  76
ATOM     76  S   UNL A   1      42.136  19.453  25.928  1.00  0.00     0.124 S 
ATOM     77  O   UNL A   1      42.653  18.622  27.010  1.00  0.00    -0.237 OA
ATOM     78  O   UNL A   1      40.693  19.407  25.721  1.00  0.00    -0.237 OA
ATOM     79  O   UNL A   1      42.936  19.471  24.708  1.00  0.00    -0.744 OA
ENDBRANCH  75  76
ENDBRANCH  43  68
BRANCH  55  80
ATOM     80  C   UNL A   1      47.996  26.933  30.823  1.00  0.00     0.058 A 
ATOM     81  C   UNL A   1      48.225  26.156  31.970  1.00  0.00     0.135 A 
ATOM     82  C   UNL A   1      49.100  27.253  30.016  1.00  0.00     0.135 A 
ATOM     83  F   UNL A   1      47.206  25.824  32.777  1.00  0.00    -0.206 F 
ATOM     84  C   UNL A   1      49.507  25.742  32.320  1.00  0.00     0.059 A 
ATOM     85  C   UNL A   1      50.385  26.826  30.332  1.00  0.00     0.059 A 
ATOM     86  F   UNL A   1      48.934  27.983  28.901  1.00  0.00    -0.206 F 
ATOM     87  C   UNL A   1      50.581  26.083  31.495  1.00  0.00     0.060 A 
BRANCH  87  88
ATOM     88  S   UNL A   1      52.237  25.524  31.950  1.00  0.00     0.124 S 
ATOM     89  O   UNL A   1      52.532  26.382  33.092  1.00  0.00    -0.237 OA
ATOM     90  O   UNL A   1      52.020  24.113  32.256  1.00  0.00    -0.237 OA
ATOM     91  O   UNL A   1      53.024  25.783  30.748  1.00  0.00    -0.744 OA
ENDBRANCH  87  88
ENDBRANCH  55  80
ENDBRANCH  29  30
ENDBRANCH  21  24
ENDBRANCH  19  20
ENDBRANCH   1  19
TORSDOF 15
ENDMDL
MODEL 3
REMARK VINA RESULT:     -11.2      0.505      1.584
REMARK SMILES O=C(/C=C/Nc1cc(Cl)ccc1Cl)NCCCNC(=O)c1ccc(-c2c3nc(c(-c4c(F)cc(S(=O)(=O)[O-])cc4F)c4ccc([nH]4)c(-c4c(F)cc(S(=O)(=O)[O-])cc4F)c4nc(c(-c5c(F)cc(S(=O)(=O)[O-])cc5F)c5ccc2[nH]5)C=C4)C=C3)cc1
REMARK SMILES IDX 16 1 15 2 14 3 1 4 2 5 3 7 4 8 5 9 6 11 7 12 12 13 8 14
REMARK SMILES IDX 11 15 13 16 9 17 10 18 17 19 18 20 19 21 20 23 21 24 22 25
REMARK SMILES IDX 86 26 23 27 85 28 24 29 25 30 26 31 79 32 27 33 84 34 78 35
REMARK SMILES IDX 80 36 28 37 83 38 77 39 76 40 29 42 63 43 42 44 62 45 43 46
REMARK SMILES IDX 46 47 61 48 81 49 44 50 45 51 60 53 82 54 47 55 30 56 31 57
REMARK SMILES IDX 40 58 32 59 33 60 39 61 41 62 34 63 35 64 36 65 37 66 38 67
REMARK SMILES IDX 64 68 65 69 74 70 66 71 67 72 73 73 75 74 68 75 69 76 70 77
REMARK SMILES IDX 71 78 72 79 48 80 49 81 58 82 50 83 51 84 57 85 59 86 52 87
REMARK SMILES IDX 53 88 54 89 55 90 56 91
REMARK H PARENT 14 6 5 10 18 22 80 41 46 52
REMARK Flexibility Score: inf
ROOT
ATOM      1  C   UNL A   1      40.411  21.855  27.479  1.00  0.00     0.042 C 
ENDROOT
BRANCH   1   2
ATOM      2  C   UNL A   1      39.812  21.674  26.088  1.00  0.00     0.118 C 
BRANCH   2   3
ATOM      3  N   UNL A   1      38.366  21.771  26.074  1.00  0.00    -0.352 N 
ATOM      4  O   UNL A   1      38.270  24.049  25.774  1.00  0.00    -0.270 OA
ATOM      5  C   UNL A   1      37.711  22.963  25.915  1.00  0.00     0.245 C 
ATOM      6  H   UNL A   1      37.835  20.949  26.183  1.00  0.00     0.163 HD
BRANCH   5   7
ATOM      7  C   UNL A   1      36.235  22.882  25.806  1.00  0.00     0.089 C 
ATOM      8  C   UNL A   1      35.487  21.845  26.206  1.00  0.00     0.088 C 
BRANCH   8   9
ATOM      9  N   UNL A   1      34.130  21.724  26.050  1.00  0.00    -0.360 N 
ATOM     10  H   UNL A   1      33.589  21.903  26.853  1.00  0.00     0.166 HD
BRANCH   9  11
ATOM     11  C   UNL A   1      33.410  21.377  24.887  1.00  0.00     0.058 A 
ATOM     12  C   UNL A   1      33.244  20.045  24.483  1.00  0.00     0.048 A 
ATOM     13  C   UNL A   1      32.896  22.389  24.046  1.00  0.00     0.064 A 
ATOM     14  C   UNL A   1      32.590  19.738  23.287  1.00  0.00     0.043 A 
ATOM     15  C   UNL A   1      32.252  22.080  22.845  1.00  0.00     0.024 A 
ATOM     16  Cl  UNL A   1      33.071  24.060  24.468  1.00  0.00    -0.082 Cl
ATOM     17  Cl  UNL A   1      32.388  18.093  22.826  1.00  0.00    -0.084 Cl
ATOM     18  C   UNL A   1      32.101  20.748  22.462  1.00  0.00     0.022 A 
ENDBRANCH   9  11
ENDBRANCH   8   9
ENDBRANCH   5   7
ENDBRANCH   2   3
ENDBRANCH   1   2
BRANCH   1  19
ATOM     19  C   UNL A   1      41.471  22.949  27.588  1.00  0.00     0.118 C 
BRANCH  19  20
ATOM     20  N   UNL A   1      41.581  23.767  26.391  1.00  0.00    -0.352 N 
ATOM     21  C   UNL A   1      41.406  25.116  26.205  1.00  0.00     0.251 C 
ATOM     22  H   UNL A   1      41.822  23.269  25.575  1.00  0.00     0.163 HD
ATOM     23  O   UNL A   1      41.433  25.558  25.058  1.00  0.00    -0.269 OA
BRANCH  21  24
ATOM     24  C   UNL A   1      41.170  26.039  27.342  1.00  0.00     0.039 A 
ATOM     25  C   UNL A   1      42.077  27.084  27.546  1.00  0.00     0.014 A 
ATOM     26  C   UNL A   1      40.116  25.860  28.242  1.00  0.00     0.014 A 
ATOM     27  C   UNL A   1      41.909  27.964  28.619  1.00  0.00     0.010 A 
ATOM     28  C   UNL A   1      39.906  26.783  29.270  1.00  0.00     0.010 A 
ATOM     29  C   UNL A   1      40.809  27.836  29.481  1.00  0.00    -0.014 A 
BRANCH  29  30
ATOM     30  C   UNL A   1      40.617  28.773  30.621  1.00  0.00     0.031 A 
ATOM     31  C   UNL A   1      41.464  28.648  31.861  1.00  0.00     0.074 A 
ATOM     32  C   UNL A   1      39.660  29.722  30.557  1.00  0.00     0.049 A 
ATOM     33  N   UNL A   1      41.429  29.355  32.962  1.00  0.00    -0.248 NA
ATOM     34  C   UNL A   1      42.466  27.571  31.875  1.00  0.00     0.031 C 
ATOM     35  C   UNL A   1      38.741  29.922  29.435  1.00  0.00     0.029 A 
ATOM     36  N   UNL A   1      39.299  30.693  31.457  1.00  0.00    -0.354 N 
ATOM     37  C   UNL A   1      42.391  28.803  33.801  1.00  0.00     0.074 A 
ATOM     38  C   UNL A   1      42.954  27.667  33.104  1.00  0.00     0.031 C 
ATOM     39  C   UNL A   1      37.940  30.966  29.702  1.00  0.00     0.029 A 
ATOM     40  C   UNL A   1      38.266  31.492  31.025  1.00  0.00     0.049 A 
ATOM     41  H   UNL A   1      39.739  30.809  32.331  1.00  0.00     0.167 HD
ATOM     42  C   UNL A   1      42.787  29.215  35.030  1.00  0.00     0.037 A 
ATOM     43  C   UNL A   1      37.651  32.531  31.623  1.00  0.00     0.037 A 
ATOM     44  C   UNL A   1      42.246  30.363  35.711  1.00  0.00     0.049 A 
ATOM     45  C   UNL A   1      38.122  32.984  32.980  1.00  0.00     0.074 A 
ATOM     46  C   UNL A   1      42.615  30.891  36.936  1.00  0.00     0.029 A 
ATOM     47  N   UNL A   1      41.223  31.165  35.225  1.00  0.00    -0.354 N 
ATOM     48  N   UNL A   1      39.072  32.483  33.733  1.00  0.00    -0.248 NA
ATOM     49  C   UNL A   1      37.448  34.155  33.559  1.00  0.00     0.031 C 
ATOM     50  C   UNL A   1      41.791  31.989  37.208  1.00  0.00     0.029 A 
ATOM     51  C   UNL A   1      40.942  32.175  36.129  1.00  0.00     0.049 A 
ATOM     52  H   UNL A   1      40.765  31.033  34.363  1.00  0.00     0.167 HD
ATOM     53  C   UNL A   1      39.134  33.298  34.859  1.00  0.00     0.074 A 
ATOM     54  C   UNL A   1      38.131  34.328  34.683  1.00  0.00     0.031 C 
ATOM     55  C   UNL A   1      39.951  33.204  35.937  1.00  0.00     0.037 A 
BRANCH  42  56
ATOM     56  C   UNL A   1      43.868  28.423  35.715  1.00  0.00     0.058 A 
ATOM     57  C   UNL A   1      45.230  28.680  35.484  1.00  0.00     0.135 A 
ATOM     58  C   UNL A   1      43.542  27.414  36.636  1.00  0.00     0.135 A 
ATOM     59  F   UNL A   1      45.599  29.624  34.604  1.00  0.00    -0.206 F 
ATOM     60  C   UNL A   1      46.227  27.944  36.114  1.00  0.00     0.059 A 
ATOM     61  C   UNL A   1      44.525  26.684  37.300  1.00  0.00     0.059 A 
ATOM     62  F   UNL A   1      42.257  27.127  36.897  1.00  0.00    -0.206 F 
ATOM     63  C   UNL A   1      45.864  26.945  37.020  1.00  0.00     0.060 A 
BRANCH  63  64
ATOM     64  S   UNL A   1      47.171  25.997  37.827  1.00  0.00     0.124 S 
ATOM     65  O   UNL A   1      47.314  24.864  36.917  1.00  0.00    -0.237 OA
ATOM     66  O   UNL A   1      48.282  26.943  37.840  1.00  0.00    -0.237 OA
ATOM     67  O   UNL A   1      46.604  25.682  39.135  1.00  0.00    -0.744 OA
ENDBRANCH  63  64
ENDBRANCH  42  56
BRANCH  43  68
ATOM     68  C   UNL A   1      36.545  33.241  30.926  1.00  0.00     0.058 A 
ATOM     69  C   UNL A   1      35.217  33.112  31.360  1.00  0.00     0.135 A 
ATOM     70  C   UNL A   1      36.793  34.068  29.820  1.00  0.00     0.135 A 
ATOM     71  F   UNL A   1      34.930  32.328  32.410  1.00  0.00    -0.206 F 
ATOM     72  C   UNL A   1      34.171  33.760  30.712  1.00  0.00     0.059 A 
ATOM     73  C   UNL A   1      35.767  34.746  29.170  1.00  0.00     0.059 A 
ATOM     74  F   UNL A   1      38.048  34.240  29.376  1.00  0.00    -0.206 F 
ATOM     75  C   UNL A   1      34.457  34.576  29.616  1.00  0.00     0.060 A 
BRANCH  75  76
ATOM     76  S   UNL A   1      33.097  35.449  28.809  1.00  0.00     0.124 S 
ATOM     77  O   UNL A   1      32.345  35.944  29.956  1.00  0.00    -0.237 OA
ATOM     78  O   UNL A   1      33.801  36.456  28.023  1.00  0.00    -0.237 OA
ATOM     79  O   UNL A   1      32.443  34.402  28.030  1.00  0.00    -0.744 OA
ENDBRANCH  75  76
ENDBRANCH  43  68
BRANCH  55  80
ATOM     80  C   UNL A   1      39.833  34.273  36.990  1.00  0.00     0.058 A 
ATOM     81  C   UNL A   1      39.023  34.111  38.124  1.00  0.00     0.135 A 
ATOM     82  C   UNL A   1      40.575  35.461  36.877  1.00  0.00     0.135 A 
ATOM     83  F   UNL A   1      38.292  32.997  38.280  1.00  0.00    -0.206 F 
ATOM     84  C   UNL A   1      38.926  35.106  39.094  1.00  0.00     0.059 A 
ATOM     85  C   UNL A   1      40.514  36.455  37.847  1.00  0.00     0.059 A 
ATOM     86  F   UNL A   1      41.375  35.660  35.817  1.00  0.00    -0.206 F 
ATOM     87  C   UNL A   1      39.675  36.275  38.945  1.00  0.00     0.060 A 
BRANCH  87  88
ATOM     88  S   UNL A   1      39.556  37.550  40.218  1.00  0.00     0.124 S 
ATOM     89  O   UNL A   1      40.918  38.070  40.240  1.00  0.00    -0.237 OA
ATOM     90  O   UNL A   1      38.543  38.448  39.669  1.00  0.00    -0.237 OA
ATOM     91  O   UNL A   1      39.146  36.807  41.406  1.00  0.00    -0.744 OA
ENDBRANCH  87  88
ENDBRANCH  55  80
ENDBRANCH  29  30
ENDBRANCH  21  24
ENDBRANCH  19  20
ENDBRANCH   1  19
TORSDOF 15
ENDMDL
