MODEL 1
REMARK VINA RESULT:     -12.4      0.000      0.000
REMARK SMILES COc1ccc(-c2cc([C@@H]3CC[N@@H+](CC(=O)NCCCNC(=O)c4ccc(-c5c6nc(c(-c7c(F)cc(S(=O)(=O)[O-])cc7F)c7ccc([nH]7)c(-c7c(F)cc(S(=O)(=O)[O-])cc7F)c7nc(c(-c8c(F)cc(S(=O)(=O)[O-])cc8F)c8ccc5[nH]8)C=C7)C=C6)cc4)C3)ccn2)c2ccc(C)nc12
REMARK SMILES IDX 18 1 17 2 15 3 16 4 14 6 13 7 10 8 11 9 90 10 12 11 9 13
REMARK SMILES IDX 7 14 8 15 93 16 92 17 91 18 6 19 3 20 4 21 100 22 5 23 94 24
REMARK SMILES IDX 99 25 95 26 97 27 96 28 98 29 2 30 1 31 19 32 20 33 21 34
REMARK SMILES IDX 22 35 23 37 24 38 25 39 89 40 26 41 88 42 27 43 28 44 29 45
REMARK SMILES IDX 82 46 30 47 87 48 81 49 83 50 31 51 86 52 80 53 79 54 32 56
REMARK SMILES IDX 66 57 45 58 65 59 46 60 49 61 64 62 84 63 47 64 48 65 63 67
REMARK SMILES IDX 85 68 50 69 33 70 34 71 43 72 35 73 36 74 42 75 44 76 37 77
REMARK SMILES IDX 38 78 39 79 40 80 41 81 67 82 68 83 77 84 69 85 70 86 76 87
REMARK SMILES IDX 78 88 71 89 72 90 73 91 74 92 75 93 51 94 52 95 61 96 53 97
REMARK SMILES IDX 54 98 60 99 62 100 55 101 56 102 57 103 58 104 59 105
REMARK H PARENT 17 5 13 12 21 36 83 55 49 66
REMARK Flexibility Score: inf
ROOT
ATOM      1  C   UNL A   1      40.117  21.575  26.388  1.00  0.00     0.118 C 
ENDROOT
BRANCH   1   2
ATOM      2  N   UNL A   1      39.478  22.882  26.536  1.00  0.00    -0.351 N 
ATOM      3  C   UNL A   1      38.262  23.401  26.172  1.00  0.00     0.275 C 
ATOM      4  O   UNL A   1      38.043  24.572  26.502  1.00  0.00    -0.269 OA
ATOM      5  H   UNL A   1      40.048  23.536  27.001  1.00  0.00     0.163 HD
BRANCH   3   6
ATOM      6  C   UNL A   1      37.210  22.609  25.377  1.00  0.00     0.363 C 
BRANCH   6   7
ATOM      7  N   UNL A   1      35.860  23.220  25.272  1.00  0.00    -0.327 N 
ATOM      8  C   UNL A   1      33.881  21.935  24.577  1.00  0.00     0.080 C 
ATOM      9  C   UNL A   1      34.285  21.643  26.024  1.00  0.00     0.075 C 
ATOM     10  C   UNL A   1      35.033  22.854  24.095  1.00  0.00     0.271 C 
ATOM     11  C   UNL A   1      35.051  22.896  26.433  1.00  0.00     0.263 C 
ATOM     12  H   UNL A   1      36.090  24.210  25.184  1.00  0.00     0.348 HD
BRANCH   8  13
ATOM     13  C   UNL A   1      32.443  22.434  24.706  1.00  0.00    -0.035 A 
ATOM     14  C   UNL A   1      31.069  24.422  24.724  1.00  0.00     0.071 A 
ATOM     15  C   UNL A   1      32.052  23.637  24.114  1.00  0.00     0.033 A 
ATOM     16  N   UNL A   1      30.366  23.979  25.788  1.00  0.00    -0.256 NA
ATOM     17  C   UNL A   1      30.639  22.742  26.253  1.00  0.00     0.112 A 
ATOM     18  C   UNL A   1      31.663  21.946  25.763  1.00  0.00     0.024 A 
BRANCH  14  19
ATOM     19  C   UNL A   1      30.943  25.862  24.399  1.00  0.00     0.010 A 
ATOM     20  C   UNL A   1      30.422  28.568  23.922  1.00  0.00     0.145 A 
ATOM     21  C   UNL A   1      29.651  27.599  23.283  1.00  0.00     0.049 A 
ATOM     22  C   UNL A   1      31.431  28.241  24.838  1.00  0.00     0.113 A 
ATOM     23  C   UNL A   1      29.907  26.256  23.527  1.00  0.00     0.015 A 
ATOM     24  C   UNL A   1      31.732  26.871  25.026  1.00  0.00     0.013 A 
ATOM     25  N   UNL A   1      32.083  29.210  25.527  1.00  0.00    -0.249 NA
ATOM     26  C   UNL A   1      32.835  26.577  25.854  1.00  0.00     0.013 A 
ATOM     27  C   UNL A   1      33.100  28.881  26.352  1.00  0.00     0.038 A 
ATOM     28  C   UNL A   1      33.525  27.580  26.519  1.00  0.00     0.024 A 
ATOM     29  C   UNL A   1      33.804  30.009  27.038  1.00  0.00     0.067 C 
BRANCH  20  30
ATOM     30  O   UNL A   1      30.107  29.876  23.609  1.00  0.00    -0.494 OA
ATOM     31  C   UNL A   1      29.754  29.972  22.221  1.00  0.00     0.278 C 
ENDBRANCH  20  30
ENDBRANCH  14  19
ENDBRANCH   8  13
ENDBRANCH   6   7
ENDBRANCH   3   6
ENDBRANCH   1   2
BRANCH   1  32
ATOM     32  C   UNL A   1      41.626  21.487  26.734  1.00  0.00     0.042 C 
BRANCH  32  33
ATOM     33  C   UNL A   1      42.332  22.771  27.184  1.00  0.00     0.118 C 
BRANCH  33  34
ATOM     34  N   UNL A   1      42.594  23.645  26.057  1.00  0.00    -0.352 N 
ATOM     35  C   UNL A   1      42.396  25.000  25.935  1.00  0.00     0.251 C 
ATOM     36  H   UNL A   1      42.968  23.202  25.261  1.00  0.00     0.163 HD
ATOM     37  O   UNL A   1      42.358  25.489  24.808  1.00  0.00    -0.269 OA
BRANCH  35  38
ATOM     38  C   UNL A   1      42.241  25.886  27.119  1.00  0.00     0.039 A 
ATOM     39  C   UNL A   1      41.114  25.721  27.936  1.00  0.00     0.014 A 
ATOM     40  C   UNL A   1      43.110  26.956  27.360  1.00  0.00     0.014 A 
ATOM     41  C   UNL A   1      40.871  26.603  28.998  1.00  0.00     0.010 A 
ATOM     42  C   UNL A   1      42.878  27.824  28.437  1.00  0.00     0.010 A 
ATOM     43  C   UNL A   1      41.754  27.660  29.265  1.00  0.00    -0.014 A 
BRANCH  43  44
ATOM     44  C   UNL A   1      41.531  28.578  30.419  1.00  0.00     0.031 A 
ATOM     45  C   UNL A   1      42.321  28.430  31.693  1.00  0.00     0.074 A 
ATOM     46  C   UNL A   1      40.565  29.515  30.342  1.00  0.00     0.049 A 
ATOM     47  N   UNL A   1      42.190  29.076  32.826  1.00  0.00    -0.248 NA
ATOM     48  C   UNL A   1      43.387  27.416  31.704  1.00  0.00     0.031 C 
ATOM     49  C   UNL A   1      39.709  29.747  29.179  1.00  0.00     0.029 A 
ATOM     50  N   UNL A   1      40.119  30.427  31.270  1.00  0.00    -0.354 N 
ATOM     51  C   UNL A   1      43.138  28.536  33.689  1.00  0.00     0.074 A 
ATOM     52  C   UNL A   1      43.830  27.499  32.953  1.00  0.00     0.031 C 
ATOM     53  C   UNL A   1      38.830  30.720  29.467  1.00  0.00     0.029 A 
ATOM     54  C   UNL A   1      39.035  31.160  30.844  1.00  0.00     0.049 A 
ATOM     55  H   UNL A   1      40.535  30.544  32.154  1.00  0.00     0.167 HD
ATOM     56  C   UNL A   1      43.407  28.879  34.973  1.00  0.00     0.037 A 
ATOM     57  C   UNL A   1      38.268  32.059  31.494  1.00  0.00     0.037 A 
ATOM     58  C   UNL A   1      42.743  29.937  35.693  1.00  0.00     0.049 A 
ATOM     59  C   UNL A   1      38.580  32.410  32.923  1.00  0.00     0.074 A 
ATOM     60  C   UNL A   1      43.024  30.421  36.960  1.00  0.00     0.029 A 
ATOM     61  N   UNL A   1      41.661  30.664  35.222  1.00  0.00    -0.354 N 
ATOM     62  N   UNL A   1      39.536  31.950  33.693  1.00  0.00    -0.248 NA
ATOM     63  C   UNL A   1      37.707  33.397  33.577  1.00  0.00     0.031 C 
ATOM     64  C   UNL A   1      42.080  31.403  37.277  1.00  0.00     0.029 A 
ATOM     65  C   UNL A   1      41.236  31.561  36.190  1.00  0.00     0.049 A 
ATOM     66  H   UNL A   1      41.254  30.558  34.332  1.00  0.00     0.167 HD
ATOM     67  C   UNL A   1      39.384  32.596  34.916  1.00  0.00     0.074 A 
ATOM     68  C   UNL A   1      38.259  33.495  34.778  1.00  0.00     0.031 C 
ATOM     69  C   UNL A   1      40.112  32.451  36.050  1.00  0.00     0.037 A 
BRANCH  56  70
ATOM     70  C   UNL A   1      44.466  28.107  35.710  1.00  0.00     0.058 A 
ATOM     71  C   UNL A   1      45.816  28.491  35.681  1.00  0.00     0.135 A 
ATOM     72  C   UNL A   1      44.109  27.034  36.544  1.00  0.00     0.135 A 
ATOM     73  F   UNL A   1      46.212  29.505  34.896  1.00  0.00    -0.206 F 
ATOM     74  C   UNL A   1      46.775  27.833  36.445  1.00  0.00     0.059 A 
ATOM     75  C   UNL A   1      45.048  26.375  37.332  1.00  0.00     0.059 A 
ATOM     76  F   UNL A   1      42.830  26.629  36.612  1.00  0.00    -0.206 F 
ATOM     77  C   UNL A   1      46.381  26.778  37.271  1.00  0.00     0.060 A 
BRANCH  77  78
ATOM     78  S   UNL A   1      47.631  25.961  38.286  1.00  0.00     0.124 S 
ATOM     79  O   UNL A   1      48.389  27.103  38.789  1.00  0.00    -0.237 OA
ATOM     80  O   UNL A   1      46.821  25.254  39.272  1.00  0.00    -0.237 OA
ATOM     81  O   UNL A   1      48.339  25.110  37.336  1.00  0.00    -0.744 OA
ENDBRANCH  77  78
ENDBRANCH  56  70
BRANCH  57  82
ATOM     82  C   UNL A   1      37.100  32.671  30.804  1.00  0.00     0.058 A 
ATOM     83  C   UNL A   1      37.243  33.811  30.002  1.00  0.00     0.135 A 
ATOM     84  C   UNL A   1      35.814  32.122  30.938  1.00  0.00     0.135 A 
ATOM     85  F   UNL A   1      38.450  34.379  29.855  1.00  0.00    -0.206 F 
ATOM     86  C   UNL A   1      36.152  34.399  29.372  1.00  0.00     0.059 A 
ATOM     87  C   UNL A   1      34.712  32.672  30.292  1.00  0.00     0.059 A 
ATOM     88  F   UNL A   1      35.628  31.032  31.697  1.00  0.00    -0.206 F 
ATOM     89  C   UNL A   1      34.889  33.821  29.521  1.00  0.00     0.060 A 
BRANCH  89  90
ATOM     90  S   UNL A   1      33.486  34.581  28.677  1.00  0.00     0.124 S 
ATOM     91  O   UNL A   1      34.125  35.696  27.989  1.00  0.00    -0.237 OA
ATOM     92  O   UNL A   1      33.010  33.493  27.828  1.00  0.00    -0.237 OA
ATOM     93  O   UNL A   1      32.588  34.945  29.770  1.00  0.00    -0.744 OA
ENDBRANCH  89  90
ENDBRANCH  57  82
BRANCH  69  94
ATOM     94  C   UNL A   1      39.720  33.280  37.242  1.00  0.00     0.058 A 
ATOM     95  C   UNL A   1      38.705  32.864  38.117  1.00  0.00     0.135 A 
ATOM     96  C   UNL A   1      40.410  34.462  37.551  1.00  0.00     0.135 A 
ATOM     97  F   UNL A   1      38.009  31.746  37.862  1.00  0.00    -0.206 F 
ATOM     98  C   UNL A   1      38.382  33.597  39.255  1.00  0.00     0.059 A 
ATOM     99  C   UNL A   1      40.119  35.200  38.696  1.00  0.00     0.059 A 
ATOM    100  F   UNL A   1      41.395  34.900  36.751  1.00  0.00    -0.206 F 
ATOM    101  C   UNL A   1      39.099  34.761  39.539  1.00  0.00     0.060 A 
BRANCH 101 102
ATOM    102  S   UNL A   1      38.708  35.673  41.049  1.00  0.00     0.124 S 
ATOM    103  O   UNL A   1      37.467  35.032  41.468  1.00  0.00    -0.237 OA
ATOM    104  O   UNL A   1      39.873  35.406  41.887  1.00  0.00    -0.237 OA
ATOM    105  O   UNL A   1      38.578  37.053  40.589  1.00  0.00    -0.744 OA
ENDBRANCH 101 102
ENDBRANCH  69  94
ENDBRANCH  43  44
ENDBRANCH  35  38
ENDBRANCH  33  34
ENDBRANCH  32  33
ENDBRANCH   1  32
TORSDOF 17
ENDMDL
MODEL 2
REMARK VINA RESULT:     -12.2      0.900      8.084
REMARK SMILES COc1ccc(-c2cc([C@@H]3CC[N@@H+](CC(=O)NCCCNC(=O)c4ccc(-c5c6nc(c(-c7c(F)cc(S(=O)(=O)[O-])cc7F)c7ccc([nH]7)c(-c7c(F)cc(S(=O)(=O)[O-])cc7F)c7nc(c(-c8c(F)cc(S(=O)(=O)[O-])cc8F)c8ccc5[nH]8)C=C7)C=C6)cc4)C3)ccn2)c2ccc(C)nc12
REMARK SMILES IDX 18 1 17 2 15 3 16 4 14 6 13 7 10 8 11 9 90 10 12 11 9 13
REMARK SMILES IDX 7 14 8 15 93 16 92 17 91 18 6 19 3 20 4 21 100 22 5 23 94 24
REMARK SMILES IDX 99 25 95 26 97 27 96 28 98 29 2 30 1 31 19 32 20 33 21 34
REMARK SMILES IDX 22 35 23 37 24 38 25 39 89 40 26 41 88 42 27 43 28 44 29 45
REMARK SMILES IDX 82 46 30 47 87 48 81 49 83 50 31 51 86 52 80 53 79 54 32 56
REMARK SMILES IDX 66 57 45 58 65 59 46 60 49 61 64 62 84 63 47 64 48 65 63 67
REMARK SMILES IDX 85 68 50 69 33 70 34 71 43 72 35 73 36 74 42 75 44 76 37 77
REMARK SMILES IDX 38 78 39 79 40 80 41 81 67 82 68 83 77 84 69 85 70 86 76 87
REMARK SMILES IDX 78 88 71 89 72 90 73 91 74 92 75 93 51 94 52 95 61 96 53 97
REMARK SMILES IDX 54 98 60 99 62 100 55 101 56 102 57 103 58 104 59 105
REMARK H PARENT 17 5 13 12 21 36 83 55 49 66
REMARK Flexibility Score: inf
ROOT
ATOM      1  C   UNL A   1      41.246  21.871  26.388  1.00  0.00     0.118 C 
ENDROOT
BRANCH   1   2
ATOM      2  N   UNL A   1      40.388  22.875  27.016  1.00  0.00    -0.351 N 
ATOM      3  C   UNL A   1      39.088  23.271  26.838  1.00  0.00     0.275 C 
ATOM      4  O   UNL A   1      38.673  24.155  27.596  1.00  0.00    -0.269 OA
ATOM      5  H   UNL A   1      40.846  23.379  27.727  1.00  0.00     0.163 HD
BRANCH   3   6
ATOM      6  C   UNL A   1      38.169  22.688  25.751  1.00  0.00     0.363 C 
BRANCH   6   7
ATOM      7  N   UNL A   1      36.914  23.433  25.473  1.00  0.00    -0.327 N 
ATOM      8  C   UNL A   1      35.311  22.722  23.748  1.00  0.00     0.080 C 
ATOM      9  C   UNL A   1      35.221  21.866  25.014  1.00  0.00     0.075 C 
ATOM     10  C   UNL A   1      36.534  23.626  24.052  1.00  0.00     0.271 C 
ATOM     11  C   UNL A   1      35.776  22.784  26.097  1.00  0.00     0.263 C 
ATOM     12  H   UNL A   1      37.134  24.353  25.854  1.00  0.00     0.348 HD
BRANCH   8  13
ATOM     13  C   UNL A   1      33.899  23.284  23.602  1.00  0.00    -0.035 A 
ATOM     14  C   UNL A   1      32.444  25.088  24.289  1.00  0.00     0.071 A 
ATOM     15  C   UNL A   1      33.660  24.652  23.754  1.00  0.00     0.033 A 
ATOM     16  N   UNL A   1      31.423  24.234  24.519  1.00  0.00    -0.256 NA
ATOM     17  C   UNL A   1      31.609  22.933  24.214  1.00  0.00     0.112 A 
ATOM     18  C   UNL A   1      32.816  22.413  23.772  1.00  0.00     0.024 A 
BRANCH  14  19
ATOM     19  C   UNL A   1      32.318  26.444  24.870  1.00  0.00     0.010 A 
ATOM     20  C   UNL A   1      32.367  29.063  25.852  1.00  0.00     0.145 A 
ATOM     21  C   UNL A   1      33.257  28.122  26.366  1.00  0.00     0.049 A 
ATOM     22  C   UNL A   1      31.467  28.761  24.821  1.00  0.00     0.113 A 
ATOM     23  C   UNL A   1      33.236  26.824  25.871  1.00  0.00     0.015 A 
ATOM     24  C   UNL A   1      31.404  27.419  24.373  1.00  0.00     0.013 A 
ATOM     25  N   UNL A   1      30.697  29.729  24.266  1.00  0.00    -0.249 NA
ATOM     26  C   UNL A   1      30.401  27.119  23.429  1.00  0.00     0.013 A 
ATOM     27  C   UNL A   1      29.785  29.407  23.324  1.00  0.00     0.038 A 
ATOM     28  C   UNL A   1      29.587  28.109  22.901  1.00  0.00     0.024 A 
ATOM     29  C   UNL A   1      28.937  30.521  22.797  1.00  0.00     0.067 C 
BRANCH  20  30
ATOM     30  O   UNL A   1      32.449  30.323  26.412  1.00  0.00    -0.494 OA
ATOM     31  C   UNL A   1      33.553  30.376  27.328  1.00  0.00     0.278 C 
ENDBRANCH  20  30
ENDBRANCH  14  19
ENDBRANCH   8  13
ENDBRANCH   6   7
ENDBRANCH   3   6
ENDBRANCH   1   2
BRANCH   1  32
ATOM     32  C   UNL A   1      42.777  22.091  26.490  1.00  0.00     0.042 C 
BRANCH  32  33
ATOM     33  C   UNL A   1      43.271  23.438  27.030  1.00  0.00     0.118 C 
BRANCH  33  34
ATOM     34  N   UNL A   1      43.420  24.406  25.960  1.00  0.00    -0.352 N 
ATOM     35  C   UNL A   1      42.929  25.687  25.864  1.00  0.00     0.251 C 
ATOM     36  H   UNL A   1      43.949  24.101  25.189  1.00  0.00     0.163 HD
ATOM     37  O   UNL A   1      42.874  26.213  24.754  1.00  0.00    -0.269 OA
BRANCH  35  38
ATOM     38  C   UNL A   1      42.478  26.453  27.055  1.00  0.00     0.039 A 
ATOM     39  C   UNL A   1      43.158  27.632  27.390  1.00  0.00     0.014 A 
ATOM     40  C   UNL A   1      41.491  25.964  27.918  1.00  0.00     0.014 A 
ATOM     41  C   UNL A   1      42.839  28.328  28.564  1.00  0.00     0.010 A 
ATOM     42  C   UNL A   1      41.157  26.675  29.081  1.00  0.00     0.010 A 
ATOM     43  C   UNL A   1      41.829  27.861  29.419  1.00  0.00    -0.014 A 
BRANCH  43  44
ATOM     44  C   UNL A   1      41.449  28.616  30.648  1.00  0.00     0.031 A 
ATOM     45  C   UNL A   1      40.283  29.570  30.644  1.00  0.00     0.074 A 
ATOM     46  C   UNL A   1      42.199  28.489  31.761  1.00  0.00     0.049 A 
ATOM     47  N   UNL A   1      39.873  30.377  31.591  1.00  0.00    -0.248 NA
ATOM     48  C   UNL A   1      39.480  29.637  29.413  1.00  0.00     0.031 C 
ATOM     49  C   UNL A   1      43.371  27.622  31.892  1.00  0.00     0.029 A 
ATOM     50  N   UNL A   1      42.108  29.111  32.984  1.00  0.00    -0.354 N 
ATOM     51  C   UNL A   1      38.782  31.063  31.068  1.00  0.00     0.074 A 
ATOM     52  C   UNL A   1      38.600  30.585  29.713  1.00  0.00     0.031 C 
ATOM     53  C   UNL A   1      43.900  27.780  33.115  1.00  0.00     0.029 A 
ATOM     54  C   UNL A   1      43.128  28.782  33.846  1.00  0.00     0.049 A 
ATOM     55  H   UNL A   1      41.380  29.731  33.221  1.00  0.00     0.167 HD
ATOM     56  C   UNL A   1      38.004  31.998  31.665  1.00  0.00     0.037 A 
ATOM     57  C   UNL A   1      43.434  29.255  35.072  1.00  0.00     0.037 A 
ATOM     58  C   UNL A   1      38.163  32.446  33.026  1.00  0.00     0.049 A 
ATOM     59  C   UNL A   1      42.562  30.304  35.705  1.00  0.00     0.074 A 
ATOM     60  C   UNL A   1      37.355  33.312  33.745  1.00  0.00     0.029 A 
ATOM     61  N   UNL A   1      39.200  32.079  33.869  1.00  0.00    -0.354 N 
ATOM     62  N   UNL A   1      41.483  30.876  35.227  1.00  0.00    -0.248 NA
ATOM     63  C   UNL A   1      42.948  30.779  37.042  1.00  0.00     0.031 C 
ATOM     64  C   UNL A   1      37.931  33.511  35.003  1.00  0.00     0.029 A 
ATOM     65  C   UNL A   1      39.076  32.736  35.084  1.00  0.00     0.049 A 
ATOM     66  H   UNL A   1      39.918  31.447  33.640  1.00  0.00     0.167 HD
ATOM     67  C   UNL A   1      41.060  31.769  36.204  1.00  0.00     0.074 A 
ATOM     68  C   UNL A   1      41.984  31.648  37.312  1.00  0.00     0.031 C 
ATOM     69  C   UNL A   1      40.002  32.615  36.182  1.00  0.00     0.037 A 
BRANCH  56  70
ATOM     70  C   UNL A   1      36.897  32.624  30.861  1.00  0.00     0.058 A 
ATOM     71  C   UNL A   1      35.561  32.220  31.005  1.00  0.00     0.135 A 
ATOM     72  C   UNL A   1      37.165  33.715  30.017  1.00  0.00     0.135 A 
ATOM     73  F   UNL A   1      35.251  31.179  31.794  1.00  0.00    -0.206 F 
ATOM     74  C   UNL A   1      34.530  32.870  30.334  1.00  0.00     0.059 A 
ATOM     75  C   UNL A   1      36.147  34.393  29.353  1.00  0.00     0.059 A 
ATOM     76  F   UNL A   1      38.426  34.144  29.849  1.00  0.00    -0.206 F 
ATOM     77  C   UNL A   1      34.832  33.959  29.513  1.00  0.00     0.060 A 
BRANCH  77  78
ATOM     78  S   UNL A   1      33.478  34.816  28.681  1.00  0.00     0.124 S 
ATOM     79  O   UNL A   1      33.033  33.802  27.730  1.00  0.00    -0.237 OA
ATOM     80  O   UNL A   1      32.562  35.098  29.781  1.00  0.00    -0.237 OA
ATOM     81  O   UNL A   1      34.124  35.985  28.093  1.00  0.00    -0.744 OA
ENDBRANCH  77  78
ENDBRANCH  56  70
BRANCH  57  82
ATOM     82  C   UNL A   1      44.651  28.761  35.772  1.00  0.00     0.058 A 
ATOM     83  C   UNL A   1      45.902  29.359  35.567  1.00  0.00     0.135 A 
ATOM     84  C   UNL A   1      44.582  27.675  36.661  1.00  0.00     0.135 A 
ATOM     85  F   UNL A   1      46.020  30.390  34.716  1.00  0.00    -0.206 F 
ATOM     86  C   UNL A   1      47.046  28.889  36.203  1.00  0.00     0.059 A 
ATOM     87  C   UNL A   1      45.706  27.208  37.334  1.00  0.00     0.059 A 
ATOM     88  F   UNL A   1      43.407  27.070  36.887  1.00  0.00    -0.206 F 
ATOM     89  C   UNL A   1      46.938  27.813  37.086  1.00  0.00     0.060 A 
BRANCH  89  90
ATOM     90  S   UNL A   1      48.427  27.229  37.923  1.00  0.00     0.124 S 
ATOM     91  O   UNL A   1      49.467  27.985  37.235  1.00  0.00    -0.237 OA
ATOM     92  O   UNL A   1      48.171  27.608  39.309  1.00  0.00    -0.237 OA
ATOM     93  O   UNL A   1      48.419  25.791  37.668  1.00  0.00    -0.744 OA
ENDBRANCH  89  90
ENDBRANCH  57  82
BRANCH  69  94
ATOM     94  C   UNL A   1      39.777  33.485  37.388  1.00  0.00     0.058 A 
ATOM     95  C   UNL A   1      40.406  34.733  37.514  1.00  0.00     0.135 A 
ATOM     96  C   UNL A   1      38.873  33.101  38.391  1.00  0.00     0.135 A 
ATOM     97  F   UNL A   1      41.286  35.143  36.588  1.00  0.00    -0.206 F 
ATOM     98  C   UNL A   1      40.153  35.568  38.599  1.00  0.00     0.059 A 
ATOM     99  C   UNL A   1      38.588  33.930  39.473  1.00  0.00     0.059 A 
ATOM    100  F   UNL A   1      38.239  31.921  38.315  1.00  0.00    -0.206 F 
ATOM    101  C   UNL A   1      39.238  35.160  39.571  1.00  0.00     0.060 A 
BRANCH 101 102
ATOM    102  S   UNL A   1      38.875  36.277  40.944  1.00  0.00     0.124 S 
ATOM    103  O   UNL A   1      38.529  37.506  40.239  1.00  0.00    -0.237 OA
ATOM    104  O   UNL A   1      37.771  35.599  41.616  1.00  0.00    -0.237 OA
ATOM    105  O   UNL A   1      40.128  36.313  41.692  1.00  0.00    -0.744 OA
ENDBRANCH 101 102
ENDBRANCH  69  94
ENDBRANCH  43  44
ENDBRANCH  35  38
ENDBRANCH  33  34
ENDBRANCH  32  33
ENDBRANCH   1  32
TORSDOF 17
ENDMDL
MODEL 3
REMARK VINA RESULT:     -12.1      6.082     11.852
REMARK SMILES COc1ccc(-c2cc([C@@H]3CC[N@@H+](CC(=O)NCCCNC(=O)c4ccc(-c5c6nc(c(-c7c(F)cc(S(=O)(=O)[O-])cc7F)c7ccc([nH]7)c(-c7c(F)cc(S(=O)(=O)[O-])cc7F)c7nc(c(-c8c(F)cc(S(=O)(=O)[O-])cc8F)c8ccc5[nH]8)C=C7)C=C6)cc4)C3)ccn2)c2ccc(C)nc12
REMARK SMILES IDX 18 1 17 2 15 3 16 4 14 6 13 7 10 8 11 9 90 10 12 11 9 13
REMARK SMILES IDX 7 14 8 15 93 16 92 17 91 18 6 19 3 20 4 21 100 22 5 23 94 24
REMARK SMILES IDX 99 25 95 26 97 27 96 28 98 29 2 30 1 31 19 32 20 33 21 34
REMARK SMILES IDX 22 35 23 37 24 38 25 39 89 40 26 41 88 42 27 43 28 44 29 45
REMARK SMILES IDX 82 46 30 47 87 48 81 49 83 50 31 51 86 52 80 53 79 54 32 56
REMARK SMILES IDX 66 57 45 58 65 59 46 60 49 61 64 62 84 63 47 64 48 65 63 67
REMARK SMILES IDX 85 68 50 69 33 70 34 71 43 72 35 73 36 74 42 75 44 76 37 77
REMARK SMILES IDX 38 78 39 79 40 80 41 81 67 82 68 83 77 84 69 85 70 86 76 87
REMARK SMILES IDX 78 88 71 89 72 90 73 91 74 92 75 93 51 94 52 95 61 96 53 97
REMARK SMILES IDX 54 98 60 99 62 100 55 101 56 102 57 103 58 104 59 105
REMARK H PARENT 17 5 13 12 21 36 83 55 49 66
REMARK Flexibility Score: inf
ROOT
ATOM      1  C   UNL A   1      34.731  29.294  26.920  1.00  0.00     0.118 C 
ENDROOT
BRANCH   1   2
ATOM      2  N   UNL A   1      33.705  30.256  26.520  1.00  0.00    -0.351 N 
ATOM      3  C   UNL A   1      32.348  30.191  26.340  1.00  0.00     0.275 C 
ATOM      4  O   UNL A   1      31.783  31.244  26.022  1.00  0.00    -0.269 OA
ATOM      5  H   UNL A   1      34.071  31.152  26.339  1.00  0.00     0.163 HD
BRANCH   3   6
ATOM      6  C   UNL A   1      31.537  28.893  26.496  1.00  0.00     0.363 C 
BRANCH   6   7
ATOM      7  N   UNL A   1      32.012  27.717  25.723  1.00  0.00    -0.327 N 
ATOM      8  C   UNL A   1      30.625  26.609  24.020  1.00  0.00     0.080 C 
ATOM      9  C   UNL A   1      31.222  27.926  23.517  1.00  0.00     0.075 C 
ATOM     10  C   UNL A   1      31.052  26.605  25.511  1.00  0.00     0.271 C 
ATOM     11  C   UNL A   1      32.453  28.110  24.398  1.00  0.00     0.263 C 
ATOM     12  H   UNL A   1      32.755  27.364  26.325  1.00  0.00     0.348 HD
BRANCH   8  13
ATOM     13  C   UNL A   1      31.149  25.580  23.020  1.00  0.00    -0.035 A 
ATOM     14  C   UNL A   1      32.415  23.531  22.824  1.00  0.00     0.071 A 
ATOM     15  C   UNL A   1      31.379  24.260  23.415  1.00  0.00     0.033 A 
ATOM     16  N   UNL A   1      33.105  24.008  21.766  1.00  0.00    -0.256 NA
ATOM     17  C   UNL A   1      32.764  25.222  21.287  1.00  0.00     0.112 A 
ATOM     18  C   UNL A   1      31.815  26.042  21.879  1.00  0.00     0.024 A 
BRANCH  14  19
ATOM     19  C   UNL A   1      32.971  22.332  23.493  1.00  0.00     0.010 A 
ATOM     20  C   UNL A   1      34.040  19.939  24.471  1.00  0.00     0.145 A 
ATOM     21  C   UNL A   1      32.773  19.937  23.891  1.00  0.00     0.049 A 
ATOM     22  C   UNL A   1      34.830  21.095  24.545  1.00  0.00     0.113 A 
ATOM     23  C   UNL A   1      32.247  21.125  23.400  1.00  0.00     0.015 A 
ATOM     24  C   UNL A   1      34.258  22.313  24.108  1.00  0.00     0.013 A 
ATOM     25  N   UNL A   1      36.102  21.037  25.010  1.00  0.00    -0.249 NA
ATOM     26  C   UNL A   1      35.026  23.478  24.314  1.00  0.00     0.013 A 
ATOM     27  C   UNL A   1      36.823  22.171  25.142  1.00  0.00     0.038 A 
ATOM     28  C   UNL A   1      36.310  23.412  24.833  1.00  0.00     0.024 A 
ATOM     29  C   UNL A   1      38.200  22.032  25.710  1.00  0.00     0.067 C 
BRANCH  20  30
ATOM     30  O   UNL A   1      34.476  18.717  24.944  1.00  0.00    -0.494 OA
ATOM     31  C   UNL A   1      34.180  17.691  23.985  1.00  0.00     0.278 C 
ENDBRANCH  20  30
ENDBRANCH  14  19
ENDBRANCH   8  13
ENDBRANCH   6   7
ENDBRANCH   3   6
ENDBRANCH   1   2
BRANCH   1  32
ATOM     32  C   UNL A   1      35.518  29.605  28.220  1.00  0.00     0.042 C 
BRANCH  32  33
ATOM     33  C   UNL A   1      35.674  31.074  28.627  1.00  0.00     0.118 C 
BRANCH  33  34
ATOM     34  N   UNL A   1      35.690  31.217  30.070  1.00  0.00    -0.352 N 
ATOM     35  C   UNL A   1      36.624  30.787  30.982  1.00  0.00     0.251 C 
ATOM     36  H   UNL A   1      34.917  31.691  30.452  1.00  0.00     0.163 HD
ATOM     37  O   UNL A   1      36.296  30.703  32.164  1.00  0.00    -0.269 OA
BRANCH  35  38
ATOM     38  C   UNL A   1      38.013  30.436  30.586  1.00  0.00     0.039 A 
ATOM     39  C   UNL A   1      38.401  30.638  29.255  1.00  0.00     0.014 A 
ATOM     40  C   UNL A   1      38.892  29.792  31.464  1.00  0.00     0.014 A 
ATOM     41  C   UNL A   1      39.664  30.222  28.811  1.00  0.00     0.010 A 
ATOM     42  C   UNL A   1      40.164  29.397  31.025  1.00  0.00     0.010 A 
ATOM     43  C   UNL A   1      40.563  29.603  29.693  1.00  0.00    -0.014 A 
BRANCH  43  44
ATOM     44  C   UNL A   1      41.926  29.196  29.245  1.00  0.00     0.031 A 
ATOM     45  C   UNL A   1      43.034  30.208  29.113  1.00  0.00     0.074 A 
ATOM     46  C   UNL A   1      42.152  27.913  28.895  1.00  0.00     0.049 A 
ATOM     47  N   UNL A   1      44.248  30.046  28.647  1.00  0.00    -0.248 NA
ATOM     48  C   UNL A   1      42.739  31.582  29.546  1.00  0.00     0.031 C 
ATOM     49  C   UNL A   1      41.160  26.839  28.949  1.00  0.00     0.029 A 
ATOM     50  N   UNL A   1      43.278  27.302  28.396  1.00  0.00    -0.354 N 
ATOM     51  C   UNL A   1      44.855  31.297  28.710  1.00  0.00     0.074 A 
ATOM     52  C   UNL A   1      43.869  32.211  29.248  1.00  0.00     0.031 C 
ATOM     53  C   UNL A   1      41.712  25.707  28.484  1.00  0.00     0.029 A 
ATOM     54  C   UNL A   1      43.086  25.979  28.068  1.00  0.00     0.049 A 
ATOM     55  H   UNL A   1      44.139  27.765  28.285  1.00  0.00     0.167 HD
ATOM     56  C   UNL A   1      46.116  31.645  28.356  1.00  0.00     0.037 A 
ATOM     57  C   UNL A   1      43.905  25.091  27.468  1.00  0.00     0.037 A 
ATOM     58  C   UNL A   1      47.108  30.726  27.856  1.00  0.00     0.049 A 
ATOM     59  C   UNL A   1      45.295  25.509  27.072  1.00  0.00     0.074 A 
ATOM     60  C   UNL A   1      48.441  30.974  27.572  1.00  0.00     0.029 A 
ATOM     61  N   UNL A   1      46.878  29.394  27.550  1.00  0.00    -0.354 N 
ATOM     62  N   UNL A   1      45.877  26.675  27.221  1.00  0.00    -0.248 NA
ATOM     63  C   UNL A   1      46.139  24.496  26.422  1.00  0.00     0.031 C 
ATOM     64  C   UNL A   1      49.004  29.806  27.046  1.00  0.00     0.029 A 
ATOM     65  C   UNL A   1      48.032  28.819  27.041  1.00  0.00     0.049 A 
ATOM     66  H   UNL A   1      46.022  28.926  27.676  1.00  0.00     0.167 HD
ATOM     67  C   UNL A   1      47.155  26.532  26.691  1.00  0.00     0.074 A 
ATOM     68  C   UNL A   1      47.271  25.162  26.238  1.00  0.00     0.031 C 
ATOM     69  C   UNL A   1      48.140  27.456  26.587  1.00  0.00     0.037 A 
BRANCH  56  70
ATOM     70  C   UNL A   1      46.520  33.088  28.486  1.00  0.00     0.058 A 
ATOM     71  C   UNL A   1      47.114  33.587  29.655  1.00  0.00     0.135 A 
ATOM     72  C   UNL A   1      46.410  33.955  27.385  1.00  0.00     0.135 A 
ATOM     73  F   UNL A   1      47.238  32.802  30.737  1.00  0.00    -0.206 F 
ATOM     74  C   UNL A   1      47.577  34.896  29.732  1.00  0.00     0.059 A 
ATOM     75  C   UNL A   1      46.885  35.263  27.434  1.00  0.00     0.059 A 
ATOM     76  F   UNL A   1      45.853  33.526  26.242  1.00  0.00    -0.206 F 
ATOM     77  C   UNL A   1      47.462  35.726  28.615  1.00  0.00     0.060 A 
BRANCH  77  78
ATOM     78  S   UNL A   1      48.104  37.411  28.719  1.00  0.00     0.124 S 
ATOM     79  O   UNL A   1      49.346  37.204  29.458  1.00  0.00    -0.237 OA
ATOM     80  O   UNL A   1      48.255  37.776  27.315  1.00  0.00    -0.237 OA
ATOM     81  O   UNL A   1      47.059  38.130  29.441  1.00  0.00    -0.744 OA
ENDBRANCH  77  78
ENDBRANCH  56  70
BRANCH  57  82
ATOM     82  C   UNL A   1      43.416  23.718  27.171  1.00  0.00     0.058 A 
ATOM     83  C   UNL A   1      43.422  22.716  28.151  1.00  0.00     0.135 A 
ATOM     84  C   UNL A   1      42.935  23.383  25.895  1.00  0.00     0.135 A 
ATOM     85  F   UNL A   1      43.885  22.984  29.382  1.00  0.00    -0.206 F 
ATOM     86  C   UNL A   1      42.985  21.424  27.874  1.00  0.00     0.059 A 
ATOM     87  C   UNL A   1      42.463  22.108  25.602  1.00  0.00     0.059 A 
ATOM     88  F   UNL A   1      42.912  24.309  24.924  1.00  0.00    -0.206 F 
ATOM     89  C   UNL A   1      42.506  21.130  26.595  1.00  0.00     0.060 A 
BRANCH  89  90
ATOM     90  S   UNL A   1      41.920  19.456  26.257  1.00  0.00     0.124 S 
ATOM     91  O   UNL A   1      40.478  19.659  26.181  1.00  0.00    -0.237 OA
ATOM     92  O   UNL A   1      42.589  19.143  24.998  1.00  0.00    -0.237 OA
ATOM     93  O   UNL A   1      42.390  18.692  27.410  1.00  0.00    -0.744 OA
ENDBRANCH  89  90
ENDBRANCH  57  82
BRANCH  69  94
ATOM     94  C   UNL A   1      49.437  27.027  25.958  1.00  0.00     0.058 A 
ATOM     95  C   UNL A   1      49.691  27.239  24.594  1.00  0.00     0.135 A 
ATOM     96  C   UNL A   1      50.461  26.465  26.736  1.00  0.00     0.135 A 
ATOM     97  F   UNL A   1      48.743  27.764  23.804  1.00  0.00    -0.206 F 
ATOM     98  C   UNL A   1      50.914  26.900  24.021  1.00  0.00     0.059 A 
ATOM     99  C   UNL A   1      51.700  26.139  26.190  1.00  0.00     0.059 A 
ATOM    100  F   UNL A   1      50.272  26.249  28.048  1.00  0.00    -0.206 F 
ATOM    101  C   UNL A   1      51.914  26.355  24.829  1.00  0.00     0.060 A 
BRANCH 101 102
ATOM    102  S   UNL A   1      53.515  25.972  24.086  1.00  0.00     0.124 S 
ATOM    103  O   UNL A   1      53.825  24.686  24.700  1.00  0.00    -0.237 OA
ATOM    104  O   UNL A   1      53.199  25.933  22.661  1.00  0.00    -0.237 OA
ATOM    105  O   UNL A   1      54.359  27.088  24.503  1.00  0.00    -0.744 OA
ENDBRANCH 101 102
ENDBRANCH  69  94
ENDBRANCH  43  44
ENDBRANCH  35  38
ENDBRANCH  33  34
ENDBRANCH  32  33
ENDBRANCH   1  32
TORSDOF 17
ENDMDL
