MODEL 1
REMARK VINA RESULT:     -11.4      0.000      0.000
REMARK SMILES O=C(C[C@H]([NH2+]Cc1ccco1)C(=O)NCCCNC(=O)c1ccc(-c2c3nc(c(-c4c(F)cc(S(=O)(=O)[O-])cc4F)c4ccc([nH]4)c(-c4c(F)cc(S(=O)(=O)[O-])cc4F)c4nc(c(-c5c(F)cc(S(=O)(=O)[O-])cc5F)c5ccc2[nH]5)C=C4)C=C3)cc1)Nc1ccc(O)cc1
REMARK SMILES IDX 15 1 14 2 12 3 13 4 4 6 3 7 2 8 1 9 87 10 88 12 89 13 94 14
REMARK SMILES IDX 90 15 93 16 91 17 92 18 5 20 6 23 7 24 8 25 11 26 9 27 10 28
REMARK SMILES IDX 16 29 17 30 18 31 19 32 20 34 21 35 22 36 86 37 23 38 85 39
REMARK SMILES IDX 24 40 25 41 26 42 79 43 27 44 84 45 78 46 80 47 28 48 83 49
REMARK SMILES IDX 77 50 76 51 29 53 63 54 42 55 62 56 43 57 46 58 61 59 81 60
REMARK SMILES IDX 44 61 45 62 60 64 82 65 47 66 30 67 31 68 40 69 32 70 33 71
REMARK SMILES IDX 39 72 41 73 34 74 35 75 36 76 37 77 38 78 64 79 65 80 74 81
REMARK SMILES IDX 66 82 67 83 73 84 75 85 68 86 69 87 70 88 71 89 72 90 48 91
REMARK SMILES IDX 49 92 58 93 50 94 51 95 57 96 59 97 52 98 53 99 54 100
REMARK SMILES IDX 55 101 56 102
REMARK H PARENT 14 5 87 11 92 19 5 21 5 22 18 33 80 52 46 63
REMARK Flexibility Score: inf
ROOT
ATOM      1  C   UNL A   1      33.163  28.954  24.900  1.00  0.00     0.118 C 
ENDROOT
BRANCH   1   2
ATOM      2  N   UNL A   1      33.866  28.900  23.626  1.00  0.00    -0.351 N 
ATOM      3  C   UNL A   1      33.601  28.143  22.521  1.00  0.00     0.278 C 
ATOM      4  O   UNL A   1      34.341  28.244  21.539  1.00  0.00    -0.268 OA
ATOM      5  H   UNL A   1      34.647  29.496  23.550  1.00  0.00     0.163 HD
BRANCH   3   6
ATOM      6  C   UNL A   1      32.368  27.221  22.473  1.00  0.00     0.282 C 
BRANCH   6   7
ATOM      7  C   UNL A   1      32.775  25.999  21.644  1.00  0.00     0.175 C 
BRANCH   7   8
ATOM      8  C   UNL A   1      33.097  24.751  22.420  1.00  0.00     0.230 C 
ATOM      9  O   UNL A   1      33.619  23.792  21.859  1.00  0.00    -0.274 OA
ATOM     10  N   UNL A   1      32.812  24.829  23.768  1.00  0.00    -0.326 N 
ATOM     11  H   UNL A   1      32.185  25.527  24.064  1.00  0.00     0.169 HD
BRANCH  10  12
ATOM     12  C   UNL A   1      33.358  23.978  24.748  1.00  0.00     0.041 A 
ATOM     13  C   UNL A   1      32.484  23.337  25.629  1.00  0.00     0.030 A 
ATOM     14  C   UNL A   1      34.737  23.799  24.900  1.00  0.00     0.030 A 
ATOM     15  C   UNL A   1      32.985  22.486  26.618  1.00  0.00     0.048 A 
ATOM     16  C   UNL A   1      35.241  22.970  25.903  1.00  0.00     0.048 A 
ATOM     17  C   UNL A   1      34.358  22.309  26.746  1.00  0.00     0.115 A 
BRANCH  17  18
ATOM     18  O   UNL A   1      34.808  21.472  27.723  1.00  0.00    -0.508 OA
ATOM     19  H   UNL A   1      35.612  21.007  27.608  1.00  0.00     0.293 HD
ENDBRANCH  17  18
ENDBRANCH  10  12
ENDBRANCH   7   8
ENDBRANCH   6   7
BRANCH   6  20
ATOM     20  N   UNL A   1      31.172  27.956  22.008  1.00  0.00    -0.329 N 
ATOM     21  H   UNL A   1      30.927  27.629  21.073  1.00  0.00     0.347 HD
ATOM     22  H   UNL A   1      31.391  28.951  21.999  1.00  0.00     0.347 HD
BRANCH  20  23
ATOM     23  C   UNL A   1      30.023  27.742  22.905  1.00  0.00     0.337 C 
BRANCH  23  24
ATOM     24  C   UNL A   1      29.186  28.967  23.028  1.00  0.00     0.157 A 
ATOM     25  C   UNL A   1      27.859  29.248  22.772  1.00  0.00     0.052 A 
ATOM     26  O   UNL A   1      29.803  30.074  23.539  1.00  0.00    -0.463 OA
ATOM     27  C   UNL A   1      27.658  30.602  23.140  1.00  0.00     0.042 A 
ATOM     28  C   UNL A   1      28.870  31.059  23.598  1.00  0.00     0.195 A 
ENDBRANCH  23  24
ENDBRANCH  20  23
ENDBRANCH   6  20
ENDBRANCH   3   6
ENDBRANCH   1   2
BRANCH   1  29
ATOM     29  C   UNL A   1      33.739  28.003  25.935  1.00  0.00     0.042 C 
BRANCH  29  30
ATOM     30  C   UNL A   1      33.385  28.365  27.368  1.00  0.00     0.118 C 
BRANCH  30  31
ATOM     31  N   UNL A   1      33.369  29.804  27.602  1.00  0.00    -0.352 N 
ATOM     32  C   UNL A   1      34.336  30.631  28.114  1.00  0.00     0.251 C 
ATOM     33  H   UNL A   1      32.528  30.254  27.352  1.00  0.00     0.163 HD
ATOM     34  O   UNL A   1      34.050  31.793  28.401  1.00  0.00    -0.269 OA
BRANCH  32  35
ATOM     35  C   UNL A   1      35.708  30.127  28.343  1.00  0.00     0.039 A 
ATOM     36  C   UNL A   1      36.635  30.189  27.300  1.00  0.00     0.014 A 
ATOM     37  C   UNL A   1      36.081  29.591  29.577  1.00  0.00     0.014 A 
ATOM     38  C   UNL A   1      37.954  29.784  27.521  1.00  0.00     0.010 A 
ATOM     39  C   UNL A   1      37.414  29.283  29.825  1.00  0.00     0.010 A 
ATOM     40  C   UNL A   1      38.365  29.367  28.798  1.00  0.00    -0.014 A 
BRANCH  40  41
ATOM     41  C   UNL A   1      39.782  29.020  29.081  1.00  0.00     0.031 A 
ATOM     42  C   UNL A   1      40.717  30.061  29.639  1.00  0.00     0.074 A 
ATOM     43  C   UNL A   1      40.243  27.792  28.769  1.00  0.00     0.049 A 
ATOM     44  N   UNL A   1      42.000  29.973  29.880  1.00  0.00    -0.248 NA
ATOM     45  C   UNL A   1      40.144  31.384  29.936  1.00  0.00     0.031 C 
ATOM     46  C   UNL A   1      39.448  26.718  28.170  1.00  0.00     0.029 A 
ATOM     47  N   UNL A   1      41.495  27.244  28.896  1.00  0.00    -0.354 N 
ATOM     48  C   UNL A   1      42.389  31.227  30.335  1.00  0.00     0.074 A 
ATOM     49  C   UNL A   1      41.218  32.075  30.290  1.00  0.00     0.031 C 
ATOM     50  C   UNL A   1      40.225  25.635  28.001  1.00  0.00     0.029 A 
ATOM     51  C   UNL A   1      41.582  25.950  28.435  1.00  0.00     0.049 A 
ATOM     52  H   UNL A   1      42.259  27.731  29.282  1.00  0.00     0.167 HD
ATOM     53  C   UNL A   1      43.606  31.630  30.772  1.00  0.00     0.037 A 
ATOM     54  C   UNL A   1      42.637  25.117  28.356  1.00  0.00     0.037 A 
ATOM     55  C   UNL A   1      44.759  30.769  30.844  1.00  0.00     0.049 A 
ATOM     56  C   UNL A   1      43.978  25.586  28.856  1.00  0.00     0.074 A 
ATOM     57  C   UNL A   1      46.016  31.059  31.344  1.00  0.00     0.029 A 
ATOM     58  N   UNL A   1      44.799  29.456  30.396  1.00  0.00    -0.354 N 
ATOM     59  N   UNL A   1      44.308  26.751  29.361  1.00  0.00    -0.248 NA
ATOM     60  C   UNL A   1      45.089  24.627  28.782  1.00  0.00     0.031 C 
ATOM     61  C   UNL A   1      46.834  29.942  31.145  1.00  0.00     0.029 A 
ATOM     62  C   UNL A   1      46.069  28.933  30.580  1.00  0.00     0.049 A 
ATOM     63  H   UNL A   1      44.039  28.969  30.005  1.00  0.00     0.167 HD
ATOM     64  C   UNL A   1      45.655  26.655  29.691  1.00  0.00     0.074 A 
ATOM     65  C   UNL A   1      46.075  25.314  29.342  1.00  0.00     0.031 C 
ATOM     66  C   UNL A   1      46.472  27.592  30.235  1.00  0.00     0.037 A 
BRANCH  53  67
ATOM     67  C   UNL A   1      43.761  33.061  31.209  1.00  0.00     0.058 A 
ATOM     68  C   UNL A   1      44.009  34.095  30.292  1.00  0.00     0.135 A 
ATOM     69  C   UNL A   1      43.604  33.413  32.560  1.00  0.00     0.135 A 
ATOM     70  F   UNL A   1      44.184  33.817  28.989  1.00  0.00    -0.206 F 
ATOM     71  C   UNL A   1      44.119  35.420  30.700  1.00  0.00     0.059 A 
ATOM     72  C   UNL A   1      43.678  34.735  32.987  1.00  0.00     0.059 A 
ATOM     73  F   UNL A   1      43.367  32.465  33.481  1.00  0.00    -0.206 F 
ATOM     74  C   UNL A   1      43.947  35.731  32.050  1.00  0.00     0.060 A 
BRANCH  74  75
ATOM     75  S   UNL A   1      44.070  37.459  32.558  1.00  0.00     0.124 S 
ATOM     76  O   UNL A   1      45.449  37.526  33.032  1.00  0.00    -0.237 OA
ATOM     77  O   UNL A   1      43.793  38.169  31.312  1.00  0.00    -0.237 OA
ATOM     78  O   UNL A   1      43.046  37.585  33.589  1.00  0.00    -0.744 OA
ENDBRANCH  74  75
ENDBRANCH  53  67
BRANCH  54  79
ATOM     79  C   UNL A   1      42.469  23.752  27.787  1.00  0.00     0.058 A 
ATOM     80  C   UNL A   1      42.446  23.541  26.399  1.00  0.00     0.135 A 
ATOM     81  C   UNL A   1      42.330  22.629  28.619  1.00  0.00     0.135 A 
ATOM     82  F   UNL A   1      42.569  24.582  25.561  1.00  0.00    -0.206 F 
ATOM     83  C   UNL A   1      42.267  22.272  25.858  1.00  0.00     0.059 A 
ATOM     84  C   UNL A   1      42.181  21.347  28.100  1.00  0.00     0.059 A 
ATOM     85  F   UNL A   1      42.363  22.772  29.953  1.00  0.00    -0.206 F 
ATOM     86  C   UNL A   1      42.137  21.180  26.717  1.00  0.00     0.060 A 
BRANCH  86  87
ATOM     87  S   UNL A   1      41.940  19.533  26.002  1.00  0.00     0.124 S 
ATOM     88  O   UNL A   1      42.310  18.680  27.125  1.00  0.00    -0.237 OA
ATOM     89  O   UNL A   1      40.529  19.528  25.631  1.00  0.00    -0.237 OA
ATOM     90  O   UNL A   1      42.876  19.541  24.881  1.00  0.00    -0.744 OA
ENDBRANCH  86  87
ENDBRANCH  54  79
BRANCH  66  91
ATOM     91  C   UNL A   1      47.892  27.193  30.526  1.00  0.00     0.058 A 
ATOM     92  C   UNL A   1      48.908  27.310  29.564  1.00  0.00     0.135 A 
ATOM     93  C   UNL A   1      48.252  26.739  31.806  1.00  0.00     0.135 A 
ATOM     94  F   UNL A   1      48.618  27.732  28.324  1.00  0.00    -0.206 F 
ATOM     95  C   UNL A   1      50.225  26.968  29.854  1.00  0.00     0.059 A 
ATOM     96  C   UNL A   1      49.569  26.424  32.126  1.00  0.00     0.059 A 
ATOM     97  F   UNL A   1      47.323  26.620  32.768  1.00  0.00    -0.206 F 
ATOM     98  C   UNL A   1      50.546  26.529  31.140  1.00  0.00     0.060 A 
BRANCH  98  99
ATOM     99  S   UNL A   1      52.266  26.122  31.510  1.00  0.00     0.124 S 
ATOM    100  O   UNL A   1      52.562  27.054  32.592  1.00  0.00    -0.237 OA
ATOM    101  O   UNL A   1      52.178  24.715  31.891  1.00  0.00    -0.237 OA
ATOM    102  O   UNL A   1      52.955  26.382  30.250  1.00  0.00    -0.744 OA
ENDBRANCH  98  99
ENDBRANCH  66  91
ENDBRANCH  40  41
ENDBRANCH  32  35
ENDBRANCH  30  31
ENDBRANCH  29  30
ENDBRANCH   1  29
TORSDOF 20
ENDMDL
MODEL 2
REMARK VINA RESULT:     -11.1      5.066     10.323
REMARK SMILES O=C(C[C@H]([NH2+]Cc1ccco1)C(=O)NCCCNC(=O)c1ccc(-c2c3nc(c(-c4c(F)cc(S(=O)(=O)[O-])cc4F)c4ccc([nH]4)c(-c4c(F)cc(S(=O)(=O)[O-])cc4F)c4nc(c(-c5c(F)cc(S(=O)(=O)[O-])cc5F)c5ccc2[nH]5)C=C4)C=C3)cc1)Nc1ccc(O)cc1
REMARK SMILES IDX 15 1 14 2 12 3 13 4 4 6 3 7 2 8 1 9 87 10 88 12 89 13 94 14
REMARK SMILES IDX 90 15 93 16 91 17 92 18 5 20 6 23 7 24 8 25 11 26 9 27 10 28
REMARK SMILES IDX 16 29 17 30 18 31 19 32 20 34 21 35 22 36 86 37 23 38 85 39
REMARK SMILES IDX 24 40 25 41 26 42 79 43 27 44 84 45 78 46 80 47 28 48 83 49
REMARK SMILES IDX 77 50 76 51 29 53 63 54 42 55 62 56 43 57 46 58 61 59 81 60
REMARK SMILES IDX 44 61 45 62 60 64 82 65 47 66 30 67 31 68 40 69 32 70 33 71
REMARK SMILES IDX 39 72 41 73 34 74 35 75 36 76 37 77 38 78 64 79 65 80 74 81
REMARK SMILES IDX 66 82 67 83 73 84 75 85 68 86 69 87 70 88 71 89 72 90 48 91
REMARK SMILES IDX 49 92 58 93 50 94 51 95 57 96 59 97 52 98 53 99 54 100
REMARK SMILES IDX 55 101 56 102
REMARK H PARENT 14 5 87 11 92 19 5 21 5 22 18 33 80 52 46 63
REMARK Flexibility Score: inf
ROOT
ATOM      1  C   UNL A   1      37.109  22.491  24.782  1.00  0.00     0.118 C 
ENDROOT
BRANCH   1   2
ATOM      2  N   UNL A   1      36.399  23.358  23.851  1.00  0.00    -0.351 N 
ATOM      3  C   UNL A   1      35.060  23.451  23.602  1.00  0.00     0.278 C 
ATOM      4  O   UNL A   1      34.668  24.253  22.751  1.00  0.00    -0.268 OA
ATOM      5  H   UNL A   1      36.969  23.965  23.324  1.00  0.00     0.163 HD
BRANCH   3   6
ATOM      6  C   UNL A   1      34.048  22.612  24.405  1.00  0.00     0.282 C 
BRANCH   6   7
ATOM      7  C   UNL A   1      33.077  22.013  23.383  1.00  0.00     0.175 C 
BRANCH   7   8
ATOM      8  C   UNL A   1      32.732  20.562  23.570  1.00  0.00     0.230 C 
ATOM      9  O   UNL A   1      31.987  19.995  22.774  1.00  0.00    -0.274 OA
ATOM     10  N   UNL A   1      33.362  19.960  24.641  1.00  0.00    -0.326 N 
ATOM     11  H   UNL A   1      33.731  20.543  25.342  1.00  0.00     0.169 HD
BRANCH  10  12
ATOM     12  C   UNL A   1      33.511  18.568  24.798  1.00  0.00     0.041 A 
ATOM     13  C   UNL A   1      32.564  17.883  25.562  1.00  0.00     0.030 A 
ATOM     14  C   UNL A   1      34.598  17.867  24.262  1.00  0.00     0.030 A 
ATOM     15  C   UNL A   1      32.678  16.502  25.745  1.00  0.00     0.048 A 
ATOM     16  C   UNL A   1      34.727  16.492  24.465  1.00  0.00     0.048 A 
ATOM     17  C   UNL A   1      33.757  15.819  25.194  1.00  0.00     0.115 A 
BRANCH  17  18
ATOM     18  O   UNL A   1      33.833  14.473  25.395  1.00  0.00    -0.508 OA
ATOM     19  H   UNL A   1      33.228  13.901  24.967  1.00  0.00     0.293 HD
ENDBRANCH  17  18
ENDBRANCH  10  12
ENDBRANCH   7   8
ENDBRANCH   6   7
BRANCH   6  20
ATOM     20  N   UNL A   1      33.441  23.409  25.492  1.00  0.00    -0.329 N 
ATOM     21  H   UNL A   1      34.067  24.180  25.726  1.00  0.00     0.347 HD
ATOM     22  H   UNL A   1      33.299  22.799  26.296  1.00  0.00     0.347 HD
BRANCH  20  23
ATOM     23  C   UNL A   1      32.133  23.959  25.093  1.00  0.00     0.337 C 
BRANCH  23  24
ATOM     24  C   UNL A   1      32.042  25.419  25.371  1.00  0.00     0.157 A 
ATOM     25  C   UNL A   1      31.321  26.177  26.271  1.00  0.00     0.052 A 
ATOM     26  O   UNL A   1      32.858  26.229  24.634  1.00  0.00    -0.463 OA
ATOM     27  C   UNL A   1      31.713  27.523  26.066  1.00  0.00     0.042 A 
ATOM     28  C   UNL A   1      32.648  27.502  25.059  1.00  0.00     0.195 A 
ENDBRANCH  23  24
ENDBRANCH  20  23
ENDBRANCH   6  20
ENDBRANCH   3   6
ENDBRANCH   1   2
BRANCH   1  29
ATOM     29  C   UNL A   1      37.250  23.097  26.167  1.00  0.00     0.042 C 
BRANCH  29  30
ATOM     30  C   UNL A   1      38.146  24.323  26.214  1.00  0.00     0.118 C 
BRANCH  30  31
ATOM     31  N   UNL A   1      39.563  23.995  26.108  1.00  0.00    -0.352 N 
ATOM     32  C   UNL A   1      40.661  24.626  26.636  1.00  0.00     0.251 C 
ATOM     33  H   UNL A   1      39.763  23.193  25.572  1.00  0.00     0.163 HD
ATOM     34  O   UNL A   1      41.787  24.288  26.271  1.00  0.00    -0.269 OA
BRANCH  32  35
ATOM     35  C   UNL A   1      40.498  25.718  27.619  1.00  0.00     0.039 A 
ATOM     36  C   UNL A   1      39.523  25.597  28.612  1.00  0.00     0.014 A 
ATOM     37  C   UNL A   1      41.298  26.862  27.563  1.00  0.00     0.014 A 
ATOM     38  C   UNL A   1      39.404  26.587  29.590  1.00  0.00     0.010 A 
ATOM     39  C   UNL A   1      41.246  27.796  28.592  1.00  0.00     0.010 A 
ATOM     40  C   UNL A   1      40.293  27.674  29.613  1.00  0.00    -0.014 A 
BRANCH  40  41
ATOM     41  C   UNL A   1      40.247  28.691  30.697  1.00  0.00     0.031 A 
ATOM     42  C   UNL A   1      41.125  28.541  31.911  1.00  0.00     0.074 A 
ATOM     43  C   UNL A   1      39.364  29.706  30.620  1.00  0.00     0.049 A 
ATOM     44  N   UNL A   1      41.173  29.278  32.991  1.00  0.00    -0.248 NA
ATOM     45  C   UNL A   1      42.050  27.394  31.929  1.00  0.00     0.031 C 
ATOM     46  C   UNL A   1      38.419  29.925  29.523  1.00  0.00     0.029 A 
ATOM     47  N   UNL A   1      39.104  30.737  31.488  1.00  0.00    -0.354 N 
ATOM     48  C   UNL A   1      42.112  28.677  33.821  1.00  0.00     0.074 A 
ATOM     49  C   UNL A   1      42.574  27.485  33.143  1.00  0.00     0.031 C 
ATOM     50  C   UNL A   1      37.699  31.031  29.773  1.00  0.00     0.029 A 
ATOM     51  C   UNL A   1      38.095  31.574  31.068  1.00  0.00     0.049 A 
ATOM     52  H   UNL A   1      39.593  30.866  32.334  1.00  0.00     0.167 HD
ATOM     53  C   UNL A   1      42.565  29.092  35.028  1.00  0.00     0.037 A 
ATOM     54  C   UNL A   1      37.541  32.647  31.664  1.00  0.00     0.037 A 
ATOM     55  C   UNL A   1      42.122  30.297  35.680  1.00  0.00     0.049 A 
ATOM     56  C   UNL A   1      38.067  33.093  33.003  1.00  0.00     0.074 A 
ATOM     57  C   UNL A   1      42.574  30.846  36.867  1.00  0.00     0.029 A 
ATOM     58  N   UNL A   1      41.121  31.135  35.208  1.00  0.00    -0.354 N 
ATOM     59  N   UNL A   1      39.015  32.558  33.736  1.00  0.00    -0.248 NA
ATOM     60  C   UNL A   1      37.455  34.291  33.593  1.00  0.00     0.031 C 
ATOM     61  C   UNL A   1      41.807  31.982  37.143  1.00  0.00     0.029 A 
ATOM     62  C   UNL A   1      40.921  32.179  36.096  1.00  0.00     0.049 A 
ATOM     63  H   UNL A   1      40.626  31.005  34.367  1.00  0.00     0.167 HD
ATOM     64  C   UNL A   1      39.132  33.370  34.858  1.00  0.00     0.074 A 
ATOM     65  C   UNL A   1      38.168  34.440  34.701  1.00  0.00     0.031 C 
ATOM     66  C   UNL A   1      39.962  33.243  35.923  1.00  0.00     0.037 A 
BRANCH  53  67
ATOM     67  C   UNL A   1      43.591  28.243  35.727  1.00  0.00     0.058 A 
ATOM     68  C   UNL A   1      44.968  28.414  35.513  1.00  0.00     0.135 A 
ATOM     69  C   UNL A   1      43.193  27.278  36.668  1.00  0.00     0.135 A 
ATOM     70  F   UNL A   1      45.407  29.310  34.614  1.00  0.00    -0.206 F 
ATOM     71  C   UNL A   1      45.912  27.646  36.187  1.00  0.00     0.059 A 
ATOM     72  C   UNL A   1      44.120  26.521  37.377  1.00  0.00     0.059 A 
ATOM     73  F   UNL A   1      41.890  27.070  36.912  1.00  0.00    -0.206 F 
ATOM     74  C   UNL A   1      45.478  26.704  37.122  1.00  0.00     0.060 A 
BRANCH  74  75
ATOM     75  S   UNL A   1      46.716  25.733  38.004  1.00  0.00     0.124 S 
ATOM     76  O   UNL A   1      45.997  25.384  39.226  1.00  0.00    -0.237 OA
ATOM     77  O   UNL A   1      46.964  24.631  37.078  1.00  0.00    -0.237 OA
ATOM     78  O   UNL A   1      47.825  26.665  38.174  1.00  0.00    -0.744 OA
ENDBRANCH  74  75
ENDBRANCH  53  67
BRANCH  54  79
ATOM     79  C   UNL A   1      36.430  33.379  30.998  1.00  0.00     0.058 A 
ATOM     80  C   UNL A   1      35.118  33.317  31.494  1.00  0.00     0.135 A 
ATOM     81  C   UNL A   1      36.656  34.159  29.852  1.00  0.00     0.135 A 
ATOM     82  F   UNL A   1      34.848  32.581  32.583  1.00  0.00    -0.206 F 
ATOM     83  C   UNL A   1      34.068  33.979  30.866  1.00  0.00     0.059 A 
ATOM     84  C   UNL A   1      35.628  34.855  29.225  1.00  0.00     0.059 A 
ATOM     85  F   UNL A   1      37.894  34.267  29.346  1.00  0.00    -0.206 F 
ATOM     86  C   UNL A   1      34.334  34.748  29.732  1.00  0.00     0.060 A 
BRANCH  86  87
ATOM     87  S   UNL A   1      32.969  35.632  28.945  1.00  0.00     0.124 S 
ATOM     88  O   UNL A   1      32.175  36.033  30.100  1.00  0.00    -0.237 OA
ATOM     89  O   UNL A   1      33.665  36.705  28.243  1.00  0.00    -0.237 OA
ATOM     90  O   UNL A   1      32.364  34.618  28.085  1.00  0.00    -0.744 OA
ENDBRANCH  86  87
ENDBRANCH  54  79
BRANCH  66  91
ATOM     91  C   UNL A   1      39.899  34.305  36.986  1.00  0.00     0.058 A 
ATOM     92  C   UNL A   1      40.535  35.547  36.832  1.00  0.00     0.135 A 
ATOM     93  C   UNL A   1      39.142  34.097  38.151  1.00  0.00     0.135 A 
ATOM     94  F   UNL A   1      41.276  35.796  35.741  1.00  0.00    -0.206 F 
ATOM     95  C   UNL A   1      40.444  36.535  37.808  1.00  0.00     0.059 A 
ATOM     96  C   UNL A   1      39.011  35.084  39.123  1.00  0.00     0.059 A 
ATOM     97  F   UNL A   1      38.503  32.932  38.344  1.00  0.00    -0.206 F 
ATOM     98  C   UNL A   1      39.676  36.295  38.949  1.00  0.00     0.060 A 
BRANCH  98  99
ATOM     99  S   UNL A   1      39.538  37.600  40.189  1.00  0.00     0.124 S 
ATOM    100  O   UNL A   1      40.923  38.041  40.306  1.00  0.00    -0.237 OA
ATOM    101  O   UNL A   1      38.624  38.541  39.550  1.00  0.00    -0.237 OA
ATOM    102  O   UNL A   1      39.000  36.905  41.354  1.00  0.00    -0.744 OA
ENDBRANCH  98  99
ENDBRANCH  66  91
ENDBRANCH  40  41
ENDBRANCH  32  35
ENDBRANCH  30  31
ENDBRANCH  29  30
ENDBRANCH   1  29
TORSDOF 20
ENDMDL
MODEL 3
REMARK VINA RESULT:     -10.3      2.786      3.502
REMARK SMILES O=C(C[C@H]([NH2+]Cc1ccco1)C(=O)NCCCNC(=O)c1ccc(-c2c3nc(c(-c4c(F)cc(S(=O)(=O)[O-])cc4F)c4ccc([nH]4)c(-c4c(F)cc(S(=O)(=O)[O-])cc4F)c4nc(c(-c5c(F)cc(S(=O)(=O)[O-])cc5F)c5ccc2[nH]5)C=C4)C=C3)cc1)Nc1ccc(O)cc1
REMARK SMILES IDX 15 1 14 2 12 3 13 4 4 6 3 7 2 8 1 9 87 10 88 12 89 13 94 14
REMARK SMILES IDX 90 15 93 16 91 17 92 18 5 20 6 23 7 24 8 25 11 26 9 27 10 28
REMARK SMILES IDX 16 29 17 30 18 31 19 32 20 34 21 35 22 36 86 37 23 38 85 39
REMARK SMILES IDX 24 40 25 41 26 42 79 43 27 44 84 45 78 46 80 47 28 48 83 49
REMARK SMILES IDX 77 50 76 51 29 53 63 54 42 55 62 56 43 57 46 58 61 59 81 60
REMARK SMILES IDX 44 61 45 62 60 64 82 65 47 66 30 67 31 68 40 69 32 70 33 71
REMARK SMILES IDX 39 72 41 73 34 74 35 75 36 76 37 77 38 78 64 79 65 80 74 81
REMARK SMILES IDX 66 82 67 83 73 84 75 85 68 86 69 87 70 88 71 89 72 90 48 91
REMARK SMILES IDX 49 92 58 93 50 94 51 95 57 96 59 97 52 98 53 99 54 100
REMARK SMILES IDX 55 101 56 102
REMARK H PARENT 14 5 87 11 92 19 5 21 5 22 18 33 80 52 46 63
REMARK Flexibility Score: inf
ROOT
ATOM      1  C   UNL A   1      31.962  27.887  26.006  1.00  0.00     0.118 C 
ENDROOT
BRANCH   1   2
ATOM      2  N   UNL A   1      31.212  26.756  26.534  1.00  0.00    -0.351 N 
ATOM      3  C   UNL A   1      30.250  25.997  25.930  1.00  0.00     0.278 C 
ATOM      4  O   UNL A   1      29.725  25.083  26.571  1.00  0.00    -0.268 OA
ATOM      5  H   UNL A   1      31.428  26.503  27.461  1.00  0.00     0.163 HD
BRANCH   3   6
ATOM      6  C   UNL A   1      29.865  26.236  24.458  1.00  0.00     0.282 C 
BRANCH   6   7
ATOM      7  C   UNL A   1      30.359  25.013  23.680  1.00  0.00     0.175 C 
BRANCH   7   8
ATOM      8  C   UNL A   1      31.840  24.942  23.430  1.00  0.00     0.230 C 
ATOM      9  O   UNL A   1      32.411  25.851  22.834  1.00  0.00    -0.274 OA
ATOM     10  N   UNL A   1      32.456  23.833  23.973  1.00  0.00    -0.326 N 
ATOM     11  H   UNL A   1      31.891  23.063  24.209  1.00  0.00     0.169 HD
BRANCH  10  12
ATOM     12  C   UNL A   1      33.841  23.728  24.213  1.00  0.00     0.041 A 
ATOM     13  C   UNL A   1      34.645  23.173  23.215  1.00  0.00     0.030 A 
ATOM     14  C   UNL A   1      34.420  24.109  25.428  1.00  0.00     0.030 A 
ATOM     15  C   UNL A   1      36.022  23.048  23.414  1.00  0.00     0.048 A 
ATOM     16  C   UNL A   1      35.792  23.962  25.639  1.00  0.00     0.048 A 
ATOM     17  C   UNL A   1      36.584  23.444  24.623  1.00  0.00     0.115 A 
BRANCH  17  18
ATOM     18  O   UNL A   1      37.931  23.306  24.779  1.00  0.00    -0.508 OA
ATOM     19  H   UNL A   1      38.416  23.953  25.252  1.00  0.00     0.293 HD
ENDBRANCH  17  18
ENDBRANCH  10  12
ENDBRANCH   7   8
ENDBRANCH   6   7
BRANCH   6  20
ATOM     20  N   UNL A   1      30.353  27.549  23.987  1.00  0.00    -0.329 N 
ATOM     21  H   UNL A   1      31.341  27.467  23.743  1.00  0.00     0.347 HD
ATOM     22  H   UNL A   1      30.220  28.228  24.736  1.00  0.00     0.347 HD
BRANCH  20  23
ATOM     23  C   UNL A   1      29.605  28.013  22.805  1.00  0.00     0.337 C 
BRANCH  23  24
ATOM     24  C   UNL A   1      29.072  29.389  22.996  1.00  0.00     0.157 A 
ATOM     25  C   UNL A   1      29.495  30.486  23.719  1.00  0.00     0.052 A 
ATOM     26  O   UNL A   1      27.944  29.706  22.294  1.00  0.00    -0.463 OA
ATOM     27  C   UNL A   1      28.570  31.525  23.450  1.00  0.00     0.042 A 
ATOM     28  C   UNL A   1      27.646  31.000  22.580  1.00  0.00     0.195 A 
ENDBRANCH  23  24
ENDBRANCH  20  23
ENDBRANCH   6  20
ENDBRANCH   3   6
ENDBRANCH   1   2
BRANCH   1  29
ATOM     29  C   UNL A   1      33.402  27.539  25.672  1.00  0.00     0.042 C 
BRANCH  29  30
ATOM     30  C   UNL A   1      34.428  28.330  26.466  1.00  0.00     0.118 C 
BRANCH  30  31
ATOM     31  N   UNL A   1      34.049  29.725  26.652  1.00  0.00    -0.352 N 
ATOM     32  C   UNL A   1      34.568  30.681  27.488  1.00  0.00     0.251 C 
ATOM     33  H   UNL A   1      33.302  30.030  26.086  1.00  0.00     0.163 HD
ATOM     34  O   UNL A   1      33.978  31.753  27.621  1.00  0.00    -0.269 OA
BRANCH  32  35
ATOM     35  C   UNL A   1      35.812  30.422  28.242  1.00  0.00     0.039 A 
ATOM     36  C   UNL A   1      35.761  29.611  29.378  1.00  0.00     0.014 A 
ATOM     37  C   UNL A   1      37.028  30.978  27.837  1.00  0.00     0.014 A 
ATOM     38  C   UNL A   1      36.939  29.299  30.060  1.00  0.00     0.010 A 
ATOM     39  C   UNL A   1      38.211  30.587  28.455  1.00  0.00     0.010 A 
ATOM     40  C   UNL A   1      38.180  29.749  29.580  1.00  0.00    -0.014 A 
BRANCH  40  41
ATOM     41  C   UNL A   1      39.455  29.354  30.233  1.00  0.00     0.031 A 
ATOM     42  C   UNL A   1      39.958  30.116  31.431  1.00  0.00     0.074 A 
ATOM     43  C   UNL A   1      40.193  28.357  29.706  1.00  0.00     0.049 A 
ATOM     44  N   UNL A   1      41.079  29.972  32.089  1.00  0.00    -0.248 NA
ATOM     45  C   UNL A   1      39.104  31.204  31.937  1.00  0.00     0.031 C 
ATOM     46  C   UNL A   1      39.840  27.583  28.514  1.00  0.00     0.029 A 
ATOM     47  N   UNL A   1      41.401  27.833  30.092  1.00  0.00    -0.354 N 
ATOM     48  C   UNL A   1      41.075  30.958  33.069  1.00  0.00     0.074 A 
ATOM     49  C   UNL A   1      39.864  31.728  32.889  1.00  0.00     0.031 C 
ATOM     50  C   UNL A   1      40.798  26.671  28.279  1.00  0.00     0.029 A 
ATOM     51  C   UNL A   1      41.855  26.824  29.273  1.00  0.00     0.049 A 
ATOM     52  H   UNL A   1      41.898  28.149  30.882  1.00  0.00     0.167 HD
ATOM     53  C   UNL A   1      41.987  31.188  34.044  1.00  0.00     0.037 A 
ATOM     54  C   UNL A   1      42.999  26.114  29.309  1.00  0.00     0.037 A 
ATOM     55  C   UNL A   1      43.174  30.396  34.235  1.00  0.00     0.049 A 
ATOM     56  C   UNL A   1      43.993  26.383  30.407  1.00  0.00     0.074 A 
ATOM     57  C   UNL A   1      44.121  30.498  35.239  1.00  0.00     0.029 A 
ATOM     58  N   UNL A   1      43.583  29.363  33.403  1.00  0.00    -0.354 N 
ATOM     59  N   UNL A   1      43.932  27.266  31.375  1.00  0.00    -0.248 NA
ATOM     60  C   UNL A   1      45.207  25.556  30.423  1.00  0.00     0.031 C 
ATOM     61  C   UNL A   1      45.133  29.568  34.982  1.00  0.00     0.029 A 
ATOM     62  C   UNL A   1      44.784  28.841  33.854  1.00  0.00     0.049 A 
ATOM     63  H   UNL A   1      43.093  29.050  32.609  1.00  0.00     0.167 HD
ATOM     64  C   UNL A   1      45.085  27.082  32.132  1.00  0.00     0.074 A 
ATOM     65  C   UNL A   1      45.816  25.993  31.517  1.00  0.00     0.031 C 
ATOM     66  C   UNL A   1      45.499  27.751  33.236  1.00  0.00     0.037 A 
BRANCH  53  67
ATOM     67  C   UNL A   1      41.742  32.338  34.982  1.00  0.00     0.058 A 
ATOM     68  C   UNL A   1      42.268  33.618  34.741  1.00  0.00     0.135 A 
ATOM     69  C   UNL A   1      40.922  32.173  36.111  1.00  0.00     0.135 A 
ATOM     70  F   UNL A   1      43.072  33.832  33.686  1.00  0.00    -0.206 F 
ATOM     71  C   UNL A   1      42.011  34.684  35.596  1.00  0.00     0.059 A 
ATOM     72  C   UNL A   1      40.625  33.232  36.962  1.00  0.00     0.059 A 
ATOM     73  F   UNL A   1      40.393  30.971  36.391  1.00  0.00    -0.206 F 
ATOM     74  C   UNL A   1      41.184  34.483  36.703  1.00  0.00     0.060 A 
BRANCH  74  75
ATOM     75  S   UNL A   1      40.842  35.883  37.789  1.00  0.00     0.124 S 
ATOM     76  O   UNL A   1      42.160  36.501  37.891  1.00  0.00    -0.237 OA
ATOM     77  O   UNL A   1      39.848  36.632  37.025  1.00  0.00    -0.237 OA
ATOM     78  O   UNL A   1      40.348  35.255  39.010  1.00  0.00    -0.744 OA
ENDBRANCH  74  75
ENDBRANCH  53  67
BRANCH  54  79
ATOM     79  C   UNL A   1      43.264  25.076  28.275  1.00  0.00     0.058 A 
ATOM     80  C   UNL A   1      42.893  23.738  28.478  1.00  0.00     0.135 A 
ATOM     81  C   UNL A   1      43.892  25.402  27.062  1.00  0.00     0.135 A 
ATOM     82  F   UNL A   1      42.296  23.373  29.622  1.00  0.00    -0.206 F 
ATOM     83  C   UNL A   1      43.157  22.756  27.527  1.00  0.00     0.059 A 
ATOM     84  C   UNL A   1      44.138  24.444  26.084  1.00  0.00     0.059 A 
ATOM     85  F   UNL A   1      44.251  26.670  26.809  1.00  0.00    -0.206 F 
ATOM     86  C   UNL A   1      43.778  23.120  26.331  1.00  0.00     0.060 A 
BRANCH  86  87
ATOM     87  S   UNL A   1      44.083  21.844  25.090  1.00  0.00     0.124 S 
ATOM     88  O   UNL A   1      43.083  20.844  25.445  1.00  0.00    -0.237 OA
ATOM     89  O   UNL A   1      43.851  22.567  23.844  1.00  0.00    -0.237 OA
ATOM     90  O   UNL A   1      45.471  21.462  25.336  1.00  0.00    -0.744 OA
ENDBRANCH  86  87
ENDBRANCH  54  79
BRANCH  66  91
ATOM     91  C   UNL A   1      46.783  27.305  33.879  1.00  0.00     0.058 A 
ATOM     92  C   UNL A   1      48.018  27.892  33.558  1.00  0.00     0.135 A 
ATOM     93  C   UNL A   1      46.769  26.313  34.875  1.00  0.00     0.135 A 
ATOM     94  F   UNL A   1      48.089  28.839  32.610  1.00  0.00    -0.206 F 
ATOM     95  C   UNL A   1      49.196  27.493  34.182  1.00  0.00     0.059 A 
ATOM     96  C   UNL A   1      47.931  25.924  35.534  1.00  0.00     0.059 A 
ATOM     97  F   UNL A   1      45.615  25.727  35.230  1.00  0.00    -0.206 F 
ATOM     98  C   UNL A   1      49.141  26.510  35.172  1.00  0.00     0.060 A 
BRANCH  98  99
ATOM     99  S   UNL A   1      50.673  26.028  35.997  1.00  0.00     0.124 S 
ATOM    100  O   UNL A   1      51.583  27.083  35.566  1.00  0.00    -0.237 OA
ATOM    101  O   UNL A   1      50.289  26.057  37.406  1.00  0.00    -0.237 OA
ATOM    102  O   UNL A   1      50.948  24.701  35.456  1.00  0.00    -0.744 OA
ENDBRANCH  98  99
ENDBRANCH  66  91
ENDBRANCH  40  41
ENDBRANCH  32  35
ENDBRANCH  30  31
ENDBRANCH  29  30
ENDBRANCH   1  29
TORSDOF 20
ENDMDL
