MODEL 1
REMARK VINA RESULT:      -7.4      0.000      0.000
REMARK SMILES CC(C)C[C@H](NC(=O)[C@@H](NC(=O)[C@H](C)NC(=O)CNC(=O)OCc1ccccc1)C(C)C)C(=O)NCCCNC(=O)c1ccc(-c2c3nc(c(-c4c(F)cc(S(=O)(=O)[O-])cc4F)c4ccc([nH]4)c(-c4c(F)cc(S(=O)(=O)[O-])cc4F)c4nc(c(-c5c(F)cc(S(=O)(=O)[O-])cc5F)c5ccc2[nH]5)C=C4)C=C3)cc1
REMARK SMILES IDX 6 1 7 2 8 3 5 5 4 6 2 7 1 8 3 9 33 10 34 11 35 12 36 14
REMARK SMILES IDX 37 15 38 16 39 17 40 18 41 20 42 21 43 22 107 23 44 24
REMARK SMILES IDX 106 25 45 26 46 27 47 28 100 29 48 30 105 31 99 32 101 33
REMARK SMILES IDX 49 34 104 35 98 36 97 37 50 39 84 40 63 41 83 42 64 43 67 44
REMARK SMILES IDX 82 45 102 46 65 47 66 48 81 50 103 51 68 52 51 53 52 54
REMARK SMILES IDX 61 55 53 56 54 57 60 58 62 59 55 60 56 61 57 62 58 63 59 64
REMARK SMILES IDX 85 65 86 66 95 67 87 68 88 69 94 70 96 71 89 72 90 73 91 74
REMARK SMILES IDX 92 75 93 76 69 77 70 78 79 79 71 80 72 81 78 82 80 83 73 84
REMARK SMILES IDX 74 85 75 86 76 87 77 88 9 89 10 90 11 91 12 93 13 94 14 95
REMARK SMILES IDX 15 96 16 97 17 99 18 100 19 101 20 102 21 104 22 105 23 106
REMARK SMILES IDX 24 107 25 108 29 109 26 110 28 111 27 112 30 113 31 114
REMARK SMILES IDX 32 115
REMARK H PARENT 6 4 35 13 39 19 101 38 67 49 10 92 15 98 19 103
REMARK Flexibility Score: inf
ROOT
ATOM      1  N   UNL A   1      43.067  32.304  32.771  1.00  0.00    -0.343 N 
ATOM      2  C   UNL A   1      43.431  30.986  32.863  1.00  0.00     0.243 C 
ATOM      3  O   UNL A   1      44.643  30.791  33.025  1.00  0.00    -0.273 OA
ATOM      4  H   UNL A   1      43.808  32.940  32.649  1.00  0.00     0.164 HD
ENDROOT
BRANCH   1   5
ATOM      5  C   UNL A   1      41.745  32.893  32.829  1.00  0.00     0.171 C 
BRANCH   5   6
ATOM      6  C   UNL A   1      41.110  33.366  34.165  1.00  0.00     0.038 C 
BRANCH   6   7
ATOM      7  C   UNL A   1      40.255  32.501  35.099  1.00  0.00    -0.015 C 
ATOM      8  C   UNL A   1      40.741  32.420  36.546  1.00  0.00     0.007 C 
ATOM      9  C   UNL A   1      38.852  33.150  35.133  1.00  0.00     0.007 C 
ENDBRANCH   6   7
ENDBRANCH   5   6
BRANCH   5  10
ATOM     10  C   UNL A   1      41.701  34.148  31.967  1.00  0.00     0.242 C 
ATOM     11  O   UNL A   1      42.744  34.788  31.821  1.00  0.00    -0.273 OA
ATOM     12  N   UNL A   1      40.610  34.473  31.209  1.00  0.00    -0.354 N 
ATOM     13  H   UNL A   1      40.477  35.433  31.035  1.00  0.00     0.163 HD
BRANCH  12  14
ATOM     14  C   UNL A   1      39.624  33.581  30.628  1.00  0.00     0.117 C 
BRANCH  14  15
ATOM     15  C   UNL A   1      38.178  33.949  30.906  1.00  0.00     0.042 C 
BRANCH  15  16
ATOM     16  C   UNL A   1      37.457  33.020  31.874  1.00  0.00     0.118 C 
BRANCH  16  17
ATOM     17  N   UNL A   1      36.370  32.282  31.250  1.00  0.00    -0.352 N 
ATOM     18  C   UNL A   1      36.411  31.260  30.331  1.00  0.00     0.251 C 
ATOM     19  H   UNL A   1      35.467  32.556  31.528  1.00  0.00     0.163 HD
ATOM     20  O   UNL A   1      35.375  30.886  29.789  1.00  0.00    -0.269 OA
BRANCH  18  21
ATOM     21  C   UNL A   1      37.702  30.630  29.969  1.00  0.00     0.039 A 
ATOM     22  C   UNL A   1      38.043  30.519  28.618  1.00  0.00     0.014 A 
ATOM     23  C   UNL A   1      38.568  30.141  30.949  1.00  0.00     0.014 A 
ATOM     24  C   UNL A   1      39.291  30.003  28.257  1.00  0.00     0.010 A 
ATOM     25  C   UNL A   1      39.841  29.694  30.593  1.00  0.00     0.010 A 
ATOM     26  C   UNL A   1      40.220  29.630  29.244  1.00  0.00    -0.014 A 
BRANCH  26  27
ATOM     27  C   UNL A   1      41.599  29.209  28.883  1.00  0.00     0.031 A 
ATOM     28  C   UNL A   1      42.720  30.210  28.846  1.00  0.00     0.074 A 
ATOM     29  C   UNL A   1      41.826  27.931  28.516  1.00  0.00     0.049 A 
ATOM     30  N   UNL A   1      43.968  30.039  28.486  1.00  0.00    -0.248 NA
ATOM     31  C   UNL A   1      42.396  31.587  29.247  1.00  0.00     0.031 C 
ATOM     32  C   UNL A   1      40.814  26.874  28.461  1.00  0.00     0.029 A 
ATOM     33  N   UNL A   1      42.978  27.305  28.106  1.00  0.00    -0.354 N 
ATOM     34  C   UNL A   1      44.572  31.284  28.604  1.00  0.00     0.074 A 
ATOM     35  C   UNL A   1      43.545  32.211  29.028  1.00  0.00     0.031 C 
ATOM     36  C   UNL A   1      41.391  25.731  28.059  1.00  0.00     0.029 A 
ATOM     37  C   UNL A   1      42.805  25.978  27.791  1.00  0.00     0.049 A 
ATOM     38  H   UNL A   1      43.846  27.764  28.043  1.00  0.00     0.167 HD
ATOM     39  C   UNL A   1      45.868  31.620  28.397  1.00  0.00     0.037 A 
ATOM     40  C   UNL A   1      43.679  25.065  27.327  1.00  0.00     0.037 A 
ATOM     41  C   UNL A   1      46.894  30.691  27.996  1.00  0.00     0.049 A 
ATOM     42  C   UNL A   1      45.111  25.464  27.097  1.00  0.00     0.074 A 
ATOM     43  C   UNL A   1      48.248  30.925  27.825  1.00  0.00     0.029 A 
ATOM     44  N   UNL A   1      46.681  29.353  27.697  1.00  0.00    -0.354 N 
ATOM     45  N   UNL A   1      45.678  26.632  27.278  1.00  0.00    -0.248 NA
ATOM     46  C   UNL A   1      46.020  24.422  26.602  1.00  0.00     0.031 C 
ATOM     47  C   UNL A   1      48.846  29.739  27.385  1.00  0.00     0.029 A 
ATOM     48  C   UNL A   1      47.873  28.755  27.322  1.00  0.00     0.049 A 
ATOM     49  H   UNL A   1      45.810  28.896  27.747  1.00  0.00     0.167 HD
ATOM     50  C   UNL A   1      47.015  26.462  26.936  1.00  0.00     0.074 A 
ATOM     51  C   UNL A   1      47.174  25.074  26.550  1.00  0.00     0.031 C 
ATOM     52  C   UNL A   1      48.018  27.373  26.938  1.00  0.00     0.037 A 
BRANCH  39  53
ATOM     53  C   UNL A   1      46.256  33.057  28.606  1.00  0.00     0.058 A 
ATOM     54  C   UNL A   1      46.232  33.985  27.552  1.00  0.00     0.135 A 
ATOM     55  C   UNL A   1      46.621  33.523  29.880  1.00  0.00     0.135 A 
ATOM     56  F   UNL A   1      45.903  33.589  26.312  1.00  0.00    -0.206 F 
ATOM     57  C   UNL A   1      46.584  35.316  27.747  1.00  0.00     0.059 A 
ATOM     58  C   UNL A   1      46.952  34.856  30.103  1.00  0.00     0.059 A 
ATOM     59  F   UNL A   1      46.659  32.678  30.922  1.00  0.00    -0.206 F 
ATOM     60  C   UNL A   1      46.946  35.742  29.026  1.00  0.00     0.060 A 
BRANCH  60  61
ATOM     61  S   UNL A   1      47.401  37.473  29.263  1.00  0.00     0.124 S 
ATOM     62  O   UNL A   1      46.539  37.849  30.379  1.00  0.00    -0.237 OA
ATOM     63  O   UNL A   1      48.827  37.383  29.565  1.00  0.00    -0.237 OA
ATOM     64  O   UNL A   1      47.073  38.089  27.981  1.00  0.00    -0.744 OA
ENDBRANCH  60  61
ENDBRANCH  39  53
BRANCH  40  65
ATOM     65  C   UNL A   1      43.226  23.675  27.060  1.00  0.00     0.058 A 
ATOM     66  C   UNL A   1      43.068  22.755  28.106  1.00  0.00     0.135 A 
ATOM     67  C   UNL A   1      42.926  23.243  25.758  1.00  0.00     0.135 A 
ATOM     68  F   UNL A   1      43.350  23.120  29.367  1.00  0.00    -0.206 F 
ATOM     69  C   UNL A   1      42.639  21.452  27.874  1.00  0.00     0.059 A 
ATOM     70  C   UNL A   1      42.475  21.952  25.502  1.00  0.00     0.059 A 
ATOM     71  F   UNL A   1      43.047  24.090  24.725  1.00  0.00    -0.206 F 
ATOM     72  C   UNL A   1      42.343  21.061  26.567  1.00  0.00     0.060 A 
BRANCH  72  73
ATOM     73  S   UNL A   1      41.733  19.386  26.280  1.00  0.00     0.124 S 
ATOM     74  O   UNL A   1      42.501  18.991  25.106  1.00  0.00    -0.237 OA
ATOM     75  O   UNL A   1      42.083  18.713  27.528  1.00  0.00    -0.237 OA
ATOM     76  O   UNL A   1      40.302  19.582  26.066  1.00  0.00    -0.744 OA
ENDBRANCH  72  73
ENDBRANCH  40  65
BRANCH  52  77
ATOM     77  C   UNL A   1      49.383  26.898  26.527  1.00  0.00     0.058 A 
ATOM     78  C   UNL A   1      50.270  26.324  27.452  1.00  0.00     0.135 A 
ATOM     79  C   UNL A   1      49.790  26.973  25.185  1.00  0.00     0.135 A 
ATOM     80  F   UNL A   1      49.931  26.238  28.748  1.00  0.00    -0.206 F 
ATOM     81  C   UNL A   1      51.521  25.857  27.063  1.00  0.00     0.059 A 
ATOM     82  C   UNL A   1      51.029  26.490  24.771  1.00  0.00     0.059 A 
ATOM     83  F   UNL A   1      48.977  27.504  24.260  1.00  0.00    -0.206 F 
ATOM     84  C   UNL A   1      51.891  25.943  25.720  1.00  0.00     0.060 A 
BRANCH  84  85
ATOM     85  S   UNL A   1      53.502  25.298  25.221  1.00  0.00     0.124 S 
ATOM     86  O   UNL A   1      54.394  25.985  26.151  1.00  0.00    -0.237 OA
ATOM     87  O   UNL A   1      53.347  23.863  25.436  1.00  0.00    -0.237 OA
ATOM     88  O   UNL A   1      53.615  25.707  23.825  1.00  0.00    -0.744 OA
ENDBRANCH  84  85
ENDBRANCH  52  77
ENDBRANCH  26  27
ENDBRANCH  18  21
ENDBRANCH  16  17
ENDBRANCH  15  16
ENDBRANCH  14  15
ENDBRANCH  12  14
ENDBRANCH   5  10
ENDBRANCH   1   5
BRANCH   2  89
ATOM     89  C   UNL A   1      42.484  29.742  32.625  1.00  0.00     0.174 C 
BRANCH  89  90
ATOM     90  N   UNL A   1      43.125  28.636  31.879  1.00  0.00    -0.342 N 
ATOM     91  C   UNL A   1      43.995  27.612  32.003  1.00  0.00     0.242 C 
ATOM     92  H   UNL A   1      42.796  28.656  30.951  1.00  0.00     0.164 HD
ATOM     93  O   UNL A   1      43.909  26.804  31.056  1.00  0.00    -0.273 OA
BRANCH  91  94
ATOM     94  C   UNL A   1      44.963  27.223  33.167  1.00  0.00     0.168 C 
ATOM     95  C   UNL A   1      44.191  26.583  34.326  1.00  0.00     0.041 C 
BRANCH  94  96
ATOM     96  N   UNL A   1      46.013  28.088  33.694  1.00  0.00    -0.343 N 
ATOM     97  C   UNL A   1      47.251  27.762  34.173  1.00  0.00     0.240 C 
ATOM     98  H   UNL A   1      45.798  29.049  33.706  1.00  0.00     0.164 HD
ATOM     99  O   UNL A   1      48.054  28.690  34.334  1.00  0.00    -0.273 OA
BRANCH  97 100
ATOM    100  C   UNL A   1      47.668  26.316  34.475  1.00  0.00     0.219 C 
BRANCH 100 101
ATOM    101  N   UNL A   1      47.578  26.093  35.900  1.00  0.00    -0.312 N 
ATOM    102  C   UNL A   1      46.935  25.044  36.482  1.00  0.00     0.407 C 
ATOM    103  H   UNL A   1      48.012  26.748  36.493  1.00  0.00     0.167 HD
ATOM    104  O   UNL A   1      46.612  25.082  37.659  1.00  0.00    -0.225 OA
BRANCH 102 105
ATOM    105  O   UNL A   1      46.693  24.032  35.612  1.00  0.00    -0.445 OA
BRANCH 105 106
ATOM    106  C   UNL A   1      45.368  23.486  35.614  1.00  0.00     0.270 C 
BRANCH 106 107
ATOM    107  C   UNL A   1      45.452  22.023  35.954  1.00  0.00    -0.011 A 
ATOM    108  C   UNL A   1      45.937  21.630  37.209  1.00  0.00     0.007 A 
ATOM    109  C   UNL A   1      45.221  21.052  34.970  1.00  0.00     0.007 A 
ATOM    110  C   UNL A   1      46.248  20.296  37.455  1.00  0.00     0.000 A 
ATOM    111  C   UNL A   1      45.521  19.715  35.225  1.00  0.00     0.000 A 
ATOM    112  C   UNL A   1      46.050  19.341  36.461  1.00  0.00     0.000 A 
ENDBRANCH 106 107
ENDBRANCH 105 106
ENDBRANCH 102 105
ENDBRANCH 100 101
ENDBRANCH  97 100
ENDBRANCH  94  96
ENDBRANCH  91  94
ENDBRANCH  89  90
BRANCH  89 113
ATOM    113  C   UNL A   1      41.580  29.379  33.819  1.00  0.00     0.015 C 
ATOM    114  C   UNL A   1      40.919  27.999  33.717  1.00  0.00     0.010 C 
ATOM    115  C   UNL A   1      42.369  29.377  35.140  1.00  0.00     0.010 C 
ENDBRANCH  89 113
ENDBRANCH   2  89
TORSDOF 26
ENDMDL
MODEL 2
REMARK VINA RESULT:      -6.6      2.356      4.246
REMARK SMILES CC(C)C[C@H](NC(=O)[C@@H](NC(=O)[C@H](C)NC(=O)CNC(=O)OCc1ccccc1)C(C)C)C(=O)NCCCNC(=O)c1ccc(-c2c3nc(c(-c4c(F)cc(S(=O)(=O)[O-])cc4F)c4ccc([nH]4)c(-c4c(F)cc(S(=O)(=O)[O-])cc4F)c4nc(c(-c5c(F)cc(S(=O)(=O)[O-])cc5F)c5ccc2[nH]5)C=C4)C=C3)cc1
REMARK SMILES IDX 6 1 7 2 8 3 5 5 4 6 2 7 1 8 3 9 33 10 34 11 35 12 36 14
REMARK SMILES IDX 37 15 38 16 39 17 40 18 41 20 42 21 43 22 107 23 44 24
REMARK SMILES IDX 106 25 45 26 46 27 47 28 100 29 48 30 105 31 99 32 101 33
REMARK SMILES IDX 49 34 104 35 98 36 97 37 50 39 84 40 63 41 83 42 64 43 67 44
REMARK SMILES IDX 82 45 102 46 65 47 66 48 81 50 103 51 68 52 51 53 52 54
REMARK SMILES IDX 61 55 53 56 54 57 60 58 62 59 55 60 56 61 57 62 58 63 59 64
REMARK SMILES IDX 85 65 86 66 95 67 87 68 88 69 94 70 96 71 89 72 90 73 91 74
REMARK SMILES IDX 92 75 93 76 69 77 70 78 79 79 71 80 72 81 78 82 80 83 73 84
REMARK SMILES IDX 74 85 75 86 76 87 77 88 9 89 10 90 11 91 12 93 13 94 14 95
REMARK SMILES IDX 15 96 16 97 17 99 18 100 19 101 20 102 21 104 22 105 23 106
REMARK SMILES IDX 24 107 25 108 29 109 26 110 28 111 27 112 30 113 31 114
REMARK SMILES IDX 32 115
REMARK H PARENT 6 4 35 13 39 19 101 38 67 49 10 92 15 98 19 103
REMARK Flexibility Score: inf
ROOT
ATOM      1  N   UNL A   1      43.411  32.590  33.069  1.00  0.00    -0.343 N 
ATOM      2  C   UNL A   1      43.954  31.336  33.175  1.00  0.00     0.243 C 
ATOM      3  O   UNL A   1      45.190  31.308  33.249  1.00  0.00    -0.273 OA
ATOM      4  H   UNL A   1      44.050  33.312  32.868  1.00  0.00     0.164 HD
ENDROOT
BRANCH   1   5
ATOM      5  C   UNL A   1      42.029  33.003  33.209  1.00  0.00     0.171 C 
BRANCH   5   6
ATOM      6  C   UNL A   1      41.395  33.302  34.595  1.00  0.00     0.038 C 
BRANCH   6   7
ATOM      7  C   UNL A   1      41.881  32.739  35.936  1.00  0.00    -0.015 C 
ATOM      8  C   UNL A   1      42.060  33.767  37.052  1.00  0.00     0.007 C 
ATOM      9  C   UNL A   1      40.796  31.744  36.411  1.00  0.00     0.007 C 
ENDBRANCH   6   7
ENDBRANCH   5   6
BRANCH   5  10
ATOM     10  C   UNL A   1      41.797  34.297  32.441  1.00  0.00     0.242 C 
ATOM     11  O   UNL A   1      42.760  35.044  32.258  1.00  0.00    -0.273 OA
ATOM     12  N   UNL A   1      40.622  34.557  31.793  1.00  0.00    -0.354 N 
ATOM     13  H   UNL A   1      40.385  35.508  31.696  1.00  0.00     0.163 HD
BRANCH  12  14
ATOM     14  C   UNL A   1      39.678  33.609  31.231  1.00  0.00     0.117 C 
BRANCH  14  15
ATOM     15  C   UNL A   1      38.215  33.967  31.418  1.00  0.00     0.042 C 
BRANCH  15  16
ATOM     16  C   UNL A   1      37.425  32.995  32.285  1.00  0.00     0.118 C 
BRANCH  16  17
ATOM     17  N   UNL A   1      36.339  32.348  31.566  1.00  0.00    -0.352 N 
ATOM     18  C   UNL A   1      36.379  31.415  30.557  1.00  0.00     0.251 C 
ATOM     19  H   UNL A   1      35.435  32.619  31.846  1.00  0.00     0.163 HD
ATOM     20  O   UNL A   1      35.350  31.121  29.957  1.00  0.00    -0.269 OA
BRANCH  18  21
ATOM     21  C   UNL A   1      37.664  30.786  30.170  1.00  0.00     0.039 A 
ATOM     22  C   UNL A   1      38.061  30.832  28.831  1.00  0.00     0.014 A 
ATOM     23  C   UNL A   1      38.469  30.145  31.115  1.00  0.00     0.014 A 
ATOM     24  C   UNL A   1      39.307  30.318  28.458  1.00  0.00     0.010 A 
ATOM     25  C   UNL A   1      39.741  29.698  30.756  1.00  0.00     0.010 A 
ATOM     26  C   UNL A   1      40.178  29.789  29.427  1.00  0.00    -0.014 A 
BRANCH  26  27
ATOM     27  C   UNL A   1      41.557  29.364  29.071  1.00  0.00     0.031 A 
ATOM     28  C   UNL A   1      42.679  30.364  29.027  1.00  0.00     0.074 A 
ATOM     29  C   UNL A   1      41.784  28.083  28.715  1.00  0.00     0.049 A 
ATOM     30  N   UNL A   1      43.926  30.189  28.670  1.00  0.00    -0.248 NA
ATOM     31  C   UNL A   1      42.354  31.745  29.416  1.00  0.00     0.031 C 
ATOM     32  C   UNL A   1      40.770  27.026  28.667  1.00  0.00     0.029 A 
ATOM     33  N   UNL A   1      42.935  27.454  28.311  1.00  0.00    -0.354 N 
ATOM     34  C   UNL A   1      44.531  31.435  28.779  1.00  0.00     0.074 A 
ATOM     35  C   UNL A   1      43.505  32.366  29.194  1.00  0.00     0.031 C 
ATOM     36  C   UNL A   1      41.348  25.880  28.276  1.00  0.00     0.029 A 
ATOM     37  C   UNL A   1      42.762  26.124  28.007  1.00  0.00     0.049 A 
ATOM     38  H   UNL A   1      43.804  27.911  28.246  1.00  0.00     0.167 HD
ATOM     39  C   UNL A   1      45.828  31.768  28.572  1.00  0.00     0.037 A 
ATOM     40  C   UNL A   1      43.636  25.206  27.552  1.00  0.00     0.037 A 
ATOM     41  C   UNL A   1      46.854  30.836  28.179  1.00  0.00     0.049 A 
ATOM     42  C   UNL A   1      45.068  25.602  27.321  1.00  0.00     0.074 A 
ATOM     43  C   UNL A   1      48.208  31.068  28.008  1.00  0.00     0.029 A 
ATOM     44  N   UNL A   1      46.640  29.496  27.891  1.00  0.00    -0.354 N 
ATOM     45  N   UNL A   1      45.636  26.772  27.493  1.00  0.00    -0.248 NA
ATOM     46  C   UNL A   1      45.978  24.556  26.835  1.00  0.00     0.031 C 
ATOM     47  C   UNL A   1      48.806  29.878  27.579  1.00  0.00     0.029 A 
ATOM     48  C   UNL A   1      47.832  28.894  27.522  1.00  0.00     0.049 A 
ATOM     49  H   UNL A   1      45.769  29.039  27.943  1.00  0.00     0.167 HD
ATOM     50  C   UNL A   1      46.973  26.598  27.154  1.00  0.00     0.074 A 
ATOM     51  C   UNL A   1      47.133  25.207  26.780  1.00  0.00     0.031 C 
ATOM     52  C   UNL A   1      47.978  27.508  27.150  1.00  0.00     0.037 A 
BRANCH  39  53
ATOM     53  C   UNL A   1      46.216  33.207  28.769  1.00  0.00     0.058 A 
ATOM     54  C   UNL A   1      46.139  34.139  27.721  1.00  0.00     0.135 A 
ATOM     55  C   UNL A   1      46.636  33.669  30.027  1.00  0.00     0.135 A 
ATOM     56  F   UNL A   1      45.757  33.747  26.495  1.00  0.00    -0.206 F 
ATOM     57  C   UNL A   1      46.492  35.472  27.906  1.00  0.00     0.059 A 
ATOM     58  C   UNL A   1      46.970  35.003  30.241  1.00  0.00     0.059 A 
ATOM     59  F   UNL A   1      46.727  32.821  31.063  1.00  0.00    -0.206 F 
ATOM     60  C   UNL A   1      46.909  35.894  29.169  1.00  0.00     0.060 A 
BRANCH  60  61
ATOM     61  S   UNL A   1      47.364  37.627  29.393  1.00  0.00     0.124 S 
ATOM     62  O   UNL A   1      46.267  38.110  30.226  1.00  0.00    -0.237 OA
ATOM     63  O   UNL A   1      48.664  37.527  30.052  1.00  0.00    -0.237 OA
ATOM     64  O   UNL A   1      47.395  38.149  28.030  1.00  0.00    -0.744 OA
ENDBRANCH  60  61
ENDBRANCH  39  53
BRANCH  40  65
ATOM     65  C   UNL A   1      43.182  23.814  27.296  1.00  0.00     0.058 A 
ATOM     66  C   UNL A   1      42.923  22.935  28.356  1.00  0.00     0.135 A 
ATOM     67  C   UNL A   1      42.983  23.341  25.989  1.00  0.00     0.135 A 
ATOM     68  F   UNL A   1      43.106  23.340  29.623  1.00  0.00    -0.206 F 
ATOM     69  C   UNL A   1      42.492  21.631  28.133  1.00  0.00     0.059 A 
ATOM     70  C   UNL A   1      42.533  22.049  25.741  1.00  0.00     0.059 A 
ATOM     71  F   UNL A   1      43.204  24.150  24.941  1.00  0.00    -0.206 F 
ATOM     72  C   UNL A   1      42.298  21.198  26.821  1.00  0.00     0.060 A 
BRANCH  72  73
ATOM     73  S   UNL A   1      41.685  19.522  26.541  1.00  0.00     0.124 S 
ATOM     74  O   UNL A   1      40.243  19.720  26.619  1.00  0.00    -0.237 OA
ATOM     75  O   UNL A   1      42.218  19.217  25.216  1.00  0.00    -0.237 OA
ATOM     76  O   UNL A   1      42.280  18.761  27.636  1.00  0.00    -0.744 OA
ENDBRANCH  72  73
ENDBRANCH  40  65
BRANCH  52  77
ATOM     77  C   UNL A   1      49.343  27.029  26.745  1.00  0.00     0.058 A 
ATOM     78  C   UNL A   1      50.261  26.545  27.690  1.00  0.00     0.135 A 
ATOM     79  C   UNL A   1      49.719  27.008  25.392  1.00  0.00     0.135 A 
ATOM     80  F   UNL A   1      49.953  26.553  28.997  1.00  0.00    -0.206 F 
ATOM     81  C   UNL A   1      51.513  26.073  27.309  1.00  0.00     0.059 A 
ATOM     82  C   UNL A   1      50.958  26.518  24.987  1.00  0.00     0.059 A 
ATOM     83  F   UNL A   1      48.874  27.451  24.448  1.00  0.00    -0.206 F 
ATOM     84  C   UNL A   1      51.852  26.062  25.955  1.00  0.00     0.060 A 
BRANCH  84  85
ATOM     85  S   UNL A   1      53.464  25.412  25.470  1.00  0.00     0.124 S 
ATOM     86  O   UNL A   1      54.306  25.857  26.577  1.00  0.00    -0.237 OA
ATOM     87  O   UNL A   1      53.216  23.975  25.401  1.00  0.00    -0.237 OA
ATOM     88  O   UNL A   1      53.720  26.059  24.187  1.00  0.00    -0.744 OA
ENDBRANCH  84  85
ENDBRANCH  52  77
ENDBRANCH  26  27
ENDBRANCH  18  21
ENDBRANCH  16  17
ENDBRANCH  15  16
ENDBRANCH  14  15
ENDBRANCH  12  14
ENDBRANCH   5  10
ENDBRANCH   1   5
BRANCH   2  89
ATOM     89  C   UNL A   1      43.166  29.969  33.053  1.00  0.00     0.174 C 
BRANCH  89  90
ATOM     90  N   UNL A   1      43.668  29.085  31.977  1.00  0.00    -0.342 N 
ATOM     91  C   UNL A   1      44.788  28.528  31.471  1.00  0.00     0.242 C 
ATOM     92  H   UNL A   1      42.902  28.797  31.429  1.00  0.00     0.164 HD
ATOM     93  O   UNL A   1      44.536  27.588  30.690  1.00  0.00    -0.273 OA
BRANCH  91  94
ATOM     94  C   UNL A   1      46.296  28.780  31.798  1.00  0.00     0.168 C 
ATOM     95  C   UNL A   1      47.193  27.838  30.986  1.00  0.00     0.041 C 
BRANCH  94  96
ATOM     96  N   UNL A   1      46.836  28.934  33.144  1.00  0.00    -0.343 N 
ATOM     97  C   UNL A   1      47.882  29.698  33.581  1.00  0.00     0.240 C 
ATOM     98  H   UNL A   1      46.381  28.409  33.842  1.00  0.00     0.164 HD
ATOM     99  O   UNL A   1      47.994  29.854  34.803  1.00  0.00    -0.273 OA
BRANCH  97 100
ATOM    100  C   UNL A   1      48.870  30.376  32.621  1.00  0.00     0.219 C 
BRANCH 100 101
ATOM    101  N   UNL A   1      50.156  30.478  33.271  1.00  0.00    -0.312 N 
ATOM    102  C   UNL A   1      51.351  30.230  32.669  1.00  0.00     0.407 C 
ATOM    103  H   UNL A   1      50.169  30.745  34.218  1.00  0.00     0.167 HD
ATOM    104  O   UNL A   1      52.353  30.011  33.332  1.00  0.00    -0.225 OA
BRANCH 102 105
ATOM    105  O   UNL A   1      51.264  30.229  31.315  1.00  0.00    -0.445 OA
BRANCH 105 106
ATOM    106  C   UNL A   1      52.242  31.003  30.609  1.00  0.00     0.270 C 
BRANCH 106 107
ATOM    107  C   UNL A   1      51.527  31.956  29.690  1.00  0.00    -0.011 A 
ATOM    108  C   UNL A   1      51.829  31.958  28.321  1.00  0.00     0.007 A 
ATOM    109  C   UNL A   1      50.701  32.959  30.213  1.00  0.00     0.007 A 
ATOM    110  C   UNL A   1      51.365  32.980  27.501  1.00  0.00     0.000 A 
ATOM    111  C   UNL A   1      50.227  33.976  29.385  1.00  0.00     0.000 A 
ATOM    112  C   UNL A   1      50.573  33.994  28.034  1.00  0.00     0.000 A 
ENDBRANCH 106 107
ENDBRANCH 105 106
ENDBRANCH 102 105
ENDBRANCH 100 101
ENDBRANCH  97 100
ENDBRANCH  94  96
ENDBRANCH  91  94
ENDBRANCH  89  90
BRANCH  89 113
ATOM    113  C   UNL A   1      42.777  29.324  34.397  1.00  0.00     0.015 C 
ATOM    114  C   UNL A   1      41.866  28.098  34.270  1.00  0.00     0.010 C 
ATOM    115  C   UNL A   1      44.019  28.853  35.173  1.00  0.00     0.010 C 
ENDBRANCH  89 113
ENDBRANCH   2  89
TORSDOF 26
ENDMDL
MODEL 3
REMARK VINA RESULT:      -6.5      3.833     13.172
REMARK SMILES CC(C)C[C@H](NC(=O)[C@@H](NC(=O)[C@H](C)NC(=O)CNC(=O)OCc1ccccc1)C(C)C)C(=O)NCCCNC(=O)c1ccc(-c2c3nc(c(-c4c(F)cc(S(=O)(=O)[O-])cc4F)c4ccc([nH]4)c(-c4c(F)cc(S(=O)(=O)[O-])cc4F)c4nc(c(-c5c(F)cc(S(=O)(=O)[O-])cc5F)c5ccc2[nH]5)C=C4)C=C3)cc1
REMARK SMILES IDX 6 1 7 2 8 3 5 5 4 6 2 7 1 8 3 9 33 10 34 11 35 12 36 14
REMARK SMILES IDX 37 15 38 16 39 17 40 18 41 20 42 21 43 22 107 23 44 24
REMARK SMILES IDX 106 25 45 26 46 27 47 28 100 29 48 30 105 31 99 32 101 33
REMARK SMILES IDX 49 34 104 35 98 36 97 37 50 39 84 40 63 41 83 42 64 43 67 44
REMARK SMILES IDX 82 45 102 46 65 47 66 48 81 50 103 51 68 52 51 53 52 54
REMARK SMILES IDX 61 55 53 56 54 57 60 58 62 59 55 60 56 61 57 62 58 63 59 64
REMARK SMILES IDX 85 65 86 66 95 67 87 68 88 69 94 70 96 71 89 72 90 73 91 74
REMARK SMILES IDX 92 75 93 76 69 77 70 78 79 79 71 80 72 81 78 82 80 83 73 84
REMARK SMILES IDX 74 85 75 86 76 87 77 88 9 89 10 90 11 91 12 93 13 94 14 95
REMARK SMILES IDX 15 96 16 97 17 99 18 100 19 101 20 102 21 104 22 105 23 106
REMARK SMILES IDX 24 107 25 108 29 109 26 110 28 111 27 112 30 113 31 114
REMARK SMILES IDX 32 115
REMARK H PARENT 6 4 35 13 39 19 101 38 67 49 10 92 15 98 19 103
REMARK Flexibility Score: inf
ROOT
ATOM      1  N   UNL A   1      50.277  27.296  23.294  1.00  0.00    -0.343 N 
ATOM      2  C   UNL A   1      49.096  26.821  23.800  1.00  0.00     0.243 C 
ATOM      3  O   UNL A   1      48.434  26.128  23.017  1.00  0.00    -0.273 OA
ATOM      4  H   UNL A   1      50.386  27.206  22.320  1.00  0.00     0.164 HD
ENDROOT
BRANCH   1   5
ATOM      5  C   UNL A   1      51.389  27.912  23.989  1.00  0.00     0.171 C 
BRANCH   5   6
ATOM      6  C   UNL A   1      52.789  27.245  24.061  1.00  0.00     0.038 C 
BRANCH   6   7
ATOM      7  C   UNL A   1      53.548  26.638  22.874  1.00  0.00    -0.015 C 
ATOM      8  C   UNL A   1      52.749  26.523  21.576  1.00  0.00     0.007 C 
ATOM      9  C   UNL A   1      54.737  27.583  22.587  1.00  0.00     0.007 C 
ENDBRANCH   6   7
ENDBRANCH   5   6
BRANCH   5  10
ATOM     10  C   UNL A   1      51.690  29.274  23.377  1.00  0.00     0.242 C 
ATOM     11  O   UNL A   1      51.249  29.514  22.251  1.00  0.00    -0.273 OA
ATOM     12  N   UNL A   1      52.256  30.287  24.099  1.00  0.00    -0.354 N 
ATOM     13  H   UNL A   1      52.787  30.938  23.585  1.00  0.00     0.163 HD
BRANCH  12  14
ATOM     14  C   UNL A   1      52.173  30.526  25.528  1.00  0.00     0.117 C 
BRANCH  14  15
ATOM     15  C   UNL A   1      53.497  30.478  26.268  1.00  0.00     0.042 C 
BRANCH  15  16
ATOM     16  C   UNL A   1      53.597  31.420  27.461  1.00  0.00     0.118 C 
BRANCH  16  17
ATOM     17  N   UNL A   1      53.974  30.740  28.690  1.00  0.00    -0.352 N 
ATOM     18  C   UNL A   1      53.270  30.575  29.859  1.00  0.00     0.251 C 
ATOM     19  H   UNL A   1      54.872  30.336  28.684  1.00  0.00     0.163 HD
ATOM     20  O   UNL A   1      53.833  30.121  30.851  1.00  0.00    -0.269 OA
BRANCH  18  21
ATOM     21  C   UNL A   1      51.845  30.970  29.937  1.00  0.00     0.039 A 
ATOM     22  C   UNL A   1      50.958  30.492  28.968  1.00  0.00     0.014 A 
ATOM     23  C   UNL A   1      51.382  31.814  30.949  1.00  0.00     0.014 A 
ATOM     24  C   UNL A   1      49.595  30.784  29.069  1.00  0.00     0.010 A 
ATOM     25  C   UNL A   1      50.013  32.046  31.090  1.00  0.00     0.010 A 
ATOM     26  C   UNL A   1      49.104  31.525  30.158  1.00  0.00    -0.014 A 
BRANCH  26  27
ATOM     27  C   UNL A   1      47.645  31.730  30.355  1.00  0.00     0.031 A 
ATOM     28  C   UNL A   1      46.803  30.665  31.001  1.00  0.00     0.074 A 
ATOM     29  C   UNL A   1      47.064  32.852  29.882  1.00  0.00     0.049 A 
ATOM     30  N   UNL A   1      45.507  30.639  31.190  1.00  0.00    -0.248 NA
ATOM     31  C   UNL A   1      47.503  29.464  31.480  1.00  0.00     0.031 C 
ATOM     32  C   UNL A   1      47.762  33.939  29.191  1.00  0.00     0.029 A 
ATOM     33  N   UNL A   1      45.753  33.259  29.897  1.00  0.00    -0.354 N 
ATOM     34  C   UNL A   1      45.235  29.420  31.796  1.00  0.00     0.074 A 
ATOM     35  C   UNL A   1      46.494  28.715  31.906  1.00  0.00     0.031 C 
ATOM     36  C   UNL A   1      46.877  34.894  28.865  1.00  0.00     0.029 A 
ATOM     37  C   UNL A   1      45.544  34.474  29.288  1.00  0.00     0.049 A 
ATOM     38  H   UNL A   1      45.031  32.731  30.307  1.00  0.00     0.167 HD
ATOM     39  C   UNL A   1      44.048  28.939  32.240  1.00  0.00     0.037 A 
ATOM     40  C   UNL A   1      44.408  35.168  29.081  1.00  0.00     0.037 A 
ATOM     41  C   UNL A   1      42.800  29.652  32.150  1.00  0.00     0.049 A 
ATOM     42  C   UNL A   1      43.102  34.611  29.574  1.00  0.00     0.074 A 
ATOM     43  C   UNL A   1      41.557  29.274  32.630  1.00  0.00     0.029 A 
ATOM     44  N   UNL A   1      42.631  30.884  31.535  1.00  0.00    -0.354 N 
ATOM     45  N   UNL A   1      42.875  33.484  30.205  1.00  0.00    -0.248 NA
ATOM     46  C   UNL A   1      41.899  35.417  29.329  1.00  0.00     0.031 C 
ATOM     47  C   UNL A   1      40.630  30.260  32.272  1.00  0.00     0.029 A 
ATOM     48  C   UNL A   1      41.303  31.271  31.604  1.00  0.00     0.049 A 
ATOM     49  H   UNL A   1      43.351  31.408  31.114  1.00  0.00     0.167 HD
ATOM     50  C   UNL A   1      41.506  33.454  30.448  1.00  0.00     0.074 A 
ATOM     51  C   UNL A   1      40.959  34.683  29.909  1.00  0.00     0.031 C 
ATOM     52  C   UNL A   1      40.769  32.496  31.061  1.00  0.00     0.037 A 
BRANCH  39  53
ATOM     53  C   UNL A   1      44.043  27.575  32.870  1.00  0.00     0.058 A 
ATOM     54  C   UNL A   1      44.003  26.407  32.091  1.00  0.00     0.135 A 
ATOM     55  C   UNL A   1      44.112  27.430  34.265  1.00  0.00     0.135 A 
ATOM     56  F   UNL A   1      43.922  26.489  30.753  1.00  0.00    -0.206 F 
ATOM     57  C   UNL A   1      44.005  25.144  32.674  1.00  0.00     0.059 A 
ATOM     58  C   UNL A   1      44.140  26.176  34.868  1.00  0.00     0.059 A 
ATOM     59  F   UNL A   1      44.153  28.513  35.056  1.00  0.00    -0.206 F 
ATOM     60  C   UNL A   1      44.070  25.038  34.064  1.00  0.00     0.060 A 
BRANCH  60  61
ATOM     61  S   UNL A   1      44.070  23.393  34.806  1.00  0.00     0.124 S 
ATOM     62  O   UNL A   1      44.811  23.631  36.041  1.00  0.00    -0.237 OA
ATOM     63  O   UNL A   1      42.644  23.121  34.965  1.00  0.00    -0.237 OA
ATOM     64  O   UNL A   1      44.753  22.571  33.811  1.00  0.00    -0.744 OA
ENDBRANCH  60  61
ENDBRANCH  39  53
BRANCH  40  65
ATOM     65  C   UNL A   1      44.459  36.478  28.380  1.00  0.00     0.058 A 
ATOM     66  C   UNL A   1      44.566  37.676  29.100  1.00  0.00     0.135 A 
ATOM     67  C   UNL A   1      44.418  36.558  26.979  1.00  0.00     0.135 A 
ATOM     68  F   UNL A   1      44.602  37.651  30.441  1.00  0.00    -0.206 F 
ATOM     69  C   UNL A   1      44.620  38.910  28.459  1.00  0.00     0.059 A 
ATOM     70  C   UNL A   1      44.492  37.777  26.314  1.00  0.00     0.059 A 
ATOM     71  F   UNL A   1      44.330  35.438  26.245  1.00  0.00    -0.206 F 
ATOM     72  C   UNL A   1      44.585  38.949  27.064  1.00  0.00     0.060 A 
BRANCH  72  73
ATOM     73  S   UNL A   1      44.712  40.550  26.238  1.00  0.00     0.124 S 
ATOM     74  O   UNL A   1      43.334  40.774  25.817  1.00  0.00    -0.237 OA
ATOM     75  O   UNL A   1      45.201  41.412  27.310  1.00  0.00    -0.237 OA
ATOM     76  O   UNL A   1      45.669  40.297  25.165  1.00  0.00    -0.744 OA
ENDBRANCH  72  73
ENDBRANCH  40  65
BRANCH  52  77
ATOM     77  C   UNL A   1      39.293  32.740  31.197  1.00  0.00     0.058 A 
ATOM     78  C   UNL A   1      38.773  33.534  32.232  1.00  0.00     0.135 A 
ATOM     79  C   UNL A   1      38.394  32.217  30.255  1.00  0.00     0.135 A 
ATOM     80  F   UNL A   1      39.591  34.050  33.163  1.00  0.00    -0.206 F 
ATOM     81  C   UNL A   1      37.409  33.785  32.338  1.00  0.00     0.059 A 
ATOM     82  C   UNL A   1      37.027  32.475  30.329  1.00  0.00     0.059 A 
ATOM     83  F   UNL A   1      38.840  31.460  29.241  1.00  0.00    -0.206 F 
ATOM     84  C   UNL A   1      36.544  33.252  31.381  1.00  0.00     0.060 A 
BRANCH  84  85
ATOM     85  S   UNL A   1      34.781  33.617  31.508  1.00  0.00     0.124 S 
ATOM     86  O   UNL A   1      34.791  34.856  32.279  1.00  0.00    -0.237 OA
ATOM     87  O   UNL A   1      34.384  33.744  30.109  1.00  0.00    -0.237 OA
ATOM     88  O   UNL A   1      34.241  32.451  32.201  1.00  0.00    -0.744 OA
ENDBRANCH  84  85
ENDBRANCH  52  77
ENDBRANCH  26  27
ENDBRANCH  18  21
ENDBRANCH  16  17
ENDBRANCH  15  16
ENDBRANCH  14  15
ENDBRANCH  12  14
ENDBRANCH   5  10
ENDBRANCH   1   5
BRANCH   2  89
ATOM     89  C   UNL A   1      48.462  27.209  25.198  1.00  0.00     0.174 C 
BRANCH  89  90
ATOM     90  N   UNL A   1      47.090  27.756  25.101  1.00  0.00    -0.342 N 
ATOM     91  C   UNL A   1      45.786  27.415  25.151  1.00  0.00     0.242 C 
ATOM     92  H   UNL A   1      47.153  28.726  24.939  1.00  0.00     0.164 HD
ATOM     93  O   UNL A   1      45.045  28.408  25.302  1.00  0.00    -0.273 OA
BRANCH  91  94
ATOM     94  C   UNL A   1      45.092  26.015  25.182  1.00  0.00     0.168 C 
ATOM     95  C   UNL A   1      43.570  26.164  25.293  1.00  0.00     0.041 C 
BRANCH  94  96
ATOM     96  N   UNL A   1      45.536  24.889  25.997  1.00  0.00    -0.343 N 
ATOM     97  C   UNL A   1      45.815  23.603  25.627  1.00  0.00     0.240 C 
ATOM     98  H   UNL A   1      45.652  25.084  26.955  1.00  0.00     0.164 HD
ATOM     99  O   UNL A   1      46.410  22.897  26.451  1.00  0.00    -0.273 OA
BRANCH  97 100
ATOM    100  C   UNL A   1      45.452  23.041  24.245  1.00  0.00     0.219 C 
BRANCH 100 101
ATOM    101  N   UNL A   1      45.967  21.695  24.139  1.00  0.00    -0.312 N 
ATOM    102  C   UNL A   1      45.273  20.572  24.468  1.00  0.00     0.407 C 
ATOM    103  H   UNL A   1      46.886  21.583  23.807  1.00  0.00     0.167 HD
ATOM    104  O   UNL A   1      45.851  19.515  24.672  1.00  0.00    -0.225 OA
BRANCH 102 105
ATOM    105  O   UNL A   1      43.938  20.790  24.562  1.00  0.00    -0.445 OA
BRANCH 105 106
ATOM    106  C   UNL A   1      43.281  20.266  25.724  1.00  0.00     0.270 C 
BRANCH 106 107
ATOM    107  C   UNL A   1      42.312  21.297  26.234  1.00  0.00    -0.011 A 
ATOM    108  C   UNL A   1      42.796  22.444  26.879  1.00  0.00     0.007 A 
ATOM    109  C   UNL A   1      40.935  21.038  26.232  1.00  0.00     0.007 A 
ATOM    110  C   UNL A   1      41.925  23.284  27.565  1.00  0.00     0.000 A 
ATOM    111  C   UNL A   1      40.064  21.889  26.910  1.00  0.00     0.000 A 
ATOM    112  C   UNL A   1      40.562  23.001  27.590  1.00  0.00     0.000 A 
ENDBRANCH 106 107
ENDBRANCH 105 106
ENDBRANCH 102 105
ENDBRANCH 100 101
ENDBRANCH  97 100
ENDBRANCH  94  96
ENDBRANCH  91  94
ENDBRANCH  89  90
BRANCH  89 113
ATOM    113  C   UNL A   1      48.768  26.224  26.342  1.00  0.00     0.015 C 
ATOM    114  C   UNL A   1      50.202  25.680  26.345  1.00  0.00     0.010 C 
ATOM    115  C   UNL A   1      48.558  26.880  27.718  1.00  0.00     0.010 C 
ENDBRANCH  89 113
ENDBRANCH   2  89
TORSDOF 26
ENDMDL
