MODEL 1
REMARK VINA RESULT:     -13.5      0.000      0.000
REMARK SMILES COc1cccc(-c2c(C(=O)NCCCNC(=O)c3ccc(-c4c5nc(c(-c6c(F)cc(S(=O)(=O)[O-])cc6F)c6ccc([nH]6)c(-c6c(F)cc(S(=O)(=O)[O-])cc6F)c6nc(c(-c7c(F)cc(S(=O)(=O)[O-])cc7F)c7ccc4[nH]7)C=C6)C=C5)cc3)nnn2-c2ccc(OC(F)(F)F)cc2)c1
REMARK SMILES IDX 14 1 13 2 12 3 10 4 11 5 9 7 8 8 87 9 85 10 86 11 7 12 3 13
REMARK SMILES IDX 4 14 99 15 5 16 6 17 2 18 1 19 88 20 89 21 98 22 90 23 97 24
REMARK SMILES IDX 91 25 92 26 93 27 94 28 95 29 96 30 15 31 16 32 17 33 18 35
REMARK SMILES IDX 19 36 20 37 84 38 21 39 83 40 22 41 23 42 24 43 77 44 25 45
REMARK SMILES IDX 82 46 76 47 78 48 26 49 81 50 75 51 74 52 27 54 61 55 40 56
REMARK SMILES IDX 60 57 41 58 44 59 59 60 79 61 42 62 43 63 58 65 80 66 45 67
REMARK SMILES IDX 28 68 29 69 38 70 30 71 31 72 37 73 39 74 32 75 33 76 34 77
REMARK SMILES IDX 35 78 36 79 62 80 63 81 72 82 64 83 65 84 71 85 73 86 66 87
REMARK SMILES IDX 67 88 68 89 69 90 70 91 46 92 47 93 56 94 48 95 49 96 55 97
REMARK SMILES IDX 57 98 50 99 51 100 52 101 53 102 54 103
REMARK H PARENT 12 6 16 34 78 53 44 64
REMARK Flexibility Score: inf
ROOT
ATOM      1  C   UNL A   1      36.638  23.444  24.882  1.00  0.00     0.042 C 
ENDROOT
BRANCH   1   2
ATOM      2  C   UNL A   1      35.300  24.176  24.964  1.00  0.00     0.118 C 
BRANCH   2   3
ATOM      3  N   UNL A   1      34.234  23.369  25.493  1.00  0.00    -0.351 N 
ATOM      4  C   UNL A   1      32.874  23.352  25.338  1.00  0.00     0.274 C 
ATOM      5  O   UNL A   1      32.339  22.356  25.840  1.00  0.00    -0.267 OA
ATOM      6  H   UNL A   1      34.555  22.670  26.108  1.00  0.00     0.163 HD
BRANCH   4   7
ATOM      7  C   UNL A   1      32.044  24.370  24.678  1.00  0.00     0.178 A 
ATOM      8  C   UNL A   1      31.793  25.742  24.793  1.00  0.00     0.108 A 
ATOM      9  N   UNL A   1      30.844  25.984  23.790  1.00  0.00    -0.212 N 
ATOM     10  N   UNL A   1      31.204  23.875  23.687  1.00  0.00    -0.124 NA
ATOM     11  N   UNL A   1      30.422  24.836  23.244  1.00  0.00    -0.061 NA
BRANCH   8  12
ATOM     12  C   UNL A   1      32.141  26.795  25.747  1.00  0.00     0.006 A 
ATOM     13  C   UNL A   1      33.814  28.335  26.630  1.00  0.00     0.119 A 
ATOM     14  C   UNL A   1      32.894  28.760  27.590  1.00  0.00     0.046 A 
ATOM     15  C   UNL A   1      33.433  27.359  25.705  1.00  0.00     0.056 A 
ATOM     16  C   UNL A   1      31.621  28.190  27.659  1.00  0.00     0.005 A 
ATOM     17  C   UNL A   1      31.258  27.186  26.762  1.00  0.00     0.011 A 
BRANCH  13  18
ATOM     18  O   UNL A   1      35.035  28.945  26.704  1.00  0.00    -0.497 OA
ATOM     19  C   UNL A   1      35.430  29.474  27.965  1.00  0.00     0.278 C 
ENDBRANCH  13  18
ENDBRANCH   8  12
BRANCH   9  20
ATOM     20  C   UNL A   1      30.279  27.216  23.380  1.00  0.00     0.067 A 
ATOM     21  C   UNL A   1      31.106  28.217  22.864  1.00  0.00     0.032 A 
ATOM     22  C   UNL A   1      28.899  27.425  23.463  1.00  0.00     0.032 A 
ATOM     23  C   UNL A   1      30.531  29.381  22.347  1.00  0.00     0.049 A 
ATOM     24  C   UNL A   1      28.336  28.602  22.970  1.00  0.00     0.049 A 
ATOM     25  C   UNL A   1      29.145  29.576  22.383  1.00  0.00     0.129 A 
BRANCH  25  26
ATOM     26  O   UNL A   1      28.716  30.743  21.820  1.00  0.00    -0.406 OA
BRANCH  26  27
ATOM     27  C   UNL A   1      28.367  31.800  22.699  1.00  0.00     0.573 C 
ATOM     28  F   UNL A   1      29.225  31.882  23.739  1.00  0.00    -0.132 F 
ATOM     29  F   UNL A   1      28.336  32.982  22.047  1.00  0.00    -0.132 F 
ATOM     30  F   UNL A   1      27.132  31.563  23.195  1.00  0.00    -0.132 F 
ENDBRANCH  26  27
ENDBRANCH  25  26
ENDBRANCH   9  20
ENDBRANCH   4   7
ENDBRANCH   2   3
ENDBRANCH   1   2
BRANCH   1  31
ATOM     31  C   UNL A   1      37.481  23.686  26.121  1.00  0.00     0.118 C 
BRANCH  31  32
ATOM     32  N   UNL A   1      38.456  22.608  26.316  1.00  0.00    -0.352 N 
ATOM     33  C   UNL A   1      39.811  22.697  26.574  1.00  0.00     0.251 C 
ATOM     34  H   UNL A   1      38.094  21.694  26.256  1.00  0.00     0.163 HD
ATOM     35  O   UNL A   1      40.535  21.731  26.435  1.00  0.00    -0.269 OA
BRANCH  33  36
ATOM     36  C   UNL A   1      40.350  24.005  26.983  1.00  0.00     0.039 A 
ATOM     37  C   UNL A   1      39.955  25.162  26.311  1.00  0.00     0.014 A 
ATOM     38  C   UNL A   1      41.155  24.069  28.117  1.00  0.00     0.014 A 
ATOM     39  C   UNL A   1      40.274  26.395  26.868  1.00  0.00     0.010 A 
ATOM     40  C   UNL A   1      41.349  25.284  28.736  1.00  0.00     0.010 A 
ATOM     41  C   UNL A   1      40.927  26.454  28.112  1.00  0.00    -0.014 A 
BRANCH  41  42
ATOM     42  C   UNL A   1      41.029  27.736  28.812  1.00  0.00     0.031 A 
ATOM     43  C   UNL A   1      42.123  28.629  28.331  1.00  0.00     0.074 A 
ATOM     44  C   UNL A   1      40.123  28.202  29.697  1.00  0.00     0.049 A 
ATOM     45  N   UNL A   1      43.228  28.919  28.935  1.00  0.00    -0.248 NA
ATOM     46  C   UNL A   1      42.051  29.146  26.955  1.00  0.00     0.031 C 
ATOM     47  C   UNL A   1      38.821  27.634  30.059  1.00  0.00     0.029 A 
ATOM     48  N   UNL A   1      40.149  29.367  30.404  1.00  0.00    -0.354 N 
ATOM     49  C   UNL A   1      43.888  29.839  28.123  1.00  0.00     0.074 A 
ATOM     50  C   UNL A   1      43.218  29.787  26.850  1.00  0.00     0.031 C 
ATOM     51  C   UNL A   1      38.097  28.555  30.733  1.00  0.00     0.029 A 
ATOM     52  C   UNL A   1      38.945  29.698  31.011  1.00  0.00     0.049 A 
ATOM     53  H   UNL A   1      40.956  29.927  30.477  1.00  0.00     0.167 HD
ATOM     54  C   UNL A   1      44.785  30.726  28.645  1.00  0.00     0.037 A 
ATOM     55  C   UNL A   1      38.659  30.835  31.692  1.00  0.00     0.037 A 
ATOM     56  C   UNL A   1      45.175  30.329  29.978  1.00  0.00     0.049 A 
ATOM     57  C   UNL A   1      39.952  31.415  32.129  1.00  0.00     0.074 A 
ATOM     58  C   UNL A   1      45.761  29.206  30.530  1.00  0.00     0.029 A 
ATOM     59  N   UNL A   1      44.615  31.013  31.031  1.00  0.00    -0.354 N 
ATOM     60  N   UNL A   1      40.742  30.859  33.008  1.00  0.00    -0.248 NA
ATOM     61  C   UNL A   1      40.578  32.414  31.277  1.00  0.00     0.031 C 
ATOM     62  C   UNL A   1      45.109  29.029  31.786  1.00  0.00     0.029 A 
ATOM     63  C   UNL A   1      44.217  30.090  31.961  1.00  0.00     0.049 A 
ATOM     64  H   UNL A   1      44.517  31.991  31.103  1.00  0.00     0.167 HD
ATOM     65  C   UNL A   1      42.023  31.104  32.538  1.00  0.00     0.074 A 
ATOM     66  C   UNL A   1      41.862  32.158  31.540  1.00  0.00     0.031 C 
ATOM     67  C   UNL A   1      43.048  30.243  32.801  1.00  0.00     0.037 A 
BRANCH  54  68
ATOM     68  C   UNL A   1      45.023  32.139  28.138  1.00  0.00     0.058 A 
ATOM     69  C   UNL A   1      46.327  32.507  27.728  1.00  0.00     0.135 A 
ATOM     70  C   UNL A   1      44.126  33.215  28.309  1.00  0.00     0.135 A 
ATOM     71  F   UNL A   1      47.267  31.573  27.508  1.00  0.00    -0.206 F 
ATOM     72  C   UNL A   1      46.735  33.837  27.616  1.00  0.00     0.059 A 
ATOM     73  C   UNL A   1      44.499  34.547  28.151  1.00  0.00     0.059 A 
ATOM     74  F   UNL A   1      42.868  33.046  28.728  1.00  0.00    -0.206 F 
ATOM     75  C   UNL A   1      45.816  34.851  27.855  1.00  0.00     0.060 A 
BRANCH  75  76
ATOM     76  S   UNL A   1      46.364  36.566  27.833  1.00  0.00     0.124 S 
ATOM     77  O   UNL A   1      46.196  36.940  29.231  1.00  0.00    -0.237 OA
ATOM     78  O   UNL A   1      47.739  36.438  27.363  1.00  0.00    -0.237 OA
ATOM     79  O   UNL A   1      45.443  37.198  26.893  1.00  0.00    -0.744 OA
ENDBRANCH  75  76
ENDBRANCH  54  68
BRANCH  55  80
ATOM     80  C   UNL A   1      37.378  31.582  31.764  1.00  0.00     0.058 A 
ATOM     81  C   UNL A   1      36.797  31.903  33.004  1.00  0.00     0.135 A 
ATOM     82  C   UNL A   1      36.854  32.251  30.638  1.00  0.00     0.135 A 
ATOM     83  F   UNL A   1      37.240  31.321  34.127  1.00  0.00    -0.206 F 
ATOM     84  C   UNL A   1      35.805  32.880  33.130  1.00  0.00     0.059 A 
ATOM     85  C   UNL A   1      35.857  33.221  30.740  1.00  0.00     0.059 A 
ATOM     86  F   UNL A   1      37.366  32.051  29.415  1.00  0.00    -0.206 F 
ATOM     87  C   UNL A   1      35.360  33.554  31.994  1.00  0.00     0.060 A 
BRANCH  87  88
ATOM     88  S   UNL A   1      34.233  34.956  32.181  1.00  0.00     0.124 S 
ATOM     89  O   UNL A   1      35.037  35.886  32.968  1.00  0.00    -0.237 OA
ATOM     90  O   UNL A   1      33.986  35.340  30.796  1.00  0.00    -0.237 OA
ATOM     91  O   UNL A   1      33.086  34.377  32.878  1.00  0.00    -0.744 OA
ENDBRANCH  87  88
ENDBRANCH  55  80
BRANCH  67  92
ATOM     92  C   UNL A   1      42.875  29.229  33.903  1.00  0.00     0.058 A 
ATOM     93  C   UNL A   1      43.133  29.466  35.266  1.00  0.00     0.135 A 
ATOM     94  C   UNL A   1      42.274  28.005  33.569  1.00  0.00     0.135 A 
ATOM     95  F   UNL A   1      43.611  30.645  35.686  1.00  0.00    -0.206 F 
ATOM     96  C   UNL A   1      42.840  28.512  36.244  1.00  0.00     0.059 A 
ATOM     97  C   UNL A   1      41.942  27.056  34.530  1.00  0.00     0.059 A 
ATOM     98  F   UNL A   1      41.951  27.741  32.292  1.00  0.00    -0.206 F 
ATOM     99  C   UNL A   1      42.240  27.310  35.866  1.00  0.00     0.060 A 
BRANCH  99 100
ATOM    100  S   UNL A   1      41.784  26.111  37.137  1.00  0.00     0.124 S 
ATOM    101  O   UNL A   1      42.840  26.298  38.127  1.00  0.00    -0.237 OA
ATOM    102  O   UNL A   1      40.454  26.561  37.536  1.00  0.00    -0.237 OA
ATOM    103  O   UNL A   1      41.812  24.834  36.429  1.00  0.00    -0.744 OA
ENDBRANCH  99 100
ENDBRANCH  67  92
ENDBRANCH  41  42
ENDBRANCH  33  36
ENDBRANCH  31  32
ENDBRANCH   1  31
TORSDOF 18
ENDMDL
MODEL 2
REMARK VINA RESULT:     -13.5      4.018      9.736
REMARK SMILES COc1cccc(-c2c(C(=O)NCCCNC(=O)c3ccc(-c4c5nc(c(-c6c(F)cc(S(=O)(=O)[O-])cc6F)c6ccc([nH]6)c(-c6c(F)cc(S(=O)(=O)[O-])cc6F)c6nc(c(-c7c(F)cc(S(=O)(=O)[O-])cc7F)c7ccc4[nH]7)C=C6)C=C5)cc3)nnn2-c2ccc(OC(F)(F)F)cc2)c1
REMARK SMILES IDX 14 1 13 2 12 3 10 4 11 5 9 7 8 8 87 9 85 10 86 11 7 12 3 13
REMARK SMILES IDX 4 14 99 15 5 16 6 17 2 18 1 19 88 20 89 21 98 22 90 23 97 24
REMARK SMILES IDX 91 25 92 26 93 27 94 28 95 29 96 30 15 31 16 32 17 33 18 35
REMARK SMILES IDX 19 36 20 37 84 38 21 39 83 40 22 41 23 42 24 43 77 44 25 45
REMARK SMILES IDX 82 46 76 47 78 48 26 49 81 50 75 51 74 52 27 54 61 55 40 56
REMARK SMILES IDX 60 57 41 58 44 59 59 60 79 61 42 62 43 63 58 65 80 66 45 67
REMARK SMILES IDX 28 68 29 69 38 70 30 71 31 72 37 73 39 74 32 75 33 76 34 77
REMARK SMILES IDX 35 78 36 79 62 80 63 81 72 82 64 83 65 84 71 85 73 86 66 87
REMARK SMILES IDX 67 88 68 89 69 90 70 91 46 92 47 93 56 94 48 95 49 96 55 97
REMARK SMILES IDX 57 98 50 99 51 100 52 101 53 102 54 103
REMARK H PARENT 12 6 16 34 78 53 44 64
REMARK Flexibility Score: inf
ROOT
ATOM      1  C   UNL A   1      33.129  28.578  27.255  1.00  0.00     0.042 C 
ENDROOT
BRANCH   1   2
ATOM      2  C   UNL A   1      32.961  27.296  26.444  1.00  0.00     0.118 C 
BRANCH   2   3
ATOM      3  N   UNL A   1      33.024  27.502  25.022  1.00  0.00    -0.351 N 
ATOM      4  C   UNL A   1      32.739  26.732  23.927  1.00  0.00     0.274 C 
ATOM      5  O   UNL A   1      32.755  27.369  22.867  1.00  0.00    -0.267 OA
ATOM      6  H   UNL A   1      33.344  28.401  24.782  1.00  0.00     0.163 HD
BRANCH   4   7
ATOM      7  C   UNL A   1      32.451  25.291  23.906  1.00  0.00     0.178 A 
ATOM      8  C   UNL A   1      33.147  24.088  24.067  1.00  0.00     0.108 A 
ATOM      9  N   UNL A   1      32.158  23.111  23.887  1.00  0.00    -0.212 N 
ATOM     10  N   UNL A   1      31.137  24.970  23.580  1.00  0.00    -0.124 NA
ATOM     11  N   UNL A   1      31.011  23.665  23.472  1.00  0.00    -0.061 NA
BRANCH   8  12
ATOM     12  C   UNL A   1      34.553  23.699  24.188  1.00  0.00     0.006 A 
ATOM     13  C   UNL A   1      36.623  23.743  25.477  1.00  0.00     0.119 A 
ATOM     14  C   UNL A   1      37.261  23.049  24.446  1.00  0.00     0.046 A 
ATOM     15  C   UNL A   1      35.268  24.060  25.348  1.00  0.00     0.056 A 
ATOM     16  C   UNL A   1      36.571  22.710  23.281  1.00  0.00     0.005 A 
ATOM     17  C   UNL A   1      35.230  23.065  23.138  1.00  0.00     0.011 A 
BRANCH  13  18
ATOM     18  O   UNL A   1      37.428  24.049  26.538  1.00  0.00    -0.497 OA
ATOM     19  C   UNL A   1      38.805  23.706  26.440  1.00  0.00     0.278 C 
ENDBRANCH  13  18
ENDBRANCH   8  12
BRANCH   9  20
ATOM     20  C   UNL A   1      32.262  21.705  24.019  1.00  0.00     0.067 A 
ATOM     21  C   UNL A   1      32.166  20.897  22.883  1.00  0.00     0.032 A 
ATOM     22  C   UNL A   1      32.486  21.125  25.271  1.00  0.00     0.032 A 
ATOM     23  C   UNL A   1      32.393  19.523  23.000  1.00  0.00     0.049 A 
ATOM     24  C   UNL A   1      32.684  19.749  25.382  1.00  0.00     0.049 A 
ATOM     25  C   UNL A   1      32.666  18.943  24.244  1.00  0.00     0.129 A 
BRANCH  25  26
ATOM     26  O   UNL A   1      32.894  17.597  24.210  1.00  0.00    -0.406 OA
BRANCH  26  27
ATOM     27  C   UNL A   1      34.215  17.168  23.927  1.00  0.00     0.573 C 
ATOM     28  F   UNL A   1      34.354  16.819  22.630  1.00  0.00    -0.132 F 
ATOM     29  F   UNL A   1      35.114  18.128  24.234  1.00  0.00    -0.132 F 
ATOM     30  F   UNL A   1      34.490  16.081  24.683  1.00  0.00    -0.132 F 
ENDBRANCH  26  27
ENDBRANCH  25  26
ENDBRANCH   9  20
ENDBRANCH   4   7
ENDBRANCH   2   3
ENDBRANCH   1   2
BRANCH   1  31
ATOM     31  C   UNL A   1      34.352  29.362  26.811  1.00  0.00     0.118 C 
BRANCH  31  32
ATOM     32  N   UNL A   1      34.185  30.795  27.071  1.00  0.00    -0.352 N 
ATOM     33  C   UNL A   1      34.826  31.592  28.000  1.00  0.00     0.251 C 
ATOM     34  H   UNL A   1      33.524  31.253  26.503  1.00  0.00     0.163 HD
ATOM     35  O   UNL A   1      34.390  32.688  28.287  1.00  0.00    -0.269 OA
BRANCH  33  36
ATOM     36  C   UNL A   1      36.030  31.051  28.656  1.00  0.00     0.039 A 
ATOM     37  C   UNL A   1      36.060  29.719  29.068  1.00  0.00     0.014 A 
ATOM     38  C   UNL A   1      37.162  31.858  28.740  1.00  0.00     0.014 A 
ATOM     39  C   UNL A   1      37.279  29.169  29.449  1.00  0.00     0.010 A 
ATOM     40  C   UNL A   1      38.386  31.277  28.984  1.00  0.00     0.010 A 
ATOM     41  C   UNL A   1      38.454  29.937  29.355  1.00  0.00    -0.014 A 
BRANCH  41  42
ATOM     42  C   UNL A   1      39.755  29.284  29.506  1.00  0.00     0.031 A 
ATOM     43  C   UNL A   1      40.207  29.102  30.917  1.00  0.00     0.074 A 
ATOM     44  C   UNL A   1      40.446  28.705  28.502  1.00  0.00     0.049 A 
ATOM     45  N   UNL A   1      41.151  29.736  31.531  1.00  0.00    -0.248 NA
ATOM     46  C   UNL A   1      39.424  28.218  31.795  1.00  0.00     0.031 C 
ATOM     47  C   UNL A   1      40.031  28.485  27.114  1.00  0.00     0.029 A 
ATOM     48  N   UNL A   1      41.664  28.097  28.551  1.00  0.00    -0.354 N 
ATOM     49  C   UNL A   1      41.239  29.171  32.802  1.00  0.00     0.074 A 
ATOM     50  C   UNL A   1      40.040  28.391  32.967  1.00  0.00     0.031 C 
ATOM     51  C   UNL A   1      40.871  27.607  26.523  1.00  0.00     0.029 A 
ATOM     52  C   UNL A   1      41.980  27.350  27.422  1.00  0.00     0.049 A 
ATOM     53  H   UNL A   1      42.270  28.179  29.322  1.00  0.00     0.167 HD
ATOM     54  C   UNL A   1      42.403  29.214  33.514  1.00  0.00     0.037 A 
ATOM     55  C   UNL A   1      43.073  26.571  27.238  1.00  0.00     0.037 A 
ATOM     56  C   UNL A   1      43.312  30.181  32.944  1.00  0.00     0.049 A 
ATOM     57  C   UNL A   1      44.109  27.045  28.189  1.00  0.00     0.074 A 
ATOM     58  C   UNL A   1      43.260  31.539  32.691  1.00  0.00     0.029 A 
ATOM     59  N   UNL A   1      44.355  29.701  32.188  1.00  0.00    -0.354 N 
ATOM     60  N   UNL A   1      44.690  28.211  28.114  1.00  0.00    -0.248 NA
ATOM     61  C   UNL A   1      44.202  26.387  29.483  1.00  0.00     0.031 C 
ATOM     62  C   UNL A   1      43.940  31.708  31.448  1.00  0.00     0.029 A 
ATOM     63  C   UNL A   1      44.429  30.462  31.052  1.00  0.00     0.049 A 
ATOM     64  H   UNL A   1      44.942  28.946  32.422  1.00  0.00     0.167 HD
ATOM     65  C   UNL A   1      44.832  28.622  29.430  1.00  0.00     0.074 A 
ATOM     66  C   UNL A   1      44.622  27.415  30.225  1.00  0.00     0.031 C 
ATOM     67  C   UNL A   1      44.832  29.946  29.760  1.00  0.00     0.037 A 
BRANCH  54  68
ATOM     68  C   UNL A   1      42.890  28.140  34.473  1.00  0.00     0.058 A 
ATOM     69  C   UNL A   1      43.135  28.489  35.822  1.00  0.00     0.135 A 
ATOM     70  C   UNL A   1      43.401  26.885  34.079  1.00  0.00     0.135 A 
ATOM     71  F   UNL A   1      42.679  29.648  36.325  1.00  0.00    -0.206 F 
ATOM     72  C   UNL A   1      43.924  27.711  36.671  1.00  0.00     0.059 A 
ATOM     73  C   UNL A   1      44.146  26.069  34.926  1.00  0.00     0.059 A 
ATOM     74  F   UNL A   1      43.289  26.419  32.831  1.00  0.00    -0.206 F 
ATOM     75  C   UNL A   1      44.446  26.512  36.202  1.00  0.00     0.060 A 
BRANCH  75  76
ATOM     76  S   UNL A   1      45.564  25.564  37.248  1.00  0.00     0.124 S 
ATOM     77  O   UNL A   1      46.623  26.535  37.493  1.00  0.00    -0.237 OA
ATOM     78  O   UNL A   1      44.712  25.241  38.387  1.00  0.00    -0.237 OA
ATOM     79  O   UNL A   1      45.929  24.430  36.403  1.00  0.00    -0.744 OA
ENDBRANCH  75  76
ENDBRANCH  54  68
BRANCH  55  80
ATOM     80  C   UNL A   1      43.194  25.294  26.490  1.00  0.00     0.058 A 
ATOM     81  C   UNL A   1      44.093  25.166  25.417  1.00  0.00     0.135 A 
ATOM     82  C   UNL A   1      42.653  24.094  26.996  1.00  0.00     0.135 A 
ATOM     83  F   UNL A   1      44.663  26.255  24.881  1.00  0.00    -0.206 F 
ATOM     84  C   UNL A   1      44.488  23.920  24.921  1.00  0.00     0.059 A 
ATOM     85  C   UNL A   1      43.024  22.841  26.509  1.00  0.00     0.059 A 
ATOM     86  F   UNL A   1      41.819  24.099  28.047  1.00  0.00    -0.206 F 
ATOM     87  C   UNL A   1      43.967  22.760  25.492  1.00  0.00     0.060 A 
BRANCH  87  88
ATOM     88  S   UNL A   1      44.630  21.154  24.994  1.00  0.00     0.124 S 
ATOM     89  O   UNL A   1      45.953  21.168  25.611  1.00  0.00    -0.237 OA
ATOM     90  O   UNL A   1      43.666  20.228  25.575  1.00  0.00    -0.237 OA
ATOM     91  O   UNL A   1      44.622  21.223  23.534  1.00  0.00    -0.744 OA
ENDBRANCH  87  88
ENDBRANCH  55  80
BRANCH  67  92
ATOM     92  C   UNL A   1      45.050  30.963  28.669  1.00  0.00     0.058 A 
ATOM     93  C   UNL A   1      44.062  31.414  27.776  1.00  0.00     0.135 A 
ATOM     94  C   UNL A   1      46.292  31.617  28.633  1.00  0.00     0.135 A 
ATOM     95  F   UNL A   1      42.818  30.916  27.809  1.00  0.00    -0.206 F 
ATOM     96  C   UNL A   1      44.312  32.444  26.865  1.00  0.00     0.059 A 
ATOM     97  C   UNL A   1      46.552  32.668  27.759  1.00  0.00     0.059 A 
ATOM     98  F   UNL A   1      47.260  31.272  29.499  1.00  0.00    -0.206 F 
ATOM     99  C   UNL A   1      45.561  33.068  26.866  1.00  0.00     0.060 A 
BRANCH  99 100
ATOM    100  S   UNL A   1      45.858  34.454  25.748  1.00  0.00     0.124 S 
ATOM    101  O   UNL A   1      44.961  34.151  24.639  1.00  0.00    -0.237 OA
ATOM    102  O   UNL A   1      45.490  35.607  26.565  1.00  0.00    -0.237 OA
ATOM    103  O   UNL A   1      47.284  34.348  25.444  1.00  0.00    -0.744 OA
ENDBRANCH  99 100
ENDBRANCH  67  92
ENDBRANCH  41  42
ENDBRANCH  33  36
ENDBRANCH  31  32
ENDBRANCH   1  31
TORSDOF 18
ENDMDL
MODEL 3
REMARK VINA RESULT:     -12.2      4.184      9.830
REMARK SMILES COc1cccc(-c2c(C(=O)NCCCNC(=O)c3ccc(-c4c5nc(c(-c6c(F)cc(S(=O)(=O)[O-])cc6F)c6ccc([nH]6)c(-c6c(F)cc(S(=O)(=O)[O-])cc6F)c6nc(c(-c7c(F)cc(S(=O)(=O)[O-])cc7F)c7ccc4[nH]7)C=C6)C=C5)cc3)nnn2-c2ccc(OC(F)(F)F)cc2)c1
REMARK SMILES IDX 14 1 13 2 12 3 10 4 11 5 9 7 8 8 87 9 85 10 86 11 7 12 3 13
REMARK SMILES IDX 4 14 99 15 5 16 6 17 2 18 1 19 88 20 89 21 98 22 90 23 97 24
REMARK SMILES IDX 91 25 92 26 93 27 94 28 95 29 96 30 15 31 16 32 17 33 18 35
REMARK SMILES IDX 19 36 20 37 84 38 21 39 83 40 22 41 23 42 24 43 77 44 25 45
REMARK SMILES IDX 82 46 76 47 78 48 26 49 81 50 75 51 74 52 27 54 61 55 40 56
REMARK SMILES IDX 60 57 41 58 44 59 59 60 79 61 42 62 43 63 58 65 80 66 45 67
REMARK SMILES IDX 28 68 29 69 38 70 30 71 31 72 37 73 39 74 32 75 33 76 34 77
REMARK SMILES IDX 35 78 36 79 62 80 63 81 72 82 64 83 65 84 71 85 73 86 66 87
REMARK SMILES IDX 67 88 68 89 69 90 70 91 46 92 47 93 56 94 48 95 49 96 55 97
REMARK SMILES IDX 57 98 50 99 51 100 52 101 53 102 54 103
REMARK H PARENT 12 6 16 34 78 53 44 64
REMARK Flexibility Score: inf
ROOT
ATOM      1  C   UNL A   1      33.166  28.576  27.285  1.00  0.00     0.042 C 
ENDROOT
BRANCH   1   2
ATOM      2  C   UNL A   1      32.944  27.327  26.436  1.00  0.00     0.118 C 
BRANCH   2   3
ATOM      3  N   UNL A   1      31.559  26.972  26.285  1.00  0.00    -0.351 N 
ATOM      4  C   UNL A   1      30.863  25.794  26.293  1.00  0.00     0.274 C 
ATOM      5  O   UNL A   1      29.637  25.953  26.313  1.00  0.00    -0.267 OA
ATOM      6  H   UNL A   1      30.980  27.755  26.143  1.00  0.00     0.163 HD
BRANCH   4   7
ATOM      7  C   UNL A   1      31.420  24.434  26.261  1.00  0.00     0.178 A 
ATOM      8  C   UNL A   1      32.101  23.609  25.360  1.00  0.00     0.108 A 
ATOM      9  N   UNL A   1      32.283  22.420  26.078  1.00  0.00    -0.212 N 
ATOM     10  N   UNL A   1      31.181  23.686  27.409  1.00  0.00    -0.124 NA
ATOM     11  N   UNL A   1      31.612  22.455  27.237  1.00  0.00    -0.061 NA
BRANCH   8  12
ATOM     12  C   UNL A   1      32.451  23.672  23.940  1.00  0.00     0.006 A 
ATOM     13  C   UNL A   1      33.202  25.001  22.037  1.00  0.00     0.119 A 
ATOM     14  C   UNL A   1      33.065  23.877  21.219  1.00  0.00     0.046 A 
ATOM     15  C   UNL A   1      32.902  24.893  23.397  1.00  0.00     0.056 A 
ATOM     16  C   UNL A   1      32.595  22.670  21.738  1.00  0.00     0.005 A 
ATOM     17  C   UNL A   1      32.255  22.578  23.087  1.00  0.00     0.011 A 
BRANCH  13  18
ATOM     18  O   UNL A   1      33.630  26.126  21.390  1.00  0.00    -0.497 OA
ATOM     19  C   UNL A   1      33.628  27.346  22.121  1.00  0.00     0.278 C 
ENDBRANCH  13  18
ENDBRANCH   8  12
BRANCH   9  20
ATOM     20  C   UNL A   1      32.987  21.250  25.700  1.00  0.00     0.067 A 
ATOM     21  C   UNL A   1      32.321  20.022  25.676  1.00  0.00     0.032 A 
ATOM     22  C   UNL A   1      34.332  21.323  25.327  1.00  0.00     0.032 A 
ATOM     23  C   UNL A   1      32.984  18.894  25.183  1.00  0.00     0.049 A 
ATOM     24  C   UNL A   1      34.994  20.186  24.864  1.00  0.00     0.049 A 
ATOM     25  C   UNL A   1      34.317  18.970  24.763  1.00  0.00     0.129 A 
BRANCH  25  26
ATOM     26  O   UNL A   1      34.832  17.802  24.280  1.00  0.00    -0.406 OA
BRANCH  26  27
ATOM     27  C   UNL A   1      34.069  17.106  23.310  1.00  0.00     0.573 C 
ATOM     28  F   UNL A   1      34.860  16.524  22.382  1.00  0.00    -0.132 F 
ATOM     29  F   UNL A   1      33.289  16.167  23.888  1.00  0.00    -0.132 F 
ATOM     30  F   UNL A   1      33.262  17.987  22.677  1.00  0.00    -0.132 F 
ENDBRANCH  26  27
ENDBRANCH  25  26
ENDBRANCH   9  20
ENDBRANCH   4   7
ENDBRANCH   2   3
ENDBRANCH   1   2
BRANCH   1  31
ATOM     31  C   UNL A   1      34.421  29.321  26.863  1.00  0.00     0.118 C 
BRANCH  31  32
ATOM     32  N   UNL A   1      34.283  30.762  27.093  1.00  0.00    -0.352 N 
ATOM     33  C   UNL A   1      34.940  31.564  28.007  1.00  0.00     0.251 C 
ATOM     34  H   UNL A   1      33.632  31.222  26.515  1.00  0.00     0.163 HD
ATOM     35  O   UNL A   1      34.526  32.675  28.271  1.00  0.00    -0.269 OA
BRANCH  33  36
ATOM     36  C   UNL A   1      36.132  31.013  28.675  1.00  0.00     0.039 A 
ATOM     37  C   UNL A   1      36.123  29.698  29.141  1.00  0.00     0.014 A 
ATOM     38  C   UNL A   1      37.289  31.786  28.717  1.00  0.00     0.014 A 
ATOM     39  C   UNL A   1      37.328  29.126  29.535  1.00  0.00     0.010 A 
ATOM     40  C   UNL A   1      38.497  31.176  28.975  1.00  0.00     0.010 A 
ATOM     41  C   UNL A   1      38.526  29.851  29.401  1.00  0.00    -0.014 A 
BRANCH  41  42
ATOM     42  C   UNL A   1      39.806  29.163  29.569  1.00  0.00     0.031 A 
ATOM     43  C   UNL A   1      40.221  28.944  30.986  1.00  0.00     0.074 A 
ATOM     44  C   UNL A   1      40.506  28.586  28.569  1.00  0.00     0.049 A 
ATOM     45  N   UNL A   1      41.166  29.543  31.632  1.00  0.00    -0.248 NA
ATOM     46  C   UNL A   1      39.397  28.063  31.828  1.00  0.00     0.031 C 
ATOM     47  C   UNL A   1      40.118  28.402  27.168  1.00  0.00     0.029 A 
ATOM     48  N   UNL A   1      41.707  27.947  28.634  1.00  0.00    -0.354 N 
ATOM     49  C   UNL A   1      41.212  28.952  32.894  1.00  0.00     0.074 A 
ATOM     50  C   UNL A   1      39.991  28.200  33.017  1.00  0.00     0.031 C 
ATOM     51  C   UNL A   1      40.949  27.514  26.580  1.00  0.00     0.029 A 
ATOM     52  C   UNL A   1      42.031  27.214  27.499  1.00  0.00     0.049 A 
ATOM     53  H   UNL A   1      42.297  28.000  29.420  1.00  0.00     0.167 HD
ATOM     54  C   UNL A   1      42.360  28.954  33.633  1.00  0.00     0.037 A 
ATOM     55  C   UNL A   1      43.109  26.411  27.324  1.00  0.00     0.037 A 
ATOM     56  C   UNL A   1      43.304  29.909  33.102  1.00  0.00     0.049 A 
ATOM     57  C   UNL A   1      44.134  26.842  28.307  1.00  0.00     0.074 A 
ATOM     58  C   UNL A   1      43.291  31.272  32.873  1.00  0.00     0.029 A 
ATOM     59  N   UNL A   1      44.352  29.416  32.361  1.00  0.00    -0.354 N 
ATOM     60  N   UNL A   1      44.745  27.995  28.267  1.00  0.00    -0.248 NA
ATOM     61  C   UNL A   1      44.181  26.158  29.590  1.00  0.00     0.031 C 
ATOM     62  C   UNL A   1      44.003  31.447  31.650  1.00  0.00     0.029 A 
ATOM     63  C   UNL A   1      44.471  30.196  31.241  1.00  0.00     0.049 A 
ATOM     64  H   UNL A   1      44.916  28.643  32.593  1.00  0.00     0.167 HD
ATOM     65  C   UNL A   1      44.866  28.378  29.594  1.00  0.00     0.074 A 
ATOM     66  C   UNL A   1      44.609  27.162  30.360  1.00  0.00     0.031 C 
ATOM     67  C   UNL A   1      44.891  29.695  29.949  1.00  0.00     0.037 A 
BRANCH  54  68
ATOM     68  C   UNL A   1      42.798  27.851  34.581  1.00  0.00     0.058 A 
ATOM     69  C   UNL A   1      42.948  28.151  35.956  1.00  0.00     0.135 A 
ATOM     70  C   UNL A   1      43.353  26.618  34.176  1.00  0.00     0.135 A 
ATOM     71  F   UNL A   1      42.442  29.284  36.470  1.00  0.00    -0.206 F 
ATOM     72  C   UNL A   1      43.690  27.351  36.826  1.00  0.00     0.059 A 
ATOM     73  C   UNL A   1      44.053  25.780  35.040  1.00  0.00     0.059 A 
ATOM     74  F   UNL A   1      43.332  26.199  32.907  1.00  0.00    -0.206 F 
ATOM     75  C   UNL A   1      44.261  26.178  36.350  1.00  0.00     0.060 A 
BRANCH  75  76
ATOM     76  S   UNL A   1      45.321  25.205  37.432  1.00  0.00     0.124 S 
ATOM     77  O   UNL A   1      45.093  23.858  36.924  1.00  0.00    -0.237 OA
ATOM     78  O   UNL A   1      46.636  25.779  37.163  1.00  0.00    -0.237 OA
ATOM     79  O   UNL A   1      44.783  25.480  38.761  1.00  0.00    -0.744 OA
ENDBRANCH  75  76
ENDBRANCH  54  68
BRANCH  55  80
ATOM     80  C   UNL A   1      43.216  25.146  26.555  1.00  0.00     0.058 A 
ATOM     81  C   UNL A   1      44.020  25.064  25.405  1.00  0.00     0.135 A 
ATOM     82  C   UNL A   1      42.773  23.920  27.095  1.00  0.00     0.135 A 
ATOM     83  F   UNL A   1      44.493  26.180  24.831  1.00  0.00    -0.206 F 
ATOM     84  C   UNL A   1      44.421  23.840  24.862  1.00  0.00     0.059 A 
ATOM     85  C   UNL A   1      43.151  22.687  26.563  1.00  0.00     0.059 A 
ATOM     86  F   UNL A   1      42.037  23.883  28.215  1.00  0.00    -0.206 F 
ATOM     87  C   UNL A   1      44.002  22.655  25.465  1.00  0.00     0.060 A 
BRANCH  87  88
ATOM     88  S   UNL A   1      44.685  21.082  24.892  1.00  0.00     0.124 S 
ATOM     89  O   UNL A   1      43.670  20.132  25.338  1.00  0.00    -0.237 OA
ATOM     90  O   UNL A   1      44.774  21.290  23.452  1.00  0.00    -0.237 OA
ATOM     91  O   UNL A   1      45.968  20.996  25.587  1.00  0.00    -0.744 OA
ENDBRANCH  87  88
ENDBRANCH  55  80
BRANCH  67  92
ATOM     92  C   UNL A   1      45.159  30.726  28.883  1.00  0.00     0.058 A 
ATOM     93  C   UNL A   1      44.192  31.254  28.008  1.00  0.00     0.135 A 
ATOM     94  C   UNL A   1      46.434  31.312  28.855  1.00  0.00     0.135 A 
ATOM     95  F   UNL A   1      42.923  30.824  28.037  1.00  0.00    -0.206 F 
ATOM     96  C   UNL A   1      44.494  32.292  27.122  1.00  0.00     0.059 A 
ATOM     97  C   UNL A   1      46.747  32.369  28.006  1.00  0.00     0.059 A 
ATOM     98  F   UNL A   1      47.387  30.892  29.705  1.00  0.00    -0.206 F 
ATOM     99  C   UNL A   1      45.774  32.846  27.131  1.00  0.00     0.060 A 
BRANCH  99 100
ATOM    100  S   UNL A   1      46.142  34.242  26.046  1.00  0.00     0.124 S 
ATOM    101  O   UNL A   1      47.556  34.038  25.754  1.00  0.00    -0.237 OA
ATOM    102  O   UNL A   1      45.226  34.027  24.929  1.00  0.00    -0.237 OA
ATOM    103  O   UNL A   1      45.837  35.407  26.873  1.00  0.00    -0.744 OA
ENDBRANCH  99 100
ENDBRANCH  67  92
ENDBRANCH  41  42
ENDBRANCH  33  36
ENDBRANCH  31  32
ENDBRANCH   1  31
TORSDOF 18
ENDMDL
