MODEL 1
REMARK VINA RESULT:      -9.3      0.000      0.000
REMARK SMILES CCN(CC(C)(C)O)C(=O)Nc1ccc(C(=O)NCCCNC(=O)c2ccc(-c3c4nc(c(-c5c(F)cc(S(=O)(=O)[O-])cc5F)c5ccc([nH]5)c(-c5c(F)cc(S(=O)(=O)[O-])cc5F)c5nc(c(-c6c(F)cc(S(=O)(=O)[O-])cc6F)c6ccc3[nH]6)C=C5)C=C4)cc2)c(O)c1
REMARK SMILES IDX 19 1 18 2 16 3 17 4 15 6 12 7 13 8 93 9 14 10 91 11 11 12
REMARK SMILES IDX 9 13 10 14 3 16 2 17 1 18 4 19 5 20 6 21 7 22 8 23 92 25
REMARK SMILES IDX 20 27 21 28 22 29 23 30 24 32 25 33 26 34 90 35 27 36 89 37
REMARK SMILES IDX 28 38 29 39 30 40 83 41 31 42 88 43 82 44 84 45 32 46 87 47
REMARK SMILES IDX 81 48 80 49 33 51 67 52 46 53 66 54 47 55 50 56 65 57 85 58
REMARK SMILES IDX 48 59 49 60 64 62 86 63 51 64 34 65 35 66 44 67 36 68 37 69
REMARK SMILES IDX 43 70 45 71 38 72 39 73 40 74 41 75 42 76 68 77 69 78 78 79
REMARK SMILES IDX 70 80 71 81 77 82 79 83 72 84 73 85 74 86 75 87 76 88 52 89
REMARK SMILES IDX 53 90 62 91 54 92 55 93 61 94 63 95 56 96 57 97 58 98 59 99
REMARK SMILES IDX 60 100
REMARK H PARENT 18 5 11 15 8 24 92 26 22 31 84 50 50 61
REMARK Flexibility Score: inf
ROOT
ATOM      1  C   UNL A   1      42.348  20.807  26.522  1.00  0.00     0.118 C 
ENDROOT
BRANCH   1   2
ATOM      2  N   UNL A   1      42.711  21.271  27.850  1.00  0.00    -0.352 N 
ATOM      3  C   UNL A   1      43.324  22.423  28.241  1.00  0.00     0.255 C 
ATOM      4  O   UNL A   1      43.451  22.648  29.444  1.00  0.00    -0.269 OA
ATOM      5  H   UNL A   1      42.477  20.656  28.582  1.00  0.00     0.163 HD
BRANCH   3   6
ATOM      6  C   UNL A   1      43.965  23.319  27.258  1.00  0.00     0.081 A 
ATOM      7  C   UNL A   1      45.154  25.446  25.835  1.00  0.00     0.046 A 
ATOM      8  C   UNL A   1      43.875  25.493  26.315  1.00  0.00     0.027 A 
ATOM      9  C   UNL A   1      45.784  24.204  25.887  1.00  0.00     0.073 A 
ATOM     10  C   UNL A   1      43.288  24.505  27.075  1.00  0.00     0.020 A 
ATOM     11  C   UNL A   1      45.155  23.128  26.544  1.00  0.00     0.130 A 
BRANCH   7  12
ATOM     12  N   UNL A   1      45.733  26.556  25.213  1.00  0.00    -0.308 N 
ATOM     13  C   UNL A   1      46.022  27.853  25.490  1.00  0.00     0.321 C 
ATOM     14  O   UNL A   1      46.251  28.519  24.466  1.00  0.00    -0.248 OA
ATOM     15  H   UNL A   1      46.019  26.329  24.298  1.00  0.00     0.171 HD
BRANCH  13  16
ATOM     16  N   UNL A   1      46.165  28.441  26.732  1.00  0.00    -0.322 N 
BRANCH  16  17
ATOM     17  C   UNL A   1      47.565  28.611  27.169  1.00  0.00     0.118 C 
ATOM     18  C   UNL A   1      47.927  30.079  27.420  1.00  0.00     0.027 C 
ENDBRANCH  16  17
BRANCH  16  19
ATOM     19  C   UNL A   1      45.195  28.803  27.794  1.00  0.00     0.155 C 
BRANCH  19  20
ATOM     20  C   UNL A   1      44.161  29.974  27.456  1.00  0.00     0.077 C 
ATOM     21  C   UNL A   1      44.674  31.211  26.677  1.00  0.00     0.043 C 
ATOM     22  C   UNL A   1      42.947  29.365  26.719  1.00  0.00     0.043 C 
BRANCH  20  23
ATOM     23  O   UNL A   1      43.664  30.500  28.702  1.00  0.00    -0.389 OA
ATOM     24  H   UNL A   1      42.698  30.585  28.655  1.00  0.00     0.211 HD
ENDBRANCH  20  23
ENDBRANCH  19  20
ENDBRANCH  16  19
ENDBRANCH  13  16
ENDBRANCH   7  12
BRANCH  11  25
ATOM     25  O   UNL A   1      45.743  21.901  26.403  1.00  0.00    -0.507 OA
ATOM     26  H   UNL A   1      45.373  21.269  25.818  1.00  0.00     0.293 HD
ENDBRANCH  11  25
ENDBRANCH   3   6
ENDBRANCH   1   2
BRANCH   1  27
ATOM     27  C   UNL A   1      41.266  21.623  25.842  1.00  0.00     0.042 C 
BRANCH  27  28
ATOM     28  C   UNL A   1      39.945  21.666  26.591  1.00  0.00     0.118 C 
BRANCH  28  29
ATOM     29  N   UNL A   1      38.885  22.346  25.856  1.00  0.00    -0.352 N 
ATOM     30  C   UNL A   1      38.394  23.630  25.958  1.00  0.00     0.251 C 
ATOM     31  H   UNL A   1      38.444  21.793  25.171  1.00  0.00     0.163 HD
ATOM     32  O   UNL A   1      37.351  23.925  25.394  1.00  0.00    -0.269 OA
BRANCH  30  33
ATOM     33  C   UNL A   1      39.104  24.625  26.789  1.00  0.00     0.039 A 
ATOM     34  C   UNL A   1      39.913  25.583  26.174  1.00  0.00     0.014 A 
ATOM     35  C   UNL A   1      38.946  24.630  28.172  1.00  0.00     0.014 A 
ATOM     36  C   UNL A   1      40.459  26.616  26.939  1.00  0.00     0.010 A 
ATOM     37  C   UNL A   1      39.378  25.724  28.908  1.00  0.00     0.010 A 
ATOM     38  C   UNL A   1      40.135  26.734  28.300  1.00  0.00    -0.014 A 
BRANCH  38  39
ATOM     39  C   UNL A   1      40.548  27.906  29.115  1.00  0.00     0.031 A 
ATOM     40  C   UNL A   1      41.840  27.865  29.886  1.00  0.00     0.074 A 
ATOM     41  C   UNL A   1      39.706  28.950  29.251  1.00  0.00     0.049 A 
ATOM     42  N   UNL A   1      42.304  28.714  30.764  1.00  0.00    -0.248 NA
ATOM     43  C   UNL A   1      42.707  26.695  29.668  1.00  0.00     0.031 C 
ATOM     44  C   UNL A   1      38.401  29.080  28.597  1.00  0.00     0.029 A 
ATOM     45  N   UNL A   1      39.812  30.096  30.000  1.00  0.00    -0.354 N 
ATOM     46  C   UNL A   1      43.502  28.173  31.217  1.00  0.00     0.074 A 
ATOM     47  C   UNL A   1      43.659  26.891  30.566  1.00  0.00     0.031 C 
ATOM     48  C   UNL A   1      37.843  30.249  28.949  1.00  0.00     0.029 A 
ATOM     49  C   UNL A   1      38.720  30.926  29.898  1.00  0.00     0.049 A 
ATOM     50  H   UNL A   1      40.596  30.303  30.558  1.00  0.00     0.167 HD
ATOM     51  C   UNL A   1      44.402  28.708  32.074  1.00  0.00     0.037 A 
ATOM     52  C   UNL A   1      38.445  32.092  30.514  1.00  0.00     0.037 A 
ATOM     53  C   UNL A   1      44.244  29.996  32.697  1.00  0.00     0.049 A 
ATOM     54  C   UNL A   1      39.444  32.653  31.489  1.00  0.00     0.074 A 
ATOM     55  C   UNL A   1      45.126  30.663  33.527  1.00  0.00     0.029 A 
ATOM     56  N   UNL A   1      43.127  30.808  32.563  1.00  0.00    -0.354 N 
ATOM     57  N   UNL A   1      40.607  32.164  31.847  1.00  0.00    -0.248 NA
ATOM     58  C   UNL A   1      39.092  33.916  32.150  1.00  0.00     0.031 C 
ATOM     59  C   UNL A   1      44.519  31.852  33.941  1.00  0.00     0.029 A 
ATOM     60  C   UNL A   1      43.281  31.953  33.325  1.00  0.00     0.049 A 
ATOM     61  H   UNL A   1      42.341  30.601  32.007  1.00  0.00     0.167 HD
ATOM     62  C   UNL A   1      41.134  33.068  32.763  1.00  0.00     0.074 A 
ATOM     63  C   UNL A   1      40.170  34.142  32.889  1.00  0.00     0.031 C 
ATOM     64  C   UNL A   1      42.307  33.012  33.440  1.00  0.00     0.037 A 
BRANCH  51  65
ATOM     65  C   UNL A   1      45.635  27.902  32.385  1.00  0.00     0.058 A 
ATOM     66  C   UNL A   1      46.829  28.073  31.666  1.00  0.00     0.135 A 
ATOM     67  C   UNL A   1      45.630  26.960  33.426  1.00  0.00     0.135 A 
ATOM     68  F   UNL A   1      46.888  28.949  30.650  1.00  0.00    -0.206 F 
ATOM     69  C   UNL A   1      47.960  27.312  31.939  1.00  0.00     0.059 A 
ATOM     70  C   UNL A   1      46.761  26.210  33.740  1.00  0.00     0.059 A 
ATOM     71  F   UNL A   1      44.517  26.754  34.148  1.00  0.00    -0.206 F 
ATOM     72  C   UNL A   1      47.916  26.381  32.979  1.00  0.00     0.060 A 
BRANCH  72  73
ATOM     73  S   UNL A   1      49.391  25.397  33.314  1.00  0.00     0.124 S 
ATOM     74  O   UNL A   1      50.234  26.365  34.009  1.00  0.00    -0.237 OA
ATOM     75  O   UNL A   1      48.861  24.313  34.135  1.00  0.00    -0.237 OA
ATOM     76  O   UNL A   1      49.849  25.007  31.985  1.00  0.00    -0.744 OA
ENDBRANCH  72  73
ENDBRANCH  51  65
BRANCH  52  77
ATOM     77  C   UNL A   1      37.174  32.809  30.217  1.00  0.00     0.058 A 
ATOM     78  C   UNL A   1      37.102  33.735  29.168  1.00  0.00     0.135 A 
ATOM     79  C   UNL A   1      36.003  32.562  30.952  1.00  0.00     0.135 A 
ATOM     80  F   UNL A   1      38.196  34.012  28.441  1.00  0.00    -0.206 F 
ATOM     81  C   UNL A   1      35.919  34.400  28.861  1.00  0.00     0.059 A 
ATOM     82  C   UNL A   1      34.801  33.194  30.647  1.00  0.00     0.059 A 
ATOM     83  F   UNL A   1      36.014  31.672  31.957  1.00  0.00    -0.206 F 
ATOM     84  C   UNL A   1      34.771  34.116  29.603  1.00  0.00     0.060 A 
BRANCH  84  85
ATOM     85  S   UNL A   1      33.228  34.941  29.154  1.00  0.00     0.124 S 
ATOM     86  O   UNL A   1      33.713  36.222  28.657  1.00  0.00    -0.237 OA
ATOM     87  O   UNL A   1      32.678  34.033  28.153  1.00  0.00    -0.237 OA
ATOM     88  O   UNL A   1      32.495  34.990  30.416  1.00  0.00    -0.744 OA
ENDBRANCH  84  85
ENDBRANCH  52  77
BRANCH  64  89
ATOM     89  C   UNL A   1      42.624  34.143  34.378  1.00  0.00     0.058 A 
ATOM     90  C   UNL A   1      42.344  34.055  35.750  1.00  0.00     0.135 A 
ATOM     91  C   UNL A   1      43.293  35.287  33.915  1.00  0.00     0.135 A 
ATOM     92  F   UNL A   1      41.695  32.987  36.241  1.00  0.00    -0.206 F 
ATOM     93  C   UNL A   1      42.714  35.065  36.631  1.00  0.00     0.059 A 
ATOM     94  C   UNL A   1      43.698  36.297  34.783  1.00  0.00     0.059 A 
ATOM     95  F   UNL A   1      43.590  35.417  32.612  1.00  0.00    -0.206 F 
ATOM     96  C   UNL A   1      43.402  36.177  36.140  1.00  0.00     0.060 A 
BRANCH  96  97
ATOM     97  S   UNL A   1      43.940  37.442  37.309  1.00  0.00     0.124 S 
ATOM     98  O   UNL A   1      45.104  36.807  37.918  1.00  0.00    -0.237 OA
ATOM     99  O   UNL A   1      44.221  38.574  36.431  1.00  0.00    -0.237 OA
ATOM    100  O   UNL A   1      42.786  37.609  38.186  1.00  0.00    -0.744 OA
ENDBRANCH  96  97
ENDBRANCH  64  89
ENDBRANCH  38  39
ENDBRANCH  30  33
ENDBRANCH  28  29
ENDBRANCH  27  28
ENDBRANCH   1  27
TORSDOF 20
ENDMDL
MODEL 2
REMARK VINA RESULT:      -9.2      4.442     11.239
REMARK SMILES CCN(CC(C)(C)O)C(=O)Nc1ccc(C(=O)NCCCNC(=O)c2ccc(-c3c4nc(c(-c5c(F)cc(S(=O)(=O)[O-])cc5F)c5ccc([nH]5)c(-c5c(F)cc(S(=O)(=O)[O-])cc5F)c5nc(c(-c6c(F)cc(S(=O)(=O)[O-])cc6F)c6ccc3[nH]6)C=C5)C=C4)cc2)c(O)c1
REMARK SMILES IDX 19 1 18 2 16 3 17 4 15 6 12 7 13 8 93 9 14 10 91 11 11 12
REMARK SMILES IDX 9 13 10 14 3 16 2 17 1 18 4 19 5 20 6 21 7 22 8 23 92 25
REMARK SMILES IDX 20 27 21 28 22 29 23 30 24 32 25 33 26 34 90 35 27 36 89 37
REMARK SMILES IDX 28 38 29 39 30 40 83 41 31 42 88 43 82 44 84 45 32 46 87 47
REMARK SMILES IDX 81 48 80 49 33 51 67 52 46 53 66 54 47 55 50 56 65 57 85 58
REMARK SMILES IDX 48 59 49 60 64 62 86 63 51 64 34 65 35 66 44 67 36 68 37 69
REMARK SMILES IDX 43 70 45 71 38 72 39 73 40 74 41 75 42 76 68 77 69 78 78 79
REMARK SMILES IDX 70 80 71 81 77 82 79 83 72 84 73 85 74 86 75 87 76 88 52 89
REMARK SMILES IDX 53 90 62 91 54 92 55 93 61 94 63 95 56 96 57 97 58 98 59 99
REMARK SMILES IDX 60 100
REMARK H PARENT 18 5 11 15 8 24 92 26 22 31 84 50 50 61
REMARK Flexibility Score: inf
ROOT
ATOM      1  C   UNL A   1      31.708  29.526  25.138  1.00  0.00     0.118 C 
ENDROOT
BRANCH   1   2
ATOM      2  N   UNL A   1      31.298  29.107  23.809  1.00  0.00    -0.352 N 
ATOM      3  C   UNL A   1      30.934  27.877  23.349  1.00  0.00     0.255 C 
ATOM      4  O   UNL A   1      30.531  27.773  22.191  1.00  0.00    -0.269 OA
ATOM      5  H   UNL A   1      31.280  29.824  23.135  1.00  0.00     0.163 HD
BRANCH   3   6
ATOM      6  C   UNL A   1      31.156  26.662  24.159  1.00  0.00     0.081 A 
ATOM      7  C   UNL A   1      31.985  24.696  26.005  1.00  0.00     0.046 A 
ATOM      8  C   UNL A   1      32.835  25.283  25.108  1.00  0.00     0.027 A 
ATOM      9  C   UNL A   1      30.628  24.953  25.823  1.00  0.00     0.073 A 
ATOM     10  C   UNL A   1      32.481  26.296  24.243  1.00  0.00     0.020 A 
ATOM     11  C   UNL A   1      30.218  25.889  24.853  1.00  0.00     0.130 A 
BRANCH   7  12
ATOM     12  N   UNL A   1      32.457  23.792  26.961  1.00  0.00    -0.308 N 
ATOM     13  C   UNL A   1      33.127  22.613  27.015  1.00  0.00     0.321 C 
ATOM     14  O   UNL A   1      33.014  22.051  28.118  1.00  0.00    -0.248 OA
ATOM     15  H   UNL A   1      32.238  24.104  27.869  1.00  0.00     0.171 HD
BRANCH  13  16
ATOM     16  N   UNL A   1      33.946  22.060  26.049  1.00  0.00    -0.322 N 
BRANCH  16  17
ATOM     17  C   UNL A   1      33.280  21.809  24.755  1.00  0.00     0.118 C 
ATOM     18  C   UNL A   1      32.156  20.774  24.866  1.00  0.00     0.027 C 
ENDBRANCH  16  17
BRANCH  16  19
ATOM     19  C   UNL A   1      35.328  21.521  26.086  1.00  0.00     0.155 C 
BRANCH  19  20
ATOM     20  C   UNL A   1      36.475  22.437  25.455  1.00  0.00     0.077 C 
ATOM     21  C   UNL A   1      36.796  22.285  23.946  1.00  0.00     0.043 C 
ATOM     22  C   UNL A   1      36.157  23.917  25.770  1.00  0.00     0.043 C 
BRANCH  20  23
ATOM     23  O   UNL A   1      37.710  22.129  26.130  1.00  0.00    -0.389 OA
ATOM     24  H   UNL A   1      37.919  22.837  26.760  1.00  0.00     0.211 HD
ENDBRANCH  20  23
ENDBRANCH  19  20
ENDBRANCH  16  19
ENDBRANCH  13  16
ENDBRANCH   7  12
BRANCH  11  25
ATOM     25  O   UNL A   1      28.874  25.959  24.606  1.00  0.00    -0.507 OA
ATOM     26  H   UNL A   1      28.281  26.174  25.300  1.00  0.00     0.293 HD
ENDBRANCH  11  25
ENDBRANCH   3   6
ENDBRANCH   1   2
BRANCH   1  27
ATOM     27  C   UNL A   1      33.202  29.455  25.389  1.00  0.00     0.042 C 
BRANCH  27  28
ATOM     28  C   UNL A   1      33.587  29.245  26.843  1.00  0.00     0.118 C 
BRANCH  28  29
ATOM     29  N   UNL A   1      33.626  30.481  27.616  1.00  0.00    -0.352 N 
ATOM     30  C   UNL A   1      34.577  30.975  28.483  1.00  0.00     0.251 C 
ATOM     31  H   UNL A   1      32.840  31.062  27.498  1.00  0.00     0.163 HD
ATOM     32  O   UNL A   1      34.307  31.931  29.194  1.00  0.00    -0.269 OA
BRANCH  30  33
ATOM     33  C   UNL A   1      35.894  30.313  28.585  1.00  0.00     0.039 A 
ATOM     34  C   UNL A   1      36.734  30.279  27.469  1.00  0.00     0.014 A 
ATOM     35  C   UNL A   1      36.312  29.753  29.789  1.00  0.00     0.014 A 
ATOM     36  C   UNL A   1      38.038  29.793  27.603  1.00  0.00     0.010 A 
ATOM     37  C   UNL A   1      37.642  29.394  29.954  1.00  0.00     0.010 A 
ATOM     38  C   UNL A   1      38.523  29.415  28.865  1.00  0.00    -0.014 A 
BRANCH  38  39
ATOM     39  C   UNL A   1      39.947  29.057  29.092  1.00  0.00     0.031 A 
ATOM     40  C   UNL A   1      40.916  30.104  29.574  1.00  0.00     0.074 A 
ATOM     41  C   UNL A   1      40.385  27.828  28.754  1.00  0.00     0.049 A 
ATOM     42  N   UNL A   1      42.216  30.033  29.692  1.00  0.00    -0.248 NA
ATOM     43  C   UNL A   1      40.352  31.415  29.936  1.00  0.00     0.031 C 
ATOM     44  C   UNL A   1      39.551  26.745  28.225  1.00  0.00     0.029 A 
ATOM     45  N   UNL A   1      41.645  27.284  28.787  1.00  0.00    -0.354 N 
ATOM     46  C   UNL A   1      42.625  31.291  30.119  1.00  0.00     0.074 A 
ATOM     47  C   UNL A   1      41.444  32.124  30.175  1.00  0.00     0.031 C 
ATOM     48  C   UNL A   1      40.314  25.662  28.011  1.00  0.00     0.029 A 
ATOM     49  C   UNL A   1      41.699  25.987  28.331  1.00  0.00     0.049 A 
ATOM     50  H   UNL A   1      42.435  27.776  29.106  1.00  0.00     0.167 HD
ATOM     51  C   UNL A   1      43.867  31.706  30.461  1.00  0.00     0.037 A 
ATOM     52  C   UNL A   1      42.749  25.158  28.169  1.00  0.00     0.037 A 
ATOM     53  C   UNL A   1      45.030  30.860  30.423  1.00  0.00     0.049 A 
ATOM     54  C   UNL A   1      44.126  25.651  28.522  1.00  0.00     0.074 A 
ATOM     55  C   UNL A   1      46.323  31.159  30.812  1.00  0.00     0.029 A 
ATOM     56  N   UNL A   1      45.043  29.551  29.961  1.00  0.00    -0.354 N 
ATOM     57  N   UNL A   1      44.484  26.820  28.998  1.00  0.00    -0.248 NA
ATOM     58  C   UNL A   1      45.241  24.719  28.311  1.00  0.00     0.031 C 
ATOM     59  C   UNL A   1      47.129  30.051  30.533  1.00  0.00     0.029 A 
ATOM     60  C   UNL A   1      46.328  29.041  30.020  1.00  0.00     0.049 A 
ATOM     61  H   UNL A   1      44.254  29.059  29.639  1.00  0.00     0.167 HD
ATOM     62  C   UNL A   1      45.864  26.758  29.159  1.00  0.00     0.074 A 
ATOM     63  C   UNL A   1      46.272  25.431  28.746  1.00  0.00     0.031 C 
ATOM     64  C   UNL A   1      46.716  27.715  29.602  1.00  0.00     0.037 A 
BRANCH  51  65
ATOM     65  C   UNL A   1      44.027  33.135  30.906  1.00  0.00     0.058 A 
ATOM     66  C   UNL A   1      44.327  34.162  29.997  1.00  0.00     0.135 A 
ATOM     67  C   UNL A   1      43.861  33.487  32.256  1.00  0.00     0.135 A 
ATOM     68  F   UNL A   1      44.511  33.883  28.696  1.00  0.00    -0.206 F 
ATOM     69  C   UNL A   1      44.496  35.479  30.413  1.00  0.00     0.059 A 
ATOM     70  C   UNL A   1      43.993  34.804  32.690  1.00  0.00     0.059 A 
ATOM     71  F   UNL A   1      43.574  32.548  33.170  1.00  0.00    -0.206 F 
ATOM     72  C   UNL A   1      44.328  35.789  31.764  1.00  0.00     0.060 A 
BRANCH  72  73
ATOM     73  S   UNL A   1      44.560  37.501  32.286  1.00  0.00     0.124 S 
ATOM     74  O   UNL A   1      46.014  37.622  32.247  1.00  0.00    -0.237 OA
ATOM     75  O   UNL A   1      43.835  38.240  31.258  1.00  0.00    -0.237 OA
ATOM     76  O   UNL A   1      43.963  37.534  33.617  1.00  0.00    -0.744 OA
ENDBRANCH  72  73
ENDBRANCH  51  65
BRANCH  52  77
ATOM     77  C   UNL A   1      42.535  23.777  27.657  1.00  0.00     0.058 A 
ATOM     78  C   UNL A   1      42.507  23.519  26.280  1.00  0.00     0.135 A 
ATOM     79  C   UNL A   1      42.384  22.686  28.528  1.00  0.00     0.135 A 
ATOM     80  F   UNL A   1      42.638  24.529  25.405  1.00  0.00    -0.206 F 
ATOM     81  C   UNL A   1      42.329  22.233  25.781  1.00  0.00     0.059 A 
ATOM     82  C   UNL A   1      42.232  21.387  28.054  1.00  0.00     0.059 A 
ATOM     83  F   UNL A   1      42.419  22.876  29.857  1.00  0.00    -0.206 F 
ATOM     84  C   UNL A   1      42.200  21.171  26.678  1.00  0.00     0.060 A 
BRANCH  84  85
ATOM     85  S   UNL A   1      42.031  19.499  26.017  1.00  0.00     0.124 S 
ATOM     86  O   UNL A   1      42.481  18.690  27.143  1.00  0.00    -0.237 OA
ATOM     87  O   UNL A   1      40.605  19.435  25.712  1.00  0.00    -0.237 OA
ATOM     88  O   UNL A   1      42.913  19.508  24.853  1.00  0.00    -0.744 OA
ENDBRANCH  84  85
ENDBRANCH  52  77
BRANCH  64  89
ATOM     89  C   UNL A   1      48.176  27.368  29.674  1.00  0.00     0.058 A 
ATOM     90  C   UNL A   1      49.054  27.681  28.625  1.00  0.00     0.135 A 
ATOM     91  C   UNL A   1      48.718  26.799  30.837  1.00  0.00     0.135 A 
ATOM     92  F   UNL A   1      48.584  28.216  27.486  1.00  0.00    -0.206 F 
ATOM     93  C   UNL A   1      50.419  27.438  28.726  1.00  0.00     0.059 A 
ATOM     94  C   UNL A   1      50.085  26.573  30.971  1.00  0.00     0.059 A 
ATOM     95  F   UNL A   1      47.921  26.486  31.872  1.00  0.00    -0.206 F 
ATOM     96  C   UNL A   1      50.927  26.894  29.908  1.00  0.00     0.060 A 
BRANCH  96  97
ATOM     97  S   UNL A   1      52.710  26.654  30.049  1.00  0.00     0.124 S 
ATOM     98  O   UNL A   1      53.162  27.995  30.405  1.00  0.00    -0.237 OA
ATOM     99  O   UNL A   1      52.804  25.651  31.105  1.00  0.00    -0.237 OA
ATOM    100  O   UNL A   1      53.099  26.194  28.719  1.00  0.00    -0.744 OA
ENDBRANCH  96  97
ENDBRANCH  64  89
ENDBRANCH  38  39
ENDBRANCH  30  33
ENDBRANCH  28  29
ENDBRANCH  27  28
ENDBRANCH   1  27
TORSDOF 20
ENDMDL
MODEL 3
REMARK VINA RESULT:      -8.9      3.831      6.840
REMARK SMILES CCN(CC(C)(C)O)C(=O)Nc1ccc(C(=O)NCCCNC(=O)c2ccc(-c3c4nc(c(-c5c(F)cc(S(=O)(=O)[O-])cc5F)c5ccc([nH]5)c(-c5c(F)cc(S(=O)(=O)[O-])cc5F)c5nc(c(-c6c(F)cc(S(=O)(=O)[O-])cc6F)c6ccc3[nH]6)C=C5)C=C4)cc2)c(O)c1
REMARK SMILES IDX 19 1 18 2 16 3 17 4 15 6 12 7 13 8 93 9 14 10 91 11 11 12
REMARK SMILES IDX 9 13 10 14 3 16 2 17 1 18 4 19 5 20 6 21 7 22 8 23 92 25
REMARK SMILES IDX 20 27 21 28 22 29 23 30 24 32 25 33 26 34 90 35 27 36 89 37
REMARK SMILES IDX 28 38 29 39 30 40 83 41 31 42 88 43 82 44 84 45 32 46 87 47
REMARK SMILES IDX 81 48 80 49 33 51 67 52 46 53 66 54 47 55 50 56 65 57 85 58
REMARK SMILES IDX 48 59 49 60 64 62 86 63 51 64 34 65 35 66 44 67 36 68 37 69
REMARK SMILES IDX 43 70 45 71 38 72 39 73 40 74 41 75 42 76 68 77 69 78 78 79
REMARK SMILES IDX 70 80 71 81 77 82 79 83 72 84 73 85 74 86 75 87 76 88 52 89
REMARK SMILES IDX 53 90 62 91 54 92 55 93 61 94 63 95 56 96 57 97 58 98 59 99
REMARK SMILES IDX 60 100
REMARK H PARENT 18 5 11 15 8 24 92 26 22 31 84 50 50 61
REMARK Flexibility Score: inf
ROOT
ATOM      1  C   UNL A   1      38.038  22.817  26.051  1.00  0.00     0.118 C 
ENDROOT
BRANCH   1   2
ATOM      2  N   UNL A   1      37.778  22.694  24.628  1.00  0.00    -0.352 N 
ATOM      3  C   UNL A   1      36.640  22.941  23.918  1.00  0.00     0.255 C 
ATOM      4  O   UNL A   1      36.677  22.854  22.691  1.00  0.00    -0.269 OA
ATOM      5  H   UNL A   1      38.543  22.384  24.091  1.00  0.00     0.163 HD
BRANCH   3   6
ATOM      6  C   UNL A   1      35.348  23.158  24.597  1.00  0.00     0.081 A 
ATOM      7  C   UNL A   1      32.828  24.047  25.504  1.00  0.00     0.046 A 
ATOM      8  C   UNL A   1      33.957  24.816  25.567  1.00  0.00     0.027 A 
ATOM      9  C   UNL A   1      33.015  22.707  25.170  1.00  0.00     0.073 A 
ATOM     10  C   UNL A   1      35.186  24.443  25.069  1.00  0.00     0.020 A 
ATOM     11  C   UNL A   1      34.292  22.256  24.780  1.00  0.00     0.130 A 
BRANCH   7  12
ATOM     12  N   UNL A   1      31.583  24.560  25.883  1.00  0.00    -0.308 N 
ATOM     13  C   UNL A   1      30.957  25.759  25.989  1.00  0.00     0.321 C 
ATOM     14  O   UNL A   1      29.936  25.701  26.695  1.00  0.00    -0.248 OA
ATOM     15  H   UNL A   1      30.979  23.831  26.153  1.00  0.00     0.171 HD
BRANCH  13  16
ATOM     16  N   UNL A   1      31.280  26.941  25.351  1.00  0.00    -0.322 N 
BRANCH  16  17
ATOM     17  C   UNL A   1      32.128  27.852  26.146  1.00  0.00     0.118 C 
ATOM     18  C   UNL A   1      31.469  28.263  27.467  1.00  0.00     0.027 C 
ENDBRANCH  16  17
BRANCH  16  19
ATOM     19  C   UNL A   1      30.825  27.560  24.082  1.00  0.00     0.155 C 
BRANCH  19  20
ATOM     20  C   UNL A   1      31.627  27.162  22.759  1.00  0.00     0.077 C 
ATOM     21  C   UNL A   1      33.153  27.433  22.710  1.00  0.00     0.043 C 
ATOM     22  C   UNL A   1      31.355  25.674  22.443  1.00  0.00     0.043 C 
BRANCH  20  23
ATOM     23  O   UNL A   1      31.081  27.922  21.663  1.00  0.00    -0.389 OA
ATOM     24  H   UNL A   1      31.801  28.214  21.081  1.00  0.00     0.211 HD
ENDBRANCH  20  23
ENDBRANCH  19  20
ENDBRANCH  16  19
ENDBRANCH  13  16
ENDBRANCH   7  12
BRANCH  11  25
ATOM     25  O   UNL A   1      34.442  20.904  24.640  1.00  0.00    -0.507 OA
ATOM     26  H   UNL A   1      34.547  20.531  23.786  1.00  0.00     0.293 HD
ENDBRANCH  11  25
ENDBRANCH   3   6
ENDBRANCH   1   2
BRANCH   1  27
ATOM     27  C   UNL A   1      39.287  22.100  26.528  1.00  0.00     0.042 C 
BRANCH  27  28
ATOM     28  C   UNL A   1      40.366  23.014  27.081  1.00  0.00     0.118 C 
BRANCH  28  29
ATOM     29  N   UNL A   1      41.003  23.840  26.062  1.00  0.00    -0.352 N 
ATOM     30  C   UNL A   1      41.402  25.159  26.086  1.00  0.00     0.251 C 
ATOM     31  H   UNL A   1      41.177  23.376  25.211  1.00  0.00     0.163 HD
ATOM     32  O   UNL A   1      41.716  25.715  25.044  1.00  0.00    -0.269 OA
BRANCH  30  33
ATOM     33  C   UNL A   1      41.397  25.905  27.362  1.00  0.00     0.039 A 
ATOM     34  C   UNL A   1      42.563  26.550  27.785  1.00  0.00     0.014 A 
ATOM     35  C   UNL A   1      40.236  25.993  28.124  1.00  0.00     0.014 A 
ATOM     36  C   UNL A   1      42.519  27.382  28.907  1.00  0.00     0.010 A 
ATOM     37  C   UNL A   1      40.160  26.917  29.156  1.00  0.00     0.010 A 
ATOM     38  C   UNL A   1      41.300  27.628  29.557  1.00  0.00    -0.014 A 
BRANCH  38  39
ATOM     39  C   UNL A   1      41.168  28.634  30.642  1.00  0.00     0.031 A 
ATOM     40  C   UNL A   1      42.041  28.536  31.864  1.00  0.00     0.074 A 
ATOM     41  C   UNL A   1      40.188  29.557  30.577  1.00  0.00     0.049 A 
ATOM     42  N   UNL A   1      41.982  29.219  32.978  1.00  0.00    -0.248 NA
ATOM     43  C   UNL A   1      43.096  27.509  31.847  1.00  0.00     0.031 C 
ATOM     44  C   UNL A   1      39.244  29.716  29.468  1.00  0.00     0.029 A 
ATOM     45  N   UNL A   1      39.808  30.527  31.471  1.00  0.00    -0.354 N 
ATOM     46  C   UNL A   1      42.974  28.692  33.797  1.00  0.00     0.074 A 
ATOM     47  C   UNL A   1      43.574  27.590  33.079  1.00  0.00     0.031 C 
ATOM     48  C   UNL A   1      38.416  30.738  29.733  1.00  0.00     0.029 A 
ATOM     49  C   UNL A   1      38.729  31.271  31.055  1.00  0.00     0.049 A 
ATOM     50  H   UNL A   1      40.266  30.676  32.330  1.00  0.00     0.167 HD
ATOM     51  C   UNL A   1      43.367  29.107  35.024  1.00  0.00     0.037 A 
ATOM     52  C   UNL A   1      38.054  32.258  31.674  1.00  0.00     0.037 A 
ATOM     53  C   UNL A   1      42.776  30.222  35.717  1.00  0.00     0.049 A 
ATOM     54  C   UNL A   1      38.486  32.682  33.052  1.00  0.00     0.074 A 
ATOM     55  C   UNL A   1      43.143  30.769  36.933  1.00  0.00     0.029 A 
ATOM     56  N   UNL A   1      41.689  30.953  35.259  1.00  0.00    -0.354 N 
ATOM     57  N   UNL A   1      39.476  32.223  33.780  1.00  0.00    -0.248 NA
ATOM     58  C   UNL A   1      37.708  33.749  33.695  1.00  0.00     0.031 C 
ATOM     59  C   UNL A   1      42.242  31.795  37.237  1.00  0.00     0.029 A 
ATOM     60  C   UNL A   1      41.348  31.923  36.185  1.00  0.00     0.049 A 
ATOM     61  H   UNL A   1      41.229  30.804  34.402  1.00  0.00     0.167 HD
ATOM     62  C   UNL A   1      39.450  32.957  34.962  1.00  0.00     0.074 A 
ATOM     63  C   UNL A   1      38.357  33.901  34.842  1.00  0.00     0.031 C 
ATOM     64  C   UNL A   1      40.254  32.854  36.048  1.00  0.00     0.037 A 
BRANCH  51  65
ATOM     65  C   UNL A   1      44.488  28.355  35.689  1.00  0.00     0.058 A 
ATOM     66  C   UNL A   1      45.834  28.695  35.476  1.00  0.00     0.135 A 
ATOM     67  C   UNL A   1      44.214  27.292  36.566  1.00  0.00     0.135 A 
ATOM     68  F   UNL A   1      46.155  29.692  34.637  1.00  0.00    -0.206 F 
ATOM     69  C   UNL A   1      46.869  27.985  36.075  1.00  0.00     0.059 A 
ATOM     70  C   UNL A   1      45.234  26.588  37.203  1.00  0.00     0.059 A 
ATOM     71  F   UNL A   1      42.947  26.923  36.808  1.00  0.00    -0.206 F 
ATOM     72  C   UNL A   1      46.558  26.931  36.936  1.00  0.00     0.060 A 
BRANCH  72  73
ATOM     73  S   UNL A   1      47.915  26.015  37.697  1.00  0.00     0.124 S 
ATOM     74  O   UNL A   1      47.397  25.794  39.043  1.00  0.00    -0.237 OA
ATOM     75  O   UNL A   1      48.003  24.831  36.849  1.00  0.00    -0.237 OA
ATOM     76  O   UNL A   1      49.043  26.936  37.602  1.00  0.00    -0.744 OA
ENDBRANCH  72  73
ENDBRANCH  51  65
BRANCH  52  77
ATOM     77  C   UNL A   1      36.907  32.918  30.992  1.00  0.00     0.058 A 
ATOM     78  C   UNL A   1      35.588  32.638  31.374  1.00  0.00     0.135 A 
ATOM     79  C   UNL A   1      37.104  33.859  29.969  1.00  0.00     0.135 A 
ATOM     80  F   UNL A   1      35.346  31.739  32.341  1.00  0.00    -0.206 F 
ATOM     81  C   UNL A   1      34.503  33.259  30.764  1.00  0.00     0.059 A 
ATOM     82  C   UNL A   1      36.037  34.514  29.361  1.00  0.00     0.059 A 
ATOM     83  F   UNL A   1      38.348  34.176  29.575  1.00  0.00    -0.206 F 
ATOM     84  C   UNL A   1      34.739  34.203  29.762  1.00  0.00     0.060 A 
BRANCH  84  85
ATOM     85  S   UNL A   1      33.325  35.046  29.020  1.00  0.00     0.124 S 
ATOM     86  O   UNL A   1      33.958  36.216  28.425  1.00  0.00    -0.237 OA
ATOM     87  O   UNL A   1      32.828  34.042  28.086  1.00  0.00    -0.237 OA
ATOM     88  O   UNL A   1      32.456  35.312  30.164  1.00  0.00    -0.744 OA
ENDBRANCH  84  85
ENDBRANCH  52  77
BRANCH  64  89
ATOM     89  C   UNL A   1      39.993  33.787  37.197  1.00  0.00     0.058 A 
ATOM     90  C   UNL A   1      40.673  35.009  37.315  1.00  0.00     0.135 A 
ATOM     91  C   UNL A   1      38.993  33.498  38.139  1.00  0.00     0.135 A 
ATOM     92  F   UNL A   1      41.646  35.328  36.446  1.00  0.00    -0.206 F 
ATOM     93  C   UNL A   1      40.371  35.911  38.329  1.00  0.00     0.059 A 
ATOM     94  C   UNL A   1      38.655  34.397  39.146  1.00  0.00     0.059 A 
ATOM     95  F   UNL A   1      38.309  32.344  38.067  1.00  0.00    -0.206 F 
ATOM     96  C   UNL A   1      39.353  35.602  39.233  1.00  0.00     0.060 A 
BRANCH  96  97
ATOM     97  S   UNL A   1      38.926  36.816  40.498  1.00  0.00     0.124 S 
ATOM     98  O   UNL A   1      38.076  36.030  41.387  1.00  0.00    -0.237 OA
ATOM     99  O   UNL A   1      40.235  37.181  41.030  1.00  0.00    -0.237 OA
ATOM    100  O   UNL A   1      38.245  37.866  39.747  1.00  0.00    -0.744 OA
ENDBRANCH  96  97
ENDBRANCH  64  89
ENDBRANCH  38  39
ENDBRANCH  30  33
ENDBRANCH  28  29
ENDBRANCH  27  28
ENDBRANCH   1  27
TORSDOF 20
ENDMDL
