MODEL 1
REMARK VINA RESULT:     -12.8      0.000      0.000
REMARK SMILES O=C(NCCCNC(=O)c1c(-c2ccc(Cl)cc2)noc1CO[C@@H]1CCCCO1)c1ccc(-c2c3nc(c(-c4c(F)cc(S(=O)(=O)[O-])cc4F)c4ccc([nH]4)c(-c4c(F)cc(S(=O)(=O)[O-])cc4F)c4nc(c(-c5c(F)cc(S(=O)(=O)[O-])cc5F)c5ccc2[nH]5)C=C4)C=C3)cc1
REMARK SMILES IDX 5 1 4 2 3 3 1 4 2 5 30 7 31 8 95 9 32 10 94 11 33 12 34 13
REMARK SMILES IDX 35 14 88 15 36 16 93 17 87 18 89 19 37 20 92 21 86 22 85 23
REMARK SMILES IDX 38 25 72 26 51 27 71 28 52 29 55 30 70 31 90 32 53 33 54 34
REMARK SMILES IDX 69 36 91 37 56 38 39 39 40 40 49 41 41 42 42 43 48 44 50 45
REMARK SMILES IDX 43 46 44 47 45 48 46 49 47 50 73 51 74 52 83 53 75 54 76 55
REMARK SMILES IDX 82 56 84 57 77 58 78 59 79 60 80 61 81 62 57 63 58 64 67 65
REMARK SMILES IDX 59 66 60 67 66 68 68 69 61 70 62 71 63 72 64 73 65 74 6 75
REMARK SMILES IDX 7 76 8 77 9 79 10 80 11 81 21 82 19 83 20 84 12 85 13 86
REMARK SMILES IDX 18 87 14 88 17 89 15 90 16 91 22 92 23 93 24 94 25 95 29 96
REMARK SMILES IDX 26 97 28 98 27 99
REMARK H PARENT 3 6 89 24 55 35 7 78
REMARK Flexibility Score: inf
ROOT
ATOM      1  C   UNL A   1      33.424  28.850  27.031  1.00  0.00     0.042 C 
ENDROOT
BRANCH   1   2
ATOM      2  C   UNL A   1      34.861  29.315  27.263  1.00  0.00     0.118 C 
BRANCH   2   3
ATOM      3  N   UNL A   1      35.027  30.028  28.520  1.00  0.00    -0.352 N 
ATOM      4  O   UNL A   1      35.903  30.599  30.494  1.00  0.00    -0.269 OA
ATOM      5  C   UNL A   1      36.098  30.136  29.371  1.00  0.00     0.251 C 
ATOM      6  H   UNL A   1      34.225  30.519  28.813  1.00  0.00     0.163 HD
BRANCH   5   7
ATOM      7  C   UNL A   1      37.461  29.704  28.983  1.00  0.00     0.039 A 
ATOM      8  C   UNL A   1      37.910  29.768  27.663  1.00  0.00     0.014 A 
ATOM      9  C   UNL A   1      38.355  29.332  29.996  1.00  0.00     0.014 A 
ATOM     10  C   UNL A   1      39.207  29.364  27.343  1.00  0.00     0.010 A 
ATOM     11  C   UNL A   1      39.672  28.980  29.683  1.00  0.00     0.010 A 
ATOM     12  C   UNL A   1      40.104  28.974  28.350  1.00  0.00    -0.014 A 
BRANCH  12  13
ATOM     13  C   UNL A   1      41.498  28.605  27.997  1.00  0.00     0.031 A 
ATOM     14  C   UNL A   1      42.606  29.616  28.066  1.00  0.00     0.074 A 
ATOM     15  C   UNL A   1      41.776  27.339  27.631  1.00  0.00     0.049 A 
ATOM     16  N   UNL A   1      43.880  29.460  27.805  1.00  0.00    -0.248 NA
ATOM     17  C   UNL A   1      42.237  30.980  28.471  1.00  0.00     0.031 C 
ATOM     18  C   UNL A   1      40.790  26.264  27.497  1.00  0.00     0.029 A 
ATOM     19  N   UNL A   1      42.969  26.738  27.324  1.00  0.00    -0.354 N 
ATOM     20  C   UNL A   1      44.458  30.710  27.975  1.00  0.00     0.074 A 
ATOM     21  C   UNL A   1      43.397  31.615  28.372  1.00  0.00     0.031 C 
ATOM     22  C   UNL A   1      41.427  25.123  27.188  1.00  0.00     0.029 A 
ATOM     23  C   UNL A   1      42.858  25.392  27.075  1.00  0.00     0.049 A 
ATOM     24  H   UNL A   1      43.825  27.224  27.285  1.00  0.00     0.167 HD
ATOM     25  C   UNL A   1      45.751  31.077  27.808  1.00  0.00     0.037 A 
ATOM     26  C   UNL A   1      43.800  24.471  26.800  1.00  0.00     0.037 A 
ATOM     27  C   UNL A   1      46.820  30.184  27.452  1.00  0.00     0.049 A 
ATOM     28  C   UNL A   1      45.239  24.880  26.706  1.00  0.00     0.074 A 
ATOM     29  C   UNL A   1      48.163  30.471  27.268  1.00  0.00     0.029 A 
ATOM     30  N   UNL A   1      46.670  28.823  27.239  1.00  0.00    -0.354 N 
ATOM     31  N   UNL A   1      45.764  26.070  26.859  1.00  0.00    -0.248 NA
ATOM     32  C   UNL A   1      46.211  23.822  26.397  1.00  0.00     0.031 C 
ATOM     33  C   UNL A   1      48.825  29.278  26.946  1.00  0.00     0.029 A 
ATOM     34  C   UNL A   1      47.895  28.251  26.933  1.00  0.00     0.049 A 
ATOM     35  H   UNL A   1      45.818  28.332  27.297  1.00  0.00     0.167 HD
ATOM     36  C   UNL A   1      47.127  25.911  26.649  1.00  0.00     0.074 A 
ATOM     37  C   UNL A   1      47.350  24.505  26.380  1.00  0.00     0.031 C 
ATOM     38  C   UNL A   1      48.102  26.852  26.665  1.00  0.00     0.037 A 
BRANCH  25  39
ATOM     39  C   UNL A   1      46.065  32.530  27.998  1.00  0.00     0.058 A 
ATOM     40  C   UNL A   1      46.514  33.025  29.231  1.00  0.00     0.135 A 
ATOM     41  C   UNL A   1      45.880  33.440  26.945  1.00  0.00     0.135 A 
ATOM     42  F   UNL A   1      46.685  32.194  30.271  1.00  0.00    -0.206 F 
ATOM     43  C   UNL A   1      46.744  34.383  29.424  1.00  0.00     0.059 A 
ATOM     44  C   UNL A   1      46.111  34.799  27.114  1.00  0.00     0.059 A 
ATOM     45  F   UNL A   1      45.441  33.011  25.751  1.00  0.00    -0.206 F 
ATOM     46  C   UNL A   1      46.523  35.264  28.364  1.00  0.00     0.060 A 
BRANCH  46  47
ATOM     47  S   UNL A   1      46.766  37.036  28.615  1.00  0.00     0.124 S 
ATOM     48  O   UNL A   1      48.129  37.065  29.140  1.00  0.00    -0.237 OA
ATOM     49  O   UNL A   1      46.595  37.585  27.273  1.00  0.00    -0.237 OA
ATOM     50  O   UNL A   1      45.716  37.380  29.567  1.00  0.00    -0.744 OA
ENDBRANCH  46  47
ENDBRANCH  25  39
BRANCH  26  51
ATOM     51  C   UNL A   1      43.389  23.059  26.624  1.00  0.00     0.058 A 
ATOM     52  C   UNL A   1      43.431  22.460  25.358  1.00  0.00     0.135 A 
ATOM     53  C   UNL A   1      43.045  22.264  27.725  1.00  0.00     0.135 A 
ATOM     54  F   UNL A   1      43.759  23.190  24.281  1.00  0.00    -0.206 F 
ATOM     55  C   UNL A   1      43.162  21.107  25.188  1.00  0.00     0.059 A 
ATOM     56  C   UNL A   1      42.779  20.907  27.581  1.00  0.00     0.059 A 
ATOM     57  F   UNL A   1      43.006  22.799  28.955  1.00  0.00    -0.206 F 
ATOM     58  C   UNL A   1      42.845  20.336  26.308  1.00  0.00     0.060 A 
BRANCH  58  59
ATOM     59  S   UNL A   1      42.616  18.553  26.126  1.00  0.00     0.124 S 
ATOM     60  O   UNL A   1      42.957  18.077  27.460  1.00  0.00    -0.237 OA
ATOM     61  O   UNL A   1      41.209  18.444  25.751  1.00  0.00    -0.237 OA
ATOM     62  O   UNL A   1      43.562  18.217  25.066  1.00  0.00    -0.744 OA
ENDBRANCH  58  59
ENDBRANCH  26  51
BRANCH  38  63
ATOM     63  C   UNL A   1      49.496  26.391  26.370  1.00  0.00     0.058 A 
ATOM     64  C   UNL A   1      50.319  25.895  27.393  1.00  0.00     0.135 A 
ATOM     65  C   UNL A   1      50.002  26.413  25.062  1.00  0.00     0.135 A 
ATOM     66  F   UNL A   1      49.876  25.860  28.659  1.00  0.00    -0.206 F 
ATOM     67  C   UNL A   1      51.607  25.441  27.129  1.00  0.00     0.059 A 
ATOM     68  C   UNL A   1      51.286  25.960  24.776  1.00  0.00     0.059 A 
ATOM     69  F   UNL A   1      49.249  26.880  24.055  1.00  0.00    -0.206 F 
ATOM     70  C   UNL A   1      52.084  25.483  25.817  1.00  0.00     0.060 A 
BRANCH  70  71
ATOM     71  S   UNL A   1      53.746  24.870  25.462  1.00  0.00     0.124 S 
ATOM     72  O   UNL A   1      54.464  25.255  26.672  1.00  0.00    -0.237 OA
ATOM     73  O   UNL A   1      53.532  23.438  25.281  1.00  0.00    -0.237 OA
ATOM     74  O   UNL A   1      54.113  25.598  24.251  1.00  0.00    -0.744 OA
ENDBRANCH  70  71
ENDBRANCH  38  63
ENDBRANCH  12  13
ENDBRANCH   5   7
ENDBRANCH   2   3
ENDBRANCH   1   2
BRANCH   1  75
ATOM     75  C   UNL A   1      32.673  29.616  25.943  1.00  0.00     0.118 C 
BRANCH  75  76
ATOM     76  N   UNL A   1      33.385  29.633  24.673  1.00  0.00    -0.352 N 
ATOM     77  C   UNL A   1      33.267  28.828  23.568  1.00  0.00     0.257 C 
ATOM     78  H   UNL A   1      34.066  30.340  24.594  1.00  0.00     0.163 HD
ATOM     79  O   UNL A   1      34.135  28.903  22.704  1.00  0.00    -0.269 OA
BRANCH  77  80
ATOM     80  C   UNL A   1      32.144  27.933  23.455  1.00  0.00     0.113 A 
ATOM     81  C   UNL A   1      32.116  26.521  23.643  1.00  0.00     0.127 A 
ATOM     82  C   UNL A   1      30.894  28.222  22.951  1.00  0.00     0.175 A 
ATOM     83  N   UNL A   1      30.894  26.027  23.386  1.00  0.00    -0.079 NA
ATOM     84  O   UNL A   1      30.131  27.097  22.964  1.00  0.00    -0.357 OA
BRANCH  81  85
ATOM     85  C   UNL A   1      33.209  25.640  24.030  1.00  0.00     0.005 A 
ATOM     86  C   UNL A   1      33.752  24.724  23.121  1.00  0.00     0.012 A 
ATOM     87  C   UNL A   1      33.713  25.698  25.339  1.00  0.00     0.012 A 
ATOM     88  C   UNL A   1      34.787  23.872  23.519  1.00  0.00     0.021 A 
ATOM     89  C   UNL A   1      34.741  24.841  25.737  1.00  0.00     0.021 A 
ATOM     90  C   UNL A   1      35.274  23.932  24.825  1.00  0.00     0.041 A 
ATOM     91  Cl  UNL A   1      36.540  22.874  25.318  1.00  0.00    -0.084 Cl
ENDBRANCH  81  85
BRANCH  82  92
ATOM     92  C   UNL A   1      30.266  29.432  22.373  1.00  0.00     0.242 C 
BRANCH  92  93
ATOM     93  O   UNL A   1      29.635  30.210  23.391  1.00  0.00    -0.345 OA
BRANCH  93  94
ATOM     94  C   UNL A   1      28.227  30.367  23.213  1.00  0.00     0.250 C 
ATOM     95  C   UNL A   1      27.876  30.104  21.747  1.00  0.00     0.062 C 
ATOM     96  O   UNL A   1      27.773  31.664  23.596  1.00  0.00    -0.353 OA
ATOM     97  C   UNL A   1      28.429  31.196  20.836  1.00  0.00     0.008 C 
ATOM     98  C   UNL A   1      28.370  32.712  22.832  1.00  0.00     0.163 C 
ATOM     99  C   UNL A   1      28.029  32.572  21.355  1.00  0.00     0.029 C 
ENDBRANCH  93  94
ENDBRANCH  92  93
ENDBRANCH  82  92
ENDBRANCH  77  80
ENDBRANCH  75  76
ENDBRANCH   1  75
TORSDOF 17
ENDMDL
MODEL 2
REMARK VINA RESULT:     -12.7      6.879     12.058
REMARK SMILES O=C(NCCCNC(=O)c1c(-c2ccc(Cl)cc2)noc1CO[C@@H]1CCCCO1)c1ccc(-c2c3nc(c(-c4c(F)cc(S(=O)(=O)[O-])cc4F)c4ccc([nH]4)c(-c4c(F)cc(S(=O)(=O)[O-])cc4F)c4nc(c(-c5c(F)cc(S(=O)(=O)[O-])cc5F)c5ccc2[nH]5)C=C4)C=C3)cc1
REMARK SMILES IDX 5 1 4 2 3 3 1 4 2 5 30 7 31 8 95 9 32 10 94 11 33 12 34 13
REMARK SMILES IDX 35 14 88 15 36 16 93 17 87 18 89 19 37 20 92 21 86 22 85 23
REMARK SMILES IDX 38 25 72 26 51 27 71 28 52 29 55 30 70 31 90 32 53 33 54 34
REMARK SMILES IDX 69 36 91 37 56 38 39 39 40 40 49 41 41 42 42 43 48 44 50 45
REMARK SMILES IDX 43 46 44 47 45 48 46 49 47 50 73 51 74 52 83 53 75 54 76 55
REMARK SMILES IDX 82 56 84 57 77 58 78 59 79 60 80 61 81 62 57 63 58 64 67 65
REMARK SMILES IDX 59 66 60 67 66 68 68 69 61 70 62 71 63 72 64 73 65 74 6 75
REMARK SMILES IDX 7 76 8 77 9 79 10 80 11 81 21 82 19 83 20 84 12 85 13 86
REMARK SMILES IDX 18 87 14 88 17 89 15 90 16 91 22 92 23 93 24 94 25 95 29 96
REMARK SMILES IDX 26 97 28 98 27 99
REMARK H PARENT 3 6 89 24 55 35 7 78
REMARK Flexibility Score: inf
ROOT
ATOM      1  C   UNL A   1      37.262  23.318  25.179  1.00  0.00     0.042 C 
ENDROOT
BRANCH   1   2
ATOM      2  C   UNL A   1      38.067  24.006  26.280  1.00  0.00     0.118 C 
BRANCH   2   3
ATOM      3  N   UNL A   1      39.503  23.876  26.093  1.00  0.00    -0.352 N 
ATOM      4  O   UNL A   1      41.662  24.449  26.057  1.00  0.00    -0.269 OA
ATOM      5  C   UNL A   1      40.554  24.625  26.560  1.00  0.00     0.251 C 
ATOM      6  H   UNL A   1      39.770  23.113  25.531  1.00  0.00     0.163 HD
BRANCH   5   7
ATOM      7  C   UNL A   1      40.388  25.638  27.629  1.00  0.00     0.039 A 
ATOM      8  C   UNL A   1      39.448  25.489  28.650  1.00  0.00     0.014 A 
ATOM      9  C   UNL A   1      41.285  26.714  27.672  1.00  0.00     0.014 A 
ATOM     10  C   UNL A   1      39.334  26.460  29.647  1.00  0.00     0.010 A 
ATOM     11  C   UNL A   1      41.208  27.658  28.701  1.00  0.00     0.010 A 
ATOM     12  C   UNL A   1      40.217  27.550  29.687  1.00  0.00    -0.014 A 
BRANCH  12  13
ATOM     13  C   UNL A   1      40.120  28.541  30.788  1.00  0.00     0.031 A 
ATOM     14  C   UNL A   1      41.072  28.503  31.949  1.00  0.00     0.074 A 
ATOM     15  C   UNL A   1      39.177  29.501  30.734  1.00  0.00     0.049 A 
ATOM     16  N   UNL A   1      41.136  29.297  32.987  1.00  0.00    -0.248 NA
ATOM     17  C   UNL A   1      42.076  27.429  31.949  1.00  0.00     0.031 C 
ATOM     18  C   UNL A   1      38.172  29.638  29.677  1.00  0.00     0.029 A 
ATOM     19  N   UNL A   1      38.923  30.554  31.574  1.00  0.00    -0.354 N 
ATOM     20  C   UNL A   1      42.157  28.800  33.784  1.00  0.00     0.074 A 
ATOM     21  C   UNL A   1      42.694  27.638  33.104  1.00  0.00     0.031 C 
ATOM     22  C   UNL A   1      37.446  30.744  29.905  1.00  0.00     0.029 A 
ATOM     23  C   UNL A   1      37.915  31.376  31.134  1.00  0.00     0.049 A 
ATOM     24  H   UNL A   1      39.416  30.706  32.413  1.00  0.00     0.167 HD
ATOM     25  C   UNL A   1      42.604  29.260  34.977  1.00  0.00     0.037 A 
ATOM     26  C   UNL A   1      37.428  32.519  31.653  1.00  0.00     0.037 A 
ATOM     27  C   UNL A   1      42.107  30.432  35.645  1.00  0.00     0.049 A 
ATOM     28  C   UNL A   1      37.995  33.062  32.929  1.00  0.00     0.074 A 
ATOM     29  C   UNL A   1      42.507  30.975  36.855  1.00  0.00     0.029 A 
ATOM     30  N   UNL A   1      41.106  31.254  35.151  1.00  0.00    -0.354 N 
ATOM     31  N   UNL A   1      38.954  32.569  33.674  1.00  0.00    -0.248 NA
ATOM     32  C   UNL A   1      37.410  34.310  33.439  1.00  0.00     0.031 C 
ATOM     33  C   UNL A   1      41.747  32.129  37.090  1.00  0.00     0.029 A 
ATOM     34  C   UNL A   1      40.878  32.305  36.026  1.00  0.00     0.049 A 
ATOM     35  H   UNL A   1      40.627  31.113  34.302  1.00  0.00     0.167 HD
ATOM     36  C   UNL A   1      39.080  33.438  34.750  1.00  0.00     0.074 A 
ATOM     37  C   UNL A   1      38.113  34.499  34.549  1.00  0.00     0.031 C 
ATOM     38  C   UNL A   1      39.913  33.352  35.815  1.00  0.00     0.037 A 
BRANCH  25  39
ATOM     39  C   UNL A   1      43.686  28.463  35.640  1.00  0.00     0.058 A 
ATOM     40  C   UNL A   1      43.385  27.444  36.555  1.00  0.00     0.135 A 
ATOM     41  C   UNL A   1      45.037  28.746  35.381  1.00  0.00     0.135 A 
ATOM     42  F   UNL A   1      42.108  27.154  36.848  1.00  0.00    -0.206 F 
ATOM     43  C   UNL A   1      44.390  26.747  37.217  1.00  0.00     0.059 A 
ATOM     44  C   UNL A   1      46.056  28.056  36.026  1.00  0.00     0.059 A 
ATOM     45  F   UNL A   1      45.370  29.720  34.520  1.00  0.00    -0.206 F 
ATOM     46  C   UNL A   1      45.723  27.073  36.958  1.00  0.00     0.060 A 
BRANCH  46  47
ATOM     47  S   UNL A   1      47.038  26.213  37.848  1.00  0.00     0.124 S 
ATOM     48  O   UNL A   1      48.034  26.045  36.793  1.00  0.00    -0.237 OA
ATOM     49  O   UNL A   1      47.391  27.157  38.904  1.00  0.00    -0.237 OA
ATOM     50  O   UNL A   1      46.384  24.990  38.300  1.00  0.00    -0.744 OA
ENDBRANCH  46  47
ENDBRANCH  25  39
BRANCH  26  51
ATOM     51  C   UNL A   1      36.354  33.232  30.925  1.00  0.00     0.058 A 
ATOM     52  C   UNL A   1      35.036  33.210  31.403  1.00  0.00     0.135 A 
ATOM     53  C   UNL A   1      36.641  34.022  29.804  1.00  0.00     0.135 A 
ATOM     54  F   UNL A   1      34.725  32.468  32.477  1.00  0.00    -0.206 F 
ATOM     55  C   UNL A   1      34.035  33.966  30.804  1.00  0.00     0.059 A 
ATOM     56  C   UNL A   1      35.658  34.792  29.192  1.00  0.00     0.059 A 
ATOM     57  F   UNL A   1      37.893  34.078  29.324  1.00  0.00    -0.206 F 
ATOM     58  C   UNL A   1      34.359  34.761  29.702  1.00  0.00     0.060 A 
BRANCH  58  59
ATOM     59  S   UNL A   1      33.102  35.845  28.988  1.00  0.00     0.124 S 
ATOM     60  O   UNL A   1      32.414  36.320  30.181  1.00  0.00    -0.237 OA
ATOM     61  O   UNL A   1      33.899  36.839  28.274  1.00  0.00    -0.237 OA
ATOM     62  O   UNL A   1      32.345  34.936  28.133  1.00  0.00    -0.744 OA
ENDBRANCH  58  59
ENDBRANCH  26  51
BRANCH  38  63
ATOM     63  C   UNL A   1      39.805  34.428  36.850  1.00  0.00     0.058 A 
ATOM     64  C   UNL A   1      38.956  34.276  37.957  1.00  0.00     0.135 A 
ATOM     65  C   UNL A   1      40.571  35.599  36.758  1.00  0.00     0.135 A 
ATOM     66  F   UNL A   1      38.202  33.173  38.083  1.00  0.00    -0.206 F 
ATOM     67  C   UNL A   1      38.864  35.257  38.939  1.00  0.00     0.059 A 
ATOM     68  C   UNL A   1      40.497  36.591  37.731  1.00  0.00     0.059 A 
ATOM     69  F   UNL A   1      41.395  35.786  35.715  1.00  0.00    -0.206 F 
ATOM     70  C   UNL A   1      39.634  36.414  38.814  1.00  0.00     0.060 A 
BRANCH  70  71
ATOM     71  S   UNL A   1      39.540  37.681  40.099  1.00  0.00     0.124 S 
ATOM     72  O   UNL A   1      40.888  38.237  40.058  1.00  0.00    -0.237 OA
ATOM     73  O   UNL A   1      38.479  38.557  39.615  1.00  0.00    -0.237 OA
ATOM     74  O   UNL A   1      39.209  36.912  41.295  1.00  0.00    -0.744 OA
ENDBRANCH  70  71
ENDBRANCH  38  63
ENDBRANCH  12  13
ENDBRANCH   5   7
ENDBRANCH   2   3
ENDBRANCH   1   2
BRANCH   1  75
ATOM     75  C   UNL A   1      35.805  23.765  25.078  1.00  0.00     0.118 C 
BRANCH  75  76
ATOM     76  N   UNL A   1      35.324  23.811  23.705  1.00  0.00    -0.352 N 
ATOM     77  C   UNL A   1      34.094  23.512  23.176  1.00  0.00     0.257 C 
ATOM     78  H   UNL A   1      35.994  24.106  23.046  1.00  0.00     0.163 HD
ATOM     79  O   UNL A   1      33.998  23.416  21.956  1.00  0.00    -0.269 OA
BRANCH  77  80
ATOM     80  C   UNL A   1      32.967  23.322  24.052  1.00  0.00     0.113 A 
ATOM     81  C   UNL A   1      32.415  22.100  24.531  1.00  0.00     0.127 A 
ATOM     82  C   UNL A   1      32.061  24.276  24.465  1.00  0.00     0.175 A 
ATOM     83  N   UNL A   1      31.324  22.327  25.280  1.00  0.00    -0.079 NA
ATOM     84  O   UNL A   1      31.113  23.691  25.243  1.00  0.00    -0.357 OA
BRANCH  81  85
ATOM     85  C   UNL A   1      32.874  20.742  24.279  1.00  0.00     0.005 A 
ATOM     86  C   UNL A   1      32.143  19.874  23.458  1.00  0.00     0.012 A 
ATOM     87  C   UNL A   1      34.058  20.289  24.881  1.00  0.00     0.012 A 
ATOM     88  C   UNL A   1      32.590  18.566  23.245  1.00  0.00     0.021 A 
ATOM     89  C   UNL A   1      34.500  18.981  24.673  1.00  0.00     0.021 A 
ATOM     90  C   UNL A   1      33.764  18.125  23.857  1.00  0.00     0.041 A 
ATOM     91  Cl  UNL A   1      34.308  16.511  23.603  1.00  0.00    -0.084 Cl
ENDBRANCH  81  85
BRANCH  82  92
ATOM     92  C   UNL A   1      31.886  25.722  24.195  1.00  0.00     0.242 C 
BRANCH  92  93
ATOM     93  O   UNL A   1      32.119  26.488  25.378  1.00  0.00    -0.345 OA
BRANCH  93  94
ATOM     94  C   UNL A   1      31.853  27.883  25.227  1.00  0.00     0.250 C 
ATOM     95  C   UNL A   1      33.130  28.590  24.769  1.00  0.00     0.062 C 
ATOM     96  O   UNL A   1      31.374  28.477  26.433  1.00  0.00    -0.353 OA
ATOM     97  C   UNL A   1      34.190  28.592  25.866  1.00  0.00     0.008 C 
ATOM     98  C   UNL A   1      32.308  28.385  27.509  1.00  0.00     0.163 C 
ATOM     99  C   UNL A   1      33.602  29.113  27.171  1.00  0.00     0.029 C 
ENDBRANCH  93  94
ENDBRANCH  92  93
ENDBRANCH  82  92
ENDBRANCH  77  80
ENDBRANCH  75  76
ENDBRANCH   1  75
TORSDOF 17
ENDMDL
MODEL 3
REMARK VINA RESULT:     -12.7      7.131     12.743
REMARK SMILES O=C(NCCCNC(=O)c1c(-c2ccc(Cl)cc2)noc1CO[C@@H]1CCCCO1)c1ccc(-c2c3nc(c(-c4c(F)cc(S(=O)(=O)[O-])cc4F)c4ccc([nH]4)c(-c4c(F)cc(S(=O)(=O)[O-])cc4F)c4nc(c(-c5c(F)cc(S(=O)(=O)[O-])cc5F)c5ccc2[nH]5)C=C4)C=C3)cc1
REMARK SMILES IDX 5 1 4 2 3 3 1 4 2 5 30 7 31 8 95 9 32 10 94 11 33 12 34 13
REMARK SMILES IDX 35 14 88 15 36 16 93 17 87 18 89 19 37 20 92 21 86 22 85 23
REMARK SMILES IDX 38 25 72 26 51 27 71 28 52 29 55 30 70 31 90 32 53 33 54 34
REMARK SMILES IDX 69 36 91 37 56 38 39 39 40 40 49 41 41 42 42 43 48 44 50 45
REMARK SMILES IDX 43 46 44 47 45 48 46 49 47 50 73 51 74 52 83 53 75 54 76 55
REMARK SMILES IDX 82 56 84 57 77 58 78 59 79 60 80 61 81 62 57 63 58 64 67 65
REMARK SMILES IDX 59 66 60 67 66 68 68 69 61 70 62 71 63 72 64 73 65 74 6 75
REMARK SMILES IDX 7 76 8 77 9 79 10 80 11 81 21 82 19 83 20 84 12 85 13 86
REMARK SMILES IDX 18 87 14 88 17 89 15 90 16 91 22 92 23 93 24 94 25 95 29 96
REMARK SMILES IDX 26 97 28 98 27 99
REMARK H PARENT 3 6 89 24 55 35 7 78
REMARK Flexibility Score: inf
ROOT
ATOM      1  C   UNL A   1      36.879  23.373  25.185  1.00  0.00     0.042 C 
ENDROOT
BRANCH   1   2
ATOM      2  C   UNL A   1      37.706  24.231  26.141  1.00  0.00     0.118 C 
BRANCH   2   3
ATOM      3  N   UNL A   1      39.133  23.970  26.041  1.00  0.00    -0.352 N 
ATOM      4  O   UNL A   1      41.333  24.339  26.151  1.00  0.00    -0.269 OA
ATOM      5  C   UNL A   1      40.216  24.611  26.588  1.00  0.00     0.251 C 
ATOM      6  H   UNL A   1      39.363  23.194  25.480  1.00  0.00     0.163 HD
BRANCH   5   7
ATOM      7  C   UNL A   1      40.077  25.618  27.666  1.00  0.00     0.039 A 
ATOM      8  C   UNL A   1      39.228  25.422  28.756  1.00  0.00     0.014 A 
ATOM      9  C   UNL A   1      40.913  26.743  27.638  1.00  0.00     0.014 A 
ATOM     10  C   UNL A   1      39.137  26.391  29.758  1.00  0.00     0.010 A 
ATOM     11  C   UNL A   1      40.863  27.687  28.669  1.00  0.00     0.010 A 
ATOM     12  C   UNL A   1      39.959  27.529  29.728  1.00  0.00    -0.014 A 
BRANCH  12  13
ATOM     13  C   UNL A   1      39.891  28.519  30.833  1.00  0.00     0.031 A 
ATOM     14  C   UNL A   1      40.845  28.450  31.992  1.00  0.00     0.074 A 
ATOM     15  C   UNL A   1      38.974  29.504  30.784  1.00  0.00     0.049 A 
ATOM     16  N   UNL A   1      40.933  29.240  33.032  1.00  0.00    -0.248 NA
ATOM     17  C   UNL A   1      41.819  27.349  31.986  1.00  0.00     0.031 C 
ATOM     18  C   UNL A   1      37.972  29.672  29.730  1.00  0.00     0.029 A 
ATOM     19  N   UNL A   1      38.751  30.561  31.629  1.00  0.00    -0.354 N 
ATOM     20  C   UNL A   1      41.942  28.712  33.825  1.00  0.00     0.074 A 
ATOM     21  C   UNL A   1      42.446  27.538  33.140  1.00  0.00     0.031 C 
ATOM     22  C   UNL A   1      37.276  30.796  29.963  1.00  0.00     0.029 A 
ATOM     23  C   UNL A   1      37.765  31.412  31.194  1.00  0.00     0.049 A 
ATOM     24  H   UNL A   1      39.250  30.697  32.467  1.00  0.00     0.167 HD
ATOM     25  C   UNL A   1      42.404  29.156  35.018  1.00  0.00     0.037 A 
ATOM     26  C   UNL A   1      37.311  32.566  31.717  1.00  0.00     0.037 A 
ATOM     27  C   UNL A   1      41.941  30.339  35.691  1.00  0.00     0.049 A 
ATOM     28  C   UNL A   1      37.896  33.089  32.994  1.00  0.00     0.074 A 
ATOM     29  C   UNL A   1      42.359  30.867  36.901  1.00  0.00     0.029 A 
ATOM     30  N   UNL A   1      40.961  31.190  35.202  1.00  0.00    -0.354 N 
ATOM     31  N   UNL A   1      38.843  32.568  33.734  1.00  0.00    -0.248 NA
ATOM     32  C   UNL A   1      37.347  34.351  33.508  1.00  0.00     0.031 C 
ATOM     33  C   UNL A   1      41.632  32.040  37.142  1.00  0.00     0.029 A 
ATOM     34  C   UNL A   1      40.765  32.243  36.080  1.00  0.00     0.049 A 
ATOM     35  H   UNL A   1      40.477  31.065  34.354  1.00  0.00     0.167 HD
ATOM     36  C   UNL A   1      38.995  33.429  34.813  1.00  0.00     0.074 A 
ATOM     37  C   UNL A   1      38.057  34.517  34.618  1.00  0.00     0.031 C 
ATOM     38  C   UNL A   1      39.828  33.317  35.875  1.00  0.00     0.037 A 
BRANCH  25  39
ATOM     39  C   UNL A   1      43.465  28.328  35.675  1.00  0.00     0.058 A 
ATOM     40  C   UNL A   1      44.825  28.529  35.398  1.00  0.00     0.135 A 
ATOM     41  C   UNL A   1      43.115  27.299  36.565  1.00  0.00     0.135 A 
ATOM     42  F   UNL A   1      45.205  29.488  34.539  1.00  0.00    -0.206 F 
ATOM     43  C   UNL A   1      45.806  27.718  35.960  1.00  0.00     0.059 A 
ATOM     44  C   UNL A   1      44.078  26.482  37.143  1.00  0.00     0.059 A 
ATOM     45  F   UNL A   1      41.824  27.064  36.850  1.00  0.00    -0.206 F 
ATOM     46  C   UNL A   1      45.420  26.686  36.818  1.00  0.00     0.060 A 
BRANCH  46  47
ATOM     47  S   UNL A   1      46.677  25.592  37.513  1.00  0.00     0.124 S 
ATOM     48  O   UNL A   1      47.043  24.797  36.344  1.00  0.00    -0.237 OA
ATOM     49  O   UNL A   1      47.696  26.522  37.988  1.00  0.00    -0.237 OA
ATOM     50  O   UNL A   1      45.950  24.879  38.558  1.00  0.00    -0.744 OA
ENDBRANCH  46  47
ENDBRANCH  25  39
BRANCH  26  51
ATOM     51  C   UNL A   1      36.255  33.311  30.994  1.00  0.00     0.058 A 
ATOM     52  C   UNL A   1      34.938  33.321  31.474  1.00  0.00     0.135 A 
ATOM     53  C   UNL A   1      36.562  34.098  29.877  1.00  0.00     0.135 A 
ATOM     54  F   UNL A   1      34.609  32.581  32.544  1.00  0.00    -0.206 F 
ATOM     55  C   UNL A   1      33.957  34.105  30.879  1.00  0.00     0.059 A 
ATOM     56  C   UNL A   1      35.599  34.896  29.270  1.00  0.00     0.059 A 
ATOM     57  F   UNL A   1      37.814  34.124  29.395  1.00  0.00    -0.206 F 
ATOM     58  C   UNL A   1      34.300  34.897  29.781  1.00  0.00     0.060 A 
BRANCH  58  59
ATOM     59  S   UNL A   1      33.071  36.017  29.074  1.00  0.00     0.124 S 
ATOM     60  O   UNL A   1      32.457  36.573  30.273  1.00  0.00    -0.237 OA
ATOM     61  O   UNL A   1      33.887  36.940  28.290  1.00  0.00    -0.237 OA
ATOM     62  O   UNL A   1      32.234  35.117  28.287  1.00  0.00    -0.744 OA
ENDBRANCH  58  59
ENDBRANCH  26  51
BRANCH  38  63
ATOM     63  C   UNL A   1      39.753  34.393  36.914  1.00  0.00     0.058 A 
ATOM     64  C   UNL A   1      40.401  35.623  36.722  1.00  0.00     0.135 A 
ATOM     65  C   UNL A   1      39.008  34.212  38.088  1.00  0.00     0.135 A 
ATOM     66  F   UNL A   1      41.128  35.837  35.614  1.00  0.00    -0.206 F 
ATOM     67  C   UNL A   1      40.319  36.640  37.667  1.00  0.00     0.059 A 
ATOM     68  C   UNL A   1      38.910  35.217  39.045  1.00  0.00     0.059 A 
ATOM     69  F   UNL A   1      38.374  33.051  38.313  1.00  0.00    -0.206 F 
ATOM     70  C   UNL A   1      39.576  36.425  38.829  1.00  0.00     0.060 A 
BRANCH  70  71
ATOM     71  S   UNL A   1      39.443  37.750  40.050  1.00  0.00     0.124 S 
ATOM     72  O   UNL A   1      38.384  38.572  39.474  1.00  0.00    -0.237 OA
ATOM     73  O   UNL A   1      39.094  37.033  41.272  1.00  0.00    -0.237 OA
ATOM     74  O   UNL A   1      40.777  38.342  40.040  1.00  0.00    -0.744 OA
ENDBRANCH  70  71
ENDBRANCH  38  63
ENDBRANCH  12  13
ENDBRANCH   5   7
ENDBRANCH   2   3
ENDBRANCH   1   2
BRANCH   1  75
ATOM     75  C   UNL A   1      36.493  22.000  25.730  1.00  0.00     0.118 C 
BRANCH  75  76
ATOM     76  N   UNL A   1      35.557  22.078  26.842  1.00  0.00    -0.352 N 
ATOM     77  C   UNL A   1      34.229  22.420  26.874  1.00  0.00     0.257 C 
ATOM     78  H   UNL A   1      35.942  21.848  27.719  1.00  0.00     0.163 HD
ATOM     79  O   UNL A   1      33.712  22.627  27.968  1.00  0.00    -0.269 OA
BRANCH  77  80
ATOM     80  C   UNL A   1      33.489  22.525  25.643  1.00  0.00     0.113 A 
ATOM     81  C   UNL A   1      32.873  23.677  25.076  1.00  0.00     0.127 A 
ATOM     82  C   UNL A   1      33.054  21.491  24.841  1.00  0.00     0.175 A 
ATOM     83  N   UNL A   1      32.220  23.364  23.945  1.00  0.00    -0.079 NA
ATOM     84  O   UNL A   1      32.345  21.998  23.798  1.00  0.00    -0.357 OA
BRANCH  81  85
ATOM     85  C   UNL A   1      32.868  25.041  25.585  1.00  0.00     0.005 A 
ATOM     86  C   UNL A   1      34.016  25.840  25.516  1.00  0.00     0.012 A 
ATOM     87  C   UNL A   1      31.701  25.556  26.170  1.00  0.00     0.012 A 
ATOM     88  C   UNL A   1      33.997  27.140  26.031  1.00  0.00     0.021 A 
ATOM     89  C   UNL A   1      31.686  26.852  26.690  1.00  0.00     0.021 A 
ATOM     90  C   UNL A   1      32.834  27.638  26.618  1.00  0.00     0.041 A 
ATOM     91  Cl  UNL A   1      32.814  29.235  27.261  1.00  0.00    -0.084 Cl
ENDBRANCH  81  85
BRANCH  82  92
ATOM     92  C   UNL A   1      33.146  20.015  24.915  1.00  0.00     0.242 C 
BRANCH  92  93
ATOM     93  O   UNL A   1      33.220  19.446  23.607  1.00  0.00    -0.345 OA
BRANCH  93  94
ATOM     94  C   UNL A   1      32.372  18.314  23.417  1.00  0.00     0.250 C 
ATOM     95  C   UNL A   1      32.136  17.632  24.767  1.00  0.00     0.062 C 
ATOM     96  O   UNL A   1      32.916  17.377  22.488  1.00  0.00    -0.353 OA
ATOM     97  C   UNL A   1      33.412  16.981  25.293  1.00  0.00     0.008 C 
ATOM     98  C   UNL A   1      34.173  16.843  22.908  1.00  0.00     0.163 C 
ATOM     99  C   UNL A   1      34.032  16.090  24.224  1.00  0.00     0.029 C 
ENDBRANCH  93  94
ENDBRANCH  92  93
ENDBRANCH  82  92
ENDBRANCH  77  80
ENDBRANCH  75  76
ENDBRANCH   1  75
TORSDOF 17
ENDMDL
